MODEL 1
REMARK VINA RESULT:    -4.378      0.000      0.000
REMARK INTER + INTRA:          -4.727
REMARK INTER:                  -4.634
REMARK INTRA:                  -0.093
REMARK UNBOUND:                -0.093
REMARK SMILES C=C(C)[C@@H]1CC=C(C)C(=O)C1
REMARK SMILES IDX 8 1 7 2 6 3 5 4 4 5 11 6 9 7 10 8 2 9 1 10 3 11
REMARK H PARENT
REMARK Flexibility Score: inf
ROOT
ATOM      1  C   UNL     1    -117.392-100.336   0.321  1.00  0.00     0.048 C 
ATOM      2  C   UNL     1    -118.729-100.379   1.010  1.00  0.00    -0.012 C 
ATOM      3  C   UNL     1    -119.383 -99.238   1.286  1.00  0.00    -0.019 C 
ATOM      4  C   UNL     1    -120.757 -99.233   1.901  1.00  0.00     0.036 C 
ATOM      5  C   UNL     1    -120.965-100.460   2.809  1.00  0.00     0.025 C 
ATOM      6  C   UNL     1    -120.679-101.758   2.029  1.00  0.00     0.089 C 
ATOM      7  C   UNL     1    -119.334-101.688   1.359  1.00  0.00     0.158 C 
ATOM      8  O   UNL     1    -118.743-102.759   1.055  1.00  0.00    -0.295 OA
ENDROOT
BRANCH   5   9
ATOM      9  C   UNL     1    -122.352-100.472   3.431  1.00  0.00    -0.077 C 
ATOM     10  C   UNL     1    -123.463-100.509   2.673  1.00  0.00     0.008 C 
ATOM     11  C   UNL     1    -122.469-100.438   4.933  1.00  0.00     0.039 C 
ENDBRANCH   5   9
TORSDOF 1
ENDMDL
MODEL 2
REMARK VINA RESULT:    -4.107      2.052      2.867
REMARK INTER + INTRA:          -4.441
REMARK INTER:                  -4.343
REMARK INTRA:                  -0.097
REMARK UNBOUND:                -0.093
REMARK SMILES C=C(C)[C@@H]1CC=C(C)C(=O)C1
REMARK SMILES IDX 8 1 7 2 6 3 5 4 4 5 11 6 9 7 10 8 2 9 1 10 3 11
REMARK H PARENT
REMARK Flexibility Score: inf
ROOT
ATOM      1  C   UNL     1    -121.525-102.322  -0.267  1.00  0.00     0.048 C 
ATOM      2  C   UNL     1    -121.953-101.694   1.031  1.00  0.00    -0.012 C 
ATOM      3  C   UNL     1    -123.240-101.361   1.230  1.00  0.00    -0.019 C 
ATOM      4  C   UNL     1    -123.729-100.805   2.541  1.00  0.00     0.036 C 
ATOM      5  C   UNL     1    -122.624 -99.999   3.250  1.00  0.00     0.025 C 
ATOM      6  C   UNL     1    -121.357-100.859   3.417  1.00  0.00     0.089 C 
ATOM      7  C   UNL     1    -120.950-101.466   2.102  1.00  0.00     0.158 C 
ATOM      8  O   UNL     1    -119.754-101.823   1.934  1.00  0.00    -0.295 OA
ENDROOT
BRANCH   5   9
ATOM      9  C   UNL     1    -123.102 -99.437   4.579  1.00  0.00    -0.077 C 
ATOM     10  C   UNL     1    -124.361 -99.629   5.012  1.00  0.00     0.008 C 
ATOM     11  C   UNL     1    -122.131 -98.646   5.417  1.00  0.00     0.039 C 
ENDBRANCH   5   9
TORSDOF 1
ENDMDL
MODEL 3
REMARK VINA RESULT:    -4.101      2.588      5.264
REMARK INTER + INTRA:          -4.434
REMARK INTER:                  -4.342
REMARK INTRA:                  -0.092
REMARK UNBOUND:                -0.093
REMARK SMILES C=C(C)[C@@H]1CC=C(C)C(=O)C1
REMARK SMILES IDX 8 1 7 2 6 3 5 4 4 5 11 6 9 7 10 8 2 9 1 10 3 11
REMARK H PARENT
REMARK Flexibility Score: inf
ROOT
ATOM      1  C   UNL     1    -125.522 -99.742   5.360  1.00  0.00     0.048 C 
ATOM      2  C   UNL     1    -124.293-100.014   4.537  1.00  0.00    -0.012 C 
ATOM      3  C   UNL     1    -123.097-100.156   5.134  1.00  0.00    -0.019 C 
ATOM      4  C   UNL     1    -121.854-100.507   4.361  1.00  0.00     0.036 C 
ATOM      5  C   UNL     1    -121.918 -99.957   2.924  1.00  0.00     0.025 C 
ATOM      6  C   UNL     1    -123.200-100.442   2.221  1.00  0.00     0.089 C 
ATOM      7  C   UNL     1    -124.410-100.150   3.063  1.00  0.00     0.158 C 
ATOM      8  O   UNL     1    -125.539-100.065   2.509  1.00  0.00    -0.295 OA
ENDROOT
BRANCH   5   9
ATOM      9  C   UNL     1    -120.671-100.310   2.129  1.00  0.00    -0.077 C 
ATOM     10  C   UNL     1    -119.877 -99.359   1.605  1.00  0.00     0.008 C 
ATOM     11  C   UNL     1    -120.333-101.765   1.929  1.00  0.00     0.039 C 
ENDBRANCH   5   9
TORSDOF 1
ENDMDL
MODEL 4
REMARK VINA RESULT:    -4.089      2.495      5.046
REMARK INTER + INTRA:          -4.422
REMARK INTER:                  -4.327
REMARK INTRA:                  -0.095
REMARK UNBOUND:                -0.093
REMARK SMILES C=C(C)[C@@H]1CC=C(C)C(=O)C1
REMARK SMILES IDX 8 1 7 2 6 3 5 4 4 5 11 6 9 7 10 8 2 9 1 10 3 11
REMARK H PARENT
REMARK Flexibility Score: inf
ROOT
ATOM      1  C   UNL     1    -125.012 -99.413   4.998  1.00  0.00     0.048 C 
ATOM      2  C   UNL     1    -123.867 -99.734   4.078  1.00  0.00    -0.012 C 
ATOM      3  C   UNL     1    -124.058-100.536   3.016  1.00  0.00    -0.019 C 
ATOM      4  C   UNL     1    -122.963-100.821   2.023  1.00  0.00     0.036 C 
ATOM      5  C   UNL     1    -121.577-100.776   2.694  1.00  0.00     0.025 C 
ATOM      6  C   UNL     1    -121.375 -99.429   3.415  1.00  0.00     0.089 C 
ATOM      7  C   UNL     1    -122.530 -99.140   4.333  1.00  0.00     0.158 C 
ATOM      8  O   UNL     1    -122.364 -98.350   5.300  1.00  0.00    -0.295 OA
ENDROOT
BRANCH   5   9
ATOM      9  C   UNL     1    -120.460-101.055   1.701  1.00  0.00    -0.077 C 
ATOM     10  C   UNL     1    -120.239-102.292   1.221  1.00  0.00     0.008 C 
ATOM     11  C   UNL     1    -119.589 -99.909   1.256  1.00  0.00     0.039 C 
ENDBRANCH   5   9
TORSDOF 1
ENDMDL
MODEL 5
REMARK VINA RESULT:    -3.969      2.183      4.861
REMARK INTER + INTRA:          -4.294
REMARK INTER:                  -4.198
REMARK INTRA:                  -0.096
REMARK UNBOUND:                -0.093
REMARK SMILES C=C(C)[C@@H]1CC=C(C)C(=O)C1
REMARK SMILES IDX 8 1 7 2 6 3 5 4 4 5 11 6 9 7 10 8 2 9 1 10 3 11
REMARK H PARENT
REMARK Flexibility Score: inf
ROOT
ATOM      1  C   UNL     1    -120.693-101.882   1.147  1.00  0.00     0.048 C 
ATOM      2  C   UNL     1    -119.458-101.024   1.158  1.00  0.00    -0.012 C 
ATOM      3  C   UNL     1    -119.566 -99.684   1.192  1.00  0.00    -0.019 C 
ATOM      4  C   UNL     1    -118.361 -98.787   1.285  1.00  0.00     0.036 C 
ATOM      5  C   UNL     1    -117.137 -99.427   0.603  1.00  0.00     0.025 C 
ATOM      6  C   UNL     1    -116.869-100.827   1.187  1.00  0.00     0.089 C 
ATOM      7  C   UNL     1    -118.118-101.663   1.155  1.00  0.00     0.158 C 
ATOM      8  O   UNL     1    -118.018-102.919   1.173  1.00  0.00    -0.295 OA
ENDROOT
BRANCH   5   9
ATOM      9  C   UNL     1    -115.910 -98.534   0.695  1.00  0.00    -0.077 C 
ATOM     10  C   UNL     1    -114.941 -98.573  -0.238  1.00  0.00     0.008 C 
ATOM     11  C   UNL     1    -115.790 -97.593   1.865  1.00  0.00     0.039 C 
ENDBRANCH   5   9
TORSDOF 1
ENDMDL
MODEL 6
REMARK VINA RESULT:    -3.937      2.496      3.269
REMARK INTER + INTRA:          -4.261
REMARK INTER:                  -4.159
REMARK INTRA:                  -0.102
REMARK UNBOUND:                -0.093
REMARK SMILES C=C(C)[C@@H]1CC=C(C)C(=O)C1
REMARK SMILES IDX 8 1 7 2 6 3 5 4 4 5 11 6 9 7 10 8 2 9 1 10 3 11
REMARK H PARENT
REMARK Flexibility Score: inf
ROOT
ATOM      1  C   UNL     1    -121.363-102.518   0.036  1.00  0.00     0.048 C 
ATOM      2  C   UNL     1    -121.850-101.649   1.163  1.00  0.00    -0.012 C 
ATOM      3  C   UNL     1    -120.972-101.099   2.020  1.00  0.00    -0.019 C 
ATOM      4  C   UNL     1    -121.405-100.159   3.114  1.00  0.00     0.036 C 
ATOM      5  C   UNL     1    -122.828-100.490   3.602  1.00  0.00     0.025 C 
ATOM      6  C   UNL     1    -123.812-100.499   2.416  1.00  0.00     0.089 C 
ATOM      7  C   UNL     1    -123.302-101.382   1.310  1.00  0.00     0.158 C 
ATOM      8  O   UNL     1    -124.120-101.857   0.478  1.00  0.00    -0.295 OA
ENDROOT
BRANCH   5   9
ATOM      9  C   UNL     1    -123.281 -99.544   4.702  1.00  0.00    -0.077 C 
ATOM     10  C   UNL     1    -124.572 -99.462   5.071  1.00  0.00     0.008 C 
ATOM     11  C   UNL     1    -122.249 -98.682   5.381  1.00  0.00     0.039 C 
ENDBRANCH   5   9
TORSDOF 1
ENDMDL
MODEL 7
REMARK VINA RESULT:    -3.844      1.469      2.100
REMARK INTER + INTRA:          -4.162
REMARK INTER:                  -4.071
REMARK INTRA:                  -0.091
REMARK UNBOUND:                -0.093
REMARK SMILES C=C(C)[C@@H]1CC=C(C)C(=O)C1
REMARK SMILES IDX 8 1 7 2 6 3 5 4 4 5 11 6 9 7 10 8 2 9 1 10 3 11
REMARK H PARENT
REMARK Flexibility Score: inf
ROOT
ATOM      1  C   UNL     1    -117.754-100.480  -0.052  1.00  0.00     0.048 C 
ATOM      2  C   UNL     1    -118.928-100.459   0.889  1.00  0.00    -0.012 C 
ATOM      3  C   UNL     1    -119.469-101.612   1.320  1.00  0.00    -0.019 C 
ATOM      4  C   UNL     1    -120.592-101.642   2.323  1.00  0.00     0.036 C 
ATOM      5  C   UNL     1    -121.482-100.391   2.199  1.00  0.00     0.025 C 
ATOM      6  C   UNL     1    -120.629 -99.113   2.315  1.00  0.00     0.089 C 
ATOM      7  C   UNL     1    -119.470 -99.160   1.359  1.00  0.00     0.158 C 
ATOM      8  O   UNL     1    -118.931 -98.081   0.993  1.00  0.00    -0.295 OA
ENDROOT
BRANCH   5   9
ATOM      9  C   UNL     1    -122.616-100.405   3.212  1.00  0.00    -0.077 C 
ATOM     10  C   UNL     1    -123.902-100.498   2.826  1.00  0.00     0.008 C 
ATOM     11  C   UNL     1    -122.276-100.307   4.676  1.00  0.00     0.039 C 
ENDBRANCH   5   9
TORSDOF 1
ENDMDL
MODEL 8
REMARK VINA RESULT:    -3.840      2.640      5.111
REMARK INTER + INTRA:          -4.157
REMARK INTER:                  -4.061
REMARK INTRA:                  -0.096
REMARK UNBOUND:                -0.093
REMARK SMILES C=C(C)[C@@H]1CC=C(C)C(=O)C1
REMARK SMILES IDX 8 1 7 2 6 3 5 4 4 5 11 6 9 7 10 8 2 9 1 10 3 11
REMARK H PARENT
REMARK Flexibility Score: inf
ROOT
ATOM      1  C   UNL     1    -120.167-102.362   1.261  1.00  0.00     0.048 C 
ATOM      2  C   UNL     1    -119.090-101.319   1.139  1.00  0.00    -0.012 C 
ATOM      3  C   UNL     1    -117.831-101.680   0.836  1.00  0.00    -0.019 C 
ATOM      4  C   UNL     1    -116.738-100.666   0.625  1.00  0.00     0.036 C 
ATOM      5  C   UNL     1    -116.976 -99.405   1.478  1.00  0.00     0.025 C 
ATOM      6  C   UNL     1    -118.375 -98.824   1.194  1.00  0.00     0.089 C 
ATOM      7  C   UNL     1    -119.429 -99.887   1.331  1.00  0.00     0.158 C 
ATOM      8  O   UNL     1    -120.619 -99.545   1.567  1.00  0.00    -0.295 OA
ENDROOT
BRANCH   5   9
ATOM      9  C   UNL     1    -115.883 -98.369   1.269  1.00  0.00    -0.077 C 
ATOM     10  C   UNL     1    -115.061 -98.419   0.206  1.00  0.00     0.008 C 
ATOM     11  C   UNL     1    -115.729 -97.270   2.288  1.00  0.00     0.039 C 
ENDBRANCH   5   9
TORSDOF 1
ENDMDL
MODEL 9
REMARK VINA RESULT:    -3.794      1.812      5.006
REMARK INTER + INTRA:          -4.109
REMARK INTER:                  -4.012
REMARK INTRA:                  -0.097
REMARK UNBOUND:                -0.093
REMARK SMILES C=C(C)[C@@H]1CC=C(C)C(=O)C1
REMARK SMILES IDX 8 1 7 2 6 3 5 4 4 5 11 6 9 7 10 8 2 9 1 10 3 11
REMARK H PARENT
REMARK Flexibility Score: inf
ROOT
ATOM      1  C   UNL     1    -121.944-100.621   2.861  1.00  0.00     0.048 C 
ATOM      2  C   UNL     1    -120.663-100.614   2.072  1.00  0.00    -0.012 C 
ATOM      3  C   UNL     1    -120.062-101.773   1.751  1.00  0.00    -0.019 C 
ATOM      4  C   UNL     1    -118.823-101.820   0.896  1.00  0.00     0.036 C 
ATOM      5  C   UNL     1    -117.968-100.553   1.085  1.00  0.00     0.025 C 
ATOM      6  C   UNL     1    -118.813 -99.292   0.821  1.00  0.00     0.089 C 
ATOM      7  C   UNL     1    -120.081 -99.324   1.628  1.00  0.00     0.158 C 
ATOM      8  O   UNL     1    -120.672 -98.241   1.887  1.00  0.00    -0.295 OA
ENDROOT
BRANCH   5   9
ATOM      9  C   UNL     1    -116.717-100.583   0.222  1.00  0.00    -0.077 C 
ATOM     10  C   UNL     1    -116.421-101.645  -0.549  1.00  0.00     0.008 C 
ATOM     11  C   UNL     1    -115.797 -99.391   0.245  1.00  0.00     0.039 C 
ENDBRANCH   5   9
TORSDOF 1
ENDMDL
