MODEL 1
REMARK VINA RESULT:    -5.934      0.000      0.000
REMARK INTER + INTRA:         -11.769
REMARK INTER:                 -10.790
REMARK INTRA:                  -0.979
REMARK UNBOUND:                -0.979
REMARK SMILES CCCCCCCCCCCCCCCC(=O)[O-]
REMARK SMILES IDX 9 1 10 2 11 3 12 4 13 5 14 6 15 7 16 8 17 9 18 10 8 11 7 12
REMARK SMILES IDX 6 13 5 14 4 15 3 16 2 17 1 18
REMARK H PARENT
REMARK Flexibility Score: inf
ROOT
ATOM      1  C   UNL     1     -22.503 -31.748  23.725  1.00  0.00     0.000 C 
ENDROOT
BRANCH   1   2
ATOM      2  C   UNL     1     -23.308 -30.528  24.196  1.00  0.00     0.000 C 
BRANCH   2   3
ATOM      3  C   UNL     1     -24.543 -30.963  25.001  1.00  0.00     0.000 C 
BRANCH   3   4
ATOM      4  C   UNL     1     -24.413 -32.388  25.562  1.00  0.00     0.000 C 
BRANCH   4   5
ATOM      5  C   UNL     1     -25.774 -33.058  25.801  1.00  0.00     0.000 C 
BRANCH   5   6
ATOM      6  C   UNL     1     -26.877 -32.366  24.987  1.00  0.00     0.006 C 
BRANCH   6   7
ATOM      7  C   UNL     1     -27.458 -33.280  23.900  1.00  0.00     0.053 C 
BRANCH   7   8
ATOM      8  C   UNL     1     -27.526 -32.589  22.573  1.00  0.00     0.041 C 
ATOM      9  O   UNL     1     -26.603 -31.811  22.214  1.00  0.00    -0.550 OA
ATOM     10  O   UNL     1     -28.596 -32.829  21.719  1.00  0.00    -0.550 OA
ENDBRANCH   7   8
ENDBRANCH   6   7
ENDBRANCH   5   6
ENDBRANCH   4   5
ENDBRANCH   3   4
ENDBRANCH   2   3
ENDBRANCH   1   2
BRANCH   1  11
ATOM     11  C   UNL     1     -21.017 -31.428  23.498  1.00  0.00     0.000 C 
BRANCH  11  12
ATOM     12  C   UNL     1     -20.501 -30.319  24.431  1.00  0.00    -0.000 C 
BRANCH  12  13
ATOM     13  C   UNL     1     -18.979 -30.126  24.330  1.00  0.00    -0.000 C 
BRANCH  13  14
ATOM     14  C   UNL     1     -18.297 -31.233  23.509  1.00  0.00    -0.000 C 
BRANCH  14  15
ATOM     15  C   UNL     1     -16.762 -31.140  23.542  1.00  0.00    -0.000 C 
BRANCH  15  16
ATOM     16  C   UNL     1     -16.132 -30.792  22.176  1.00  0.00    -0.000 C 
BRANCH  16  17
ATOM     17  C   UNL     1     -16.557 -29.402  21.679  1.00  0.00    -0.003 C 
ATOM     18  C   UNL     1     -16.156 -29.191  20.223  1.00  0.00     0.004 C 
ENDBRANCH  16  17
ENDBRANCH  15  16
ENDBRANCH  14  15
ENDBRANCH  13  14
ENDBRANCH  12  13
ENDBRANCH  11  12
ENDBRANCH   1  11
TORSDOF 14
ENDMDL
MODEL 2
REMARK VINA RESULT:    -5.834      2.585      3.694
REMARK INTER + INTRA:         -11.589
REMARK INTER:                  -9.889
REMARK INTRA:                  -1.700
REMARK UNBOUND:                -0.979
REMARK SMILES CCCCCCCCCCCCCCCC(=O)[O-]
REMARK SMILES IDX 9 1 10 2 11 3 12 4 13 5 14 6 15 7 16 8 17 9 18 10 8 11 7 12
REMARK SMILES IDX 6 13 5 14 4 15 3 16 2 17 1 18
REMARK H PARENT
REMARK Flexibility Score: inf
ROOT
ATOM      1  C   UNL     1     -24.794 -30.845  25.174  1.00  0.00     0.000 C 
ENDROOT
BRANCH   1   2
ATOM      2  C   UNL     1     -24.517 -32.337  25.410  1.00  0.00     0.000 C 
BRANCH   2   3
ATOM      3  C   UNL     1     -25.735 -33.028  26.042  1.00  0.00     0.000 C 
BRANCH   3   4
ATOM      4  C   UNL     1     -27.062 -32.346  25.671  1.00  0.00     0.000 C 
BRANCH   4   5
ATOM      5  C   UNL     1     -27.929 -33.203  24.738  1.00  0.00     0.000 C 
BRANCH   5   6
ATOM      6  C   UNL     1     -27.350 -33.226  23.316  1.00  0.00     0.006 C 
BRANCH   6   7
ATOM      7  C   UNL     1     -28.411 -32.921  22.251  1.00  0.00     0.053 C 
BRANCH   7   8
ATOM      8  C   UNL     1     -28.878 -31.500  22.323  1.00  0.00     0.041 C 
ATOM      9  O   UNL     1     -30.109 -31.235  22.315  1.00  0.00    -0.550 OA
ATOM     10  O   UNL     1     -27.952 -30.469  22.430  1.00  0.00    -0.550 OA
ENDBRANCH   7   8
ENDBRANCH   6   7
ENDBRANCH   5   6
ENDBRANCH   4   5
ENDBRANCH   3   4
ENDBRANCH   2   3
ENDBRANCH   1   2
BRANCH   1  11
ATOM     11  C   UNL     1     -24.732 -30.457  23.687  1.00  0.00     0.000 C 
BRANCH  11  12
ATOM     12  C   UNL     1     -24.164 -31.582  22.805  1.00  0.00    -0.000 C 
BRANCH  12  13
ATOM     13  C   UNL     1     -22.748 -31.270  22.292  1.00  0.00    -0.000 C 
BRANCH  13  14
ATOM     14  C   UNL     1     -21.681 -32.186  22.913  1.00  0.00    -0.000 C 
BRANCH  14  15
ATOM     15  C   UNL     1     -20.628 -31.411  23.723  1.00  0.00    -0.000 C 
BRANCH  15  16
ATOM     16  C   UNL     1     -21.201 -30.198  24.487  1.00  0.00    -0.000 C 
BRANCH  16  17
ATOM     17  C   UNL     1     -20.133 -29.129  24.764  1.00  0.00    -0.003 C 
ATOM     18  C   UNL     1     -19.672 -29.174  26.216  1.00  0.00     0.004 C 
ENDBRANCH  16  17
ENDBRANCH  15  16
ENDBRANCH  14  15
ENDBRANCH  13  14
ENDBRANCH  12  13
ENDBRANCH  11  12
ENDBRANCH   1  11
TORSDOF 14
ENDMDL
MODEL 3
REMARK VINA RESULT:    -5.811      3.780      8.479
REMARK INTER + INTRA:         -11.547
REMARK INTER:                  -9.962
REMARK INTRA:                  -1.585
REMARK UNBOUND:                -0.979
REMARK SMILES CCCCCCCCCCCCCCCC(=O)[O-]
REMARK SMILES IDX 9 1 10 2 11 3 12 4 13 5 14 6 15 7 16 8 17 9 18 10 8 11 7 12
REMARK SMILES IDX 6 13 5 14 4 15 3 16 2 17 1 18
REMARK H PARENT
REMARK Flexibility Score: inf
ROOT
ATOM      1  C   UNL     1     -23.820 -31.537  22.856  1.00  0.00     0.000 C 
ENDROOT
BRANCH   1   2
ATOM      2  C   UNL     1     -22.357 -31.303  22.451  1.00  0.00     0.000 C 
BRANCH   2   3
ATOM      3  C   UNL     1     -21.464 -32.457  22.931  1.00  0.00     0.000 C 
BRANCH   3   4
ATOM      4  C   UNL     1     -20.041 -31.997  23.287  1.00  0.00     0.000 C 
BRANCH   4   5
ATOM      5  C   UNL     1     -19.967 -30.501  23.623  1.00  0.00     0.000 C 
BRANCH   5   6
ATOM      6  C   UNL     1     -18.694 -30.179  24.419  1.00  0.00     0.006 C 
BRANCH   6   7
ATOM      7  C   UNL     1     -17.436 -30.770  23.769  1.00  0.00     0.053 C 
BRANCH   7   8
ATOM      8  C   UNL     1     -17.127 -30.112  22.460  1.00  0.00     0.041 C 
ATOM      9  O   UNL     1     -16.853 -30.809  21.448  1.00  0.00    -0.550 OA
ATOM     10  O   UNL     1     -17.172 -28.728  22.350  1.00  0.00    -0.550 OA
ENDBRANCH   7   8
ENDBRANCH   6   7
ENDBRANCH   5   6
ENDBRANCH   4   5
ENDBRANCH   3   4
ENDBRANCH   2   3
ENDBRANCH   1   2
BRANCH   1  11
ATOM     11  C   UNL     1     -24.401 -30.378  23.681  1.00  0.00     0.000 C 
BRANCH  11  12
ATOM     12  C   UNL     1     -24.678 -30.771  25.142  1.00  0.00    -0.000 C 
BRANCH  12  13
ATOM     13  C   UNL     1     -24.284 -32.227  25.444  1.00  0.00    -0.000 C 
BRANCH  13  14
ATOM     14  C   UNL     1     -25.488 -33.091  25.855  1.00  0.00    -0.000 C 
BRANCH  14  15
ATOM     15  C   UNL     1     -26.758 -32.261  26.111  1.00  0.00    -0.000 C 
BRANCH  15  16
ATOM     16  C   UNL     1     -27.895 -32.539  25.105  1.00  0.00    -0.000 C 
BRANCH  16  17
ATOM     17  C   UNL     1     -27.394 -33.275  23.854  1.00  0.00    -0.003 C 
ATOM     18  C   UNL     1     -27.466 -32.379  22.621  1.00  0.00     0.004 C 
ENDBRANCH  16  17
ENDBRANCH  15  16
ENDBRANCH  14  15
ENDBRANCH  13  14
ENDBRANCH  12  13
ENDBRANCH  11  12
ENDBRANCH   1  11
TORSDOF 14
ENDMDL
MODEL 4
REMARK VINA RESULT:    -5.795      1.771      3.096
REMARK INTER + INTRA:         -11.517
REMARK INTER:                 -10.414
REMARK INTRA:                  -1.103
REMARK UNBOUND:                -0.979
REMARK SMILES CCCCCCCCCCCCCCCC(=O)[O-]
REMARK SMILES IDX 9 1 10 2 11 3 12 4 13 5 14 6 15 7 16 8 17 9 18 10 8 11 7 12
REMARK SMILES IDX 6 13 5 14 4 15 3 16 2 17 1 18
REMARK H PARENT
REMARK Flexibility Score: inf
ROOT
ATOM      1  C   UNL     1     -24.577 -30.244  24.715  1.00  0.00     0.000 C 
ENDROOT
BRANCH   1   2
ATOM      2  C   UNL     1     -25.864 -30.820  24.106  1.00  0.00     0.000 C 
BRANCH   2   3
ATOM      3  C   UNL     1     -26.386 -32.000  24.940  1.00  0.00     0.000 C 
BRANCH   3   4
ATOM      4  C   UNL     1     -27.065 -33.079  24.081  1.00  0.00     0.000 C 
BRANCH   4   5
ATOM      5  C   UNL     1     -27.340 -32.609  22.646  1.00  0.00     0.000 C 
BRANCH   5   6
ATOM      6  C   UNL     1     -28.850 -32.536  22.372  1.00  0.00     0.006 C 
BRANCH   6   7
ATOM      7  C   UNL     1     -29.347 -31.092  22.228  1.00  0.00     0.053 C 
BRANCH   7   8
ATOM      8  C   UNL     1     -30.151 -30.662  23.417  1.00  0.00     0.041 C 
ATOM      9  O   UNL     1     -29.626 -30.629  24.560  1.00  0.00    -0.550 OA
ATOM     10  O   UNL     1     -31.473 -30.267  23.254  1.00  0.00    -0.550 OA
ENDBRANCH   7   8
ENDBRANCH   6   7
ENDBRANCH   5   6
ENDBRANCH   4   5
ENDBRANCH   3   4
ENDBRANCH   2   3
ENDBRANCH   1   2
BRANCH   1  11
ATOM     11  C   UNL     1     -23.467 -31.298  24.861  1.00  0.00     0.000 C 
BRANCH  11  12
ATOM     12  C   UNL     1     -22.961 -31.816  23.504  1.00  0.00    -0.000 C 
BRANCH  12  13
ATOM     13  C   UNL     1     -21.449 -31.604  23.319  1.00  0.00    -0.000 C 
BRANCH  13  14
ATOM     14  C   UNL     1     -20.867 -30.600  24.328  1.00  0.00    -0.000 C 
BRANCH  14  15
ATOM     15  C   UNL     1     -19.477 -30.082  23.920  1.00  0.00    -0.000 C 
BRANCH  15  16
ATOM     16  C   UNL     1     -18.562 -31.169  23.318  1.00  0.00    -0.000 C 
BRANCH  16  17
ATOM     17  C   UNL     1     -17.103 -31.015  23.772  1.00  0.00    -0.003 C 
ATOM     18  C   UNL     1     -16.190 -30.697  22.592  1.00  0.00     0.004 C 
ENDBRANCH  16  17
ENDBRANCH  15  16
ENDBRANCH  14  15
ENDBRANCH  13  14
ENDBRANCH  12  13
ENDBRANCH  11  12
ENDBRANCH   1  11
TORSDOF 14
ENDMDL
MODEL 5
REMARK VINA RESULT:    -5.769      1.335      2.698
REMARK INTER + INTRA:         -11.471
REMARK INTER:                 -10.486
REMARK INTRA:                  -0.985
REMARK UNBOUND:                -0.979
REMARK SMILES CCCCCCCCCCCCCCCC(=O)[O-]
REMARK SMILES IDX 9 1 10 2 11 3 12 4 13 5 14 6 15 7 16 8 17 9 18 10 8 11 7 12
REMARK SMILES IDX 6 13 5 14 4 15 3 16 2 17 1 18
REMARK H PARENT
REMARK Flexibility Score: inf
ROOT
ATOM      1  C   UNL     1     -24.169 -32.127  25.498  1.00  0.00     0.000 C 
ENDROOT
BRANCH   1   2
ATOM      2  C   UNL     1     -25.266 -33.200  25.544  1.00  0.00     0.000 C 
BRANCH   2   3
ATOM      3  C   UNL     1     -26.321 -32.861  26.607  1.00  0.00     0.000 C 
BRANCH   3   4
ATOM      4  C   UNL     1     -27.098 -31.575  26.283  1.00  0.00     0.000 C 
BRANCH   4   5
ATOM      5  C   UNL     1     -27.996 -31.719  25.047  1.00  0.00     0.000 C 
BRANCH   5   6
ATOM      6  C   UNL     1     -27.835 -30.516  24.106  1.00  0.00     0.006 C 
BRANCH   6   7
ATOM      7  C   UNL     1     -27.572 -30.941  22.656  1.00  0.00     0.053 C 
BRANCH   7   8
ATOM      8  C   UNL     1     -28.620 -31.887  22.157  1.00  0.00     0.041 C 
ATOM      9  O   UNL     1     -29.769 -31.464  21.864  1.00  0.00    -0.550 OA
ATOM     10  O   UNL     1     -28.317 -33.232  21.985  1.00  0.00    -0.550 OA
ENDBRANCH   7   8
ENDBRANCH   6   7
ENDBRANCH   5   6
ENDBRANCH   4   5
ENDBRANCH   3   4
ENDBRANCH   2   3
ENDBRANCH   1   2
BRANCH   1  11
ATOM     11  C   UNL     1     -23.751 -31.766  24.063  1.00  0.00     0.000 C 
BRANCH  11  12
ATOM     12  C   UNL     1     -22.296 -31.272  23.977  1.00  0.00    -0.000 C 
BRANCH  12  13
ATOM     13  C   UNL     1     -22.022 -30.083  24.913  1.00  0.00    -0.000 C 
BRANCH  13  14
ATOM     14  C   UNL     1     -20.522 -29.769  25.044  1.00  0.00    -0.000 C 
BRANCH  14  15
ATOM     15  C   UNL     1     -19.664 -30.517  24.009  1.00  0.00    -0.000 C 
BRANCH  15  16
ATOM     16  C   UNL     1     -18.201 -30.029  23.948  1.00  0.00    -0.000 C 
BRANCH  16  17
ATOM     17  C   UNL     1     -17.231 -31.153  23.556  1.00  0.00    -0.003 C 
ATOM     18  C   UNL     1     -16.750 -30.990  22.118  1.00  0.00     0.004 C 
ENDBRANCH  16  17
ENDBRANCH  15  16
ENDBRANCH  14  15
ENDBRANCH  13  14
ENDBRANCH  12  13
ENDBRANCH  11  12
ENDBRANCH   1  11
TORSDOF 14
ENDMDL
MODEL 6
REMARK VINA RESULT:    -5.676      4.023      8.638
REMARK INTER + INTRA:         -11.301
REMARK INTER:                 -10.051
REMARK INTRA:                  -1.250
REMARK UNBOUND:                -0.979
REMARK SMILES CCCCCCCCCCCCCCCC(=O)[O-]
REMARK SMILES IDX 9 1 10 2 11 3 12 4 13 5 14 6 15 7 16 8 17 9 18 10 8 11 7 12
REMARK SMILES IDX 6 13 5 14 4 15 3 16 2 17 1 18
REMARK H PARENT
REMARK Flexibility Score: inf
ROOT
ATOM      1  C   UNL     1     -24.563 -30.536  24.935  1.00  0.00     0.000 C 
ENDROOT
BRANCH   1   2
ATOM      2  C   UNL     1     -23.379 -29.577  24.745  1.00  0.00     0.000 C 
BRANCH   2   3
ATOM      3  C   UNL     1     -22.044 -30.309  24.946  1.00  0.00     0.000 C 
BRANCH   3   4
ATOM      4  C   UNL     1     -21.044 -30.042  23.809  1.00  0.00     0.000 C 
BRANCH   4   5
ATOM      5  C   UNL     1     -19.787 -30.919  23.907  1.00  0.00     0.000 C 
BRANCH   5   6
ATOM      6  C   UNL     1     -18.543 -30.065  24.193  1.00  0.00     0.006 C 
BRANCH   6   7
ATOM      7  C   UNL     1     -17.736 -29.768  22.922  1.00  0.00     0.053 C 
BRANCH   7   8
ATOM      8  C   UNL     1     -16.592 -30.721  22.756  1.00  0.00     0.041 C 
ATOM      9  O   UNL     1     -16.275 -31.500  23.693  1.00  0.00    -0.550 OA
ATOM     10  O   UNL     1     -15.896 -30.768  21.555  1.00  0.00    -0.550 OA
ENDBRANCH   7   8
ENDBRANCH   6   7
ENDBRANCH   5   6
ENDBRANCH   4   5
ENDBRANCH   3   4
ENDBRANCH   2   3
ENDBRANCH   1   2
BRANCH   1  11
ATOM     11  C   UNL     1     -24.119 -31.991  25.159  1.00  0.00     0.000 C 
BRANCH  11  12
ATOM     12  C   UNL     1     -25.242 -32.870  25.737  1.00  0.00    -0.000 C 
BRANCH  12  13
ATOM     13  C   UNL     1     -26.502 -32.061  26.087  1.00  0.00    -0.000 C 
BRANCH  13  14
ATOM     14  C   UNL     1     -27.708 -32.438  25.211  1.00  0.00    -0.000 C 
BRANCH  14  15
ATOM     15  C   UNL     1     -27.307 -33.230  23.954  1.00  0.00    -0.000 C 
BRANCH  15  16
ATOM     16  C   UNL     1     -27.985 -32.725  22.662  1.00  0.00    -0.000 C 
BRANCH  16  17
ATOM     17  C   UNL     1     -27.348 -31.428  22.142  1.00  0.00    -0.003 C 
ATOM     18  C   UNL     1     -25.859 -31.615  21.870  1.00  0.00     0.004 C 
ENDBRANCH  16  17
ENDBRANCH  15  16
ENDBRANCH  14  15
ENDBRANCH  13  14
ENDBRANCH  12  13
ENDBRANCH  11  12
ENDBRANCH   1  11
TORSDOF 14
ENDMDL
MODEL 7
REMARK VINA RESULT:    -5.618      1.985      3.626
REMARK INTER + INTRA:         -11.195
REMARK INTER:                  -9.521
REMARK INTRA:                  -1.674
REMARK UNBOUND:                -0.979
REMARK SMILES CCCCCCCCCCCCCCCC(=O)[O-]
REMARK SMILES IDX 9 1 10 2 11 3 12 4 13 5 14 6 15 7 16 8 17 9 18 10 8 11 7 12
REMARK SMILES IDX 6 13 5 14 4 15 3 16 2 17 1 18
REMARK H PARENT
REMARK Flexibility Score: inf
ROOT
ATOM      1  C   UNL     1     -25.459 -30.237  22.023  1.00  0.00     0.000 C 
ENDROOT
BRANCH   1   2
ATOM      2  C   UNL     1     -25.790 -31.734  21.934  1.00  0.00     0.000 C 
BRANCH   2   3
ATOM      3  C   UNL     1     -27.277 -31.985  22.226  1.00  0.00     0.000 C 
BRANCH   3   4
ATOM      4  C   UNL     1     -27.496 -32.981  23.377  1.00  0.00     0.000 C 
BRANCH   4   5
ATOM      5  C   UNL     1     -26.419 -32.875  24.466  1.00  0.00     0.000 C 
BRANCH   5   6
ATOM      6  C   UNL     1     -27.056 -32.771  25.860  1.00  0.00     0.006 C 
BRANCH   6   7
ATOM      7  C   UNL     1     -26.967 -31.352  26.436  1.00  0.00     0.053 C 
BRANCH   7   8
ATOM      8  C   UNL     1     -27.833 -30.391  25.679  1.00  0.00     0.041 C 
ATOM      9  O   UNL     1     -27.312 -29.486  24.977  1.00  0.00    -0.550 OA
ATOM     10  O   UNL     1     -29.216 -30.516  25.727  1.00  0.00    -0.550 OA
ENDBRANCH   7   8
ENDBRANCH   6   7
ENDBRANCH   5   6
ENDBRANCH   4   5
ENDBRANCH   3   4
ENDBRANCH   2   3
ENDBRANCH   1   2
BRANCH   1  11
ATOM     11  C   UNL     1     -24.041 -29.972  22.554  1.00  0.00     0.000 C 
BRANCH  11  12
ATOM     12  C   UNL     1     -23.918 -30.226  24.066  1.00  0.00    -0.000 C 
BRANCH  12  13
ATOM     13  C   UNL     1     -22.950 -31.376  24.393  1.00  0.00    -0.000 C 
BRANCH  13  14
ATOM     14  C   UNL     1     -22.081 -31.776  23.189  1.00  0.00    -0.000 C 
BRANCH  14  15
ATOM     15  C   UNL     1     -20.575 -31.683  23.483  1.00  0.00    -0.000 C 
BRANCH  15  16
ATOM     16  C   UNL     1     -20.136 -30.315  24.047  1.00  0.00    -0.000 C 
BRANCH  16  17
ATOM     17  C   UNL     1     -18.647 -30.293  24.424  1.00  0.00    -0.003 C 
ATOM     18  C   UNL     1     -17.765 -30.213  23.182  1.00  0.00     0.004 C 
ENDBRANCH  16  17
ENDBRANCH  15  16
ENDBRANCH  14  15
ENDBRANCH  13  14
ENDBRANCH  12  13
ENDBRANCH  11  12
ENDBRANCH   1  11
TORSDOF 14
ENDMDL
MODEL 8
REMARK VINA RESULT:    -5.613      1.803      3.608
REMARK INTER + INTRA:         -11.187
REMARK INTER:                  -9.708
REMARK INTRA:                  -1.479
REMARK UNBOUND:                -0.979
REMARK SMILES CCCCCCCCCCCCCCCC(=O)[O-]
REMARK SMILES IDX 9 1 10 2 11 3 12 4 13 5 14 6 15 7 16 8 17 9 18 10 8 11 7 12
REMARK SMILES IDX 6 13 5 14 4 15 3 16 2 17 1 18
REMARK H PARENT
REMARK Flexibility Score: inf
ROOT
ATOM      1  C   UNL     1     -20.476 -31.366  23.666  1.00  0.00     0.000 C 
ENDROOT
BRANCH   1   2
ATOM      2  C   UNL     1     -21.480 -32.248  22.908  1.00  0.00     0.000 C 
BRANCH   2   3
ATOM      3  C   UNL     1     -22.917 -31.749  23.122  1.00  0.00     0.000 C 
BRANCH   3   4
ATOM      4  C   UNL     1     -23.127 -31.119  24.508  1.00  0.00     0.000 C 
BRANCH   4   5
ATOM      5  C   UNL     1     -24.509 -31.432  25.099  1.00  0.00     0.000 C 
BRANCH   5   6
ATOM      6  C   UNL     1     -24.519 -32.812  25.772  1.00  0.00     0.006 C 
BRANCH   6   7
ATOM      7  C   UNL     1     -25.896 -33.172  26.342  1.00  0.00     0.053 C 
BRANCH   7   8
ATOM      8  C   UNL     1     -27.006 -32.610  25.507  1.00  0.00     0.041 C 
ATOM      9  O   UNL     1     -27.294 -33.133  24.399  1.00  0.00    -0.550 OA
ATOM     10  O   UNL     1     -27.742 -31.526  25.970  1.00  0.00    -0.550 OA
ENDBRANCH   7   8
ENDBRANCH   6   7
ENDBRANCH   5   6
ENDBRANCH   4   5
ENDBRANCH   3   4
ENDBRANCH   2   3
ENDBRANCH   1   2
BRANCH   1  11
ATOM     11  C   UNL     1     -19.016 -31.680  23.300  1.00  0.00     0.000 C 
BRANCH  11  12
ATOM     12  C   UNL     1     -18.031 -30.630  23.844  1.00  0.00    -0.000 C 
BRANCH  12  13
ATOM     13  C   UNL     1     -17.415 -29.767  22.729  1.00  0.00    -0.000 C 
BRANCH  13  14
ATOM     14  C   UNL     1     -17.953 -28.327  22.735  1.00  0.00    -0.000 C 
BRANCH  14  15
ATOM     15  C   UNL     1     -18.835 -28.024  23.958  1.00  0.00    -0.000 C 
BRANCH  15  16
ATOM     16  C   UNL     1     -20.301 -27.697  23.600  1.00  0.00    -0.000 C 
BRANCH  16  17
ATOM     17  C   UNL     1     -21.243 -27.868  24.801  1.00  0.00    -0.003 C 
ATOM     18  C   UNL     1     -20.506 -28.455  26.000  1.00  0.00     0.004 C 
ENDBRANCH  16  17
ENDBRANCH  15  16
ENDBRANCH  14  15
ENDBRANCH  13  14
ENDBRANCH  12  13
ENDBRANCH  11  12
ENDBRANCH   1  11
TORSDOF 14
ENDMDL
MODEL 9
REMARK VINA RESULT:    -5.602      2.051      2.686
REMARK INTER + INTRA:         -11.167
REMARK INTER:                 -10.112
REMARK INTRA:                  -1.054
REMARK UNBOUND:                -0.979
REMARK SMILES CCCCCCCCCCCCCCCC(=O)[O-]
REMARK SMILES IDX 9 1 10 2 11 3 12 4 13 5 14 6 15 7 16 8 17 9 18 10 8 11 7 12
REMARK SMILES IDX 6 13 5 14 4 15 3 16 2 17 1 18
REMARK H PARENT
REMARK Flexibility Score: inf
ROOT
ATOM      1  C   UNL     1     -22.617 -31.775  23.668  1.00  0.00     0.000 C 
ENDROOT
BRANCH   1   2
ATOM      2  C   UNL     1     -24.078 -31.679  24.133  1.00  0.00     0.000 C 
BRANCH   2   3
ATOM      3  C   UNL     1     -24.266 -32.364  25.495  1.00  0.00     0.000 C 
BRANCH   3   4
ATOM      4  C   UNL     1     -25.745 -32.515  25.884  1.00  0.00     0.000 C 
BRANCH   4   5
ATOM      5  C   UNL     1     -26.639 -32.877  24.689  1.00  0.00     0.000 C 
BRANCH   5   6
ATOM      6  C   UNL     1     -27.768 -31.851  24.516  1.00  0.00     0.006 C 
BRANCH   6   7
ATOM      7  C   UNL     1     -27.586 -30.627  25.422  1.00  0.00     0.053 C 
BRANCH   7   8
ATOM      8  C   UNL     1     -28.868 -29.872  25.599  1.00  0.00     0.041 C 
ATOM      9  O   UNL     1     -28.856 -28.618  25.704  1.00  0.00    -0.550 OA
ATOM     10  O   UNL     1     -30.078 -30.553  25.616  1.00  0.00    -0.550 OA
ENDBRANCH   7   8
ENDBRANCH   6   7
ENDBRANCH   5   6
ENDBRANCH   4   5
ENDBRANCH   3   4
ENDBRANCH   2   3
ENDBRANCH   1   2
BRANCH   1  11
ATOM     11  C   UNL     1     -22.142 -30.509  22.936  1.00  0.00     0.000 C 
BRANCH  11  12
ATOM     12  C   UNL     1     -21.684 -29.403  23.902  1.00  0.00    -0.000 C 
BRANCH  12  13
ATOM     13  C   UNL     1     -20.954 -29.964  25.134  1.00  0.00    -0.000 C 
BRANCH  13  14
ATOM     14  C   UNL     1     -19.516 -29.432  25.260  1.00  0.00    -0.000 C 
BRANCH  14  15
ATOM     15  C   UNL     1     -18.708 -29.585  23.960  1.00  0.00    -0.000 C 
BRANCH  15  16
ATOM     16  C   UNL     1     -18.248 -31.032  23.682  1.00  0.00    -0.000 C 
BRANCH  16  17
ATOM     17  C   UNL     1     -16.725 -31.133  23.509  1.00  0.00    -0.003 C 
ATOM     18  C   UNL     1     -16.299 -30.698  22.111  1.00  0.00     0.004 C 
ENDBRANCH  16  17
ENDBRANCH  15  16
ENDBRANCH  14  15
ENDBRANCH  13  14
ENDBRANCH  12  13
ENDBRANCH  11  12
ENDBRANCH   1  11
TORSDOF 14
ENDMDL
