MODEL 1
REMARK VINA RESULT:    -3.120      0.000      0.000
REMARK INTER + INTRA:          -3.496
REMARK INTER:                  -3.485
REMARK INTRA:                  -0.010
REMARK UNBOUND:                -0.010
REMARK SMILES CCCC(=O)[O-]
REMARK SMILES IDX 3 1 4 2 5 3 6 4 2 5 1 6
REMARK H PARENT
REMARK Flexibility Score: inf
ROOT
ATOM      1  C   UNL     1      18.219  -6.378   9.124  1.00  0.00     0.052 C 
ENDROOT
BRANCH   1   2
ATOM      2  C   UNL     1      17.647  -5.783   7.875  1.00  0.00     0.041 C 
ATOM      3  O   UNL     1      16.875  -6.460   7.146  1.00  0.00    -0.550 OA
ATOM      4  O   UNL     1      17.993  -4.491   7.498  1.00  0.00    -0.550 OA
ENDBRANCH   1   2
BRANCH   1   5
ATOM      5  C   UNL     1      17.271  -6.213  10.319  1.00  0.00     0.003 C 
ATOM      6  C   UNL     1      17.993  -5.710  11.569  1.00  0.00     0.004 C 
ENDBRANCH   1   5
TORSDOF 2
ENDMDL
MODEL 2
REMARK VINA RESULT:    -3.032     21.526     22.345
REMARK INTER + INTRA:          -3.397
REMARK INTER:                  -3.375
REMARK INTRA:                  -0.022
REMARK UNBOUND:                -0.010
REMARK SMILES CCCC(=O)[O-]
REMARK SMILES IDX 3 1 4 2 5 3 6 4 2 5 1 6
REMARK H PARENT
REMARK Flexibility Score: inf
ROOT
ATOM      1  C   UNL     1      29.245   9.759  -2.209  1.00  0.00     0.052 C 
ENDROOT
BRANCH   1   2
ATOM      2  C   UNL     1      30.136   8.669  -2.718  1.00  0.00     0.041 C 
ATOM      3  O   UNL     1      30.047   7.504  -2.248  1.00  0.00    -0.550 OA
ATOM      4  O   UNL     1      31.091   8.947  -3.689  1.00  0.00    -0.550 OA
ENDBRANCH   1   2
BRANCH   1   5
ATOM      5  C   UNL     1      27.762   9.391  -2.344  1.00  0.00     0.003 C 
ATOM      6  C   UNL     1      27.084  10.125  -3.501  1.00  0.00     0.004 C 
ENDBRANCH   1   5
TORSDOF 2
ENDMDL
MODEL 3
REMARK VINA RESULT:    -3.016     18.056     19.078
REMARK INTER + INTRA:          -3.379
REMARK INTER:                  -3.340
REMARK INTRA:                  -0.038
REMARK UNBOUND:                -0.010
REMARK SMILES CCCC(=O)[O-]
REMARK SMILES IDX 3 1 4 2 5 3 6 4 2 5 1 6
REMARK H PARENT
REMARK Flexibility Score: inf
ROOT
ATOM      1  C   UNL     1      31.445  -1.019  -2.342  1.00  0.00     0.052 C 
ENDROOT
BRANCH   1   2
ATOM      2  C   UNL     1      30.700   0.265  -2.150  1.00  0.00     0.041 C 
ATOM      3  O   UNL     1      30.253   0.576  -1.015  1.00  0.00    -0.550 OA
ATOM      4  O   UNL     1      30.469   1.103  -3.233  1.00  0.00    -0.550 OA
ENDBRANCH   1   2
BRANCH   1   5
ATOM      5  C   UNL     1      32.224  -1.033  -3.663  1.00  0.00     0.003 C 
ATOM      6  C   UNL     1      33.705  -0.706  -3.469  1.00  0.00     0.004 C 
ENDBRANCH   1   5
TORSDOF 2
ENDMDL
MODEL 4
REMARK VINA RESULT:    -2.980     17.527     18.340
REMARK INTER + INTRA:          -3.339
REMARK INTER:                  -3.334
REMARK INTRA:                  -0.005
REMARK UNBOUND:                -0.010
REMARK SMILES CCCC(=O)[O-]
REMARK SMILES IDX 3 1 4 2 5 3 6 4 2 5 1 6
REMARK H PARENT
REMARK Flexibility Score: inf
ROOT
ATOM      1  C   UNL     1      30.340   5.309   3.096  1.00  0.00     0.052 C 
ENDROOT
BRANCH   1   2
ATOM      2  C   UNL     1      30.825   6.522   3.827  1.00  0.00     0.041 C 
ATOM      3  O   UNL     1      30.101   7.070   4.699  1.00  0.00    -0.550 OA
ATOM      4  O   UNL     1      32.066   7.067   3.522  1.00  0.00    -0.550 OA
ENDBRANCH   1   2
BRANCH   1   5
ATOM      5  C   UNL     1      31.002   4.027   3.616  1.00  0.00     0.003 C 
ATOM      6  C   UNL     1      30.578   2.791   2.823  1.00  0.00     0.004 C 
ENDBRANCH   1   5
TORSDOF 2
ENDMDL
MODEL 5
REMARK VINA RESULT:    -2.968      2.822      3.702
REMARK INTER + INTRA:          -3.325
REMARK INTER:                  -3.317
REMARK INTRA:                  -0.009
REMARK UNBOUND:                -0.010
REMARK SMILES CCCC(=O)[O-]
REMARK SMILES IDX 3 1 4 2 5 3 6 4 2 5 1 6
REMARK H PARENT
REMARK Flexibility Score: inf
ROOT
ATOM      1  C   UNL     1      17.005  -6.338  10.272  1.00  0.00     0.052 C 
ENDROOT
BRANCH   1   2
ATOM      2  C   UNL     1      17.617  -5.694  11.477  1.00  0.00     0.041 C 
ATOM      3  O   UNL     1      18.793  -5.982  11.822  1.00  0.00    -0.550 OA
ATOM      4  O   UNL     1      16.876  -4.800  12.239  1.00  0.00    -0.550 OA
ENDBRANCH   1   2
BRANCH   1   5
ATOM      5  C   UNL     1      17.962  -6.328   9.073  1.00  0.00     0.003 C 
ATOM      6  C   UNL     1      17.279  -5.862   7.788  1.00  0.00     0.004 C 
ENDBRANCH   1   5
TORSDOF 2
ENDMDL
MODEL 6
REMARK VINA RESULT:    -2.838     16.849     17.517
REMARK INTER + INTRA:          -3.181
REMARK INTER:                  -3.155
REMARK INTRA:                  -0.026
REMARK UNBOUND:                -0.010
REMARK SMILES CCCC(=O)[O-]
REMARK SMILES IDX 3 1 4 2 5 3 6 4 2 5 1 6
REMARK H PARENT
REMARK Flexibility Score: inf
ROOT
ATOM      1  C   UNL     1      30.731   4.844   2.945  1.00  0.00     0.052 C 
ENDROOT
BRANCH   1   2
ATOM      2  C   UNL     1      30.671   3.388   3.289  1.00  0.00     0.041 C 
ATOM      3  O   UNL     1      30.966   2.997   4.449  1.00  0.00    -0.550 OA
ATOM      4  O   UNL     1      30.323   2.458   2.318  1.00  0.00    -0.550 OA
ENDBRANCH   1   2
BRANCH   1   5
ATOM      5  C   UNL     1      31.044   5.707   4.175  1.00  0.00     0.003 C 
ATOM      6  C   UNL     1      30.022   6.826   4.375  1.00  0.00     0.004 C 
ENDBRANCH   1   5
TORSDOF 2
ENDMDL
MODEL 7
REMARK VINA RESULT:    -2.798      7.723      8.505
REMARK INTER + INTRA:          -3.135
REMARK INTER:                  -3.114
REMARK INTRA:                  -0.021
REMARK UNBOUND:                -0.010
REMARK SMILES CCCC(=O)[O-]
REMARK SMILES IDX 3 1 4 2 5 3 6 4 2 5 1 6
REMARK H PARENT
REMARK Flexibility Score: inf
ROOT
ATOM      1  C   UNL     1      16.956  -7.199   0.929  1.00  0.00     0.052 C 
ENDROOT
BRANCH   1   2
ATOM      2  C   UNL     1      17.878  -6.284   0.184  1.00  0.00     0.041 C 
ATOM      3  O   UNL     1      17.877  -6.268  -1.075  1.00  0.00    -0.550 OA
ATOM      4  O   UNL     1      18.764  -5.472   0.881  1.00  0.00    -0.550 OA
ENDBRANCH   1   2
BRANCH   1   5
ATOM      5  C   UNL     1      17.716  -8.086   1.923  1.00  0.00     0.003 C 
ATOM      6  C   UNL     1      17.804  -9.539   1.456  1.00  0.00     0.004 C 
ENDBRANCH   1   5
TORSDOF 2
ENDMDL
MODEL 8
REMARK VINA RESULT:    -2.771     14.091     14.876
REMARK INTER + INTRA:          -3.105
REMARK INTER:                  -3.068
REMARK INTRA:                  -0.037
REMARK UNBOUND:                -0.010
REMARK SMILES CCCC(=O)[O-]
REMARK SMILES IDX 3 1 4 2 5 3 6 4 2 5 1 6
REMARK H PARENT
REMARK Flexibility Score: inf
ROOT
ATOM      1  C   UNL     1      19.170   8.365  12.017  1.00  0.00     0.052 C 
ENDROOT
BRANCH   1   2
ATOM      2  C   UNL     1      20.264   9.224  11.464  1.00  0.00     0.041 C 
ATOM      3  O   UNL     1      21.277   9.490  12.163  1.00  0.00    -0.550 OA
ATOM      4  O   UNL     1      20.150   9.760  10.187  1.00  0.00    -0.550 OA
ENDBRANCH   1   2
BRANCH   1   5
ATOM      5  C   UNL     1      19.684   7.426  13.117  1.00  0.00     0.003 C 
ATOM      6  C   UNL     1      19.975   6.020  12.592  1.00  0.00     0.004 C 
ENDBRANCH   1   5
TORSDOF 2
ENDMDL
MODEL 9
REMARK VINA RESULT:    -2.633      8.526      9.009
REMARK INTER + INTRA:          -2.951
REMARK INTER:                  -2.926
REMARK INTRA:                  -0.025
REMARK UNBOUND:                -0.010
REMARK SMILES CCCC(=O)[O-]
REMARK SMILES IDX 3 1 4 2 5 3 6 4 2 5 1 6
REMARK H PARENT
REMARK Flexibility Score: inf
ROOT
ATOM      1  C   UNL     1      17.451  -7.398   1.117  1.00  0.00     0.052 C 
ENDROOT
BRANCH   1   2
ATOM      2  C   UNL     1      17.572  -8.643   0.294  1.00  0.00     0.041 C 
ATOM      3  O   UNL     1      17.785  -8.567  -0.944  1.00  0.00    -0.550 OA
ATOM      4  O   UNL     1      17.416  -9.889   0.890  1.00  0.00    -0.550 OA
ENDBRANCH   1   2
BRANCH   1   5
ATOM      5  C   UNL     1      17.891  -6.154   0.335  1.00  0.00     0.003 C 
ATOM      6  C   UNL     1      18.991  -5.373   1.056  1.00  0.00     0.004 C 
ENDBRANCH   1   5
TORSDOF 2
ENDMDL
