MODEL 1
REMARK VINA RESULT:    -3.443      0.000      0.000
REMARK INTER + INTRA:         -12.459
REMARK INTER:                  -7.871
REMARK INTRA:                  -4.587
REMARK UNBOUND:                -4.587
REMARK SMILES CCCCCCCCCCCCCCCCCCCCCCCC(=O)[O-]
REMARK SMILES IDX 13 1 14 2 15 3 16 4 17 5 18 6 19 7 20 8 21 9 22 10 23 11
REMARK SMILES IDX 24 12 25 13 26 14 12 15 11 16 10 17 9 18 8 19 7 20 6 21 5 22
REMARK SMILES IDX 4 23 3 24 2 25 1 26
REMARK H PARENT
REMARK Flexibility Score: inf
ROOT
ATOM      1  C   UNL     1     180.783 193.750 181.438  1.00  0.00     0.000 C 
ENDROOT
BRANCH   1   2
ATOM      2  C   UNL     1     180.375 194.271 180.050  1.00  0.00     0.000 C 
BRANCH   2   3
ATOM      3  C   UNL     1     181.462 195.144 179.404  1.00  0.00     0.000 C 
BRANCH   3   4
ATOM      4  C   UNL     1     182.158 194.398 178.259  1.00  0.00     0.000 C 
BRANCH   4   5
ATOM      5  C   UNL     1     182.999 195.360 177.407  1.00  0.00     0.000 C 
BRANCH   5   6
ATOM      6  C   UNL     1     182.727 196.836 177.739  1.00  0.00     0.000 C 
BRANCH   6   7
ATOM      7  C   UNL     1     181.847 197.526 176.685  1.00  0.00     0.000 C 
BRANCH   7   8
ATOM      8  C   UNL     1     180.510 197.974 177.295  1.00  0.00     0.000 C 
BRANCH   8   9
ATOM      9  C   UNL     1     179.297 197.375 176.565  1.00  0.00     0.000 C 
BRANCH   9  10
ATOM     10  C   UNL     1     179.452 195.867 176.299  1.00  0.00     0.006 C 
BRANCH  10  11
ATOM     11  C   UNL     1     179.550 195.552 174.801  1.00  0.00     0.053 C 
BRANCH  11  12
ATOM     12  C   UNL     1     180.724 194.675 174.488  1.00  0.00     0.041 C 
ATOM     13  O   UNL     1     180.752 193.484 174.896  1.00  0.00    -0.550 OA
ATOM     14  O   UNL     1     181.788 195.173 173.745  1.00  0.00    -0.550 OA
ENDBRANCH  11  12
ENDBRANCH  10  11
ENDBRANCH   9  10
ENDBRANCH   8   9
ENDBRANCH   7   8
ENDBRANCH   6   7
ENDBRANCH   5   6
ENDBRANCH   4   5
ENDBRANCH   3   4
ENDBRANCH   2   3
ENDBRANCH   1   2
BRANCH   1  15
ATOM     15  C   UNL     1     180.914 194.876 182.476  1.00  0.00     0.000 C 
BRANCH  15  16
ATOM     16  C   UNL     1     182.117 194.684 183.416  1.00  0.00     0.000 C 
BRANCH  16  17
ATOM     17  C   UNL     1     183.148 195.831 183.341  1.00  0.00     0.000 C 
BRANCH  17  18
ATOM     18  C   UNL     1     182.698 196.951 182.385  1.00  0.00    -0.000 C 
BRANCH  18  19
ATOM     19  C   UNL     1     183.735 197.255 181.291  1.00  0.00    -0.000 C 
BRANCH  19  20
ATOM     20  C   UNL     1     185.054 196.491 181.497  1.00  0.00    -0.000 C 
BRANCH  20  21
ATOM     21  C   UNL     1     185.542 195.784 180.220  1.00  0.00    -0.000 C 
BRANCH  21  22
ATOM     22  C   UNL     1     185.768 194.263 180.355  1.00  0.00    -0.000 C 
BRANCH  22  23
ATOM     23  C   UNL     1     184.528 193.451 180.781  1.00  0.00    -0.000 C 
BRANCH  23  24
ATOM     24  C   UNL     1     184.767 192.458 181.933  1.00  0.00    -0.000 C 
BRANCH  24  25
ATOM     25  C   UNL     1     186.156 192.612 182.570  1.00  0.00    -0.003 C 
ATOM     26  C   UNL     1     186.052 193.163 183.989  1.00  0.00     0.004 C 
ENDBRANCH  24  25
ENDBRANCH  23  24
ENDBRANCH  22  23
ENDBRANCH  21  22
ENDBRANCH  20  21
ENDBRANCH  19  20
ENDBRANCH  18  19
ENDBRANCH  17  18
ENDBRANCH  16  17
ENDBRANCH  15  16
ENDBRANCH   1  15
TORSDOF 22
ENDMDL
MODEL 2
REMARK VINA RESULT:    -3.432     12.695     14.874
REMARK INTER + INTRA:         -12.432
REMARK INTER:                  -8.275
REMARK INTRA:                  -4.157
REMARK UNBOUND:                -4.587
REMARK SMILES CCCCCCCCCCCCCCCCCCCCCCCC(=O)[O-]
REMARK SMILES IDX 13 1 14 2 15 3 16 4 17 5 18 6 19 7 20 8 21 9 22 10 23 11
REMARK SMILES IDX 24 12 25 13 26 14 12 15 11 16 10 17 9 18 8 19 7 20 6 21 5 22
REMARK SMILES IDX 4 23 3 24 2 25 1 26
REMARK H PARENT
REMARK Flexibility Score: inf
ROOT
ATOM      1  C   UNL     1     188.910 187.847 170.495  1.00  0.00     0.000 C 
ENDROOT
BRANCH   1   2
ATOM      2  C   UNL     1     190.125 188.614 169.948  1.00  0.00     0.000 C 
BRANCH   2   3
ATOM      3  C   UNL     1     190.469 188.222 168.503  1.00  0.00     0.000 C 
BRANCH   3   4
ATOM      4  C   UNL     1     189.239 188.338 167.594  1.00  0.00     0.000 C 
BRANCH   4   5
ATOM      5  C   UNL     1     189.018 187.041 166.801  1.00  0.00     0.000 C 
BRANCH   5   6
ATOM      6  C   UNL     1     189.649 185.816 167.481  1.00  0.00     0.000 C 
BRANCH   6   7
ATOM      7  C   UNL     1     188.631 184.996 168.287  1.00  0.00     0.000 C 
BRANCH   7   8
ATOM      8  C   UNL     1     187.240 185.055 167.635  1.00  0.00     0.000 C 
BRANCH   8   9
ATOM      9  C   UNL     1     186.124 185.355 168.649  1.00  0.00     0.000 C 
BRANCH   9  10
ATOM     10  C   UNL     1     185.779 186.853 168.722  1.00  0.00     0.006 C 
BRANCH  10  11
ATOM     11  C   UNL     1     185.262 187.258 170.108  1.00  0.00     0.053 C 
BRANCH  11  12
ATOM     12  C   UNL     1     183.790 187.544 170.097  1.00  0.00     0.041 C 
ATOM     13  O   UNL     1     183.063 187.163 171.051  1.00  0.00    -0.550 OA
ATOM     14  O   UNL     1     183.222 188.231 169.030  1.00  0.00    -0.550 OA
ENDBRANCH  11  12
ENDBRANCH  10  11
ENDBRANCH   9  10
ENDBRANCH   8   9
ENDBRANCH   7   8
ENDBRANCH   6   7
ENDBRANCH   5   6
ENDBRANCH   4   5
ENDBRANCH   3   4
ENDBRANCH   2   3
ENDBRANCH   1   2
BRANCH   1  15
ATOM     15  C   UNL     1     189.289 186.861 171.613  1.00  0.00     0.000 C 
BRANCH  15  16
ATOM     16  C   UNL     1     188.091 186.034 172.110  1.00  0.00     0.000 C 
BRANCH  16  17
ATOM     17  C   UNL     1     188.359 185.296 173.439  1.00  0.00     0.000 C 
BRANCH  17  18
ATOM     18  C   UNL     1     189.552 184.328 173.332  1.00  0.00    -0.000 C 
BRANCH  18  19
ATOM     19  C   UNL     1     190.755 184.766 174.183  1.00  0.00    -0.000 C 
BRANCH  19  20
ATOM     20  C   UNL     1     192.007 183.912 173.921  1.00  0.00    -0.000 C 
BRANCH  20  21
ATOM     21  C   UNL     1     193.136 184.698 173.230  1.00  0.00    -0.000 C 
BRANCH  21  22
ATOM     22  C   UNL     1     192.682 185.945 172.442  1.00  0.00    -0.000 C 
BRANCH  22  23
ATOM     23  C   UNL     1     193.359 186.136 171.069  1.00  0.00    -0.000 C 
BRANCH  23  24
ATOM     24  C   UNL     1     192.582 185.551 169.876  1.00  0.00    -0.000 C 
BRANCH  24  25
ATOM     25  C   UNL     1     191.593 184.453 170.292  1.00  0.00    -0.003 C 
ATOM     26  C   UNL     1     191.725 183.225 169.396  1.00  0.00     0.004 C 
ENDBRANCH  24  25
ENDBRANCH  23  24
ENDBRANCH  22  23
ENDBRANCH  21  22
ENDBRANCH  20  21
ENDBRANCH  19  20
ENDBRANCH  18  19
ENDBRANCH  17  18
ENDBRANCH  16  17
ENDBRANCH  15  16
ENDBRANCH   1  15
TORSDOF 22
ENDMDL
MODEL 3
REMARK VINA RESULT:    -3.350     12.536     14.795
REMARK INTER + INTRA:         -12.247
REMARK INTER:                  -8.019
REMARK INTRA:                  -4.227
REMARK UNBOUND:                -4.587
REMARK SMILES CCCCCCCCCCCCCCCCCCCCCCCC(=O)[O-]
REMARK SMILES IDX 13 1 14 2 15 3 16 4 17 5 18 6 19 7 20 8 21 9 22 10 23 11
REMARK SMILES IDX 24 12 25 13 26 14 12 15 11 16 10 17 9 18 8 19 7 20 6 21 5 22
REMARK SMILES IDX 4 23 3 24 2 25 1 26
REMARK H PARENT
REMARK Flexibility Score: inf
ROOT
ATOM      1  C   UNL     1     188.510 188.456 168.969  1.00  0.00     0.000 C 
ENDROOT
BRANCH   1   2
ATOM      2  C   UNL     1     189.920 188.730 168.420  1.00  0.00     0.000 C 
BRANCH   2   3
ATOM      3  C   UNL     1     190.359 187.693 167.375  1.00  0.00     0.000 C 
BRANCH   3   4
ATOM      4  C   UNL     1     190.760 186.373 168.045  1.00  0.00     0.000 C 
BRANCH   4   5
ATOM      5  C   UNL     1     189.773 185.253 167.685  1.00  0.00     0.000 C 
BRANCH   5   6
ATOM      6  C   UNL     1     188.902 185.599 166.468  1.00  0.00     0.000 C 
BRANCH   6   7
ATOM      7  C   UNL     1     187.399 185.557 166.785  1.00  0.00     0.000 C 
BRANCH   7   8
ATOM      8  C   UNL     1     187.147 184.927 168.164  1.00  0.00     0.000 C 
BRANCH   8   9
ATOM      9  C   UNL     1     185.859 185.445 168.823  1.00  0.00     0.000 C 
BRANCH   9  10
ATOM     10  C   UNL     1     185.432 186.823 168.287  1.00  0.00     0.006 C 
BRANCH  10  11
ATOM     11  C   UNL     1     184.921 187.744 169.402  1.00  0.00     0.053 C 
BRANCH  11  12
ATOM     12  C   UNL     1     183.439 187.955 169.320  1.00  0.00     0.041 C 
ATOM     13  O   UNL     1     182.886 188.140 168.204  1.00  0.00    -0.550 OA
ATOM     14  O   UNL     1     182.670 187.948 170.477  1.00  0.00    -0.550 OA
ENDBRANCH  11  12
ENDBRANCH  10  11
ENDBRANCH   9  10
ENDBRANCH   8   9
ENDBRANCH   7   8
ENDBRANCH   6   7
ENDBRANCH   5   6
ENDBRANCH   4   5
ENDBRANCH   3   4
ENDBRANCH   2   3
ENDBRANCH   1   2
BRANCH   1  15
ATOM     15  C   UNL     1     188.486 188.338 170.502  1.00  0.00     0.000 C 
BRANCH  15  16
ATOM     16  C   UNL     1     188.333 186.886 170.986  1.00  0.00     0.000 C 
BRANCH  16  17
ATOM     17  C   UNL     1     189.629 186.293 171.579  1.00  0.00     0.000 C 
BRANCH  17  18
ATOM     18  C   UNL     1     190.758 187.336 171.658  1.00  0.00    -0.000 C 
BRANCH  18  19
ATOM     19  C   UNL     1     191.564 187.248 172.964  1.00  0.00    -0.000 C 
BRANCH  19  20
ATOM     20  C   UNL     1     190.852 186.414 174.043  1.00  0.00    -0.000 C 
BRANCH  20  21
ATOM     21  C   UNL     1     191.825 185.801 175.066  1.00  0.00    -0.000 C 
BRANCH  21  22
ATOM     22  C   UNL     1     192.720 184.667 174.524  1.00  0.00    -0.000 C 
BRANCH  22  23
ATOM     23  C   UNL     1     192.019 183.671 173.578  1.00  0.00    -0.000 C 
BRANCH  23  24
ATOM     24  C   UNL     1     192.891 183.151 172.422  1.00  0.00    -0.000 C 
BRANCH  24  25
ATOM     25  C   UNL     1     192.471 183.717 171.058  1.00  0.00    -0.003 C 
ATOM     26  C   UNL     1     193.306 184.939 170.689  1.00  0.00     0.004 C 
ENDBRANCH  24  25
ENDBRANCH  23  24
ENDBRANCH  22  23
ENDBRANCH  21  22
ENDBRANCH  20  21
ENDBRANCH  19  20
ENDBRANCH  18  19
ENDBRANCH  17  18
ENDBRANCH  16  17
ENDBRANCH  15  16
ENDBRANCH   1  15
TORSDOF 22
ENDMDL
MODEL 4
REMARK VINA RESULT:    -3.343     12.439     15.527
REMARK INTER + INTRA:         -12.229
REMARK INTER:                  -7.765
REMARK INTRA:                  -4.465
REMARK UNBOUND:                -4.587
REMARK SMILES CCCCCCCCCCCCCCCCCCCCCCCC(=O)[O-]
REMARK SMILES IDX 13 1 14 2 15 3 16 4 17 5 18 6 19 7 20 8 21 9 22 10 23 11
REMARK SMILES IDX 24 12 25 13 26 14 12 15 11 16 10 17 9 18 8 19 7 20 6 21 5 22
REMARK SMILES IDX 4 23 3 24 2 25 1 26
REMARK H PARENT
REMARK Flexibility Score: inf
ROOT
ATOM      1  C   UNL     1     187.757 188.376 170.542  1.00  0.00     0.000 C 
ENDROOT
BRANCH   1   2
ATOM      2  C   UNL     1     187.627 187.021 171.255  1.00  0.00     0.000 C 
BRANCH   2   3
ATOM      3  C   UNL     1     188.946 186.560 171.894  1.00  0.00     0.000 C 
BRANCH   3   4
ATOM      4  C   UNL     1     188.696 185.484 172.957  1.00  0.00     0.000 C 
BRANCH   4   5
ATOM      5  C   UNL     1     189.761 184.380 172.882  1.00  0.00     0.000 C 
BRANCH   5   6
ATOM      6  C   UNL     1     190.550 184.406 171.564  1.00  0.00     0.000 C 
BRANCH   6   7
ATOM      7  C   UNL     1     192.037 184.727 171.770  1.00  0.00     0.000 C 
BRANCH   7   8
ATOM      8  C   UNL     1     192.419 184.627 173.255  1.00  0.00     0.000 C 
BRANCH   8   9
ATOM      9  C   UNL     1     193.072 185.913 173.786  1.00  0.00     0.000 C 
BRANCH   9  10
ATOM     10  C   UNL     1     192.060 187.060 173.964  1.00  0.00     0.006 C 
BRANCH  10  11
ATOM     11  C   UNL     1     191.213 186.891 175.232  1.00  0.00     0.053 C 
BRANCH  11  12
ATOM     12  C   UNL     1     191.871 187.505 176.431  1.00  0.00     0.041 C 
ATOM     13  O   UNL     1     191.721 188.730 176.679  1.00  0.00    -0.550 OA
ATOM     14  O   UNL     1     192.649 186.721 177.276  1.00  0.00    -0.550 OA
ENDBRANCH  11  12
ENDBRANCH  10  11
ENDBRANCH   9  10
ENDBRANCH   8   9
ENDBRANCH   7   8
ENDBRANCH   6   7
ENDBRANCH   5   6
ENDBRANCH   4   5
ENDBRANCH   3   4
ENDBRANCH   2   3
ENDBRANCH   1   2
BRANCH   1  15
ATOM     15  C   UNL     1     186.742 188.541 169.398  1.00  0.00     0.000 C 
BRANCH  15  16
ATOM     16  C   UNL     1     185.539 187.590 169.526  1.00  0.00     0.000 C 
BRANCH  16  17
ATOM     17  C   UNL     1     185.154 186.901 168.199  1.00  0.00     0.000 C 
BRANCH  17  18
ATOM     18  C   UNL     1     186.359 186.209 167.536  1.00  0.00    -0.000 C 
BRANCH  18  19
ATOM     19  C   UNL     1     186.807 184.942 168.283  1.00  0.00    -0.000 C 
BRANCH  19  20
ATOM     20  C   UNL     1     188.330 184.886 168.493  1.00  0.00    -0.000 C 
BRANCH  20  21
ATOM     21  C   UNL     1     189.070 186.063 167.831  1.00  0.00    -0.000 C 
BRANCH  21  22
ATOM     22  C   UNL     1     190.424 186.432 168.473  1.00  0.00    -0.000 C 
BRANCH  22  23
ATOM     23  C   UNL     1     190.928 187.857 168.168  1.00  0.00    -0.000 C 
BRANCH  23  24
ATOM     24  C   UNL     1     191.003 188.793 169.387  1.00  0.00    -0.000 C 
BRANCH  24  25
ATOM     25  C   UNL     1     191.902 188.244 170.504  1.00  0.00    -0.003 C 
ATOM     26  C   UNL     1     193.162 189.090 170.662  1.00  0.00     0.004 C 
ENDBRANCH  24  25
ENDBRANCH  23  24
ENDBRANCH  22  23
ENDBRANCH  21  22
ENDBRANCH  20  21
ENDBRANCH  19  20
ENDBRANCH  18  19
ENDBRANCH  17  18
ENDBRANCH  16  17
ENDBRANCH  15  16
ENDBRANCH   1  15
TORSDOF 22
ENDMDL
MODEL 5
REMARK VINA RESULT:    -3.338     12.929     16.052
REMARK INTER + INTRA:         -12.218
REMARK INTER:                  -8.286
REMARK INTRA:                  -3.931
REMARK UNBOUND:                -4.587
REMARK SMILES CCCCCCCCCCCCCCCCCCCCCCCC(=O)[O-]
REMARK SMILES IDX 13 1 14 2 15 3 16 4 17 5 18 6 19 7 20 8 21 9 22 10 23 11
REMARK SMILES IDX 24 12 25 13 26 14 12 15 11 16 10 17 9 18 8 19 7 20 6 21 5 22
REMARK SMILES IDX 4 23 3 24 2 25 1 26
REMARK H PARENT
REMARK Flexibility Score: inf
ROOT
ATOM      1  C   UNL     1     189.829 185.112 168.051  1.00  0.00     0.000 C 
ENDROOT
BRANCH   1   2
ATOM      2  C   UNL     1     189.804 184.598 169.500  1.00  0.00     0.000 C 
BRANCH   2   3
ATOM      3  C   UNL     1     191.104 184.904 170.258  1.00  0.00     0.000 C 
BRANCH   3   4
ATOM      4  C   UNL     1     191.045 184.365 171.692  1.00  0.00     0.000 C 
BRANCH   4   5
ATOM      5  C   UNL     1     189.713 184.732 172.363  1.00  0.00     0.000 C 
BRANCH   5   6
ATOM      6  C   UNL     1     189.858 185.873 173.382  1.00  0.00     0.000 C 
BRANCH   6   7
ATOM      7  C   UNL     1     190.820 186.972 172.906  1.00  0.00     0.000 C 
BRANCH   7   8
ATOM      8  C   UNL     1     191.856 187.301 173.992  1.00  0.00     0.000 C 
BRANCH   8   9
ATOM      9  C   UNL     1     191.480 186.721 175.365  1.00  0.00     0.000 C 
BRANCH   9  10
ATOM     10  C   UNL     1     192.563 185.785 175.929  1.00  0.00     0.006 C 
BRANCH  10  11
ATOM     11  C   UNL     1     192.429 184.355 175.388  1.00  0.00     0.053 C 
BRANCH  11  12
ATOM     12  C   UNL     1     192.677 183.328 176.452  1.00  0.00     0.041 C 
ATOM     13  O   UNL     1     192.585 183.640 177.668  1.00  0.00    -0.550 OA
ATOM     14  O   UNL     1     193.009 182.026 176.098  1.00  0.00    -0.550 OA
ENDBRANCH  11  12
ENDBRANCH  10  11
ENDBRANCH   9  10
ENDBRANCH   8   9
ENDBRANCH   7   8
ENDBRANCH   6   7
ENDBRANCH   5   6
ENDBRANCH   4   5
ENDBRANCH   3   4
ENDBRANCH   2   3
ENDBRANCH   1   2
BRANCH   1  15
ATOM     15  C   UNL     1     188.420 185.372 167.493  1.00  0.00     0.000 C 
BRANCH  15  16
ATOM     16  C   UNL     1     187.322 184.634 168.278  1.00  0.00     0.000 C 
BRANCH  16  17
ATOM     17  C   UNL     1     185.970 185.379 168.297  1.00  0.00     0.000 C 
BRANCH  17  18
ATOM     18  C   UNL     1     186.146 186.900 168.128  1.00  0.00    -0.000 C 
BRANCH  18  19
ATOM     19  C   UNL     1     185.506 187.706 169.270  1.00  0.00    -0.000 C 
BRANCH  19  20
ATOM     20  C   UNL     1     185.922 187.196 170.660  1.00  0.00    -0.000 C 
BRANCH  20  21
ATOM     21  C   UNL     1     187.444 187.240 170.884  1.00  0.00    -0.000 C 
BRANCH  21  22
ATOM     22  C   UNL     1     188.124 188.578 170.525  1.00  0.00    -0.000 C 
BRANCH  22  23
ATOM     23  C   UNL     1     189.460 188.452 169.766  1.00  0.00    -0.000 C 
BRANCH  23  24
ATOM     24  C   UNL     1     189.390 188.801 168.268  1.00  0.00    -0.000 C 
BRANCH  24  25
ATOM     25  C   UNL     1     190.759 188.724 167.576  1.00  0.00    -0.003 C 
ATOM     26  C   UNL     1     191.834 188.224 168.535  1.00  0.00     0.004 C 
ENDBRANCH  24  25
ENDBRANCH  23  24
ENDBRANCH  22  23
ENDBRANCH  21  22
ENDBRANCH  20  21
ENDBRANCH  19  20
ENDBRANCH  18  19
ENDBRANCH  17  18
ENDBRANCH  16  17
ENDBRANCH  15  16
ENDBRANCH   1  15
TORSDOF 22
ENDMDL
MODEL 6
REMARK VINA RESULT:    -3.336     11.687     13.821
REMARK INTER + INTRA:         -12.213
REMARK INTER:                  -9.269
REMARK INTRA:                  -2.944
REMARK UNBOUND:                -4.587
REMARK SMILES CCCCCCCCCCCCCCCCCCCCCCCC(=O)[O-]
REMARK SMILES IDX 13 1 14 2 15 3 16 4 17 5 18 6 19 7 20 8 21 9 22 10 23 11
REMARK SMILES IDX 24 12 25 13 26 14 12 15 11 16 10 17 9 18 8 19 7 20 6 21 5 22
REMARK SMILES IDX 4 23 3 24 2 25 1 26
REMARK H PARENT
REMARK Flexibility Score: inf
ROOT
ATOM      1  C   UNL     1     187.350 184.878 168.510  1.00  0.00     0.000 C 
ENDROOT
BRANCH   1   2
ATOM      2  C   UNL     1     186.000 185.611 168.494  1.00  0.00     0.000 C 
BRANCH   2   3
ATOM      3  C   UNL     1     186.153 187.135 168.610  1.00  0.00     0.000 C 
BRANCH   3   4
ATOM      4  C   UNL     1     185.642 187.638 169.966  1.00  0.00     0.000 C 
BRANCH   4   5
ATOM      5  C   UNL     1     184.163 187.274 170.165  1.00  0.00     0.000 C 
BRANCH   5   6
ATOM      6  C   UNL     1     183.216 188.192 169.376  1.00  0.00     0.000 C 
BRANCH   6   7
ATOM      7  C   UNL     1     181.900 188.464 170.120  1.00  0.00     0.000 C 
BRANCH   7   8
ATOM      8  C   UNL     1     180.748 187.650 169.512  1.00  0.00     0.000 C 
BRANCH   8   9
ATOM      9  C   UNL     1     180.757 187.668 167.975  1.00  0.00     0.000 C 
BRANCH   9  10
ATOM     10  C   UNL     1     180.052 188.907 167.394  1.00  0.00     0.006 C 
BRANCH  10  11
ATOM     11  C   UNL     1     181.050 189.951 166.878  1.00  0.00     0.053 C 
BRANCH  11  12
ATOM     12  C   UNL     1     180.835 191.293 167.510  1.00  0.00     0.041 C 
ATOM     13  O   UNL     1     181.500 191.630 168.525  1.00  0.00    -0.550 OA
ATOM     14  O   UNL     1     179.899 192.172 166.977  1.00  0.00    -0.550 OA
ENDBRANCH  11  12
ENDBRANCH  10  11
ENDBRANCH   9  10
ENDBRANCH   8   9
ENDBRANCH   7   8
ENDBRANCH   6   7
ENDBRANCH   5   6
ENDBRANCH   4   5
ENDBRANCH   3   4
ENDBRANCH   2   3
ENDBRANCH   1   2
BRANCH   1  15
ATOM     15  C   UNL     1     188.177 185.136 167.239  1.00  0.00     0.000 C 
BRANCH  15  16
ATOM     16  C   UNL     1     189.691 185.168 167.508  1.00  0.00     0.000 C 
BRANCH  16  17
ATOM     17  C   UNL     1     190.357 186.508 167.129  1.00  0.00     0.000 C 
BRANCH  17  18
ATOM     18  C   UNL     1     189.394 187.698 167.293  1.00  0.00    -0.000 C 
BRANCH  18  19
ATOM     19  C   UNL     1     189.937 188.782 168.238  1.00  0.00    -0.000 C 
BRANCH  19  20
ATOM     20  C   UNL     1     190.420 188.208 169.581  1.00  0.00    -0.000 C 
BRANCH  20  21
ATOM     21  C   UNL     1     189.263 187.864 170.536  1.00  0.00    -0.000 C 
BRANCH  21  22
ATOM     22  C   UNL     1     189.233 186.403 171.032  1.00  0.00    -0.000 C 
BRANCH  22  23
ATOM     23  C   UNL     1     188.093 186.066 172.016  1.00  0.00    -0.000 C 
BRANCH  23  24
ATOM     24  C   UNL     1     188.538 185.342 173.299  1.00  0.00    -0.000 C 
BRANCH  24  25
ATOM     25  C   UNL     1     190.061 185.168 173.386  1.00  0.00    -0.003 C 
ATOM     26  C   UNL     1     190.685 186.227 174.289  1.00  0.00     0.004 C 
ENDBRANCH  24  25
ENDBRANCH  23  24
ENDBRANCH  22  23
ENDBRANCH  21  22
ENDBRANCH  20  21
ENDBRANCH  19  20
ENDBRANCH  18  19
ENDBRANCH  17  18
ENDBRANCH  16  17
ENDBRANCH  15  16
ENDBRANCH   1  15
TORSDOF 22
ENDMDL
MODEL 7
REMARK VINA RESULT:    -3.324      3.282      5.403
REMARK INTER + INTRA:         -12.187
REMARK INTER:                  -8.712
REMARK INTRA:                  -3.475
REMARK UNBOUND:                -4.587
REMARK SMILES CCCCCCCCCCCCCCCCCCCCCCCC(=O)[O-]
REMARK SMILES IDX 13 1 14 2 15 3 16 4 17 5 18 6 19 7 20 8 21 9 22 10 23 11
REMARK SMILES IDX 24 12 25 13 26 14 12 15 11 16 10 17 9 18 8 19 7 20 6 21 5 22
REMARK SMILES IDX 4 23 3 24 2 25 1 26
REMARK H PARENT
REMARK Flexibility Score: inf
ROOT
ATOM      1  C   UNL     1     181.996 193.924 175.547  1.00  0.00     0.000 C 
ENDROOT
BRANCH   1   2
ATOM      2  C   UNL     1     183.002 195.086 175.575  1.00  0.00     0.000 C 
BRANCH   2   3
ATOM      3  C   UNL     1     183.010 195.893 174.268  1.00  0.00     0.000 C 
BRANCH   3   4
ATOM      4  C   UNL     1     181.862 196.910 174.242  1.00  0.00     0.000 C 
BRANCH   4   5
ATOM      5  C   UNL     1     180.927 196.654 173.052  1.00  0.00     0.000 C 
BRANCH   5   6
ATOM      6  C   UNL     1     179.613 195.973 173.467  1.00  0.00     0.000 C 
BRANCH   6   7
ATOM      7  C   UNL     1     179.501 194.534 172.941  1.00  0.00     0.000 C 
BRANCH   7   8
ATOM      8  C   UNL     1     180.590 194.245 171.896  1.00  0.00     0.000 C 
BRANCH   8   9
ATOM      9  C   UNL     1     180.015 194.013 170.490  1.00  0.00     0.000 C 
BRANCH   9  10
ATOM     10  C   UNL     1     180.080 192.536 170.061  1.00  0.00     0.006 C 
BRANCH  10  11
ATOM     11  C   UNL     1     181.441 192.171 169.453  1.00  0.00     0.053 C 
BRANCH  11  12
ATOM     12  C   UNL     1     181.530 190.713 169.115  1.00  0.00     0.041 C 
ATOM     13  O   UNL     1     181.316 190.321 167.937  1.00  0.00    -0.550 OA
ATOM     14  O   UNL     1     181.851 189.788 170.101  1.00  0.00    -0.550 OA
ENDBRANCH  11  12
ENDBRANCH  10  11
ENDBRANCH   9  10
ENDBRANCH   8   9
ENDBRANCH   7   8
ENDBRANCH   6   7
ENDBRANCH   5   6
ENDBRANCH   4   5
ENDBRANCH   3   4
ENDBRANCH   2   3
ENDBRANCH   1   2
BRANCH   1  15
ATOM     15  C   UNL     1     181.130 193.863 176.817  1.00  0.00     0.000 C 
BRANCH  15  16
ATOM     16  C   UNL     1     179.986 194.891 176.809  1.00  0.00     0.000 C 
BRANCH  16  17
ATOM     17  C   UNL     1     179.967 195.803 178.054  1.00  0.00     0.000 C 
BRANCH  17  18
ATOM     18  C   UNL     1     181.114 196.829 178.037  1.00  0.00    -0.000 C 
BRANCH  18  19
ATOM     19  C   UNL     1     181.936 196.830 179.336  1.00  0.00    -0.000 C 
BRANCH  19  20
ATOM     20  C   UNL     1     183.444 196.992 179.083  1.00  0.00    -0.000 C 
BRANCH  20  21
ATOM     21  C   UNL     1     184.157 195.651 178.829  1.00  0.00    -0.000 C 
BRANCH  21  22
ATOM     22  C   UNL     1     183.462 194.412 179.432  1.00  0.00    -0.000 C 
BRANCH  22  23
ATOM     23  C   UNL     1     184.045 193.919 180.772  1.00  0.00    -0.000 C 
BRANCH  23  24
ATOM     24  C   UNL     1     183.157 194.180 182.001  1.00  0.00    -0.000 C 
BRANCH  24  25
ATOM     25  C   UNL     1     181.666 193.941 181.718  1.00  0.00    -0.003 C 
ATOM     26  C   UNL     1     180.808 195.045 182.327  1.00  0.00     0.004 C 
ENDBRANCH  24  25
ENDBRANCH  23  24
ENDBRANCH  22  23
ENDBRANCH  21  22
ENDBRANCH  20  21
ENDBRANCH  19  20
ENDBRANCH  18  19
ENDBRANCH  17  18
ENDBRANCH  16  17
ENDBRANCH  15  16
ENDBRANCH   1  15
TORSDOF 22
ENDMDL
MODEL 8
REMARK VINA RESULT:    -3.301     12.675     14.704
REMARK INTER + INTRA:         -12.133
REMARK INTER:                  -8.188
REMARK INTRA:                  -3.945
REMARK UNBOUND:                -4.587
REMARK SMILES CCCCCCCCCCCCCCCCCCCCCCCC(=O)[O-]
REMARK SMILES IDX 13 1 14 2 15 3 16 4 17 5 18 6 19 7 20 8 21 9 22 10 23 11
REMARK SMILES IDX 24 12 25 13 26 14 12 15 11 16 10 17 9 18 8 19 7 20 6 21 5 22
REMARK SMILES IDX 4 23 3 24 2 25 1 26
REMARK H PARENT
REMARK Flexibility Score: inf
ROOT
ATOM      1  C   UNL     1     188.119 186.037 171.515  1.00  0.00     0.000 C 
ENDROOT
BRANCH   1   2
ATOM      2  C   UNL     1     188.829 187.354 171.165  1.00  0.00     0.000 C 
BRANCH   2   3
ATOM      3  C   UNL     1     187.884 188.383 170.526  1.00  0.00     0.000 C 
BRANCH   3   4
ATOM      4  C   UNL     1     188.393 188.814 169.145  1.00  0.00     0.000 C 
BRANCH   4   5
ATOM      5  C   UNL     1     189.365 187.774 168.568  1.00  0.00     0.000 C 
BRANCH   5   6
ATOM      6  C   UNL     1     189.350 187.737 167.032  1.00  0.00     0.000 C 
BRANCH   6   7
ATOM      7  C   UNL     1     188.584 186.528 166.476  1.00  0.00     0.000 C 
BRANCH   7   8
ATOM      8  C   UNL     1     188.327 185.488 167.577  1.00  0.00     0.000 C 
BRANCH   8   9
ATOM      9  C   UNL     1     186.876 184.982 167.587  1.00  0.00     0.000 C 
BRANCH   9  10
ATOM     10  C   UNL     1     186.043 185.598 168.725  1.00  0.00     0.006 C 
BRANCH  10  11
ATOM     11  C   UNL     1     185.339 186.890 168.291  1.00  0.00     0.053 C 
BRANCH  11  12
ATOM     12  C   UNL     1     184.437 187.425 169.363  1.00  0.00     0.041 C 
ATOM     13  O   UNL     1     184.619 187.099 170.566  1.00  0.00    -0.550 OA
ATOM     14  O   UNL     1     183.396 188.284 169.032  1.00  0.00    -0.550 OA
ENDBRANCH  11  12
ENDBRANCH  10  11
ENDBRANCH   9  10
ENDBRANCH   8   9
ENDBRANCH   7   8
ENDBRANCH   6   7
ENDBRANCH   5   6
ENDBRANCH   4   5
ENDBRANCH   3   4
ENDBRANCH   2   3
ENDBRANCH   1   2
BRANCH   1  15
ATOM     15  C   UNL     1     188.229 185.685 173.008  1.00  0.00     0.000 C 
BRANCH  15  16
ATOM     16  C   UNL     1     189.348 184.670 173.300  1.00  0.00     0.000 C 
BRANCH  16  17
ATOM     17  C   UNL     1     190.544 185.274 174.068  1.00  0.00     0.000 C 
BRANCH  17  18
ATOM     18  C   UNL     1     191.561 184.198 174.492  1.00  0.00    -0.000 C 
BRANCH  18  19
ATOM     19  C   UNL     1     192.894 184.305 173.734  1.00  0.00    -0.000 C 
BRANCH  19  20
ATOM     20  C   UNL     1     193.048 183.222 172.653  1.00  0.00    -0.000 C 
BRANCH  20  21
ATOM     21  C   UNL     1     192.365 183.598 171.326  1.00  0.00    -0.000 C 
BRANCH  21  22
ATOM     22  C   UNL     1     192.988 184.798 170.582  1.00  0.00    -0.000 C 
BRANCH  22  23
ATOM     23  C   UNL     1     192.046 186.000 170.369  1.00  0.00    -0.000 C 
BRANCH  23  24
ATOM     24  C   UNL     1     192.753 187.356 170.196  1.00  0.00    -0.000 C 
BRANCH  24  25
ATOM     25  C   UNL     1     192.209 188.435 171.144  1.00  0.00    -0.003 C 
ATOM     26  C   UNL     1     192.377 188.021 172.603  1.00  0.00     0.004 C 
ENDBRANCH  24  25
ENDBRANCH  23  24
ENDBRANCH  22  23
ENDBRANCH  21  22
ENDBRANCH  20  21
ENDBRANCH  19  20
ENDBRANCH  18  19
ENDBRANCH  17  18
ENDBRANCH  16  17
ENDBRANCH  15  16
ENDBRANCH   1  15
TORSDOF 22
ENDMDL
MODEL 9
REMARK VINA RESULT:    -3.282     12.992     15.182
REMARK INTER + INTRA:         -12.091
REMARK INTER:                  -7.969
REMARK INTRA:                  -4.122
REMARK UNBOUND:                -4.587
REMARK SMILES CCCCCCCCCCCCCCCCCCCCCCCC(=O)[O-]
REMARK SMILES IDX 13 1 14 2 15 3 16 4 17 5 18 6 19 7 20 8 21 9 22 10 23 11
REMARK SMILES IDX 24 12 25 13 26 14 12 15 11 16 10 17 9 18 8 19 7 20 6 21 5 22
REMARK SMILES IDX 4 23 3 24 2 25 1 26
REMARK H PARENT
REMARK Flexibility Score: inf
ROOT
ATOM      1  C   UNL     1     188.219 187.818 170.766  1.00  0.00     0.000 C 
ENDROOT
BRANCH   1   2
ATOM      2  C   UNL     1     186.886 188.317 170.188  1.00  0.00     0.000 C 
BRANCH   2   3
ATOM      3  C   UNL     1     185.737 187.320 170.404  1.00  0.00     0.000 C 
BRANCH   3   4
ATOM      4  C   UNL     1     184.824 187.257 169.174  1.00  0.00     0.000 C 
BRANCH   4   5
ATOM      5  C   UNL     1     185.579 186.701 167.957  1.00  0.00     0.000 C 
BRANCH   5   6
ATOM      6  C   UNL     1     186.337 185.403 168.274  1.00  0.00     0.000 C 
BRANCH   6   7
ATOM      7  C   UNL     1     187.779 185.416 167.745  1.00  0.00     0.000 C 
BRANCH   7   8
ATOM      8  C   UNL     1     188.030 186.651 166.866  1.00  0.00     0.000 C 
BRANCH   8   9
ATOM      9  C   UNL     1     189.298 187.418 167.272  1.00  0.00     0.000 C 
BRANCH   9  10
ATOM     10  C   UNL     1     190.332 186.522 167.977  1.00  0.00     0.006 C 
BRANCH  10  11
ATOM     11  C   UNL     1     191.686 187.222 168.142  1.00  0.00     0.053 C 
BRANCH  11  12
ATOM     12  C   UNL     1     191.692 188.166 169.307  1.00  0.00     0.041 C 
ATOM     13  O   UNL     1     191.571 189.405 169.119  1.00  0.00    -0.550 OA
ATOM     14  O   UNL     1     191.830 187.675 170.600  1.00  0.00    -0.550 OA
ENDBRANCH  11  12
ENDBRANCH  10  11
ENDBRANCH   9  10
ENDBRANCH   8   9
ENDBRANCH   7   8
ENDBRANCH   6   7
ENDBRANCH   5   6
ENDBRANCH   4   5
ENDBRANCH   3   4
ENDBRANCH   2   3
ENDBRANCH   1   2
BRANCH   1  15
ATOM     15  C   UNL     1     188.091 186.443 171.443  1.00  0.00     0.000 C 
BRANCH  15  16
ATOM     16  C   UNL     1     189.325 186.076 172.286  1.00  0.00     0.000 C 
BRANCH  16  17
ATOM     17  C   UNL     1     189.821 184.632 172.056  1.00  0.00     0.000 C 
BRANCH  17  18
ATOM     18  C   UNL     1     189.896 184.278 170.559  1.00  0.00    -0.000 C 
BRANCH  18  19
ATOM     19  C   UNL     1     191.216 183.590 170.173  1.00  0.00    -0.000 C 
BRANCH  19  20
ATOM     20  C   UNL     1     192.433 184.206 170.882  1.00  0.00    -0.000 C 
BRANCH  20  21
ATOM     21  C   UNL     1     193.182 183.197 171.772  1.00  0.00    -0.000 C 
BRANCH  21  22
ATOM     22  C   UNL     1     193.548 183.708 173.181  1.00  0.00    -0.000 C 
BRANCH  22  23
ATOM     23  C   UNL     1     192.617 183.233 174.315  1.00  0.00    -0.000 C 
BRANCH  23  24
ATOM     24  C   UNL     1     191.801 184.348 174.993  1.00  0.00    -0.000 C 
BRANCH  24  25
ATOM     25  C   UNL     1     192.297 185.754 174.627  1.00  0.00    -0.003 C 
ATOM     26  C   UNL     1     191.435 186.830 175.280  1.00  0.00     0.004 C 
ENDBRANCH  24  25
ENDBRANCH  23  24
ENDBRANCH  22  23
ENDBRANCH  21  22
ENDBRANCH  20  21
ENDBRANCH  19  20
ENDBRANCH  18  19
ENDBRANCH  17  18
ENDBRANCH  16  17
ENDBRANCH  15  16
ENDBRANCH   1  15
TORSDOF 22
ENDMDL
