MODEL 1
REMARK VINA RESULT:    -4.211      0.000      0.000
REMARK INTER + INTRA:         -10.642
REMARK INTER:                  -8.150
REMARK INTRA:                  -2.492
REMARK UNBOUND:                -2.492
REMARK SMILES CCCCCCCCCCCCCCCCCC(=O)[O-]
REMARK SMILES IDX 10 1 11 2 12 3 13 4 14 5 15 6 16 7 17 8 18 9 19 10 20 11
REMARK SMILES IDX 9 12 8 13 7 14 6 15 5 16 4 17 3 18 2 19 1 20
REMARK H PARENT
REMARK Flexibility Score: inf
ROOT
ATOM      1  C   UNL     1      -0.709  25.442  54.847  1.00  0.00     0.000 C 
ENDROOT
BRANCH   1   2
ATOM      2  C   UNL     1      -1.954  24.540  54.821  1.00  0.00     0.000 C 
BRANCH   2   3
ATOM      3  C   UNL     1      -2.153  23.759  56.131  1.00  0.00     0.000 C 
BRANCH   3   4
ATOM      4  C   UNL     1      -1.265  24.259  57.291  1.00  0.00     0.000 C 
BRANCH   4   5
ATOM      5  C   UNL     1      -0.368  23.145  57.856  1.00  0.00     0.000 C 
BRANCH   5   6
ATOM      6  C   UNL     1       0.606  22.581  56.811  1.00  0.00     0.000 C 
BRANCH   6   7
ATOM      7  C   UNL     1       1.935  23.356  56.761  1.00  0.00     0.006 C 
BRANCH   7   8
ATOM      8  C   UNL     1       2.942  22.718  55.795  1.00  0.00     0.053 C 
BRANCH   8   9
ATOM      9  C   UNL     1       4.129  22.164  56.520  1.00  0.00     0.041 C 
ATOM     10  O   UNL     1       4.099  22.019  57.771  1.00  0.00    -0.550 OA
ATOM     11  O   UNL     1       5.283  21.839  55.818  1.00  0.00    -0.550 OA
ENDBRANCH   8   9
ENDBRANCH   7   8
ENDBRANCH   6   7
ENDBRANCH   5   6
ENDBRANCH   4   5
ENDBRANCH   3   4
ENDBRANCH   2   3
ENDBRANCH   1   2
BRANCH   1  12
ATOM     12  C   UNL     1       0.199  25.230  53.625  1.00  0.00     0.000 C 
BRANCH  12  13
ATOM     13  C   UNL     1       0.430  23.745  53.307  1.00  0.00    -0.000 C 
BRANCH  13  14
ATOM     14  C   UNL     1       0.364  23.489  51.796  1.00  0.00    -0.000 C 
BRANCH  14  15
ATOM     15  C   UNL     1       1.219  24.509  51.029  1.00  0.00    -0.000 C 
BRANCH  15  16
ATOM     16  C   UNL     1       1.890  23.905  49.785  1.00  0.00    -0.000 C 
BRANCH  16  17
ATOM     17  C   UNL     1       2.777  22.693  50.122  1.00  0.00    -0.000 C 
BRANCH  17  18
ATOM     18  C   UNL     1       4.008  23.069  50.965  1.00  0.00    -0.000 C 
BRANCH  18  19
ATOM     19  C   UNL     1       4.196  22.238  52.247  1.00  0.00    -0.003 C 
ATOM     20  C   UNL     1       3.199  21.086  52.366  1.00  0.00     0.004 C 
ENDBRANCH  18  19
ENDBRANCH  17  18
ENDBRANCH  16  17
ENDBRANCH  15  16
ENDBRANCH  14  15
ENDBRANCH  13  14
ENDBRANCH  12  13
ENDBRANCH   1  12
TORSDOF 16
ENDMDL
MODEL 2
REMARK VINA RESULT:    -4.150      2.375      5.897
REMARK INTER + INTRA:         -10.523
REMARK INTER:                  -7.668
REMARK INTRA:                  -2.855
REMARK UNBOUND:                -2.492
REMARK SMILES CCCCCCCCCCCCCCCCCC(=O)[O-]
REMARK SMILES IDX 10 1 11 2 12 3 13 4 14 5 15 6 16 7 17 8 18 9 19 10 20 11
REMARK SMILES IDX 9 12 8 13 7 14 6 15 5 16 4 17 3 18 2 19 1 20
REMARK H PARENT
REMARK Flexibility Score: inf
ROOT
ATOM      1  C   UNL     1       1.671  25.800  53.330  1.00  0.00     0.000 C 
ENDROOT
BRANCH   1   2
ATOM      2  C   UNL     1       0.955  25.097  52.164  1.00  0.00     0.000 C 
BRANCH   2   3
ATOM      3  C   UNL     1       0.082  23.917  52.625  1.00  0.00     0.000 C 
BRANCH   3   4
ATOM      4  C   UNL     1       0.202  22.669  51.724  1.00  0.00     0.000 C 
BRANCH   4   5
ATOM      5  C   UNL     1       1.668  22.282  51.464  1.00  0.00     0.000 C 
BRANCH   5   6
ATOM      6  C   UNL     1       2.362  21.717  52.713  1.00  0.00     0.000 C 
BRANCH   6   7
ATOM      7  C   UNL     1       3.896  21.803  52.627  1.00  0.00     0.006 C 
BRANCH   7   8
ATOM      8  C   UNL     1       4.400  23.250  52.709  1.00  0.00     0.053 C 
BRANCH   8   9
ATOM      9  C   UNL     1       4.927  23.727  51.391  1.00  0.00     0.041 C 
ATOM     10  O   UNL     1       5.707  23.002  50.718  1.00  0.00    -0.550 OA
ATOM     11  O   UNL     1       4.584  24.988  50.920  1.00  0.00    -0.550 OA
ENDBRANCH   8   9
ENDBRANCH   7   8
ENDBRANCH   6   7
ENDBRANCH   5   6
ENDBRANCH   4   5
ENDBRANCH   3   4
ENDBRANCH   2   3
ENDBRANCH   1   2
BRANCH   1  12
ATOM     12  C   UNL     1       1.334  25.175  54.693  1.00  0.00     0.000 C 
BRANCH  12  13
ATOM     13  C   UNL     1       2.586  24.765  55.483  1.00  0.00    -0.000 C 
BRANCH  13  14
ATOM     14  C   UNL     1       2.414  23.370  56.099  1.00  0.00    -0.000 C 
BRANCH  14  15
ATOM     15  C   UNL     1       0.945  22.926  56.053  1.00  0.00    -0.000 C 
BRANCH  15  16
ATOM     16  C   UNL     1       0.344  22.714  57.452  1.00  0.00    -0.000 C 
BRANCH  16  17
ATOM     17  C   UNL     1      -0.966  23.496  57.657  1.00  0.00    -0.000 C 
BRANCH  17  18
ATOM     18  C   UNL     1      -1.754  23.696  56.351  1.00  0.00    -0.000 C 
BRANCH  18  19
ATOM     19  C   UNL     1      -2.476  25.050  56.227  1.00  0.00    -0.003 C 
ATOM     20  C   UNL     1      -1.749  26.184  56.949  1.00  0.00     0.004 C 
ENDBRANCH  18  19
ENDBRANCH  17  18
ENDBRANCH  16  17
ENDBRANCH  15  16
ENDBRANCH  14  15
ENDBRANCH  13  14
ENDBRANCH  12  13
ENDBRANCH   1  12
TORSDOF 16
ENDMDL
MODEL 3
REMARK VINA RESULT:    -4.129      3.549      5.706
REMARK INTER + INTRA:         -10.483
REMARK INTER:                  -9.051
REMARK INTRA:                  -1.432
REMARK UNBOUND:                -2.492
REMARK SMILES CCCCCCCCCCCCCCCCCC(=O)[O-]
REMARK SMILES IDX 10 1 11 2 12 3 13 4 14 5 15 6 16 7 17 8 18 9 19 10 20 11
REMARK SMILES IDX 9 12 8 13 7 14 6 15 5 16 4 17 3 18 2 19 1 20
REMARK H PARENT
REMARK Flexibility Score: inf
ROOT
ATOM      1  C   UNL     1       2.107  25.755  51.266  1.00  0.00     0.000 C 
ENDROOT
BRANCH   1   2
ATOM      2  C   UNL     1       0.907  24.803  51.402  1.00  0.00     0.000 C 
BRANCH   2   3
ATOM      3  C   UNL     1       0.880  24.064  52.750  1.00  0.00     0.000 C 
BRANCH   3   4
ATOM      4  C   UNL     1       1.285  22.577  52.650  1.00  0.00     0.000 C 
BRANCH   4   5
ATOM      5  C   UNL     1       2.106  22.285  51.382  1.00  0.00     0.000 C 
BRANCH   5   6
ATOM      6  C   UNL     1       3.564  21.915  51.692  1.00  0.00     0.000 C 
BRANCH   6   7
ATOM      7  C   UNL     1       4.571  22.875  51.036  1.00  0.00     0.006 C 
BRANCH   7   8
ATOM      8  C   UNL     1       5.574  23.443  52.049  1.00  0.00     0.053 C 
BRANCH   8   9
ATOM      9  C   UNL     1       4.949  23.638  53.396  1.00  0.00     0.041 C 
ATOM     10  O   UNL     1       4.266  24.669  53.636  1.00  0.00    -0.550 OA
ATOM     11  O   UNL     1       5.151  22.697  54.398  1.00  0.00    -0.550 OA
ENDBRANCH   8   9
ENDBRANCH   7   8
ENDBRANCH   6   7
ENDBRANCH   5   6
ENDBRANCH   4   5
ENDBRANCH   3   4
ENDBRANCH   2   3
ENDBRANCH   1   2
BRANCH   1  12
ATOM     12  C   UNL     1       2.535  25.961  49.804  1.00  0.00     0.000 C 
BRANCH  12  13
ATOM     13  C   UNL     1       1.428  25.591  48.805  1.00  0.00    -0.000 C 
BRANCH  13  14
ATOM     14  C   UNL     1       2.023  25.222  47.439  1.00  0.00    -0.000 C 
BRANCH  14  15
ATOM     15  C   UNL     1       1.143  24.190  46.718  1.00  0.00    -0.000 C 
BRANCH  15  16
ATOM     16  C   UNL     1       1.595  23.932  45.271  1.00  0.00    -0.000 C 
BRANCH  16  17
ATOM     17  C   UNL     1       2.462  22.667  45.140  1.00  0.00    -0.000 C 
BRANCH  17  18
ATOM     18  C   UNL     1       3.325  22.663  43.865  1.00  0.00    -0.000 C 
BRANCH  18  19
ATOM     19  C   UNL     1       2.606  22.174  42.595  1.00  0.00    -0.003 C 
ATOM     20  C   UNL     1       1.499  21.162  42.886  1.00  0.00     0.004 C 
ENDBRANCH  18  19
ENDBRANCH  17  18
ENDBRANCH  16  17
ENDBRANCH  15  16
ENDBRANCH  14  15
ENDBRANCH  13  14
ENDBRANCH  12  13
ENDBRANCH   1  12
TORSDOF 16
ENDMDL
MODEL 4
REMARK VINA RESULT:    -4.121      1.724      3.166
REMARK INTER + INTRA:         -10.468
REMARK INTER:                  -8.233
REMARK INTRA:                  -2.236
REMARK UNBOUND:                -2.492
REMARK SMILES CCCCCCCCCCCCCCCCCC(=O)[O-]
REMARK SMILES IDX 10 1 11 2 12 3 13 4 14 5 15 6 16 7 17 8 18 9 19 10 20 11
REMARK SMILES IDX 9 12 8 13 7 14 6 15 5 16 4 17 3 18 2 19 1 20
REMARK H PARENT
REMARK Flexibility Score: inf
ROOT
ATOM      1  C   UNL     1       0.585  24.216  53.364  1.00  0.00     0.000 C 
ENDROOT
BRANCH   1   2
ATOM      2  C   UNL     1       0.236  25.707  53.510  1.00  0.00     0.000 C 
BRANCH   2   3
ATOM      3  C   UNL     1      -0.894  25.958  54.524  1.00  0.00     0.000 C 
BRANCH   3   4
ATOM      4  C   UNL     1      -1.730  24.700  54.843  1.00  0.00     0.000 C 
BRANCH   4   5
ATOM      5  C   UNL     1      -2.357  24.763  56.246  1.00  0.00     0.000 C 
BRANCH   5   6
ATOM      6  C   UNL     1      -1.794  23.694  57.195  1.00  0.00     0.000 C 
BRANCH   6   7
ATOM      7  C   UNL     1      -0.348  23.991  57.630  1.00  0.00     0.006 C 
BRANCH   7   8
ATOM      8  C   UNL     1       0.274  22.824  58.408  1.00  0.00     0.053 C 
BRANCH   8   9
ATOM      9  C   UNL     1       1.210  22.026  57.553  1.00  0.00     0.041 C 
ATOM     10  O   UNL     1       1.995  21.192  58.078  1.00  0.00    -0.550 OA
ATOM     11  O   UNL     1       1.240  22.229  56.179  1.00  0.00    -0.550 OA
ENDBRANCH   8   9
ENDBRANCH   7   8
ENDBRANCH   6   7
ENDBRANCH   5   6
ENDBRANCH   4   5
ENDBRANCH   3   4
ENDBRANCH   2   3
ENDBRANCH   1   2
BRANCH   1  12
ATOM     12  C   UNL     1       0.784  23.797  51.899  1.00  0.00     0.000 C 
BRANCH  12  13
ATOM     13  C   UNL     1       1.013  22.286  51.739  1.00  0.00    -0.000 C 
BRANCH  13  14
ATOM     14  C   UNL     1       2.378  22.002  51.100  1.00  0.00    -0.000 C 
BRANCH  14  15
ATOM     15  C   UNL     1       3.247  21.135  52.022  1.00  0.00    -0.000 C 
BRANCH  15  16
ATOM     16  C   UNL     1       3.768  21.907  53.246  1.00  0.00    -0.000 C 
BRANCH  16  17
ATOM     17  C   UNL     1       4.684  23.081  52.857  1.00  0.00    -0.000 C 
BRANCH  17  18
ATOM     18  C   UNL     1       4.265  24.409  53.512  1.00  0.00    -0.000 C 
BRANCH  18  19
ATOM     19  C   UNL     1       4.211  25.616  52.557  1.00  0.00    -0.003 C 
ATOM     20  C   UNL     1       4.136  25.212  51.085  1.00  0.00     0.004 C 
ENDBRANCH  18  19
ENDBRANCH  17  18
ENDBRANCH  16  17
ENDBRANCH  15  16
ENDBRANCH  14  15
ENDBRANCH  13  14
ENDBRANCH  12  13
ENDBRANCH   1  12
TORSDOF 16
ENDMDL
MODEL 5
REMARK VINA RESULT:    -4.114      2.704      4.687
REMARK INTER + INTRA:         -10.455
REMARK INTER:                  -7.786
REMARK INTRA:                  -2.669
REMARK UNBOUND:                -2.492
REMARK SMILES CCCCCCCCCCCCCCCCCC(=O)[O-]
REMARK SMILES IDX 10 1 11 2 12 3 13 4 14 5 15 6 16 7 17 8 18 9 19 10 20 11
REMARK SMILES IDX 9 12 8 13 7 14 6 15 5 16 4 17 3 18 2 19 1 20
REMARK H PARENT
REMARK Flexibility Score: inf
ROOT
ATOM      1  C   UNL     1       3.674  25.085  53.884  1.00  0.00     0.000 C 
ENDROOT
BRANCH   1   2
ATOM      2  C   UNL     1       3.479  24.623  55.338  1.00  0.00     0.000 C 
BRANCH   2   3
ATOM      3  C   UNL     1       1.998  24.440  55.713  1.00  0.00     0.000 C 
BRANCH   3   4
ATOM      4  C   UNL     1       1.468  23.011  55.462  1.00  0.00     0.000 C 
BRANCH   4   5
ATOM      5  C   UNL     1       0.680  22.467  56.665  1.00  0.00     0.000 C 
BRANCH   5   6
ATOM      6  C   UNL     1       0.014  23.579  57.489  1.00  0.00     0.000 C 
BRANCH   6   7
ATOM      7  C   UNL     1      -1.519  23.452  57.526  1.00  0.00     0.006 C 
BRANCH   7   8
ATOM      8  C   UNL     1      -2.165  23.849  56.192  1.00  0.00     0.053 C 
BRANCH   8   9
ATOM      9  C   UNL     1      -1.882  25.278  55.843  1.00  0.00     0.041 C 
ATOM     10  O   UNL     1      -1.375  25.572  54.728  1.00  0.00    -0.550 OA
ATOM     11  O   UNL     1      -2.147  26.284  56.765  1.00  0.00    -0.550 OA
ENDBRANCH   8   9
ENDBRANCH   7   8
ENDBRANCH   6   7
ENDBRANCH   5   6
ENDBRANCH   4   5
ENDBRANCH   3   4
ENDBRANCH   2   3
ENDBRANCH   1   2
BRANCH   1  12
ATOM     12  C   UNL     1       4.614  24.161  53.092  1.00  0.00     0.000 C 
BRANCH  12  13
ATOM     13  C   UNL     1       4.645  22.729  53.648  1.00  0.00    -0.000 C 
BRANCH  13  14
ATOM     14  C   UNL     1       3.763  21.795  52.810  1.00  0.00    -0.000 C 
BRANCH  14  15
ATOM     15  C   UNL     1       3.761  22.219  51.334  1.00  0.00    -0.000 C 
BRANCH  15  16
ATOM     16  C   UNL     1       2.345  22.302  50.741  1.00  0.00    -0.000 C 
BRANCH  16  17
ATOM     17  C   UNL     1       1.257  22.414  51.825  1.00  0.00    -0.000 C 
BRANCH  17  18
ATOM     18  C   UNL     1       0.690  23.838  51.959  1.00  0.00    -0.000 C 
BRANCH  18  19
ATOM     19  C   UNL     1       1.325  24.881  51.021  1.00  0.00    -0.003 C 
ATOM     20  C   UNL     1       0.643  26.247  51.096  1.00  0.00     0.004 C 
ENDBRANCH  18  19
ENDBRANCH  17  18
ENDBRANCH  16  17
ENDBRANCH  15  16
ENDBRANCH  14  15
ENDBRANCH  13  14
ENDBRANCH  12  13
ENDBRANCH   1  12
TORSDOF 16
ENDMDL
MODEL 6
REMARK VINA RESULT:    -4.097      1.632      5.448
REMARK INTER + INTRA:         -10.422
REMARK INTER:                  -7.856
REMARK INTRA:                  -2.565
REMARK UNBOUND:                -2.492
REMARK SMILES CCCCCCCCCCCCCCCCCC(=O)[O-]
REMARK SMILES IDX 10 1 11 2 12 3 13 4 14 5 15 6 16 7 17 8 18 9 19 10 20 11
REMARK SMILES IDX 9 12 8 13 7 14 6 15 5 16 4 17 3 18 2 19 1 20
REMARK H PARENT
REMARK Flexibility Score: inf
ROOT
ATOM      1  C   UNL     1       0.070  25.420  53.539  1.00  0.00     0.000 C 
ENDROOT
BRANCH   1   2
ATOM      2  C   UNL     1       1.458  25.574  52.894  1.00  0.00     0.000 C 
BRANCH   2   3
ATOM      3  C   UNL     1       1.603  24.770  51.591  1.00  0.00     0.000 C 
BRANCH   3   4
ATOM      4  C   UNL     1       0.555  23.647  51.437  1.00  0.00     0.000 C 
BRANCH   4   5
ATOM      5  C   UNL     1       1.126  22.267  51.806  1.00  0.00     0.000 C 
BRANCH   5   6
ATOM      6  C   UNL     1       2.372  21.903  50.985  1.00  0.00     0.000 C 
BRANCH   6   7
ATOM      7  C   UNL     1       3.617  21.687  51.863  1.00  0.00     0.006 C 
BRANCH   7   8
ATOM      8  C   UNL     1       4.793  22.572  51.429  1.00  0.00     0.053 C 
BRANCH   8   9
ATOM      9  C   UNL     1       5.281  23.435  52.551  1.00  0.00     0.041 C 
ATOM     10  O   UNL     1       6.395  24.016  52.468  1.00  0.00    -0.550 OA
ATOM     11  O   UNL     1       4.519  23.571  53.705  1.00  0.00    -0.550 OA
ENDBRANCH   8   9
ENDBRANCH   7   8
ENDBRANCH   6   7
ENDBRANCH   5   6
ENDBRANCH   4   5
ENDBRANCH   3   4
ENDBRANCH   2   3
ENDBRANCH   1   2
BRANCH   1  12
ATOM     12  C   UNL     1      -0.219  26.507  54.587  1.00  0.00     0.000 C 
BRANCH  12  13
ATOM     13  C   UNL     1      -1.243  26.059  55.640  1.00  0.00    -0.000 C 
BRANCH  13  14
ATOM     14  C   UNL     1      -2.102  24.902  55.114  1.00  0.00    -0.000 C 
BRANCH  14  15
ATOM     15  C   UNL     1      -2.196  23.773  56.151  1.00  0.00    -0.000 C 
BRANCH  15  16
ATOM     16  C   UNL     1      -1.421  24.085  57.442  1.00  0.00    -0.000 C 
BRANCH  16  17
ATOM     17  C   UNL     1      -0.292  23.074  57.711  1.00  0.00    -0.000 C 
BRANCH  17  18
ATOM     18  C   UNL     1       1.094  23.737  57.810  1.00  0.00    -0.000 C 
BRANCH  18  19
ATOM     19  C   UNL     1       1.847  23.871  56.475  1.00  0.00    -0.003 C 
ATOM     20  C   UNL     1       1.532  22.744  55.493  1.00  0.00     0.004 C 
ENDBRANCH  18  19
ENDBRANCH  17  18
ENDBRANCH  16  17
ENDBRANCH  15  16
ENDBRANCH  14  15
ENDBRANCH  13  14
ENDBRANCH  12  13
ENDBRANCH   1  12
TORSDOF 16
ENDMDL
MODEL 7
REMARK VINA RESULT:    -4.085      1.926      6.061
REMARK INTER + INTRA:         -10.399
REMARK INTER:                  -7.488
REMARK INTRA:                  -2.911
REMARK UNBOUND:                -2.492
REMARK SMILES CCCCCCCCCCCCCCCCCC(=O)[O-]
REMARK SMILES IDX 10 1 11 2 12 3 13 4 14 5 15 6 16 7 17 8 18 9 19 10 20 11
REMARK SMILES IDX 9 12 8 13 7 14 6 15 5 16 4 17 3 18 2 19 1 20
REMARK H PARENT
REMARK Flexibility Score: inf
ROOT
ATOM      1  C   UNL     1       1.258  22.580  56.183  1.00  0.00     0.000 C 
ENDROOT
BRANCH   1   2
ATOM      2  C   UNL     1       2.536  23.250  55.648  1.00  0.00     0.000 C 
BRANCH   2   3
ATOM      3  C   UNL     1       2.259  24.218  54.485  1.00  0.00     0.000 C 
BRANCH   3   4
ATOM      4  C   UNL     1       0.927  23.944  53.755  1.00  0.00     0.000 C 
BRANCH   4   5
ATOM      5  C   UNL     1       0.767  24.815  52.497  1.00  0.00     0.000 C 
BRANCH   5   6
ATOM      6  C   UNL     1       0.929  24.013  51.197  1.00  0.00     0.000 C 
BRANCH   6   7
ATOM      7  C   UNL     1       1.110  22.505  51.450  1.00  0.00     0.006 C 
BRANCH   7   8
ATOM      8  C   UNL     1       2.404  21.965  50.828  1.00  0.00     0.053 C 
BRANCH   8   9
ATOM      9  C   UNL     1       3.491  21.823  51.849  1.00  0.00     0.041 C 
ATOM     10  O   UNL     1       3.317  21.101  52.867  1.00  0.00    -0.550 OA
ATOM     11  O   UNL     1       4.686  22.515  51.693  1.00  0.00    -0.550 OA
ENDBRANCH   8   9
ENDBRANCH   7   8
ENDBRANCH   6   7
ENDBRANCH   5   6
ENDBRANCH   4   5
ENDBRANCH   3   4
ENDBRANCH   2   3
ENDBRANCH   1   2
BRANCH   1  12
ATOM     12  C   UNL     1       1.386  22.157  57.655  1.00  0.00     0.000 C 
BRANCH  12  13
ATOM     13  C   UNL     1       0.517  23.007  58.595  1.00  0.00    -0.000 C 
BRANCH  13  14
ATOM     14  C   UNL     1       1.204  24.339  58.923  1.00  0.00    -0.000 C 
BRANCH  14  15
ATOM     15  C   UNL     1       0.343  25.527  58.470  1.00  0.00    -0.000 C 
BRANCH  15  16
ATOM     16  C   UNL     1       0.959  26.291  57.287  1.00  0.00    -0.000 C 
BRANCH  16  17
ATOM     17  C   UNL     1      -0.071  26.612  56.190  1.00  0.00    -0.000 C 
BRANCH  17  18
ATOM     18  C   UNL     1      -1.498  26.174  56.563  1.00  0.00    -0.000 C 
BRANCH  18  19
ATOM     19  C   UNL     1      -2.107  25.093  55.652  1.00  0.00    -0.003 C 
ATOM     20  C   UNL     1      -2.243  23.736  56.341  1.00  0.00     0.004 C 
ENDBRANCH  18  19
ENDBRANCH  17  18
ENDBRANCH  16  17
ENDBRANCH  15  16
ENDBRANCH  14  15
ENDBRANCH  13  14
ENDBRANCH  12  13
ENDBRANCH   1  12
TORSDOF 16
ENDMDL
MODEL 8
REMARK VINA RESULT:    -4.070      1.755      4.931
REMARK INTER + INTRA:         -10.369
REMARK INTER:                  -8.048
REMARK INTRA:                  -2.321
REMARK UNBOUND:                -2.492
REMARK SMILES CCCCCCCCCCCCCCCCCC(=O)[O-]
REMARK SMILES IDX 10 1 11 2 12 3 13 4 14 5 15 6 16 7 17 8 18 9 19 10 20 11
REMARK SMILES IDX 9 12 8 13 7 14 6 15 5 16 4 17 3 18 2 19 1 20
REMARK H PARENT
REMARK Flexibility Score: inf
ROOT
ATOM      1  C   UNL     1      -1.875  24.836  55.087  1.00  0.00     0.000 C 
ENDROOT
BRANCH   1   2
ATOM      2  C   UNL     1      -0.917  25.991  54.748  1.00  0.00     0.000 C 
BRANCH   2   3
ATOM      3  C   UNL     1       0.153  25.595  53.717  1.00  0.00     0.000 C 
BRANCH   3   4
ATOM      4  C   UNL     1       0.105  24.105  53.315  1.00  0.00     0.000 C 
BRANCH   4   5
ATOM      5  C   UNL     1       0.643  23.871  51.893  1.00  0.00     0.000 C 
BRANCH   5   6
ATOM      6  C   UNL     1       1.111  22.425  51.668  1.00  0.00     0.000 C 
BRANCH   6   7
ATOM      7  C   UNL     1       2.057  21.929  52.775  1.00  0.00     0.006 C 
BRANCH   7   8
ATOM      8  C   UNL     1       3.413  21.476  52.219  1.00  0.00     0.053 C 
BRANCH   8   9
ATOM      9  C   UNL     1       4.314  22.640  51.942  1.00  0.00     0.041 C 
ATOM     10  O   UNL     1       5.042  22.650  50.914  1.00  0.00    -0.550 OA
ATOM     11  O   UNL     1       4.376  23.699  52.839  1.00  0.00    -0.550 OA
ENDBRANCH   8   9
ENDBRANCH   7   8
ENDBRANCH   6   7
ENDBRANCH   5   6
ENDBRANCH   4   5
ENDBRANCH   3   4
ENDBRANCH   2   3
ENDBRANCH   1   2
BRANCH   1  12
ATOM     12  C   UNL     1      -2.126  24.701  56.597  1.00  0.00     0.000 C 
BRANCH  12  13
ATOM     13  C   UNL     1      -1.490  23.435  57.193  1.00  0.00    -0.000 C 
BRANCH  13  14
ATOM     14  C   UNL     1      -0.181  23.768  57.920  1.00  0.00    -0.000 C 
BRANCH  14  15
ATOM     15  C   UNL     1       0.832  22.622  57.780  1.00  0.00    -0.000 C 
BRANCH  15  16
ATOM     16  C   UNL     1       1.406  22.506  56.358  1.00  0.00    -0.000 C 
BRANCH  16  17
ATOM     17  C   UNL     1       2.469  23.579  56.061  1.00  0.00    -0.000 C 
BRANCH  17  18
ATOM     18  C   UNL     1       3.872  23.183  56.553  1.00  0.00    -0.000 C 
BRANCH  18  19
ATOM     19  C   UNL     1       4.495  21.972  55.836  1.00  0.00    -0.003 C 
ATOM     20  C   UNL     1       5.222  21.022  56.786  1.00  0.00     0.004 C 
ENDBRANCH  18  19
ENDBRANCH  17  18
ENDBRANCH  16  17
ENDBRANCH  15  16
ENDBRANCH  14  15
ENDBRANCH  13  14
ENDBRANCH  12  13
ENDBRANCH   1  12
TORSDOF 16
ENDMDL
MODEL 9
REMARK VINA RESULT:    -4.025      2.703      4.062
REMARK INTER + INTRA:         -10.283
REMARK INTER:                  -7.432
REMARK INTRA:                  -2.851
REMARK UNBOUND:                -2.492
REMARK SMILES CCCCCCCCCCCCCCCCCC(=O)[O-]
REMARK SMILES IDX 10 1 11 2 12 3 13 4 14 5 15 6 16 7 17 8 18 9 19 10 20 11
REMARK SMILES IDX 9 12 8 13 7 14 6 15 5 16 4 17 3 18 2 19 1 20
REMARK H PARENT
REMARK Flexibility Score: inf
ROOT
ATOM      1  C   UNL     1       1.863  25.465  54.006  1.00  0.00     0.000 C 
ENDROOT
BRANCH   1   2
ATOM      2  C   UNL     1       2.396  24.896  55.332  1.00  0.00     0.000 C 
BRANCH   2   3
ATOM      3  C   UNL     1       2.558  23.366  55.302  1.00  0.00     0.000 C 
BRANCH   3   4
ATOM      4  C   UNL     1       2.229  22.682  56.646  1.00  0.00     0.000 C 
BRANCH   4   5
ATOM      5  C   UNL     1       0.733  22.345  56.772  1.00  0.00     0.000 C 
BRANCH   5   6
ATOM      6  C   UNL     1      -0.005  23.280  57.743  1.00  0.00     0.000 C 
BRANCH   6   7
ATOM      7  C   UNL     1      -1.480  23.488  57.357  1.00  0.00     0.006 C 
BRANCH   7   8
ATOM      8  C   UNL     1      -1.634  24.046  55.936  1.00  0.00     0.053 C 
BRANCH   8   9
ATOM      9  C   UNL     1      -1.757  25.538  55.937  1.00  0.00     0.041 C 
ATOM     10  O   UNL     1      -2.235  26.136  56.938  1.00  0.00    -0.550 OA
ATOM     11  O   UNL     1      -1.374  26.268  54.819  1.00  0.00    -0.550 OA
ENDBRANCH   8   9
ENDBRANCH   7   8
ENDBRANCH   6   7
ENDBRANCH   5   6
ENDBRANCH   4   5
ENDBRANCH   3   4
ENDBRANCH   2   3
ENDBRANCH   1   2
BRANCH   1  12
ATOM     12  C   UNL     1       1.015  24.447  53.225  1.00  0.00     0.000 C 
BRANCH  12  13
ATOM     13  C   UNL     1       0.952  24.757  51.722  1.00  0.00    -0.000 C 
BRANCH  13  14
ATOM     14  C   UNL     1       1.312  23.519  50.890  1.00  0.00    -0.000 C 
BRANCH  14  15
ATOM     15  C   UNL     1       1.491  22.287  51.790  1.00  0.00    -0.000 C 
BRANCH  15  16
ATOM     16  C   UNL     1       2.750  21.476  51.443  1.00  0.00    -0.000 C 
BRANCH  16  17
ATOM     17  C   UNL     1       3.931  21.790  52.378  1.00  0.00    -0.000 C 
BRANCH  17  18
ATOM     18  C   UNL     1       4.897  22.835  51.792  1.00  0.00    -0.000 C 
BRANCH  18  19
ATOM     19  C   UNL     1       5.101  24.091  52.658  1.00  0.00    -0.003 C 
ATOM     20  C   UNL     1       4.847  25.391  51.896  1.00  0.00     0.004 C 
ENDBRANCH  18  19
ENDBRANCH  17  18
ENDBRANCH  16  17
ENDBRANCH  15  16
ENDBRANCH  14  15
ENDBRANCH  13  14
ENDBRANCH  12  13
ENDBRANCH   1  12
TORSDOF 16
ENDMDL
