MODEL 1
REMARK VINA RESULT:    -5.648      0.000      0.000
REMARK INTER + INTRA:          -6.369
REMARK INTER:                  -6.308
REMARK INTRA:                  -0.061
REMARK UNBOUND:                -0.061
REMARK SMILES COc1cc2ccc(=O)oc2c(O)c1O
REMARK SMILES IDX 3 1 14 2 12 3 11 4 5 5 4 6 6 7 7 8 8 9 9 10 10 11 2 12 1 13
REMARK SMILES IDX 15 14 13 16
REMARK H PARENT 15 15 13 17
REMARK Flexibility Score: inf
ROOT
ATOM      1  C   UNL     1      33.339  -4.464  33.495  1.00  0.00     0.165 A 
ATOM      2  C   UNL     1      33.097  -3.117  33.829  1.00  0.00     0.204 A 
ATOM      3  C   UNL     1      31.798  -2.691  34.162  1.00  0.00     0.205 A 
ATOM      4  C   UNL     1      30.739  -3.607  34.161  1.00  0.00     0.184 A 
ATOM      5  C   UNL     1      30.977  -4.956  33.826  1.00  0.00     0.025 A 
ATOM      6  C   UNL     1      32.270  -5.380  33.496  1.00  0.00     0.062 A 
ATOM      7  C   UNL     1      29.898  -5.846  33.835  1.00  0.00     0.020 A 
ATOM      8  C   UNL     1      28.628  -5.380  34.170  1.00  0.00     0.094 A 
ATOM      9  C   UNL     1      28.467  -4.028  34.491  1.00  0.00     0.336 A 
ATOM     10  O   UNL     1      27.328  -3.587  34.797  1.00  0.00    -0.246 OA
ATOM     11  O   UNL     1      29.510  -3.204  34.475  1.00  0.00    -0.419 OA
ENDROOT
BRANCH   1  12
ATOM     12  O   UNL     1      34.649  -4.854  33.168  1.00  0.00    -0.493 OA
ATOM     13  C   UNL     1      35.594  -5.370  34.099  1.00  0.00     0.278 C 
ENDBRANCH   1  12
BRANCH   2  14
ATOM     14  O   UNL     1      34.141  -2.190  33.836  1.00  0.00    -0.502 OA
ATOM     15  H   UNL     1      34.894  -2.215  33.159  1.00  0.00     0.293 HD
ENDBRANCH   2  14
BRANCH   3  16
ATOM     16  O   UNL     1      31.543  -1.360  34.495  1.00  0.00    -0.502 OA
ATOM     17  H   UNL     1      31.697  -0.601  33.842  1.00  0.00     0.293 HD
ENDBRANCH   3  16
TORSDOF 3
ENDMDL
MODEL 2
REMARK VINA RESULT:    -5.430      1.802      5.273
REMARK INTER + INTRA:          -6.126
REMARK INTER:                  -6.058
REMARK INTRA:                  -0.068
REMARK UNBOUND:                -0.061
REMARK SMILES COc1cc2ccc(=O)oc2c(O)c1O
REMARK SMILES IDX 3 1 14 2 12 3 11 4 5 5 4 6 6 7 7 8 8 9 9 10 10 11 2 12 1 13
REMARK SMILES IDX 15 14 13 16
REMARK H PARENT 15 15 13 17
REMARK Flexibility Score: inf
ROOT
ATOM      1  C   UNL     1      29.292  -3.546  35.287  1.00  0.00     0.165 A 
ATOM      2  C   UNL     1      29.065  -4.235  34.079  1.00  0.00     0.204 A 
ATOM      3  C   UNL     1      30.150  -4.689  33.307  1.00  0.00     0.205 A 
ATOM      4  C   UNL     1      31.461  -4.457  33.737  1.00  0.00     0.184 A 
ATOM      5  C   UNL     1      31.694  -3.768  34.945  1.00  0.00     0.025 A 
ATOM      6  C   UNL     1      30.614  -3.317  35.715  1.00  0.00     0.062 A 
ATOM      7  C   UNL     1      33.016  -3.552  35.347  1.00  0.00     0.020 A 
ATOM      8  C   UNL     1      34.059  -4.019  34.550  1.00  0.00     0.094 A 
ATOM      9  C   UNL     1      33.754  -4.695  33.364  1.00  0.00     0.336 A 
ATOM     10  O   UNL     1      34.682  -5.125  32.630  1.00  0.00    -0.246 OA
ATOM     11  O   UNL     1      32.488  -4.886  33.006  1.00  0.00    -0.419 OA
ENDROOT
BRANCH   1  12
ATOM     12  O   UNL     1      28.186  -3.108  36.033  1.00  0.00    -0.493 OA
ATOM     13  C   UNL     1      27.787  -1.747  36.163  1.00  0.00     0.278 C 
ENDBRANCH   1  12
BRANCH   2  14
ATOM     14  O   UNL     1      27.763  -4.476  33.635  1.00  0.00    -0.502 OA
ATOM     15  H   UNL     1      27.206  -3.766  33.175  1.00  0.00     0.293 HD
ENDBRANCH   2  14
BRANCH   3  16
ATOM     16  O   UNL     1      29.939  -5.372  32.107  1.00  0.00    -0.502 OA
ATOM     17  H   UNL     1      30.671  -5.906  31.654  1.00  0.00     0.293 HD
ENDBRANCH   3  16
TORSDOF 3
ENDMDL
MODEL 3
REMARK VINA RESULT:    -5.324      4.457      6.779
REMARK INTER + INTRA:          -6.007
REMARK INTER:                  -6.035
REMARK INTRA:                   0.028
REMARK UNBOUND:                -0.061
REMARK SMILES COc1cc2ccc(=O)oc2c(O)c1O
REMARK SMILES IDX 3 1 14 2 12 3 11 4 5 5 4 6 6 7 7 8 8 9 9 10 10 11 2 12 1 13
REMARK SMILES IDX 15 14 13 16
REMARK H PARENT 15 15 13 17
REMARK Flexibility Score: inf
ROOT
ATOM      1  C   UNL     1      26.935  -2.707  34.616  1.00  0.00     0.165 A 
ATOM      2  C   UNL     1      27.380  -2.089  35.801  1.00  0.00     0.204 A 
ATOM      3  C   UNL     1      26.486  -1.341  36.590  1.00  0.00     0.205 A 
ATOM      4  C   UNL     1      25.149  -1.207  36.197  1.00  0.00     0.184 A 
ATOM      5  C   UNL     1      24.700  -1.824  35.011  1.00  0.00     0.025 A 
ATOM      6  C   UNL     1      25.589  -2.569  34.227  1.00  0.00     0.062 A 
ATOM      7  C   UNL     1      23.358  -1.672  34.647  1.00  0.00     0.020 A 
ATOM      8  C   UNL     1      22.508  -0.921  35.458  1.00  0.00     0.094 A 
ATOM      9  C   UNL     1      23.024  -0.338  36.620  1.00  0.00     0.336 A 
ATOM     10  O   UNL     1      22.274   0.344  37.366  1.00  0.00    -0.246 OA
ATOM     11  O   UNL     1      24.304  -0.499  36.943  1.00  0.00    -0.419 OA
ENDROOT
BRANCH   1  12
ATOM     12  O   UNL     1      27.854  -3.447  33.854  1.00  0.00    -0.493 OA
ATOM     13  C   UNL     1      28.305  -4.758  34.180  1.00  0.00     0.278 C 
ENDBRANCH   1  12
BRANCH   2  14
ATOM     14  O   UNL     1      28.710  -2.212  36.208  1.00  0.00    -0.502 OA
ATOM     15  H   UNL     1      28.971  -2.343  37.178  1.00  0.00     0.293 HD
ENDBRANCH   2  14
BRANCH   3  16
ATOM     16  O   UNL     1      26.913  -0.722  37.766  1.00  0.00    -0.502 OA
ATOM     17  H   UNL     1      27.014   0.283  37.842  1.00  0.00     0.293 HD
ENDBRANCH   3  16
TORSDOF 3
ENDMDL
MODEL 4
REMARK VINA RESULT:    -5.300      1.773      5.391
REMARK INTER + INTRA:          -5.981
REMARK INTER:                  -5.918
REMARK INTRA:                  -0.063
REMARK UNBOUND:                -0.061
REMARK SMILES COc1cc2ccc(=O)oc2c(O)c1O
REMARK SMILES IDX 3 1 14 2 12 3 11 4 5 5 4 6 6 7 7 8 8 9 9 10 10 11 2 12 1 13
REMARK SMILES IDX 15 14 13 16
REMARK H PARENT 15 15 13 17
REMARK Flexibility Score: inf
ROOT
ATOM      1  C   UNL     1      31.285  -3.309  34.296  1.00  0.00     0.165 A 
ATOM      2  C   UNL     1      31.420  -3.895  33.021  1.00  0.00     0.204 A 
ATOM      3  C   UNL     1      32.627  -4.517  32.652  1.00  0.00     0.205 A 
ATOM      4  C   UNL     1      33.699  -4.555  33.551  1.00  0.00     0.184 A 
ATOM      5  C   UNL     1      33.568  -3.969  34.827  1.00  0.00     0.025 A 
ATOM      6  C   UNL     1      32.367  -3.351  35.195  1.00  0.00     0.062 A 
ATOM      7  C   UNL     1      34.658  -4.025  35.702  1.00  0.00     0.020 A 
ATOM      8  C   UNL     1      35.834  -4.650  35.293  1.00  0.00     0.094 A 
ATOM      9  C   UNL     1      35.893  -5.210  34.012  1.00  0.00     0.336 A 
ATOM     10  O   UNL     1      36.945  -5.780  33.623  1.00  0.00    -0.246 OA
ATOM     11  O   UNL     1      34.841  -5.143  33.201  1.00  0.00    -0.419 OA
ENDROOT
BRANCH   1  12
ATOM     12  O   UNL     1      30.066  -2.697  34.631  1.00  0.00    -0.493 OA
ATOM     13  C   UNL     1      29.231  -3.098  35.713  1.00  0.00     0.278 C 
ENDBRANCH   1  12
BRANCH   2  14
ATOM     14  O   UNL     1      30.361  -3.867  32.112  1.00  0.00    -0.502 OA
ATOM     15  H   UNL     1      29.535  -3.299  32.258  1.00  0.00     0.293 HD
ENDBRANCH   2  14
BRANCH   3  16
ATOM     16  O   UNL     1      32.776  -5.101  31.393  1.00  0.00    -0.502 OA
ATOM     17  H   UNL     1      32.548  -6.073  31.217  1.00  0.00     0.293 HD
ENDBRANCH   3  16
TORSDOF 3
ENDMDL
MODEL 5
REMARK VINA RESULT:    -5.144      3.899      7.435
REMARK INTER + INTRA:          -5.807
REMARK INTER:                  -5.738
REMARK INTRA:                  -0.069
REMARK UNBOUND:                -0.061
REMARK SMILES COc1cc2ccc(=O)oc2c(O)c1O
REMARK SMILES IDX 3 1 14 2 12 3 11 4 5 5 4 6 6 7 7 8 8 9 9 10 10 11 2 12 1 13
REMARK SMILES IDX 15 14 13 16
REMARK H PARENT 15 15 13 17
REMARK Flexibility Score: inf
ROOT
ATOM      1  C   UNL     1      24.628  -1.050  35.248  1.00  0.00     0.165 A 
ATOM      2  C   UNL     1      25.266  -0.611  36.426  1.00  0.00     0.204 A 
ATOM      3  C   UNL     1      26.521  -1.136  36.788  1.00  0.00     0.205 A 
ATOM      4  C   UNL     1      27.139  -2.097  35.980  1.00  0.00     0.184 A 
ATOM      5  C   UNL     1      26.503  -2.538  34.801  1.00  0.00     0.025 A 
ATOM      6  C   UNL     1      25.255  -2.017  34.439  1.00  0.00     0.062 A 
ATOM      7  C   UNL     1      27.147  -3.499  34.015  1.00  0.00     0.020 A 
ATOM      8  C   UNL     1      28.389  -3.991  34.414  1.00  0.00     0.094 A 
ATOM      9  C   UNL     1      28.960  -3.507  35.595  1.00  0.00     0.336 A 
ATOM     10  O   UNL     1      30.081  -3.937  35.973  1.00  0.00    -0.246 OA
ATOM     11  O   UNL     1      28.325  -2.593  36.324  1.00  0.00    -0.419 OA
ENDROOT
BRANCH   1  12
ATOM     12  O   UNL     1      23.376  -0.505  34.917  1.00  0.00    -0.493 OA
ATOM     13  C   UNL     1      22.125  -1.124  35.199  1.00  0.00     0.278 C 
ENDBRANCH   1  12
BRANCH   2  14
ATOM     14  O   UNL     1      24.665   0.347  37.243  1.00  0.00    -0.502 OA
ATOM     15  H   UNL     1      24.125   0.099  38.064  1.00  0.00     0.293 HD
ENDBRANCH   2  14
BRANCH   3  16
ATOM     16  O   UNL     1      27.166  -0.711  37.952  1.00  0.00    -0.502 OA
ATOM     17  H   UNL     1      26.701  -0.143  38.650  1.00  0.00     0.293 HD
ENDBRANCH   3  16
TORSDOF 3
ENDMDL
MODEL 6
REMARK VINA RESULT:    -5.087      1.821      2.662
REMARK INTER + INTRA:          -5.743
REMARK INTER:                  -5.689
REMARK INTRA:                  -0.053
REMARK UNBOUND:                -0.061
REMARK SMILES COc1cc2ccc(=O)oc2c(O)c1O
REMARK SMILES IDX 3 1 14 2 12 3 11 4 5 5 4 6 6 7 7 8 8 9 9 10 10 11 2 12 1 13
REMARK SMILES IDX 15 14 13 16
REMARK H PARENT 15 15 13 17
REMARK Flexibility Score: inf
ROOT
ATOM      1  C   UNL     1      32.435  -4.057  34.682  1.00  0.00     0.165 A 
ATOM      2  C   UNL     1      31.993  -4.687  33.501  1.00  0.00     0.204 A 
ATOM      3  C   UNL     1      30.626  -4.690  33.168  1.00  0.00     0.205 A 
ATOM      4  C   UNL     1      29.698  -4.068  34.011  1.00  0.00     0.184 A 
ATOM      5  C   UNL     1      30.136  -3.437  35.194  1.00  0.00     0.025 A 
ATOM      6  C   UNL     1      31.496  -3.432  35.525  1.00  0.00     0.062 A 
ATOM      7  C   UNL     1      29.184  -2.824  36.015  1.00  0.00     0.020 A 
ATOM      8  C   UNL     1      27.840  -2.853  35.646  1.00  0.00     0.094 A 
ATOM      9  C   UNL     1      27.479  -3.497  34.458  1.00  0.00     0.336 A 
ATOM     10  O   UNL     1      26.271  -3.535  34.106  1.00  0.00    -0.246 OA
ATOM     11  O   UNL     1      28.405  -4.072  33.696  1.00  0.00    -0.419 OA
ENDROOT
BRANCH   1  12
ATOM     12  O   UNL     1      33.807  -4.072  34.983  1.00  0.00    -0.493 OA
ATOM     13  C   UNL     1      34.522  -2.980  35.553  1.00  0.00     0.278 C 
ENDBRANCH   1  12
BRANCH   2  14
ATOM     14  O   UNL     1      32.905  -5.312  32.648  1.00  0.00    -0.502 OA
ATOM     15  H   UNL     1      32.746  -5.396  31.651  1.00  0.00     0.293 HD
ENDBRANCH   2  14
BRANCH   3  16
ATOM     16  O   UNL     1      30.174  -5.311  32.002  1.00  0.00    -0.502 OA
ATOM     17  H   UNL     1      30.810  -5.711  31.322  1.00  0.00     0.293 HD
ENDBRANCH   3  16
TORSDOF 3
ENDMDL
MODEL 7
REMARK VINA RESULT:    -5.013      2.112      3.310
REMARK INTER + INTRA:          -5.660
REMARK INTER:                  -5.610
REMARK INTRA:                  -0.050
REMARK UNBOUND:                -0.061
REMARK SMILES COc1cc2ccc(=O)oc2c(O)c1O
REMARK SMILES IDX 3 1 14 2 12 3 11 4 5 5 4 6 6 7 7 8 8 9 9 10 10 11 2 12 1 13
REMARK SMILES IDX 15 14 13 16
REMARK H PARENT 15 15 13 17
REMARK Flexibility Score: inf
ROOT
ATOM      1  C   UNL     1      33.469  -1.885  33.443  1.00  0.00     0.165 A 
ATOM      2  C   UNL     1      33.783  -2.844  32.458  1.00  0.00     0.204 A 
ATOM      3  C   UNL     1      33.056  -4.046  32.382  1.00  0.00     0.205 A 
ATOM      4  C   UNL     1      32.017  -4.295  33.287  1.00  0.00     0.184 A 
ATOM      5  C   UNL     1      31.699  -3.338  34.273  1.00  0.00     0.025 A 
ATOM      6  C   UNL     1      32.422  -2.141  34.349  1.00  0.00     0.062 A 
ATOM      7  C   UNL     1      30.655  -3.617  35.161  1.00  0.00     0.020 A 
ATOM      8  C   UNL     1      29.963  -4.822  35.049  1.00  0.00     0.094 A 
ATOM      9  C   UNL     1      30.333  -5.723  34.046  1.00  0.00     0.336 A 
ATOM     10  O   UNL     1      29.721  -6.816  33.927  1.00  0.00    -0.246 OA
ATOM     11  O   UNL     1      31.330  -5.433  33.214  1.00  0.00    -0.419 OA
ENDROOT
BRANCH   1  12
ATOM     12  O   UNL     1      34.215  -0.696  33.489  1.00  0.00    -0.493 OA
ATOM     13  C   UNL     1      33.749   0.529  34.046  1.00  0.00     0.278 C 
ENDBRANCH   1  12
BRANCH   2  14
ATOM     14  O   UNL     1      34.816  -2.612  31.548  1.00  0.00    -0.502 OA
ATOM     15  H   UNL     1      35.657  -2.106  31.799  1.00  0.00     0.293 HD
ENDBRANCH   2  14
BRANCH   3  16
ATOM     16  O   UNL     1      33.356  -5.005  31.413  1.00  0.00    -0.502 OA
ATOM     17  H   UNL     1      34.291  -5.123  31.041  1.00  0.00     0.293 HD
ENDBRANCH   3  16
TORSDOF 3
ENDMDL
MODEL 8
REMARK VINA RESULT:    -4.997      6.474      9.196
REMARK INTER + INTRA:          -5.642
REMARK INTER:                  -5.578
REMARK INTRA:                  -0.064
REMARK UNBOUND:                -0.061
REMARK SMILES COc1cc2ccc(=O)oc2c(O)c1O
REMARK SMILES IDX 3 1 14 2 12 3 11 4 5 5 4 6 6 7 7 8 8 9 9 10 10 11 2 12 1 13
REMARK SMILES IDX 15 14 13 16
REMARK H PARENT 15 15 13 17
REMARK Flexibility Score: inf
ROOT
ATOM      1  C   UNL     1      25.559  -0.643  34.776  1.00  0.00     0.165 A 
ATOM      2  C   UNL     1      24.464  -1.189  35.476  1.00  0.00     0.204 A 
ATOM      3  C   UNL     1      23.155  -0.763  35.187  1.00  0.00     0.205 A 
ATOM      4  C   UNL     1      22.935   0.207  34.201  1.00  0.00     0.184 A 
ATOM      5  C   UNL     1      24.028   0.755  33.499  1.00  0.00     0.025 A 
ATOM      6  C   UNL     1      25.331   0.331  33.786  1.00  0.00     0.062 A 
ATOM      7  C   UNL     1      23.775   1.722  32.520  1.00  0.00     0.020 A 
ATOM      8  C   UNL     1      22.461   2.114  32.268  1.00  0.00     0.094 A 
ATOM      9  C   UNL     1      21.427   1.527  33.004  1.00  0.00     0.336 A 
ATOM     10  O   UNL     1      20.234   1.866  32.791  1.00  0.00    -0.246 OA
ATOM     11  O   UNL     1      21.696   0.610  33.929  1.00  0.00    -0.419 OA
ENDROOT
BRANCH   1  12
ATOM     12  O   UNL     1      26.853  -1.092  35.090  1.00  0.00    -0.493 OA
ATOM     13  C   UNL     1      27.725  -0.457  36.021  1.00  0.00     0.278 C 
ENDBRANCH   1  12
BRANCH   2  14
ATOM     14  O   UNL     1      24.665  -2.156  36.462  1.00  0.00    -0.502 OA
ATOM     15  H   UNL     1      25.531  -2.232  36.981  1.00  0.00     0.293 HD
ENDBRANCH   2  14
BRANCH   3  16
ATOM     16  O   UNL     1      22.061  -1.294  35.873  1.00  0.00    -0.502 OA
ATOM     17  H   UNL     1      21.640  -2.179  35.616  1.00  0.00     0.293 HD
ENDBRANCH   3  16
TORSDOF 3
ENDMDL
MODEL 9
REMARK VINA RESULT:    -4.893      5.225      8.130
REMARK INTER + INTRA:          -5.526
REMARK INTER:                  -5.461
REMARK INTRA:                  -0.065
REMARK UNBOUND:                -0.061
REMARK SMILES COc1cc2ccc(=O)oc2c(O)c1O
REMARK SMILES IDX 3 1 14 2 12 3 11 4 5 5 4 6 6 7 7 8 8 9 9 10 10 11 2 12 1 13
REMARK SMILES IDX 15 14 13 16
REMARK H PARENT 15 15 13 17
REMARK Flexibility Score: inf
ROOT
ATOM      1  C   UNL     1      25.995  -1.976  34.734  1.00  0.00     0.165 A 
ATOM      2  C   UNL     1      24.622  -2.077  35.036  1.00  0.00     0.204 A 
ATOM      3  C   UNL     1      24.023  -1.164  35.924  1.00  0.00     0.205 A 
ATOM      4  C   UNL     1      24.791  -0.153  36.512  1.00  0.00     0.184 A 
ATOM      5  C   UNL     1      26.165  -0.049  36.213  1.00  0.00     0.025 A 
ATOM      6  C   UNL     1      26.762  -0.956  35.329  1.00  0.00     0.062 A 
ATOM      7  C   UNL     1      26.905   0.973  36.818  1.00  0.00     0.020 A 
ATOM      8  C   UNL     1      26.270   1.854  37.692  1.00  0.00     0.094 A 
ATOM      9  C   UNL     1      24.903   1.691  37.941  1.00  0.00     0.336 A 
ATOM     10  O   UNL     1      24.310   2.476  38.727  1.00  0.00    -0.246 OA
ATOM     11  O   UNL     1      24.224   0.710  37.352  1.00  0.00    -0.419 OA
ENDROOT
BRANCH   1  12
ATOM     12  O   UNL     1      26.559  -2.904  33.843  1.00  0.00    -0.493 OA
ATOM     13  C   UNL     1      27.558  -3.857  34.194  1.00  0.00     0.278 C 
ENDBRANCH   1  12
BRANCH   2  14
ATOM     14  O   UNL     1      23.841  -3.078  34.458  1.00  0.00    -0.502 OA
ATOM     15  H   UNL     1      23.670  -3.127  33.460  1.00  0.00     0.293 HD
ENDBRANCH   2  14
BRANCH   3  16
ATOM     16  O   UNL     1      22.664  -1.251  36.232  1.00  0.00    -0.502 OA
ATOM     17  H   UNL     1      21.955  -0.769  35.692  1.00  0.00     0.293 HD
ENDBRANCH   3  16
TORSDOF 3
ENDMDL
