MODEL 1
REMARK VINA RESULT:    -3.459      0.000      0.000
REMARK INTER + INTRA:          -4.445
REMARK INTER:                  -4.874
REMARK INTRA:                   0.429
REMARK UNBOUND:                 0.429
REMARK SMILES CC1=CCC(=C(C)C)C(=O)CC(C)=CCC1
REMARK SMILES IDX 12 1 14 2 13 3 15 4 16 5 2 6 1 7 3 8 11 10 9 11 10 12 5 13
REMARK SMILES IDX 6 14 7 15 8 16 4 17
REMARK H PARENT
REMARK Flexibility Score: 60.00
ROOT
ATOM      1  C   UNL     1      19.809  52.670  33.373  1.00  0.00    -0.070 C 
ATOM      2  C   UNL     1      19.600  52.992  34.671  1.00  0.00    -0.027 C 
ATOM      3  C   UNL     1      21.010  53.261  32.679  1.00  0.00     0.039 C 
ENDROOT
BRANCH   2   4
ATOM      4  C   UNL     1      18.420  52.542  35.501  1.00  0.00     0.032 C 
BRANCH   4   5
ATOM      5  C   UNL     1      17.205  53.458  35.301  1.00  0.00     0.034 C 
BRANCH   5   6
ATOM      6  C   UNL     1      15.875  52.718  35.320  1.00  0.00    -0.077 C 
ATOM      7  C   UNL     1      15.362  52.178  36.631  1.00  0.00     0.039 C 
ATOM      8  C   UNL     1      15.130  52.497  34.212  1.00  0.00    -0.023 CG0
ATOM      9  G   UNL     1      15.442  53.019  32.828  1.00  0.00     0.000 G0
ENDBRANCH   5   6
ENDBRANCH   4   5
ENDBRANCH   2   4
BRANCH   1  10
ATOM     10  C   UNL     1      18.895  51.742  32.595  1.00  0.00     0.111 C 
BRANCH  10  11
ATOM     11  C   UNL     1      17.816  52.513  31.888  1.00  0.00     0.163 C 
ATOM     12  O   UNL     1      18.127  53.518  31.193  1.00  0.00    -0.294 OA
BRANCH  11  13
ATOM     13  C   UNL     1      16.386  52.130  32.014  1.00  0.00    -0.002 C 
ATOM     14  C   UNL     1      15.924  50.999  31.414  1.00  0.00    -0.069 C 
ATOM     15  C   UNL     1      14.485  50.565  31.573  1.00  0.00     0.039 C 
ATOM     16  C   UNL     1      16.821  50.158  30.534  1.00  0.00     0.039 C 
BRANCH  13  17
ATOM     17  C   UNL     1      15.446  53.020  32.819  1.00  0.00     0.066 CG0
ATOM     18  G   UNL     1      15.145  52.493  34.203  1.00  0.00     0.000 G0
ENDBRANCH  13  17
ENDBRANCH  11  13
ENDBRANCH  10  11
ENDBRANCH   1  10
TORSDOF 0
ENDMDL
MODEL 2
REMARK VINA RESULT:    -3.345     13.236     14.635
REMARK INTER + INTRA:          -4.285
REMARK INTER:                  -4.763
REMARK INTRA:                   0.478
REMARK UNBOUND:                 0.429
REMARK SMILES CC1=CCC(=C(C)C)C(=O)CC(C)=CCC1
REMARK SMILES IDX 12 1 14 2 13 3 15 4 16 5 2 6 1 7 3 8 11 10 9 11 10 12 5 13
REMARK SMILES IDX 6 14 7 15 8 16 4 17
REMARK H PARENT
REMARK Flexibility Score: 60.00
ROOT
ATOM      1  C   UNL     1      17.618  60.886  22.252  1.00  0.00    -0.070 C 
ATOM      2  C   UNL     1      17.331  60.410  21.017  1.00  0.00    -0.027 C 
ATOM      3  C   UNL     1      18.723  60.218  23.031  1.00  0.00     0.039 C 
ENDROOT
BRANCH   2   4
ATOM      4  C   UNL     1      16.221  60.916  20.126  1.00  0.00     0.032 C 
BRANCH   4   5
ATOM      5  C   UNL     1      14.951  60.065  20.265  1.00  0.00     0.034 C 
BRANCH   5   6
ATOM      6  C   UNL     1      13.694  60.885  20.516  1.00  0.00    -0.077 C 
ATOM      7  C   UNL     1      12.943  61.445  19.334  1.00  0.00     0.039 C 
ATOM      8  C   UNL     1      13.218  61.160  21.752  1.00  0.00    -0.023 CG0
ATOM      9  G   UNL     1      13.790  60.631  23.048  1.00  0.00     0.000 G0
ENDBRANCH   5   6
ENDBRANCH   4   5
ENDBRANCH   2   4
BRANCH   1  10
ATOM     10  C   UNL     1      16.883  62.056  22.877  1.00  0.00     0.111 C 
BRANCH  10  11
ATOM     11  C   UNL     1      15.995  61.599  24.000  1.00  0.00     0.163 C 
ATOM     12  O   UNL     1      16.515  61.124  25.046  1.00  0.00    -0.294 OA
BRANCH  11  13
ATOM     13  C   UNL     1      14.515  61.673  23.893  1.00  0.00    -0.002 C 
ATOM     14  C   UNL     1      13.832  62.670  24.518  1.00  0.00    -0.069 C 
ATOM     15  C   UNL     1      12.331  62.793  24.378  1.00  0.00     0.039 C 
ATOM     16  C   UNL     1      14.540  63.667  25.408  1.00  0.00     0.039 C 
BRANCH  13  17
ATOM     17  C   UNL     1      13.776  60.620  23.076  1.00  0.00     0.066 CG0
ATOM     18  G   UNL     1      13.226  61.138  21.768  1.00  0.00     0.000 G0
ENDBRANCH  13  17
ENDBRANCH  11  13
ENDBRANCH  10  11
ENDBRANCH   1  10
TORSDOF 0
ENDMDL
MODEL 3
REMARK VINA RESULT:    -3.217      2.877      4.880
REMARK INTER + INTRA:          -4.104
REMARK INTER:                  -4.411
REMARK INTRA:                   0.307
REMARK UNBOUND:                 0.429
REMARK SMILES CC1=CCC(=C(C)C)C(=O)CC(C)=CCC1
REMARK SMILES IDX 12 1 14 2 13 3 15 4 16 5 2 6 1 7 3 8 11 10 9 11 10 12 5 13
REMARK SMILES IDX 6 14 7 15 8 16 4 17
REMARK H PARENT
REMARK Flexibility Score: 60.00
ROOT
ATOM      1  C   UNL     1      15.151  53.211  35.862  1.00  0.00    -0.070 C 
ATOM      2  C   UNL     1      14.270  54.237  35.795  1.00  0.00    -0.027 C 
ATOM      3  C   UNL     1      15.154  52.358  37.106  1.00  0.00     0.039 C 
ENDROOT
BRANCH   2   4
ATOM      4  C   UNL     1      14.170  55.225  34.656  1.00  0.00     0.032 C 
BRANCH   4   5
ATOM      5  C   UNL     1      15.202  56.355  34.795  1.00  0.00     0.034 C 
BRANCH   5   6
ATOM      6  C   UNL     1      15.876  56.727  33.483  1.00  0.00    -0.077 C 
ATOM      7  C   UNL     1      15.073  57.449  32.431  1.00  0.00     0.039 C 
ATOM      8  C   UNL     1      17.164  56.426  33.197  1.00  0.00    -0.023 CG0
ATOM      9  G   UNL     1      18.143  55.773  34.145  1.00  0.00     0.000 G0
ENDBRANCH   5   6
ENDBRANCH   4   5
ENDBRANCH   2   4
BRANCH   1  10
ATOM     10  C   UNL     1      16.125  52.885  34.746  1.00  0.00     0.111 C 
BRANCH  10  11
ATOM     11  C   UNL     1      17.488  53.448  35.034  1.00  0.00     0.163 C 
ATOM     12  O   UNL     1      18.017  53.243  36.160  1.00  0.00    -0.294 OA
BRANCH  11  13
ATOM     13  C   UNL     1      18.214  54.263  34.027  1.00  0.00    -0.002 C 
ATOM     14  C   UNL     1      18.913  53.657  33.029  1.00  0.00    -0.069 C 
ATOM     15  C   UNL     1      19.615  54.469  31.965  1.00  0.00     0.039 C 
ATOM     16  C   UNL     1      19.047  52.151  32.970  1.00  0.00     0.039 C 
BRANCH  13  17
ATOM     17  C   UNL     1      18.168  55.783  34.128  1.00  0.00     0.066 CG0
ATOM     18  G   UNL     1      17.160  56.425  33.204  1.00  0.00     0.000 G0
ENDBRANCH  13  17
ENDBRANCH  11  13
ENDBRANCH  10  11
ENDBRANCH   1  10
TORSDOF 0
ENDMDL
MODEL 4
REMARK VINA RESULT:    -3.162     13.145     14.639
REMARK INTER + INTRA:          -4.027
REMARK INTER:                  -4.359
REMARK INTRA:                   0.332
REMARK UNBOUND:                 0.429
REMARK SMILES CC1=CCC(=C(C)C)C(=O)CC(C)=CCC1
REMARK SMILES IDX 12 1 14 2 13 3 15 4 16 5 2 6 1 7 3 8 11 10 9 11 10 12 5 13
REMARK SMILES IDX 6 14 7 15 8 16 4 17
REMARK H PARENT
REMARK Flexibility Score: 60.00
ROOT
ATOM      1  C   UNL     1      11.515  52.147  19.642  1.00  0.00    -0.070 C 
ATOM      2  C   UNL     1      12.535  51.402  20.131  1.00  0.00    -0.027 C 
ATOM      3  C   UNL     1      11.772  53.606  19.362  1.00  0.00     0.039 C 
ENDROOT
BRANCH   2   4
ATOM      4  C   UNL     1      12.439  49.946  20.524  1.00  0.00     0.032 C 
BRANCH   4   5
ATOM      5  C   UNL     1      11.907  49.780  21.955  1.00  0.00     0.034 C 
BRANCH   5   6
ATOM      6  C   UNL     1      10.839  48.705  22.085  1.00  0.00    -0.077 C 
ATOM      7  C   UNL     1      11.249  47.257  21.996  1.00  0.00     0.039 C 
ATOM      8  C   UNL     1       9.525  48.978  22.259  1.00  0.00    -0.023 CG0
ATOM      9  G   UNL     1       8.933  50.357  22.440  1.00  0.00     0.000 G0
ENDBRANCH   5   6
ENDBRANCH   4   5
ENDBRANCH   2   4
BRANCH   1  10
ATOM     10  C   UNL     1      10.137  51.578  19.364  1.00  0.00     0.111 C 
BRANCH  10  11
ATOM     11  C   UNL     1       9.160  51.981  20.433  1.00  0.00     0.163 C 
ATOM     12  O   UNL     1       9.032  53.199  20.727  1.00  0.00    -0.294 OA
BRANCH  11  13
ATOM     13  C   UNL     1       8.359  50.967  21.166  1.00  0.00    -0.002 C 
ATOM     14  C   UNL     1       7.135  50.593  20.702  1.00  0.00    -0.069 C 
ATOM     15  C   UNL     1       6.328  49.525  21.405  1.00  0.00     0.039 C 
ATOM     16  C   UNL     1       6.520  51.257  19.491  1.00  0.00     0.039 C 
BRANCH  13  17
ATOM     17  C   UNL     1       8.924  50.356  22.443  1.00  0.00     0.066 CG0
ATOM     18  G   UNL     1       9.533  48.987  22.246  1.00  0.00     0.000 G0
ENDBRANCH  13  17
ENDBRANCH  11  13
ENDBRANCH  10  11
ENDBRANCH   1  10
TORSDOF 0
ENDMDL
MODEL 5
REMARK VINA RESULT:    -3.146      3.097      5.205
REMARK INTER + INTRA:          -4.003
REMARK INTER:                  -4.393
REMARK INTRA:                   0.390
REMARK UNBOUND:                 0.429
REMARK SMILES CC1=CCC(=C(C)C)C(=O)CC(C)=CCC1
REMARK SMILES IDX 12 1 14 2 13 3 15 4 16 5 2 6 1 7 3 8 11 10 9 11 10 12 5 13
REMARK SMILES IDX 6 14 7 15 8 16 4 17
REMARK H PARENT
REMARK Flexibility Score: 60.00
ROOT
ATOM      1  C   UNL     1      15.317  53.440  35.080  1.00  0.00    -0.070 C 
ATOM      2  C   UNL     1      16.118  52.382  35.349  1.00  0.00    -0.027 C 
ATOM      3  C   UNL     1      14.231  53.777  36.071  1.00  0.00     0.039 C 
ENDROOT
BRANCH   2   4
ATOM      4  C   UNL     1      17.212  51.867  34.443  1.00  0.00     0.032 C 
BRANCH   4   5
ATOM      5  C   UNL     1      18.574  52.486  34.792  1.00  0.00     0.034 C 
BRANCH   5   6
ATOM      6  C   UNL     1      19.251  53.171  33.614  1.00  0.00    -0.077 C 
ATOM      7  C   UNL     1      19.952  52.321  32.584  1.00  0.00     0.039 C 
ATOM      8  C   UNL     1      19.277  54.513  33.447  1.00  0.00    -0.023 CG0
ATOM      9  G   UNL     1      18.575  55.519  34.330  1.00  0.00     0.000 G0
ENDBRANCH   5   6
ENDBRANCH   4   5
ENDBRANCH   2   4
BRANCH   1  10
ATOM     10  C   UNL     1      15.468  54.296  33.837  1.00  0.00     0.111 C 
BRANCH  10  11
ATOM     11  C   UNL     1      15.985  55.664  34.181  1.00  0.00     0.163 C 
ATOM     12  O   UNL     1      15.269  56.441  34.869  1.00  0.00    -0.294 OA
BRANCH  11  13
ATOM     13  C   UNL     1      17.314  56.129  33.706  1.00  0.00    -0.002 C 
ATOM     14  C   UNL     1      17.401  57.066  32.723  1.00  0.00    -0.069 C 
ATOM     15  C   UNL     1      18.742  57.590  32.262  1.00  0.00     0.039 C 
ATOM     16  C   UNL     1      16.163  57.589  32.028  1.00  0.00     0.039 C 
BRANCH  13  17
ATOM     17  C   UNL     1      18.574  55.541  34.330  1.00  0.00     0.066 CG0
ATOM     18  G   UNL     1      19.278  54.535  33.449  1.00  0.00     0.000 G0
ENDBRANCH  13  17
ENDBRANCH  11  13
ENDBRANCH  10  11
ENDBRANCH   1  10
TORSDOF 0
ENDMDL
MODEL 6
REMARK VINA RESULT:    -3.145     12.616     14.078
REMARK INTER + INTRA:          -4.002
REMARK INTER:                  -4.410
REMARK INTRA:                   0.409
REMARK UNBOUND:                 0.429
REMARK SMILES CC1=CCC(=C(C)C)C(=O)CC(C)=CCC1
REMARK SMILES IDX 12 1 14 2 13 3 15 4 16 5 2 6 1 7 3 8 11 10 9 11 10 12 5 13
REMARK SMILES IDX 6 14 7 15 8 16 4 17
REMARK H PARENT
REMARK Flexibility Score: 60.00
ROOT
ATOM      1  C   UNL     1      14.063  61.578  20.870  1.00  0.00    -0.070 C 
ATOM      2  C   UNL     1      15.337  61.862  20.508  1.00  0.00    -0.027 C 
ATOM      3  C   UNL     1      12.948  62.045  19.968  1.00  0.00     0.039 C 
ENDROOT
BRANCH   2   4
ATOM      4  C   UNL     1      16.567  61.525  21.318  1.00  0.00     0.032 C 
BRANCH   4   5
ATOM      5  C   UNL     1      17.217  60.217  20.843  1.00  0.00     0.034 C 
BRANCH   5   6
ATOM      6  C   UNL     1      17.452  59.214  21.963  1.00  0.00    -0.077 C 
ATOM      7  C   UNL     1      18.666  59.377  22.843  1.00  0.00     0.039 C 
ATOM      8  C   UNL     1      16.636  58.162  22.203  1.00  0.00    -0.023 CG0
ATOM      9  G   UNL     1      15.342  57.874  21.478  1.00  0.00     0.000 G0
ENDBRANCH   5   6
ENDBRANCH   4   5
ENDBRANCH   2   4
BRANCH   1  10
ATOM     10  C   UNL     1      13.714  60.814  22.133  1.00  0.00     0.111 C 
BRANCH  10  11
ATOM     11  C   UNL     1      13.278  59.412  21.813  1.00  0.00     0.163 C 
ATOM     12  O   UNL     1      12.199  59.227  21.187  1.00  0.00    -0.294 OA
BRANCH  11  13
ATOM     13  C   UNL     1      14.080  58.238  22.243  1.00  0.00    -0.002 C 
ATOM     14  C   UNL     1      13.691  57.497  23.317  1.00  0.00    -0.069 C 
ATOM     15  C   UNL     1      14.465  56.269  23.738  1.00  0.00     0.039 C 
ATOM     16  C   UNL     1      12.496  57.897  24.152  1.00  0.00     0.039 C 
BRANCH  13  17
ATOM     17  C   UNL     1      15.342  57.877  21.468  1.00  0.00     0.066 CG0
ATOM     18  G   UNL     1      16.621  58.157  22.222  1.00  0.00     0.000 G0
ENDBRANCH  13  17
ENDBRANCH  11  13
ENDBRANCH  10  11
ENDBRANCH   1  10
TORSDOF 0
ENDMDL
MODEL 7
REMARK VINA RESULT:    -3.105     12.982     14.511
REMARK INTER + INTRA:          -3.947
REMARK INTER:                  -4.296
REMARK INTRA:                   0.349
REMARK UNBOUND:                 0.429
REMARK SMILES CC1=CCC(=C(C)C)C(=O)CC(C)=CCC1
REMARK SMILES IDX 12 1 14 2 13 3 15 4 16 5 2 6 1 7 3 8 11 10 9 11 10 12 5 13
REMARK SMILES IDX 6 14 7 15 8 16 4 17
REMARK H PARENT
REMARK Flexibility Score: 60.00
ROOT
ATOM      1  C   UNL     1      13.620  61.235  20.631  1.00  0.00    -0.070 C 
ATOM      2  C   UNL     1      14.946  61.051  20.428  1.00  0.00    -0.027 C 
ATOM      3  C   UNL     1      12.657  60.562  19.685  1.00  0.00     0.039 C 
ENDROOT
BRANCH   2   4
ATOM      4  C   UNL     1      16.048  61.694  21.237  1.00  0.00     0.032 C 
BRANCH   4   5
ATOM      5  C   UNL     1      16.482  60.803  22.410  1.00  0.00     0.034 C 
BRANCH   5   6
ATOM      6  C   UNL     1      16.666  61.564  23.716  1.00  0.00    -0.077 C 
ATOM      7  C   UNL     1      17.870  62.457  23.874  1.00  0.00     0.039 C 
ATOM      8  C   UNL     1      15.811  61.467  24.760  1.00  0.00    -0.023 CG0
ATOM      9  G   UNL     1      14.520  60.682  24.766  1.00  0.00     0.000 G0
ENDBRANCH   5   6
ENDBRANCH   4   5
ENDBRANCH   2   4
BRANCH   1  10
ATOM     10  C   UNL     1      13.067  62.079  21.764  1.00  0.00     0.111 C 
BRANCH  10  11
ATOM     11  C   UNL     1      12.719  61.228  22.952  1.00  0.00     0.163 C 
ATOM     12  O   UNL     1      11.899  60.280  22.816  1.00  0.00    -0.294 OA
BRANCH  11  13
ATOM     13  C   UNL     1      13.302  61.499  24.291  1.00  0.00    -0.002 C 
ATOM     14  C   UNL     1      12.765  62.459  25.092  1.00  0.00    -0.069 C 
ATOM     15  C   UNL     1      13.311  62.713  26.479  1.00  0.00     0.039 C 
ATOM     16  C   UNL     1      11.629  63.334  24.612  1.00  0.00     0.039 C 
BRANCH  13  17
ATOM     17  C   UNL     1      14.509  60.690  24.753  1.00  0.00     0.066 CG0
ATOM     18  G   UNL     1      15.802  61.471  24.754  1.00  0.00     0.000 G0
ENDBRANCH  13  17
ENDBRANCH  11  13
ENDBRANCH  10  11
ENDBRANCH   1  10
TORSDOF 0
ENDMDL
MODEL 8
REMARK VINA RESULT:    -3.096      1.853      4.269
REMARK INTER + INTRA:          -3.933
REMARK INTER:                  -4.388
REMARK INTRA:                   0.455
REMARK UNBOUND:                 0.429
REMARK SMILES CC1=CCC(=C(C)C)C(=O)CC(C)=CCC1
REMARK SMILES IDX 12 1 14 2 13 3 15 4 16 5 2 6 1 7 3 8 11 10 9 11 10 12 5 13
REMARK SMILES IDX 6 14 7 15 8 16 4 17
REMARK H PARENT
REMARK Flexibility Score: 60.00
ROOT
ATOM      1  C   UNL     1      16.505  52.331  34.861  1.00  0.00    -0.070 C 
ATOM      2  C   UNL     1      15.456  52.139  34.026  1.00  0.00    -0.027 C 
ATOM      3  C   UNL     1      16.216  52.780  36.271  1.00  0.00     0.039 C 
ENDROOT
BRANCH   2   4
ATOM      4  C   UNL     1      15.564  51.750  32.569  1.00  0.00     0.032 C 
BRANCH   4   5
ATOM      5  C   UNL     1      14.933  52.809  31.653  1.00  0.00     0.034 C 
BRANCH   5   6
ATOM      6  C   UNL     1      15.491  54.208  31.866  1.00  0.00    -0.077 C 
ATOM      7  C   UNL     1      14.555  55.306  32.304  1.00  0.00     0.039 C 
ATOM      8  C   UNL     1      16.790  54.530  31.664  1.00  0.00    -0.023 CG0
ATOM      9  G   UNL     1      17.886  53.557  31.294  1.00  0.00     0.000 G0
ENDBRANCH   5   6
ENDBRANCH   4   5
ENDBRANCH   2   4
BRANCH   1  10
ATOM     10  C   UNL     1      17.946  52.111  34.441  1.00  0.00     0.111 C 
BRANCH  10  11
ATOM     11  C   UNL     1      18.523  53.351  33.819  1.00  0.00     0.163 C 
ATOM     12  O   UNL     1      18.630  54.399  34.512  1.00  0.00    -0.294 OA
BRANCH  11  13
ATOM     13  C   UNL     1      18.948  53.374  32.396  1.00  0.00    -0.002 C 
ATOM     14  C   UNL     1      20.263  53.240  32.071  1.00  0.00    -0.069 C 
ATOM     15  C   UNL     1      20.710  53.208  30.627  1.00  0.00     0.039 C 
ATOM     16  C   UNL     1      21.330  53.158  33.140  1.00  0.00     0.039 C 
BRANCH  13  17
ATOM     17  C   UNL     1      17.895  53.552  31.309  1.00  0.00     0.066 CG0
ATOM     18  G   UNL     1      16.801  54.529  31.674  1.00  0.00     0.000 G0
ENDBRANCH  13  17
ENDBRANCH  11  13
ENDBRANCH  10  11
ENDBRANCH   1  10
TORSDOF 0
ENDMDL
MODEL 9
REMARK VINA RESULT:    -2.986     12.662     15.152
REMARK INTER + INTRA:          -3.778
REMARK INTER:                  -4.261
REMARK INTRA:                   0.483
REMARK UNBOUND:                 0.429
REMARK SMILES CC1=CCC(=C(C)C)C(=O)CC(C)=CCC1
REMARK SMILES IDX 12 1 14 2 13 3 15 4 16 5 2 6 1 7 3 8 11 10 9 11 10 12 5 13
REMARK SMILES IDX 6 14 7 15 8 16 4 17
REMARK H PARENT
REMARK Flexibility Score: 60.00
ROOT
ATOM      1  C   UNL     1      11.186  50.490  22.106  1.00  0.00    -0.070 C 
ATOM      2  C   UNL     1      12.181  50.818  21.247  1.00  0.00    -0.027 C 
ATOM      3  C   UNL     1      11.452  50.625  23.584  1.00  0.00     0.039 C 
ENDROOT
BRANCH   2   4
ATOM      4  C   UNL     1      12.111  50.687  19.743  1.00  0.00     0.032 C 
BRANCH   4   5
ATOM      5  C   UNL     1      12.365  52.032  19.046  1.00  0.00     0.034 C 
BRANCH   5   6
ATOM      6  C   UNL     1      11.547  53.179  19.622  1.00  0.00    -0.077 C 
ATOM      7  C   UNL     1      12.271  54.355  20.229  1.00  0.00     0.039 C 
ATOM      8  C   UNL     1      10.195  53.195  19.638  1.00  0.00    -0.023 CG0
ATOM      9  G   UNL     1       9.299  52.147  19.019  1.00  0.00     0.000 G0
ENDBRANCH   5   6
ENDBRANCH   4   5
ENDBRANCH   2   4
BRANCH   1  10
ATOM     10  C   UNL     1       9.826  50.001  21.646  1.00  0.00     0.111 C 
BRANCH  10  11
ATOM     11  C   UNL     1       8.896  51.152  21.387  1.00  0.00     0.163 C 
ATOM     12  O   UNL     1       8.523  51.875  22.350  1.00  0.00    -0.294 OA
BRANCH  11  13
ATOM     13  C   UNL     1       8.387  51.440  20.022  1.00  0.00    -0.002 C 
ATOM     14  C   UNL     1       7.123  51.076  19.670  1.00  0.00    -0.069 C 
ATOM     15  C   UNL     1       6.569  51.406  18.303  1.00  0.00     0.039 C 
ATOM     16  C   UNL     1       6.242  50.293  20.617  1.00  0.00     0.039 C 
BRANCH  13  17
ATOM     17  C   UNL     1       9.297  52.145  19.023  1.00  0.00     0.066 CG0
ATOM     18  G   UNL     1      10.184  53.198  19.644  1.00  0.00     0.000 G0
ENDBRANCH  13  17
ENDBRANCH  11  13
ENDBRANCH  10  11
ENDBRANCH   1  10
TORSDOF 0
ENDMDL
