MODEL 1
REMARK VINA RESULT:    -4.900      0.000      0.000
REMARK INTER + INTRA:          -5.422
REMARK INTER:                  -5.329
REMARK INTRA:                  -0.093
REMARK UNBOUND:                -0.093
REMARK SMILES C=C(C)[C@H]1CC=C(C)[C@H](O)C1
REMARK SMILES IDX 8 1 7 2 6 3 5 4 4 5 11 6 9 7 10 8 2 10 1 11 3 12
REMARK H PARENT 10 9
REMARK Flexibility Score: inf
ROOT
ATOM      1  C   UNL     1     184.204 189.114 187.421  1.00  0.00     0.042 C 
ATOM      2  C   UNL     1     184.735 190.325 188.139  1.00  0.00    -0.049 C 
ATOM      3  C   UNL     1     185.142 191.387 187.411  1.00  0.00    -0.025 C 
ATOM      4  C   UNL     1     185.774 192.614 188.022  1.00  0.00     0.035 C 
ATOM      5  C   UNL     1     185.425 192.771 189.512  1.00  0.00     0.021 C 
ATOM      6  C   UNL     1     185.626 191.434 190.242  1.00  0.00     0.044 C 
ATOM      7  C   UNL     1     184.696 190.358 189.660  1.00  0.00     0.140 C 
ENDROOT
BRANCH   7   8
ATOM      8  O   UNL     1     183.382 190.602 190.090  1.00  0.00    -0.389 OA
ATOM      9  H   UNL     1     182.831 189.832 189.791  1.00  0.00     0.211 HD
ENDBRANCH   7   8
BRANCH   5  10
ATOM     10  C   UNL     1     186.237 193.888 190.156  1.00  0.00    -0.077 C 
ATOM     11  C   UNL     1     186.515 195.004 189.462  1.00  0.00     0.008 C 
ATOM     12  C   UNL     1     186.754 193.771 191.568  1.00  0.00     0.039 C 
ENDBRANCH   5  10
TORSDOF 2
ENDMDL
MODEL 2
REMARK VINA RESULT:    -4.732      1.794      2.951
REMARK INTER + INTRA:          -5.239
REMARK INTER:                  -5.143
REMARK INTRA:                  -0.096
REMARK UNBOUND:                -0.093
REMARK SMILES C=C(C)[C@H]1CC=C(C)[C@H](O)C1
REMARK SMILES IDX 8 1 7 2 6 3 5 4 4 5 11 6 9 7 10 8 2 10 1 11 3 12
REMARK H PARENT 10 9
REMARK Flexibility Score: inf
ROOT
ATOM      1  C   UNL     1     183.219 186.417 190.012  1.00  0.00     0.042 C 
ATOM      2  C   UNL     1     183.726 187.792 189.672  1.00  0.00    -0.049 C 
ATOM      3  C   UNL     1     183.808 188.154 188.373  1.00  0.00    -0.025 C 
ATOM      4  C   UNL     1     184.386 189.472 187.918  1.00  0.00     0.035 C 
ATOM      5  C   UNL     1     184.364 190.535 189.029  1.00  0.00     0.021 C 
ATOM      6  C   UNL     1     184.908 189.939 190.337  1.00  0.00     0.044 C 
ATOM      7  C   UNL     1     184.028 188.768 190.801  1.00  0.00     0.140 C 
ENDROOT
BRANCH   7   8
ATOM      8  O   UNL     1     182.824 189.271 191.319  1.00  0.00    -0.389 OA
ATOM      9  H   UNL     1     182.611 188.738 192.129  1.00  0.00     0.211 HD
ENDBRANCH   7   8
BRANCH   5  10
ATOM     10  C   UNL     1     185.138 191.781 188.618  1.00  0.00    -0.077 C 
ATOM     11  C   UNL     1     185.544 191.933 187.347  1.00  0.00     0.008 C 
ATOM     12  C   UNL     1     185.477 192.862 189.615  1.00  0.00     0.039 C 
ENDBRANCH   5  10
TORSDOF 2
ENDMDL
MODEL 3
REMARK VINA RESULT:    -4.652      1.741      3.185
REMARK INTER + INTRA:          -5.153
REMARK INTER:                  -5.059
REMARK INTRA:                  -0.093
REMARK UNBOUND:                -0.093
REMARK SMILES C=C(C)[C@H]1CC=C(C)[C@H](O)C1
REMARK SMILES IDX 8 1 7 2 6 3 5 4 4 5 11 6 9 7 10 8 2 10 1 11 3 12
REMARK H PARENT 10 9
REMARK Flexibility Score: inf
ROOT
ATOM      1  C   UNL     1     183.093 186.879 190.070  1.00  0.00     0.042 C 
ATOM      2  C   UNL     1     183.764 188.079 189.458  1.00  0.00    -0.049 C 
ATOM      3  C   UNL     1     183.862 188.154 188.112  1.00  0.00    -0.025 C 
ATOM      4  C   UNL     1     184.593 189.264 187.398  1.00  0.00     0.035 C 
ATOM      5  C   UNL     1     184.732 190.526 188.267  1.00  0.00     0.021 C 
ATOM      6  C   UNL     1     185.224 190.144 189.672  1.00  0.00     0.044 C 
ATOM      7  C   UNL     1     184.213 189.217 190.363  1.00  0.00     0.140 C 
ENDROOT
BRANCH   7   8
ATOM      8  O   UNL     1     183.094 189.967 190.761  1.00  0.00    -0.389 OA
ATOM      9  H   UNL     1     182.492 189.351 191.255  1.00  0.00     0.211 HD
ENDBRANCH   7   8
BRANCH   5  10
ATOM     10  C   UNL     1     185.649 191.551 187.612  1.00  0.00    -0.077 C 
ATOM     11  C   UNL     1     185.705 192.806 188.089  1.00  0.00     0.008 C 
ATOM     12  C   UNL     1     186.502 191.196 186.419  1.00  0.00     0.039 C 
ENDBRANCH   5  10
TORSDOF 2
ENDMDL
MODEL 4
REMARK VINA RESULT:    -4.531      2.130      3.402
REMARK INTER + INTRA:          -5.021
REMARK INTER:                  -4.926
REMARK INTRA:                  -0.095
REMARK UNBOUND:                -0.093
REMARK SMILES C=C(C)[C@H]1CC=C(C)[C@H](O)C1
REMARK SMILES IDX 8 1 7 2 6 3 5 4 4 5 11 6 9 7 10 8 2 10 1 11 3 12
REMARK H PARENT 10 9
REMARK Flexibility Score: inf
ROOT
ATOM      1  C   UNL     1     182.841 186.683 190.254  1.00  0.00     0.042 C 
ATOM      2  C   UNL     1     183.472 187.977 189.817  1.00  0.00    -0.049 C 
ATOM      3  C   UNL     1     183.502 189.013 190.684  1.00  0.00    -0.025 C 
ATOM      4  C   UNL     1     184.026 190.380 190.320  1.00  0.00     0.035 C 
ATOM      5  C   UNL     1     184.982 190.337 189.115  1.00  0.00     0.021 C 
ATOM      6  C   UNL     1     184.367 189.493 187.988  1.00  0.00     0.044 C 
ATOM      7  C   UNL     1     184.151 188.046 188.457  1.00  0.00     0.140 C 
ENDROOT
BRANCH   7   8
ATOM      8  O   UNL     1     185.390 187.389 188.519  1.00  0.00    -0.389 OA
ATOM      9  H   UNL     1     185.659 187.365 189.474  1.00  0.00     0.211 HD
ENDBRANCH   7   8
BRANCH   5  10
ATOM     10  C   UNL     1     185.331 191.741 188.636  1.00  0.00    -0.077 C 
ATOM     11  C   UNL     1     185.479 191.986 187.324  1.00  0.00     0.008 C 
ATOM     12  C   UNL     1     185.530 192.878 189.608  1.00  0.00     0.039 C 
ENDBRANCH   5  10
TORSDOF 2
ENDMDL
MODEL 5
REMARK VINA RESULT:    -4.414      2.593      5.390
REMARK INTER + INTRA:          -4.894
REMARK INTER:                  -4.800
REMARK INTRA:                  -0.095
REMARK UNBOUND:                -0.093
REMARK SMILES C=C(C)[C@H]1CC=C(C)[C@H](O)C1
REMARK SMILES IDX 8 1 7 2 6 3 5 4 4 5 11 6 9 7 10 8 2 10 1 11 3 12
REMARK H PARENT 10 9
REMARK Flexibility Score: inf
ROOT
ATOM      1  C   UNL     1     185.220 192.268 188.837  1.00  0.00     0.042 C 
ATOM      2  C   UNL     1     184.761 190.874 189.167  1.00  0.00    -0.049 C 
ATOM      3  C   UNL     1     184.241 190.632 190.391  1.00  0.00    -0.025 C 
ATOM      4  C   UNL     1     183.836 189.255 190.858  1.00  0.00     0.035 C 
ATOM      5  C   UNL     1     183.564 188.296 189.685  1.00  0.00     0.021 C 
ATOM      6  C   UNL     1     184.704 188.387 188.659  1.00  0.00     0.044 C 
ATOM      7  C   UNL     1     184.796 189.808 188.082  1.00  0.00     0.140 C 
ENDROOT
BRANCH   7   8
ATOM      8  O   UNL     1     183.733 190.014 187.189  1.00  0.00    -0.389 OA
ATOM      9  H   UNL     1     183.791 189.304 186.498  1.00  0.00     0.211 HD
ENDBRANCH   7   8
BRANCH   5  10
ATOM     10  C   UNL     1     183.364 186.867 190.174  1.00  0.00    -0.077 C 
ATOM     11  C   UNL     1     184.346 186.241 190.843  1.00  0.00     0.008 C 
ATOM     12  C   UNL     1     182.080 186.119 189.915  1.00  0.00     0.039 C 
ENDBRANCH   5  10
TORSDOF 2
ENDMDL
MODEL 6
REMARK VINA RESULT:    -4.403      4.826      7.857
REMARK INTER + INTRA:          -4.882
REMARK INTER:                  -4.787
REMARK INTRA:                  -0.095
REMARK UNBOUND:                -0.093
REMARK SMILES C=C(C)[C@H]1CC=C(C)[C@H](O)C1
REMARK SMILES IDX 8 1 7 2 6 3 5 4 4 5 11 6 9 7 10 8 2 10 1 11 3 12
REMARK H PARENT 10 9
REMARK Flexibility Score: inf
ROOT
ATOM      1  C   UNL     1     186.945 199.777 194.457  1.00  0.00     0.042 C 
ATOM      2  C   UNL     1     187.079 198.867 193.266  1.00  0.00    -0.049 C 
ATOM      3  C   UNL     1     186.849 197.545 193.428  1.00  0.00    -0.025 C 
ATOM      4  C   UNL     1     187.042 196.533 192.326  1.00  0.00     0.035 C 
ATOM      5  C   UNL     1     186.991 197.173 190.928  1.00  0.00     0.021 C 
ATOM      6  C   UNL     1     187.873 198.431 190.894  1.00  0.00     0.044 C 
ATOM      7  C   UNL     1     187.360 199.474 191.900  1.00  0.00     0.140 C 
ENDROOT
BRANCH   7   8
ATOM      8  O   UNL     1     186.188 200.062 191.398  1.00  0.00    -0.389 OA
ATOM      9  H   UNL     1     186.443 200.945 191.023  1.00  0.00     0.211 HD
ENDBRANCH   7   8
BRANCH   5  10
ATOM     10  C   UNL     1     187.395 196.177 189.848  1.00  0.00    -0.077 C 
ATOM     11  C   UNL     1     188.546 196.345 189.176  1.00  0.00     0.008 C 
ATOM     12  C   UNL     1     186.522 194.998 189.498  1.00  0.00     0.039 C 
ENDBRANCH   5  10
TORSDOF 2
ENDMDL
MODEL 7
REMARK VINA RESULT:    -4.379      2.840      4.777
REMARK INTER + INTRA:          -4.856
REMARK INTER:                  -4.758
REMARK INTRA:                  -0.097
REMARK UNBOUND:                -0.093
REMARK SMILES C=C(C)[C@H]1CC=C(C)[C@H](O)C1
REMARK SMILES IDX 8 1 7 2 6 3 5 4 4 5 11 6 9 7 10 8 2 10 1 11 3 12
REMARK H PARENT 10 9
REMARK Flexibility Score: inf
ROOT
ATOM      1  C   UNL     1     183.936 191.106 189.214  1.00  0.00     0.042 C 
ATOM      2  C   UNL     1     184.859 190.778 188.071  1.00  0.00    -0.049 C 
ATOM      3  C   UNL     1     185.979 191.515 187.906  1.00  0.00    -0.025 C 
ATOM      4  C   UNL     1     186.924 191.332 186.744  1.00  0.00     0.035 C 
ATOM      5  C   UNL     1     186.801 189.939 186.104  1.00  0.00     0.021 C 
ATOM      6  C   UNL     1     185.320 189.598 185.871  1.00  0.00     0.044 C 
ATOM      7  C   UNL     1     184.560 189.562 187.206  1.00  0.00     0.140 C 
ENDROOT
BRANCH   7   8
ATOM      8  O   UNL     1     184.906 188.394 187.904  1.00  0.00    -0.389 OA
ATOM      9  H   UNL     1     185.758 188.064 187.514  1.00  0.00     0.211 HD
ENDBRANCH   7   8
BRANCH   5  10
ATOM     10  C   UNL     1     187.605 189.850 184.813  1.00  0.00    -0.077 C 
ATOM     11  C   UNL     1     187.690 190.915 183.999  1.00  0.00     0.008 C 
ATOM     12  C   UNL     1     188.310 188.578 184.411  1.00  0.00     0.039 C 
ENDBRANCH   5  10
TORSDOF 2
ENDMDL
MODEL 8
REMARK VINA RESULT:    -4.234      1.639      4.262
REMARK INTER + INTRA:          -4.698
REMARK INTER:                  -4.607
REMARK INTRA:                  -0.090
REMARK UNBOUND:                -0.093
REMARK SMILES C=C(C)[C@H]1CC=C(C)[C@H](O)C1
REMARK SMILES IDX 8 1 7 2 6 3 5 4 4 5 11 6 9 7 10 8 2 10 1 11 3 12
REMARK H PARENT 10 9
REMARK Flexibility Score: inf
ROOT
ATOM      1  C   UNL     1     186.432 194.572 189.287  1.00  0.00     0.042 C 
ATOM      2  C   UNL     1     185.843 193.189 189.351  1.00  0.00    -0.049 C 
ATOM      3  C   UNL     1     185.306 192.658 188.230  1.00  0.00    -0.025 C 
ATOM      4  C   UNL     1     184.609 191.319 188.203  1.00  0.00     0.035 C 
ATOM      5  C   UNL     1     185.030 190.417 189.376  1.00  0.00     0.021 C 
ATOM      6  C   UNL     1     184.984 191.211 190.691  1.00  0.00     0.044 C 
ATOM      7  C   UNL     1     185.966 192.391 190.641  1.00  0.00     0.140 C 
ENDROOT
BRANCH   7   8
ATOM      8  O   UNL     1     187.278 191.907 190.768  1.00  0.00    -0.389 OA
ATOM      9  H   UNL     1     187.846 192.674 191.040  1.00  0.00     0.211 HD
ENDBRANCH   7   8
BRANCH   5  10
ATOM     10  C   UNL     1     184.165 189.164 189.449  1.00  0.00    -0.077 C 
ATOM     11  C   UNL     1     183.993 188.401 188.357  1.00  0.00     0.008 C 
ATOM     12  C   UNL     1     183.477 188.756 190.728  1.00  0.00     0.039 C 
ENDBRANCH   5  10
TORSDOF 2
ENDMDL
MODEL 9
REMARK VINA RESULT:    -4.141      3.924      4.968
REMARK INTER + INTRA:          -4.597
REMARK INTER:                  -4.506
REMARK INTRA:                  -0.091
REMARK UNBOUND:                -0.093
REMARK SMILES C=C(C)[C@H]1CC=C(C)[C@H](O)C1
REMARK SMILES IDX 8 1 7 2 6 3 5 4 4 5 11 6 9 7 10 8 2 10 1 11 3 12
REMARK H PARENT 10 9
REMARK Flexibility Score: inf
ROOT
ATOM      1  C   UNL     1     189.977 188.885 184.612  1.00  0.00     0.042 C 
ATOM      2  C   UNL     1     188.833 189.561 185.316  1.00  0.00    -0.049 C 
ATOM      3  C   UNL     1     189.102 190.395 186.345  1.00  0.00    -0.025 C 
ATOM      4  C   UNL     1     188.029 191.052 187.178  1.00  0.00     0.035 C 
ATOM      5  C   UNL     1     186.680 191.125 186.442  1.00  0.00     0.021 C 
ATOM      6  C   UNL     1     186.351 189.761 185.815  1.00  0.00     0.044 C 
ATOM      7  C   UNL     1     187.421 189.372 184.782  1.00  0.00     0.140 C 
ENDROOT
BRANCH   7   8
ATOM      8  O   UNL     1     187.250 190.149 183.625  1.00  0.00    -0.389 OA
ATOM      9  H   UNL     1     188.115 190.138 183.137  1.00  0.00     0.211 HD
ENDBRANCH   7   8
BRANCH   5  10
ATOM     10  C   UNL     1     185.568 191.596 187.371  1.00  0.00    -0.077 C 
ATOM     11  C   UNL     1     185.765 192.654 188.174  1.00  0.00     0.008 C 
ATOM     12  C   UNL     1     184.235 190.892 187.422  1.00  0.00     0.039 C 
ENDBRANCH   5  10
TORSDOF 2
ENDMDL
