MODEL 1
REMARK VINA RESULT:    -3.726      0.000      0.000
REMARK INTER + INTRA:          -5.318
REMARK INTER:                  -4.815
REMARK INTRA:                  -0.503
REMARK UNBOUND:                -0.503
REMARK SMILES C=CC(=O)CCCCC
REMARK SMILES IDX 6 1 7 2 8 3 9 4 5 5 3 6 4 7 2 8 1 9
REMARK H PARENT
REMARK Flexibility Score: inf
ROOT
ATOM      1  C   UNL     1      17.057  16.866  15.273  1.00  0.00     0.008 C 
ENDROOT
BRANCH   1   2
ATOM      2  C   UNL     1      15.717  16.324  15.797  1.00  0.00     0.000 C 
BRANCH   2   3
ATOM      3  C   UNL     1      15.252  15.069  15.045  1.00  0.00    -0.003 C 
ATOM      4  C   UNL     1      14.109  15.395  14.088  1.00  0.00     0.004 C 
ENDBRANCH   2   3
ENDBRANCH   1   2
BRANCH   1   5
ATOM      5  C   UNL     1      17.713  15.930  14.248  1.00  0.00     0.080 C 
BRANCH   5   6
ATOM      6  C   UNL     1      17.678  16.543  12.879  1.00  0.00     0.155 C 
ATOM      7  O   UNL     1      18.336  16.008  11.945  1.00  0.00    -0.295 OA
BRANCH   6   8
ATOM      8  C   UNL     1      16.918  17.787  12.645  1.00  0.00     0.039 C 
ATOM      9  C   UNL     1      15.834  17.827  11.873  1.00  0.00     0.012 C 
ENDBRANCH   6   8
ENDBRANCH   5   6
ENDBRANCH   1   5
TORSDOF 5
ENDMDL
MODEL 2
REMARK VINA RESULT:    -3.683      1.954      3.793
REMARK INTER + INTRA:          -5.263
REMARK INTER:                  -4.831
REMARK INTRA:                  -0.432
REMARK UNBOUND:                -0.503
REMARK SMILES C=CC(=O)CCCCC
REMARK SMILES IDX 6 1 7 2 8 3 9 4 5 5 3 6 4 7 2 8 1 9
REMARK H PARENT
REMARK Flexibility Score: inf
ROOT
ATOM      1  C   UNL     1      17.995  15.892  13.948  1.00  0.00     0.008 C 
ENDROOT
BRANCH   1   2
ATOM      2  C   UNL     1      18.886  16.303  15.131  1.00  0.00     0.000 C 
BRANCH   2   3
ATOM      3  C   UNL     1      18.222  17.352  16.035  1.00  0.00    -0.003 C 
ATOM      4  C   UNL     1      19.223  17.932  17.030  1.00  0.00     0.004 C 
ENDBRANCH   2   3
ENDBRANCH   1   2
BRANCH   1   5
ATOM      5  C   UNL     1      16.900  16.924  13.646  1.00  0.00     0.080 C 
BRANCH   5   6
ATOM      6  C   UNL     1      15.545  16.283  13.700  1.00  0.00     0.155 C 
ATOM      7  O   UNL     1      14.623  16.723  12.959  1.00  0.00    -0.295 OA
BRANCH   6   8
ATOM      8  C   UNL     1      15.285  15.182  14.646  1.00  0.00     0.039 C 
ATOM      9  C   UNL     1      14.942  15.395  15.915  1.00  0.00     0.012 C 
ENDBRANCH   6   8
ENDBRANCH   5   6
ENDBRANCH   1   5
TORSDOF 5
ENDMDL
MODEL 3
REMARK VINA RESULT:    -3.682      1.292      3.289
REMARK INTER + INTRA:          -5.261
REMARK INTER:                  -4.775
REMARK INTRA:                  -0.486
REMARK UNBOUND:                -0.503
REMARK SMILES C=CC(=O)CCCCC
REMARK SMILES IDX 6 1 7 2 8 3 9 4 5 5 3 6 4 7 2 8 1 9
REMARK H PARENT
REMARK Flexibility Score: inf
ROOT
ATOM      1  C   UNL     1      17.122  17.863  12.704  1.00  0.00     0.008 C 
ENDROOT
BRANCH   1   2
ATOM      2  C   UNL     1      16.189  17.261  11.641  1.00  0.00     0.000 C 
BRANCH   2   3
ATOM      3  C   UNL     1      14.812  17.940  11.612  1.00  0.00    -0.003 C 
ATOM      4  C   UNL     1      13.720  16.989  12.096  1.00  0.00     0.004 C 
ENDBRANCH   2   3
ENDBRANCH   1   2
BRANCH   1   5
ATOM      5  C   UNL     1      16.764  17.415  14.127  1.00  0.00     0.080 C 
BRANCH   5   6
ATOM      6  C   UNL     1      16.881  15.924  14.253  1.00  0.00     0.155 C 
ATOM      7  O   UNL     1      17.983  15.367  13.997  1.00  0.00    -0.295 OA
BRANCH   6   8
ATOM      8  C   UNL     1      15.703  15.119  14.628  1.00  0.00     0.039 C 
ATOM      9  C   UNL     1      14.947  15.406  15.686  1.00  0.00     0.012 C 
ENDBRANCH   6   8
ENDBRANCH   5   6
ENDBRANCH   1   5
TORSDOF 5
ENDMDL
MODEL 4
REMARK VINA RESULT:    -3.589      2.076      3.836
REMARK INTER + INTRA:          -5.141
REMARK INTER:                  -4.890
REMARK INTRA:                  -0.251
REMARK UNBOUND:                -0.503
REMARK SMILES C=CC(=O)CCCCC
REMARK SMILES IDX 6 1 7 2 8 3 9 4 5 5 3 6 4 7 2 8 1 9
REMARK H PARENT
REMARK Flexibility Score: inf
ROOT
ATOM      1  C   UNL     1      16.992  17.537  16.274  1.00  0.00     0.008 C 
ENDROOT
BRANCH   1   2
ATOM      2  C   UNL     1      18.375  18.107  16.628  1.00  0.00     0.000 C 
BRANCH   2   3
ATOM      3  C   UNL     1      19.450  17.017  16.748  1.00  0.00    -0.003 C 
ATOM      4  C   UNL     1      20.298  17.218  18.001  1.00  0.00     0.004 C 
ENDBRANCH   2   3
ENDBRANCH   1   2
BRANCH   1   5
ATOM      5  C   UNL     1      16.808  17.325  14.766  1.00  0.00     0.080 C 
BRANCH   5   6
ATOM      6  C   UNL     1      16.805  15.860  14.439  1.00  0.00     0.155 C 
ATOM      7  O   UNL     1      17.814  15.349  13.880  1.00  0.00    -0.295 OA
BRANCH   6   8
ATOM      8  C   UNL     1      15.612  15.041  14.727  1.00  0.00     0.039 C 
ATOM      9  C   UNL     1      14.392  15.388  14.322  1.00  0.00     0.012 C 
ENDBRANCH   6   8
ENDBRANCH   5   6
ENDBRANCH   1   5
TORSDOF 5
ENDMDL
MODEL 5
REMARK VINA RESULT:    -3.583      1.810      2.903
REMARK INTER + INTRA:          -5.134
REMARK INTER:                  -4.665
REMARK INTRA:                  -0.468
REMARK UNBOUND:                -0.503
REMARK SMILES C=CC(=O)CCCCC
REMARK SMILES IDX 6 1 7 2 8 3 9 4 5 5 3 6 4 7 2 8 1 9
REMARK H PARENT
REMARK Flexibility Score: inf
ROOT
ATOM      1  C   UNL     1      16.686  16.913  13.697  1.00  0.00     0.008 C 
ENDROOT
BRANCH   1   2
ATOM      2  C   UNL     1      15.272  16.311  13.755  1.00  0.00     0.000 C 
BRANCH   2   3
ATOM      3  C   UNL     1      15.204  15.046  14.623  1.00  0.00    -0.003 C 
ATOM      4  C   UNL     1      14.828  15.388  16.062  1.00  0.00     0.004 C 
ENDBRANCH   2   3
ENDBRANCH   1   2
BRANCH   1   5
ATOM      5  C   UNL     1      17.768  15.926  14.157  1.00  0.00     0.080 C 
BRANCH   5   6
ATOM      6  C   UNL     1      18.610  16.537  15.237  1.00  0.00     0.155 C 
ATOM      7  O   UNL     1      19.697  15.983  15.562  1.00  0.00    -0.295 OA
BRANCH   6   8
ATOM      8  C   UNL     1      18.146  17.747  15.943  1.00  0.00     0.039 C 
ATOM      9  C   UNL     1      17.540  17.696  17.127  1.00  0.00     0.012 C 
ENDBRANCH   6   8
ENDBRANCH   5   6
ENDBRANCH   1   5
TORSDOF 5
ENDMDL
MODEL 6
REMARK VINA RESULT:    -3.545      1.070      1.908
REMARK INTER + INTRA:          -5.084
REMARK INTER:                  -4.605
REMARK INTRA:                  -0.478
REMARK UNBOUND:                -0.503
REMARK SMILES C=CC(=O)CCCCC
REMARK SMILES IDX 6 1 7 2 8 3 9 4 5 5 3 6 4 7 2 8 1 9
REMARK H PARENT
REMARK Flexibility Score: inf
ROOT
ATOM      1  C   UNL     1      17.883  16.744  13.734  1.00  0.00     0.008 C 
ENDROOT
BRANCH   1   2
ATOM      2  C   UNL     1      17.501  16.308  15.158  1.00  0.00     0.000 C 
BRANCH   2   3
ATOM      3  C   UNL     1      16.000  16.465  15.441  1.00  0.00    -0.003 C 
ATOM      4  C   UNL     1      15.256  15.154  15.200  1.00  0.00     0.004 C 
ENDBRANCH   2   3
ENDBRANCH   1   2
BRANCH   1   5
ATOM      5  C   UNL     1      16.963  17.843  13.185  1.00  0.00     0.080 C 
BRANCH   5   6
ATOM      6  C   UNL     1      16.434  17.458  11.835  1.00  0.00     0.155 C 
ATOM      7  O   UNL     1      17.226  16.994  10.969  1.00  0.00    -0.295 OA
BRANCH   6   8
ATOM      8  C   UNL     1      15.009  17.667  11.513  1.00  0.00     0.039 C 
ATOM      9  C   UNL     1      14.028  17.080  12.195  1.00  0.00     0.012 C 
ENDBRANCH   6   8
ENDBRANCH   5   6
ENDBRANCH   1   5
TORSDOF 5
ENDMDL
MODEL 7
REMARK VINA RESULT:    -3.524      1.603      3.836
REMARK INTER + INTRA:          -5.056
REMARK INTER:                  -4.595
REMARK INTRA:                  -0.461
REMARK UNBOUND:                -0.503
REMARK SMILES C=CC(=O)CCCCC
REMARK SMILES IDX 6 1 7 2 8 3 9 4 5 5 3 6 4 7 2 8 1 9
REMARK H PARENT
REMARK Flexibility Score: inf
ROOT
ATOM      1  C   UNL     1      16.688  17.780  12.794  1.00  0.00     0.008 C 
ENDROOT
BRANCH   1   2
ATOM      2  C   UNL     1      17.918  17.746  11.873  1.00  0.00     0.000 C 
BRANCH   2   3
ATOM      3  C   UNL     1      17.916  16.537  10.927  1.00  0.00    -0.003 C 
ATOM      4  C   UNL     1      18.923  15.483  11.380  1.00  0.00     0.004 C 
ENDBRANCH   2   3
ENDBRANCH   1   2
BRANCH   1   5
ATOM      5  C   UNL     1      17.058  17.678  14.280  1.00  0.00     0.080 C 
BRANCH   5   6
ATOM      6  C   UNL     1      17.282  16.246  14.667  1.00  0.00     0.155 C 
ATOM      7  O   UNL     1      18.443  15.864  14.979  1.00  0.00    -0.295 OA
BRANCH   6   8
ATOM      8  C   UNL     1      16.161  15.287  14.636  1.00  0.00     0.039 C 
ATOM      9  C   UNL     1      15.119  15.378  15.460  1.00  0.00     0.012 C 
ENDBRANCH   6   8
ENDBRANCH   5   6
ENDBRANCH   1   5
TORSDOF 5
ENDMDL
MODEL 8
REMARK VINA RESULT:    -3.466      1.973      3.127
REMARK INTER + INTRA:          -4.982
REMARK INTER:                  -4.563
REMARK INTRA:                  -0.419
REMARK UNBOUND:                -0.503
REMARK SMILES C=CC(=O)CCCCC
REMARK SMILES IDX 6 1 7 2 8 3 9 4 5 5 3 6 4 7 2 8 1 9
REMARK H PARENT
REMARK Flexibility Score: inf
ROOT
ATOM      1  C   UNL     1      16.027  16.552  15.507  1.00  0.00     0.008 C 
ENDROOT
BRANCH   1   2
ATOM      2  C   UNL     1      17.007  17.651  15.946  1.00  0.00     0.000 C 
BRANCH   2   3
ATOM      3  C   UNL     1      18.473  17.198  15.878  1.00  0.00    -0.003 C 
ATOM      4  C   UNL     1      19.249  17.664  17.106  1.00  0.00     0.004 C 
ENDBRANCH   2   3
ENDBRANCH   1   2
BRANCH   1   5
ATOM      5  C   UNL     1      16.321  16.027  14.095  1.00  0.00     0.080 C 
BRANCH   5   6
ATOM      6  C   UNL     1      15.664  16.898  13.065  1.00  0.00     0.155 C 
ATOM      7  O   UNL     1      14.425  16.781  12.855  1.00  0.00    -0.295 OA
BRANCH   6   8
ATOM      8  C   UNL     1      16.472  17.845  12.273  1.00  0.00     0.039 C 
ATOM      9  C   UNL     1      17.770  17.658  12.042  1.00  0.00     0.012 C 
ENDBRANCH   6   8
ENDBRANCH   5   6
ENDBRANCH   1   5
TORSDOF 5
ENDMDL
MODEL 9
REMARK VINA RESULT:    -3.459      2.582      3.958
REMARK INTER + INTRA:          -4.973
REMARK INTER:                  -4.560
REMARK INTRA:                  -0.413
REMARK UNBOUND:                -0.503
REMARK SMILES C=CC(=O)CCCCC
REMARK SMILES IDX 6 1 7 2 8 3 9 4 5 5 3 6 4 7 2 8 1 9
REMARK H PARENT
REMARK Flexibility Score: inf
ROOT
ATOM      1  C   UNL     1      18.448  16.975  15.717  1.00  0.00     0.008 C 
ENDROOT
BRANCH   1   2
ATOM      2  C   UNL     1      19.190  16.123  14.674  1.00  0.00     0.000 C 
BRANCH   2   3
ATOM      3  C   UNL     1      18.268  15.635  13.547  1.00  0.00    -0.003 C 
ATOM      4  C   UNL     1      18.762  16.119  12.186  1.00  0.00     0.004 C 
ENDBRANCH   2   3
ENDBRANCH   1   2
BRANCH   1   5
ATOM      5  C   UNL     1      17.037  17.371  15.262  1.00  0.00     0.080 C 
BRANCH   5   6
ATOM      6  C   UNL     1      16.013  16.888  16.246  1.00  0.00     0.155 C 
ATOM      7  O   UNL     1      15.905  17.470  17.361  1.00  0.00    -0.295 OA
BRANCH   6   8
ATOM      8  C   UNL     1      15.177  15.715  15.928  1.00  0.00     0.039 C 
ATOM      9  C   UNL     1      14.816  15.411  14.683  1.00  0.00     0.012 C 
ENDBRANCH   6   8
ENDBRANCH   5   6
ENDBRANCH   1   5
TORSDOF 5
ENDMDL
