MODEL 1
REMARK VINA RESULT:    -3.475      0.000      0.000
REMARK INTER + INTRA:          -4.751
REMARK INTER:                  -4.491
REMARK INTRA:                  -0.260
REMARK UNBOUND:                -0.260
REMARK SMILES CCCCCCC(=O)[O-]
REMARK SMILES IDX 5 1 6 2 7 3 8 4 9 5 4 6 3 7 2 8 1 9
REMARK H PARENT
REMARK Flexibility Score: inf
ROOT
ATOM      1  C   UNL     1      27.734  29.715 -13.199  1.00  0.00     0.006 C 
ENDROOT
BRANCH   1   2
ATOM      2  C   UNL     1      27.103  30.543 -14.325  1.00  0.00     0.053 C 
BRANCH   2   3
ATOM      3  C   UNL     1      25.909  31.290 -13.818  1.00  0.00     0.041 C 
ATOM      4  O   UNL     1      25.446  31.042 -12.674  1.00  0.00    -0.550 OA
ATOM      5  O   UNL     1      25.279  32.226 -14.627  1.00  0.00    -0.550 OA
ENDBRANCH   2   3
ENDBRANCH   1   2
BRANCH   1   6
ATOM      6  C   UNL     1      29.099  30.265 -12.757  1.00  0.00     0.000 C 
BRANCH   6   7
ATOM      7  C   UNL     1      29.339  30.110 -11.245  1.00  0.00    -0.000 C 
BRANCH   7   8
ATOM      8  C   UNL     1      28.129  30.551 -10.409  1.00  0.00    -0.003 C 
ATOM      9  C   UNL     1      27.519  29.404  -9.603  1.00  0.00     0.004 C 
ENDBRANCH   7   8
ENDBRANCH   6   7
ENDBRANCH   1   6
TORSDOF 5
ENDMDL
MODEL 2
REMARK VINA RESULT:    -3.410      1.215      1.972
REMARK INTER + INTRA:          -4.666
REMARK INTER:                  -4.457
REMARK INTRA:                  -0.209
REMARK UNBOUND:                -0.260
REMARK SMILES CCCCCCC(=O)[O-]
REMARK SMILES IDX 5 1 6 2 7 3 8 4 9 5 4 6 3 7 2 8 1 9
REMARK H PARENT
REMARK Flexibility Score: inf
ROOT
ATOM      1  C   UNL     1      26.743  30.911 -14.045  1.00  0.00     0.006 C 
ENDROOT
BRANCH   1   2
ATOM      2  C   UNL     1      25.384  31.254 -13.421  1.00  0.00     0.053 C 
BRANCH   2   3
ATOM      3  C   UNL     1      24.660  32.256 -14.265  1.00  0.00     0.041 C 
ATOM      4  O   UNL     1      25.305  33.078 -14.966  1.00  0.00    -0.550 OA
ATOM      5  O   UNL     1      23.272  32.312 -14.241  1.00  0.00    -0.550 OA
ENDBRANCH   2   3
ENDBRANCH   1   2
BRANCH   1   6
ATOM      6  C   UNL     1      27.517  29.862 -13.233  1.00  0.00     0.000 C 
BRANCH   6   7
ATOM      7  C   UNL     1      28.961  30.296 -12.929  1.00  0.00    -0.000 C 
BRANCH   7   8
ATOM      8  C   UNL     1      29.328  30.125 -11.447  1.00  0.00    -0.003 C 
ATOM      9  C   UNL     1      28.215  30.584 -10.507  1.00  0.00     0.004 C 
ENDBRANCH   7   8
ENDBRANCH   6   7
ENDBRANCH   1   6
TORSDOF 5
ENDMDL
MODEL 3
REMARK VINA RESULT:    -3.336      2.369      4.487
REMARK INTER + INTRA:          -4.571
REMARK INTER:                  -4.305
REMARK INTRA:                  -0.266
REMARK UNBOUND:                -0.260
REMARK SMILES CCCCCCC(=O)[O-]
REMARK SMILES IDX 5 1 6 2 7 3 8 4 9 5 4 6 3 7 2 8 1 9
REMARK H PARENT
REMARK Flexibility Score: inf
ROOT
ATOM      1  C   UNL     1      25.648  30.497 -12.444  1.00  0.00     0.006 C 
ENDROOT
BRANCH   1   2
ATOM      2  C   UNL     1      27.115  30.326 -12.026  1.00  0.00     0.053 C 
BRANCH   2   3
ATOM      3  C   UNL     1      28.010  30.398 -13.222  1.00  0.00     0.041 C 
ATOM      4  O   UNL     1      29.260  30.378 -13.081  1.00  0.00    -0.550 OA
ATOM      5  O   UNL     1      27.463  30.536 -14.492  1.00  0.00    -0.550 OA
ENDBRANCH   2   3
ENDBRANCH   1   2
BRANCH   1   6
ATOM      6  C   UNL     1      25.001  31.746 -11.827  1.00  0.00     0.000 C 
BRANCH   6   7
ATOM      7  C   UNL     1      24.056  32.467 -12.803  1.00  0.00    -0.000 C 
BRANCH   7   8
ATOM      8  C   UNL     1      24.675  32.649 -14.197  1.00  0.00    -0.003 C 
ATOM      9  C   UNL     1      23.711  32.284 -15.324  1.00  0.00     0.004 C 
ENDBRANCH   7   8
ENDBRANCH   6   7
ENDBRANCH   1   6
TORSDOF 5
ENDMDL
MODEL 4
REMARK VINA RESULT:    -3.324      2.396      4.223
REMARK INTER + INTRA:          -4.556
REMARK INTER:                  -4.321
REMARK INTRA:                  -0.234
REMARK UNBOUND:                -0.260
REMARK SMILES CCCCCCC(=O)[O-]
REMARK SMILES IDX 5 1 6 2 7 3 8 4 9 5 4 6 3 7 2 8 1 9
REMARK H PARENT
REMARK Flexibility Score: inf
ROOT
ATOM      1  C   UNL     1      28.353  30.451 -13.205  1.00  0.00     0.006 C 
ENDROOT
BRANCH   1   2
ATOM      2  C   UNL     1      28.146  29.278 -12.238  1.00  0.00     0.053 C 
BRANCH   2   3
ATOM      3  C   UNL     1      28.173  29.760 -10.821  1.00  0.00     0.041 C 
ATOM      4  O   UNL     1      28.645  30.894 -10.546  1.00  0.00    -0.550 OA
ATOM      5  O   UNL     1      27.720  28.936  -9.799  1.00  0.00    -0.550 OA
ENDBRANCH   2   3
ENDBRANCH   1   2
BRANCH   1   6
ATOM      6  C   UNL     1      27.291  30.496 -14.314  1.00  0.00     0.000 C 
BRANCH   6   7
ATOM      7  C   UNL     1      25.863  30.308 -13.774  1.00  0.00    -0.000 C 
BRANCH   7   8
ATOM      8  C   UNL     1      25.265  31.612 -13.223  1.00  0.00    -0.003 C 
ATOM      9  C   UNL     1      24.779  32.551 -14.326  1.00  0.00     0.004 C 
ENDBRANCH   7   8
ENDBRANCH   6   7
ENDBRANCH   1   6
TORSDOF 5
ENDMDL
MODEL 5
REMARK VINA RESULT:    -3.313      1.763      1.841
REMARK INTER + INTRA:          -4.541
REMARK INTER:                  -4.385
REMARK INTRA:                  -0.156
REMARK UNBOUND:                -0.260
REMARK SMILES CCCCCCC(=O)[O-]
REMARK SMILES IDX 5 1 6 2 7 3 8 4 9 5 4 6 3 7 2 8 1 9
REMARK H PARENT
REMARK Flexibility Score: inf
ROOT
ATOM      1  C   UNL     1      27.406  30.453 -13.270  1.00  0.00     0.006 C 
ENDROOT
BRANCH   1   2
ATOM      2  C   UNL     1      27.079  30.359 -14.766  1.00  0.00     0.053 C 
BRANCH   2   3
ATOM      3  C   UNL     1      25.977  29.372 -14.997  1.00  0.00     0.041 C 
ATOM      4  O   UNL     1      24.825  29.591 -14.542  1.00  0.00    -0.550 OA
ATOM      5  O   UNL     1      26.236  28.188 -15.675  1.00  0.00    -0.550 OA
ENDBRANCH   2   3
ENDBRANCH   1   2
BRANCH   1   6
ATOM      6  C   UNL     1      28.916  30.381 -12.991  1.00  0.00     0.000 C 
BRANCH   6   7
ATOM      7  C   UNL     1      29.231  30.009 -11.532  1.00  0.00    -0.000 C 
BRANCH   7   8
ATOM      8  C   UNL     1      28.166  30.522 -10.550  1.00  0.00    -0.003 C 
ATOM      9  C   UNL     1      27.547  29.403  -9.714  1.00  0.00     0.004 C 
ENDBRANCH   7   8
ENDBRANCH   6   7
ENDBRANCH   1   6
TORSDOF 5
ENDMDL
MODEL 6
REMARK VINA RESULT:    -3.241      2.387      4.209
REMARK INTER + INTRA:          -4.448
REMARK INTER:                  -4.326
REMARK INTRA:                  -0.123
REMARK UNBOUND:                -0.260
REMARK SMILES CCCCCCC(=O)[O-]
REMARK SMILES IDX 5 1 6 2 7 3 8 4 9 5 4 6 3 7 2 8 1 9
REMARK H PARENT
REMARK Flexibility Score: inf
ROOT
ATOM      1  C   UNL     1      27.487  30.254 -13.931  1.00  0.00     0.006 C 
ENDROOT
BRANCH   1   2
ATOM      2  C   UNL     1      28.726  30.470 -13.052  1.00  0.00     0.053 C 
BRANCH   2   3
ATOM      3  C   UNL     1      28.447  30.048 -11.644  1.00  0.00     0.041 C 
ATOM      4  O   UNL     1      27.965  28.909 -11.408  1.00  0.00    -0.550 OA
ATOM      5  O   UNL     1      28.674  30.930 -10.596  1.00  0.00    -0.550 OA
ENDBRANCH   2   3
ENDBRANCH   1   2
BRANCH   1   6
ATOM      6  C   UNL     1      26.250  30.994 -13.399  1.00  0.00     0.000 C 
BRANCH   6   7
ATOM      7  C   UNL     1      25.328  31.491 -14.526  1.00  0.00    -0.000 C 
BRANCH   7   8
ATOM      8  C   UNL     1      24.390  32.617 -14.065  1.00  0.00    -0.003 C 
ATOM      9  C   UNL     1      24.202  32.646 -12.549  1.00  0.00     0.004 C 
ENDBRANCH   7   8
ENDBRANCH   6   7
ENDBRANCH   1   6
TORSDOF 5
ENDMDL
MODEL 7
REMARK VINA RESULT:    -3.239      1.312      2.364
REMARK INTER + INTRA:          -4.446
REMARK INTER:                  -4.223
REMARK INTRA:                  -0.224
REMARK UNBOUND:                -0.260
REMARK SMILES CCCCCCC(=O)[O-]
REMARK SMILES IDX 5 1 6 2 7 3 8 4 9 5 4 6 3 7 2 8 1 9
REMARK H PARENT
REMARK Flexibility Score: inf
ROOT
ATOM      1  C   UNL     1      25.556  31.108 -11.628  1.00  0.00     0.006 C 
ENDROOT
BRANCH   1   2
ATOM      2  C   UNL     1      24.902  30.748 -12.968  1.00  0.00     0.053 C 
BRANCH   2   3
ATOM      3  C   UNL     1      25.478  31.581 -14.070  1.00  0.00     0.041 C 
ATOM      4  O   UNL     1      26.539  31.225 -14.645  1.00  0.00    -0.550 OA
ATOM      5  O   UNL     1      24.867  32.776 -14.428  1.00  0.00    -0.550 OA
ENDBRANCH   2   3
ENDBRANCH   1   2
BRANCH   1   6
ATOM      6  C   UNL     1      26.535  30.029 -11.139  1.00  0.00     0.000 C 
BRANCH   6   7
ATOM      7  C   UNL     1      27.886  30.612 -10.694  1.00  0.00    -0.000 C 
BRANCH   7   8
ATOM      8  C   UNL     1      29.078  29.932 -11.386  1.00  0.00    -0.003 C 
ATOM      9  C   UNL     1      29.210  30.325 -12.856  1.00  0.00     0.004 C 
ENDBRANCH   7   8
ENDBRANCH   6   7
ENDBRANCH   1   6
TORSDOF 5
ENDMDL
MODEL 8
REMARK VINA RESULT:    -3.229      2.300      4.079
REMARK INTER + INTRA:          -4.433
REMARK INTER:                  -4.176
REMARK INTRA:                  -0.257
REMARK UNBOUND:                -0.260
REMARK SMILES CCCCCCC(=O)[O-]
REMARK SMILES IDX 5 1 6 2 7 3 8 4 9 5 4 6 3 7 2 8 1 9
REMARK H PARENT
REMARK Flexibility Score: inf
ROOT
ATOM      1  C   UNL     1      25.823  30.647 -14.110  1.00  0.00     0.006 C 
ENDROOT
BRANCH   1   2
ATOM      2  C   UNL     1      27.332  30.511 -14.355  1.00  0.00     0.053 C 
BRANCH   2   3
ATOM      3  C   UNL     1      28.067  30.430 -13.054  1.00  0.00     0.041 C 
ATOM      4  O   UNL     1      29.320  30.315 -13.041  1.00  0.00    -0.550 OA
ATOM      5  O   UNL     1      27.363  30.434 -11.857  1.00  0.00    -0.550 OA
ENDBRANCH   2   3
ENDBRANCH   1   2
BRANCH   1   6
ATOM      6  C   UNL     1      25.271  32.005 -14.569  1.00  0.00     0.000 C 
BRANCH   6   7
ATOM      7  C   UNL     1      24.052  32.457 -13.748  1.00  0.00    -0.000 C 
BRANCH   7   8
ATOM      8  C   UNL     1      24.375  32.621 -12.255  1.00  0.00    -0.003 C 
ATOM      9  C   UNL     1      23.478  31.768 -11.359  1.00  0.00     0.004 C 
ENDBRANCH   7   8
ENDBRANCH   6   7
ENDBRANCH   1   6
TORSDOF 5
ENDMDL
MODEL 9
REMARK VINA RESULT:    -3.038      2.591      4.234
REMARK INTER + INTRA:          -4.187
REMARK INTER:                  -3.963
REMARK INTRA:                  -0.223
REMARK UNBOUND:                -0.260
REMARK SMILES CCCCCCC(=O)[O-]
REMARK SMILES IDX 5 1 6 2 7 3 8 4 9 5 4 6 3 7 2 8 1 9
REMARK H PARENT
REMARK Flexibility Score: inf
ROOT
ATOM      1  C   UNL     1      28.354  29.398 -12.041  1.00  0.00     0.006 C 
ENDROOT
BRANCH   1   2
ATOM      2  C   UNL     1      28.089  29.998 -10.654  1.00  0.00     0.053 C 
BRANCH   2   3
ATOM      3  C   UNL     1      27.356  29.018  -9.793  1.00  0.00     0.041 C 
ATOM      4  O   UNL     1      27.459  29.074  -8.540  1.00  0.00    -0.550 OA
ATOM      5  O   UNL     1      26.597  28.012 -10.377  1.00  0.00    -0.550 OA
ENDBRANCH   2   3
ENDBRANCH   1   2
BRANCH   1   6
ATOM      6  C   UNL     1      28.583  30.472 -13.115  1.00  0.00     0.000 C 
BRANCH   6   7
ATOM      7  C   UNL     1      27.509  30.449 -14.216  1.00  0.00    -0.000 C 
BRANCH   7   8
ATOM      8  C   UNL     1      26.238  29.704 -13.782  1.00  0.00    -0.003 C 
ATOM      9  C   UNL     1      25.813  28.629 -14.781  1.00  0.00     0.004 C 
ENDBRANCH   7   8
ENDBRANCH   6   7
ENDBRANCH   1   6
TORSDOF 5
ENDMDL
