MODEL 1
REMARK VINA RESULT:    -2.494      0.000      0.000
REMARK INTER + INTRA:          -5.182
REMARK INTER:                  -4.680
REMARK INTRA:                  -0.501
REMARK UNBOUND:                -0.501
REMARK SMILES O=C([O-])CCCCCCCCCCCCCCC(=O)[O-]
REMARK SMILES IDX 10 1 9 2 8 3 7 4 6 5 5 6 4 7 2 8 1 9 3 10 11 11 12 12 13 13
REMARK SMILES IDX 14 14 15 15 16 16 17 17 18 18 19 19 20 20
REMARK H PARENT
REMARK Flexibility Score: inf
ROOT
ATOM      1  C   UNL     1       3.414 -37.137  19.800  1.00  0.00     0.000 C 
ENDROOT
BRANCH   1   2
ATOM      2  C   UNL     1       2.606 -38.313  19.230  1.00  0.00     0.000 C 
BRANCH   2   3
ATOM      3  C   UNL     1       1.148 -37.906  18.977  1.00  0.00     0.000 C 
BRANCH   3   4
ATOM      4  C   UNL     1       0.961 -37.394  17.542  1.00  0.00     0.000 C 
BRANCH   4   5
ATOM      5  C   UNL     1       2.295 -37.176  16.811  1.00  0.00     0.000 C 
BRANCH   5   6
ATOM      6  C   UNL     1       2.140 -36.324  15.539  1.00  0.00     0.006 C 
BRANCH   6   7
ATOM      7  C   UNL     1       2.462 -37.120  14.267  1.00  0.00     0.053 C 
BRANCH   7   8
ATOM      8  C   UNL     1       3.892 -37.566  14.236  1.00  0.00     0.041 C 
ATOM      9  O   UNL     1       4.798 -36.770  13.875  1.00  0.00    -0.550 OA
ATOM     10  O   UNL     1       4.220 -38.872  14.578  1.00  0.00    -0.550 OA
ENDBRANCH   7   8
ENDBRANCH   6   7
ENDBRANCH   5   6
ENDBRANCH   4   5
ENDBRANCH   3   4
ENDBRANCH   2   3
ENDBRANCH   1   2
BRANCH   1  11
ATOM     11  C   UNL     1       4.905 -37.214  19.435  1.00  0.00     0.000 C 
BRANCH  11  12
ATOM     12  C   UNL     1       5.695 -35.981  19.910  1.00  0.00     0.000 C 
BRANCH  12  13
ATOM     13  C   UNL     1       5.968 -35.998  21.423  1.00  0.00     0.000 C 
BRANCH  13  14
ATOM     14  C   UNL     1       6.090 -34.582  22.014  1.00  0.00     0.000 C 
BRANCH  14  15
ATOM     15  C   UNL     1       6.125 -34.586  23.551  1.00  0.00     0.000 C 
BRANCH  15  16
ATOM     16  C   UNL     1       5.198 -35.647  24.164  1.00  0.00     0.006 C 
BRANCH  16  17
ATOM     17  C   UNL     1       6.004 -36.710  24.916  1.00  0.00     0.053 C 
BRANCH  17  18
ATOM     18  C   UNL     1       5.128 -37.864  25.292  1.00  0.00     0.041 C 
ATOM     19  O   UNL     1       5.322 -38.999  24.784  1.00  0.00    -0.550 OA
ATOM     20  O   UNL     1       4.129 -37.696  26.242  1.00  0.00    -0.550 OA
ENDBRANCH  17  18
ENDBRANCH  16  17
ENDBRANCH  15  16
ENDBRANCH  14  15
ENDBRANCH  13  14
ENDBRANCH  12  13
ENDBRANCH  11  12
ENDBRANCH   1  11
TORSDOF 15
ENDMDL
MODEL 2
REMARK VINA RESULT:    -2.080      1.864      3.622
REMARK INTER + INTRA:          -4.405
REMARK INTER:                  -3.685
REMARK INTRA:                  -0.720
REMARK UNBOUND:                -0.501
REMARK SMILES O=C([O-])CCCCCCCCCCCCCCC(=O)[O-]
REMARK SMILES IDX 10 1 9 2 8 3 7 4 6 5 5 6 4 7 2 8 1 9 3 10 11 11 12 12 13 13
REMARK SMILES IDX 14 14 15 15 16 16 17 17 18 18 19 19 20 20
REMARK H PARENT
REMARK Flexibility Score: inf
ROOT
ATOM      1  C   UNL     1       5.265 -35.115  21.723  1.00  0.00     0.000 C 
ENDROOT
BRANCH   1   2
ATOM      2  C   UNL     1       6.057 -35.505  20.466  1.00  0.00     0.000 C 
BRANCH   2   3
ATOM      3  C   UNL     1       5.113 -35.841  19.304  1.00  0.00     0.000 C 
BRANCH   3   4
ATOM      4  C   UNL     1       3.972 -36.757  19.771  1.00  0.00     0.000 C 
BRANCH   4   5
ATOM      5  C   UNL     1       3.512 -37.735  18.678  1.00  0.00     0.000 C 
BRANCH   5   6
ATOM      6  C   UNL     1       3.053 -37.018  17.397  1.00  0.00     0.006 C 
BRANCH   6   7
ATOM      7  C   UNL     1       3.214 -37.900  16.151  1.00  0.00     0.053 C 
BRANCH   7   8
ATOM      8  C   UNL     1       3.062 -37.111  14.887  1.00  0.00     0.041 C 
ATOM      9  O   UNL     1       2.028 -36.418  14.692  1.00  0.00    -0.550 OA
ATOM     10  O   UNL     1       4.050 -37.163  13.912  1.00  0.00    -0.550 OA
ENDBRANCH   7   8
ENDBRANCH   6   7
ENDBRANCH   5   6
ENDBRANCH   4   5
ENDBRANCH   3   4
ENDBRANCH   2   3
ENDBRANCH   1   2
BRANCH   1  11
ATOM     11  C   UNL     1       6.125 -34.365  22.753  1.00  0.00     0.000 C 
BRANCH  11  12
ATOM     12  C   UNL     1       6.041 -34.986  24.159  1.00  0.00     0.000 C 
BRANCH  12  13
ATOM     13  C   UNL     1       5.649 -36.473  24.128  1.00  0.00     0.000 C 
BRANCH  13  14
ATOM     14  C   UNL     1       5.057 -36.953  25.465  1.00  0.00     0.000 C 
BRANCH  14  15
ATOM     15  C   UNL     1       4.549 -38.402  25.399  1.00  0.00     0.000 C 
BRANCH  15  16
ATOM     16  C   UNL     1       5.488 -39.325  24.609  1.00  0.00     0.006 C 
BRANCH  16  17
ATOM     17  C   UNL     1       4.755 -39.974  23.430  1.00  0.00     0.053 C 
BRANCH  17  18
ATOM     18  C   UNL     1       5.554 -39.830  22.173  1.00  0.00     0.041 C 
ATOM     19  O   UNL     1       5.969 -40.853  21.566  1.00  0.00    -0.550 OA
ATOM     20  O   UNL     1       5.798 -38.570  21.645  1.00  0.00    -0.550 OA
ENDBRANCH  17  18
ENDBRANCH  16  17
ENDBRANCH  15  16
ENDBRANCH  14  15
ENDBRANCH  13  14
ENDBRANCH  12  13
ENDBRANCH  11  12
ENDBRANCH   1  11
TORSDOF 15
ENDMDL
MODEL 3
REMARK VINA RESULT:    -2.060      1.337      8.771
REMARK INTER + INTRA:          -4.367
REMARK INTER:                  -3.425
REMARK INTRA:                  -0.943
REMARK UNBOUND:                -0.501
REMARK SMILES O=C([O-])CCCCCCCCCCCCCCC(=O)[O-]
REMARK SMILES IDX 10 1 9 2 8 3 7 4 6 5 5 6 4 7 2 8 1 9 3 10 11 11 12 12 13 13
REMARK SMILES IDX 14 14 15 15 16 16 17 17 18 18 19 19 20 20
REMARK H PARENT
REMARK Flexibility Score: inf
ROOT
ATOM      1  C   UNL     1       2.615 -37.877  19.556  1.00  0.00     0.000 C 
ENDROOT
BRANCH   1   2
ATOM      2  C   UNL     1       3.595 -36.710  19.755  1.00  0.00     0.000 C 
BRANCH   2   3
ATOM      3  C   UNL     1       4.910 -37.198  20.377  1.00  0.00     0.000 C 
BRANCH   3   4
ATOM      4  C   UNL     1       5.768 -36.014  20.848  1.00  0.00     0.000 C 
BRANCH   4   5
ATOM      5  C   UNL     1       5.471 -35.607  22.300  1.00  0.00     0.000 C 
BRANCH   5   6
ATOM      6  C   UNL     1       6.123 -36.552  23.324  1.00  0.00     0.006 C 
BRANCH   6   7
ATOM      7  C   UNL     1       5.583 -36.328  24.743  1.00  0.00     0.053 C 
BRANCH   7   8
ATOM      8  C   UNL     1       4.882 -37.543  25.270  1.00  0.00     0.041 C 
ATOM      9  O   UNL     1       4.136 -37.456  26.281  1.00  0.00    -0.550 OA
ATOM     10  O   UNL     1       5.077 -38.776  24.661  1.00  0.00    -0.550 OA
ENDBRANCH   7   8
ENDBRANCH   6   7
ENDBRANCH   5   6
ENDBRANCH   4   5
ENDBRANCH   3   4
ENDBRANCH   2   3
ENDBRANCH   1   2
BRANCH   1  11
ATOM     11  C   UNL     1       2.008 -37.903  18.145  1.00  0.00     0.000 C 
BRANCH  11  12
ATOM     12  C   UNL     1       2.612 -36.830  17.221  1.00  0.00     0.000 C 
BRANCH  12  13
ATOM     13  C   UNL     1       1.628 -36.356  16.138  1.00  0.00     0.000 C 
BRANCH  13  14
ATOM     14  C   UNL     1       2.110 -36.696  14.716  1.00  0.00     0.000 C 
BRANCH  14  15
ATOM     15  C   UNL     1       3.641 -36.781  14.618  1.00  0.00     0.000 C 
BRANCH  15  16
ATOM     16  C   UNL     1       4.120 -38.055  13.905  1.00  0.00     0.006 C 
BRANCH  16  17
ATOM     17  C   UNL     1       4.025 -39.270  14.833  1.00  0.00     0.053 C 
BRANCH  17  18
ATOM     18  C   UNL     1       4.961 -40.348  14.384  1.00  0.00     0.041 C 
ATOM     19  O   UNL     1       6.073 -40.049  13.875  1.00  0.00    -0.550 OA
ATOM     20  O   UNL     1       4.627 -41.682  14.574  1.00  0.00    -0.550 OA
ENDBRANCH  17  18
ENDBRANCH  16  17
ENDBRANCH  15  16
ENDBRANCH  14  15
ENDBRANCH  13  14
ENDBRANCH  12  13
ENDBRANCH  11  12
ENDBRANCH   1  11
TORSDOF 15
ENDMDL
MODEL 4
REMARK VINA RESULT:    -1.714      2.070      7.938
REMARK INTER + INTRA:          -3.719
REMARK INTER:                  -2.336
REMARK INTRA:                  -1.382
REMARK UNBOUND:                -0.501
REMARK SMILES O=C([O-])CCCCCCCCCCCCCCC(=O)[O-]
REMARK SMILES IDX 10 1 9 2 8 3 7 4 6 5 5 6 4 7 2 8 1 9 3 10 11 11 12 12 13 13
REMARK SMILES IDX 14 14 15 15 16 16 17 17 18 18 19 19 20 20
REMARK H PARENT
REMARK Flexibility Score: inf
ROOT
ATOM      1  C   UNL     1       4.271 -37.830  20.238  1.00  0.00     0.000 C 
ENDROOT
BRANCH   1   2
ATOM      2  C   UNL     1       5.643 -38.497  20.049  1.00  0.00     0.000 C 
BRANCH   2   3
ATOM      3  C   UNL     1       5.975 -39.413  21.234  1.00  0.00     0.000 C 
BRANCH   3   4
ATOM      4  C   UNL     1       4.875 -39.352  22.302  1.00  0.00     0.000 C 
BRANCH   4   5
ATOM      5  C   UNL     1       5.411 -39.600  23.721  1.00  0.00     0.000 C 
BRANCH   5   6
ATOM      6  C   UNL     1       5.737 -38.295  24.467  1.00  0.00     0.006 C 
BRANCH   6   7
ATOM      7  C   UNL     1       5.766 -37.082  23.527  1.00  0.00     0.053 C 
BRANCH   7   8
ATOM      8  C   UNL     1       5.816 -35.791  24.284  1.00  0.00     0.041 C 
ATOM      9  O   UNL     1       6.108 -35.785  25.509  1.00  0.00    -0.550 OA
ATOM     10  O   UNL     1       5.510 -34.597  23.644  1.00  0.00    -0.550 OA
ENDBRANCH   7   8
ENDBRANCH   6   7
ENDBRANCH   5   6
ENDBRANCH   4   5
ENDBRANCH   3   4
ENDBRANCH   2   3
ENDBRANCH   1   2
BRANCH   1  11
ATOM     11  C   UNL     1       4.364 -36.298  20.301  1.00  0.00     0.000 C 
BRANCH  11  12
ATOM     12  C   UNL     1       5.814 -35.789  20.216  1.00  0.00     0.000 C 
BRANCH  12  13
ATOM     13  C   UNL     1       6.055 -34.883  18.996  1.00  0.00     0.000 C 
BRANCH  13  14
ATOM     14  C   UNL     1       4.766 -34.612  18.201  1.00  0.00     0.000 C 
BRANCH  14  15
ATOM     15  C   UNL     1       4.552 -35.622  17.063  1.00  0.00     0.000 C 
BRANCH  15  16
ATOM     16  C   UNL     1       3.085 -36.053  16.918  1.00  0.00     0.006 C 
BRANCH  16  17
ATOM     17  C   UNL     1       2.984 -37.523  16.498  1.00  0.00     0.053 C 
BRANCH  17  18
ATOM     18  C   UNL     1       3.283 -37.673  15.039  1.00  0.00     0.041 C 
ATOM     19  O   UNL     1       4.016 -38.614  14.636  1.00  0.00    -0.550 OA
ATOM     20  O   UNL     1       2.712 -36.803  14.120  1.00  0.00    -0.550 OA
ENDBRANCH  17  18
ENDBRANCH  16  17
ENDBRANCH  15  16
ENDBRANCH  14  15
ENDBRANCH  13  14
ENDBRANCH  12  13
ENDBRANCH  11  12
ENDBRANCH   1  11
TORSDOF 15
ENDMDL
MODEL 5
REMARK VINA RESULT:    -1.630      2.554      7.525
REMARK INTER + INTRA:          -3.561
REMARK INTER:                  -2.395
REMARK INTRA:                  -1.166
REMARK UNBOUND:                -0.501
REMARK SMILES O=C([O-])CCCCCCCCCCCCCCC(=O)[O-]
REMARK SMILES IDX 10 1 9 2 8 3 7 4 6 5 5 6 4 7 2 8 1 9 3 10 11 11 12 12 13 13
REMARK SMILES IDX 14 14 15 15 16 16 17 17 18 18 19 19 20 20
REMARK H PARENT
REMARK Flexibility Score: inf
ROOT
ATOM      1  C   UNL     1       5.421 -36.599  20.917  1.00  0.00     0.000 C 
ENDROOT
BRANCH   1   2
ATOM      2  C   UNL     1       5.329 -37.719  19.869  1.00  0.00     0.000 C 
BRANCH   2   3
ATOM      3  C   UNL     1       5.146 -39.086  20.541  1.00  0.00     0.000 C 
BRANCH   3   4
ATOM      4  C   UNL     1       6.048 -39.215  21.777  1.00  0.00     0.000 C 
BRANCH   4   5
ATOM      5  C   UNL     1       5.316 -39.822  22.985  1.00  0.00     0.000 C 
BRANCH   5   6
ATOM      6  C   UNL     1       5.106 -38.806  24.121  1.00  0.00     0.006 C 
BRANCH   6   7
ATOM      7  C   UNL     1       6.064 -37.611  24.013  1.00  0.00     0.053 C 
BRANCH   7   8
ATOM      8  C   UNL     1       5.632 -36.472  24.884  1.00  0.00     0.041 C 
ATOM      9  O   UNL     1       6.125 -35.325  24.718  1.00  0.00    -0.550 OA
ATOM     10  O   UNL     1       4.707 -36.683  25.898  1.00  0.00    -0.550 OA
ENDBRANCH   7   8
ENDBRANCH   6   7
ENDBRANCH   5   6
ENDBRANCH   4   5
ENDBRANCH   3   4
ENDBRANCH   2   3
ENDBRANCH   1   2
BRANCH   1  11
ATOM     11  C   UNL     1       4.983 -35.234  20.362  1.00  0.00     0.000 C 
BRANCH  11  12
ATOM     12  C   UNL     1       5.599 -34.929  18.986  1.00  0.00     0.000 C 
BRANCH  12  13
ATOM     13  C   UNL     1       4.540 -34.760  17.884  1.00  0.00     0.000 C 
BRANCH  13  14
ATOM     14  C   UNL     1       4.277 -36.066  17.114  1.00  0.00     0.000 C 
BRANCH  14  15
ATOM     15  C   UNL     1       3.135 -35.929  16.094  1.00  0.00     0.000 C 
BRANCH  15  16
ATOM     16  C   UNL     1       1.855 -36.654  16.534  1.00  0.00     0.006 C 
BRANCH  16  17
ATOM     17  C   UNL     1       2.187 -37.866  17.411  1.00  0.00     0.053 C 
BRANCH  17  18
ATOM     18  C   UNL     1       1.402 -37.823  18.685  1.00  0.00     0.041 C 
ATOM     19  O   UNL     1       0.157 -38.010  18.668  1.00  0.00    -0.550 OA
ATOM     20  O   UNL     1       2.053 -37.624  19.895  1.00  0.00    -0.550 OA
ENDBRANCH  17  18
ENDBRANCH  16  17
ENDBRANCH  15  16
ENDBRANCH  14  15
ENDBRANCH  13  14
ENDBRANCH  12  13
ENDBRANCH  11  12
ENDBRANCH   1  11
TORSDOF 15
ENDMDL
MODEL 6
REMARK VINA RESULT:    -1.382      2.239      3.390
REMARK INTER + INTRA:          -3.096
REMARK INTER:                  -2.361
REMARK INTRA:                  -0.735
REMARK UNBOUND:                -0.501
REMARK SMILES O=C([O-])CCCCCCCCCCCCCCC(=O)[O-]
REMARK SMILES IDX 10 1 9 2 8 3 7 4 6 5 5 6 4 7 2 8 1 9 3 10 11 11 12 12 13 13
REMARK SMILES IDX 14 14 15 15 16 16 17 17 18 18 19 19 20 20
REMARK H PARENT
REMARK Flexibility Score: inf
ROOT
ATOM      1  C   UNL     1       5.008 -38.087  20.441  1.00  0.00     0.000 C 
ENDROOT
BRANCH   1   2
ATOM      2  C   UNL     1       5.361 -36.703  21.007  1.00  0.00     0.000 C 
BRANCH   2   3
ATOM      3  C   UNL     1       5.149 -35.608  19.953  1.00  0.00     0.000 C 
BRANCH   3   4
ATOM      4  C   UNL     1       4.581 -36.198  18.654  1.00  0.00     0.000 C 
BRANCH   4   5
ATOM      5  C   UNL     1       4.340 -35.132  17.574  1.00  0.00     0.000 C 
BRANCH   5   6
ATOM      6  C   UNL     1       3.351 -35.600  16.492  1.00  0.00     0.006 C 
BRANCH   6   7
ATOM      7  C   UNL     1       3.373 -37.123  16.307  1.00  0.00     0.053 C 
BRANCH   7   8
ATOM      8  C   UNL     1       3.244 -37.511  14.866  1.00  0.00     0.041 C 
ATOM      9  O   UNL     1       2.282 -37.080  14.177  1.00  0.00    -0.550 OA
ATOM     10  O   UNL     1       4.171 -38.371  14.292  1.00  0.00    -0.550 OA
ENDBRANCH   7   8
ENDBRANCH   6   7
ENDBRANCH   5   6
ENDBRANCH   4   5
ENDBRANCH   3   4
ENDBRANCH   2   3
ENDBRANCH   1   2
BRANCH   1  11
ATOM     11  C   UNL     1       5.848 -39.212  21.066  1.00  0.00     0.000 C 
BRANCH  11  12
ATOM     12  C   UNL     1       5.130 -39.903  22.240  1.00  0.00     0.000 C 
BRANCH  12  13
ATOM     13  C   UNL     1       5.689 -39.482  23.609  1.00  0.00     0.000 C 
BRANCH  13  14
ATOM     14  C   UNL     1       4.774 -38.480  24.335  1.00  0.00     0.000 C 
BRANCH  14  15
ATOM     15  C   UNL     1       5.408 -37.930  25.623  1.00  0.00     0.000 C 
BRANCH  15  16
ATOM     16  C   UNL     1       5.643 -36.414  25.569  1.00  0.00     0.006 C 
BRANCH  16  17
ATOM     17  C   UNL     1       6.117 -35.982  24.177  1.00  0.00     0.053 C 
BRANCH  17  18
ATOM     18  C   UNL     1       5.521 -34.660  23.807  1.00  0.00     0.041 C 
ATOM     19  O   UNL     1       6.125 -33.593  24.089  1.00  0.00    -0.550 OA
ATOM     20  O   UNL     1       4.323 -34.610  23.106  1.00  0.00    -0.550 OA
ENDBRANCH  17  18
ENDBRANCH  16  17
ENDBRANCH  15  16
ENDBRANCH  14  15
ENDBRANCH  13  14
ENDBRANCH  12  13
ENDBRANCH  11  12
ENDBRANCH   1  11
TORSDOF 15
ENDMDL
MODEL 7
REMARK VINA RESULT:    -1.366      2.597      7.388
REMARK INTER + INTRA:          -3.066
REMARK INTER:                  -2.333
REMARK INTRA:                  -0.733
REMARK UNBOUND:                -0.501
REMARK SMILES O=C([O-])CCCCCCCCCCCCCCC(=O)[O-]
REMARK SMILES IDX 10 1 9 2 8 3 7 4 6 5 5 6 4 7 2 8 1 9 3 10 11 11 12 12 13 13
REMARK SMILES IDX 14 14 15 15 16 16 17 17 18 18 19 19 20 20
REMARK H PARENT
REMARK Flexibility Score: inf
ROOT
ATOM      1  C   UNL     1       4.774 -36.025  20.919  1.00  0.00     0.000 C 
ENDROOT
BRANCH   1   2
ATOM      2  C   UNL     1       5.815 -35.531  21.936  1.00  0.00     0.000 C 
BRANCH   2   3
ATOM      3  C   UNL     1       5.143 -35.112  23.250  1.00  0.00     0.000 C 
BRANCH   3   4
ATOM      4  C   UNL     1       6.118 -35.233  24.429  1.00  0.00     0.000 C 
BRANCH   4   5
ATOM      5  C   UNL     1       6.125 -36.639  25.051  1.00  0.00     0.000 C 
BRANCH   5   6
ATOM      6  C   UNL     1       4.997 -37.532  24.507  1.00  0.00     0.006 C 
BRANCH   6   7
ATOM      7  C   UNL     1       5.442 -38.992  24.344  1.00  0.00     0.053 C 
BRANCH   7   8
ATOM      8  C   UNL     1       5.477 -39.405  22.905  1.00  0.00     0.041 C 
ATOM      9  O   UNL     1       5.884 -38.603  22.023  1.00  0.00    -0.550 OA
ATOM     10  O   UNL     1       5.033 -40.668  22.533  1.00  0.00    -0.550 OA
ENDBRANCH   7   8
ENDBRANCH   6   7
ENDBRANCH   5   6
ENDBRANCH   4   5
ENDBRANCH   3   4
ENDBRANCH   2   3
ENDBRANCH   1   2
BRANCH   1  11
ATOM     11  C   UNL     1       5.287 -35.962  19.472  1.00  0.00     0.000 C 
BRANCH  11  12
ATOM     12  C   UNL     1       5.142 -34.559  18.854  1.00  0.00     0.000 C 
BRANCH  12  13
ATOM     13  C   UNL     1       4.374 -34.573  17.522  1.00  0.00     0.000 C 
BRANCH  13  14
ATOM     14  C   UNL     1       4.105 -36.000  17.013  1.00  0.00     0.000 C 
BRANCH  14  15
ATOM     15  C   UNL     1       2.947 -36.057  16.004  1.00  0.00     0.000 C 
BRANCH  15  16
ATOM     16  C   UNL     1       1.765 -36.901  16.504  1.00  0.00     0.006 C 
BRANCH  16  17
ATOM     17  C   UNL     1       2.239 -37.988  17.474  1.00  0.00     0.053 C 
BRANCH  17  18
ATOM     18  C   UNL     1       1.437 -37.951  18.736  1.00  0.00     0.041 C 
ATOM     19  O   UNL     1       2.015 -37.898  19.853  1.00  0.00    -0.550 OA
ATOM     20  O   UNL     1       0.050 -37.925  18.677  1.00  0.00    -0.550 OA
ENDBRANCH  17  18
ENDBRANCH  16  17
ENDBRANCH  15  16
ENDBRANCH  14  15
ENDBRANCH  13  14
ENDBRANCH  12  13
ENDBRANCH  11  12
ENDBRANCH   1  11
TORSDOF 15
ENDMDL
MODEL 8
REMARK VINA RESULT:    -1.281      1.144      8.533
REMARK INTER + INTRA:          -2.907
REMARK INTER:                  -3.808
REMARK INTRA:                   0.902
REMARK UNBOUND:                -0.501
REMARK SMILES O=C([O-])CCCCCCCCCCCCCCC(=O)[O-]
REMARK SMILES IDX 10 1 9 2 8 3 7 4 6 5 5 6 4 7 2 8 1 9 3 10 11 11 12 12 13 13
REMARK SMILES IDX 14 14 15 15 16 16 17 17 18 18 19 19 20 20
REMARK H PARENT
REMARK Flexibility Score: inf
ROOT
ATOM      1  C   UNL     1       6.052 -37.346  21.879  1.00  0.00     0.000 C 
ENDROOT
BRANCH   1   2
ATOM      2  C   UNL     1       6.040 -35.843  21.562  1.00  0.00     0.000 C 
BRANCH   2   3
ATOM      3  C   UNL     1       4.820 -35.159  22.193  1.00  0.00     0.000 C 
BRANCH   3   4
ATOM      4  C   UNL     1       5.252 -34.085  23.202  1.00  0.00     0.000 C 
BRANCH   4   5
ATOM      5  C   UNL     1       6.092 -34.657  24.355  1.00  0.00     0.000 C 
BRANCH   5   6
ATOM      6  C   UNL     1       5.937 -36.180  24.501  1.00  0.00     0.006 C 
BRANCH   6   7
ATOM      7  C   UNL     1       5.476 -36.583  25.908  1.00  0.00     0.053 C 
BRANCH   7   8
ATOM      8  C   UNL     1       4.625 -37.815  25.885  1.00  0.00     0.041 C 
ATOM      9  O   UNL     1       5.033 -38.857  25.307  1.00  0.00    -0.550 OA
ATOM     10  O   UNL     1       3.368 -37.803  26.475  1.00  0.00    -0.550 OA
ENDBRANCH   7   8
ENDBRANCH   6   7
ENDBRANCH   5   6
ENDBRANCH   4   5
ENDBRANCH   3   4
ENDBRANCH   2   3
ENDBRANCH   1   2
BRANCH   1  11
ATOM     11  C   UNL     1       5.072 -38.142  21.003  1.00  0.00     0.000 C 
BRANCH  11  12
ATOM     12  C   UNL     1       5.204 -37.801  19.508  1.00  0.00     0.000 C 
BRANCH  12  13
ATOM     13  C   UNL     1       3.888 -37.293  18.895  1.00  0.00     0.000 C 
BRANCH  13  14
ATOM     14  C   UNL     1       2.649 -37.848  19.619  1.00  0.00     0.000 C 
BRANCH  14  15
ATOM     15  C   UNL     1       1.435 -37.985  18.687  1.00  0.00     0.000 C 
BRANCH  15  16
ATOM     16  C   UNL     1       1.612 -37.224  17.365  1.00  0.00     0.006 C 
BRANCH  16  17
ATOM     17  C   UNL     1       2.683 -37.886  16.491  1.00  0.00     0.053 C 
BRANCH  17  18
ATOM     18  C   UNL     1       3.141 -36.946  15.420  1.00  0.00     0.041 C 
ATOM     19  O   UNL     1       3.132 -35.704  15.622  1.00  0.00    -0.550 OA
ATOM     20  O   UNL     1       3.624 -37.446  14.218  1.00  0.00    -0.550 OA
ENDBRANCH  17  18
ENDBRANCH  16  17
ENDBRANCH  15  16
ENDBRANCH  14  15
ENDBRANCH  13  14
ENDBRANCH  12  13
ENDBRANCH  11  12
ENDBRANCH   1  11
TORSDOF 15
ENDMDL
