MODEL 1
REMARK VINA RESULT:    -3.085      0.000      0.000
REMARK INTER + INTRA:          -4.430
REMARK INTER:                  -4.167
REMARK INTRA:                  -0.264
REMARK UNBOUND:                -0.264
REMARK SMILES CCCCCCCC(=O)[O-]
REMARK SMILES IDX 5 1 6 2 7 3 8 4 9 5 10 6 4 7 3 8 2 9 1 10
REMARK H PARENT
REMARK Flexibility Score: inf
ROOT
ATOM      1  C   UNL     1      17.079  19.171  48.299  1.00  0.00     0.000 C 
ENDROOT
BRANCH   1   2
ATOM      2  C   UNL     1      17.322  17.979  47.362  1.00  0.00     0.006 C 
BRANCH   2   3
ATOM      3  C   UNL     1      16.510  18.085  46.064  1.00  0.00     0.053 C 
BRANCH   3   4
ATOM      4  C   UNL     1      15.188  17.390  46.178  1.00  0.00     0.041 C 
ATOM      5  O   UNL     1      14.226  17.950  46.765  1.00  0.00    -0.550 OA
ATOM      6  O   UNL     1      15.011  16.136  45.608  1.00  0.00    -0.550 OA
ENDBRANCH   3   4
ENDBRANCH   2   3
ENDBRANCH   1   2
BRANCH   1   7
ATOM      7  C   UNL     1      16.939  18.705  49.756  1.00  0.00     0.000 C 
BRANCH   7   8
ATOM      8  C   UNL     1      18.002  17.669  50.153  1.00  0.00    -0.000 C 
BRANCH   8   9
ATOM      9  C   UNL     1      17.813  17.146  51.584  1.00  0.00    -0.003 C 
ATOM     10  C   UNL     1      16.334  17.075  51.951  1.00  0.00     0.004 C 
ENDBRANCH   8   9
ENDBRANCH   7   8
ENDBRANCH   1   7
TORSDOF 6
ENDMDL
MODEL 2
REMARK VINA RESULT:    -3.045     14.122     15.465
REMARK INTER + INTRA:          -4.377
REMARK INTER:                  -4.095
REMARK INTRA:                  -0.282
REMARK UNBOUND:                -0.264
REMARK SMILES CCCCCCCC(=O)[O-]
REMARK SMILES IDX 5 1 6 2 7 3 8 4 9 5 10 6 4 7 3 8 2 9 1 10
REMARK H PARENT
REMARK Flexibility Score: inf
ROOT
ATOM      1  C   UNL     1      20.390  29.284  55.058  1.00  0.00     0.000 C 
ENDROOT
BRANCH   1   2
ATOM      2  C   UNL     1      20.925  30.435  55.922  1.00  0.00     0.006 C 
BRANCH   2   3
ATOM      3  C   UNL     1      21.759  29.933  57.108  1.00  0.00     0.053 C 
BRANCH   3   4
ATOM      4  C   UNL     1      20.959  29.900  58.374  1.00  0.00     0.041 C 
ATOM      5  O   UNL     1      20.454  28.819  58.777  1.00  0.00    -0.550 OA
ATOM      6  O   UNL     1      20.798  31.057  59.125  1.00  0.00    -0.550 OA
ENDBRANCH   3   4
ENDBRANCH   2   3
ENDBRANCH   1   2
BRANCH   1   7
ATOM      7  C   UNL     1      18.918  29.515  54.684  1.00  0.00     0.000 C 
BRANCH   7   8
ATOM      8  C   UNL     1      17.944  28.891  55.695  1.00  0.00    -0.000 C 
BRANCH   8   9
ATOM      9  C   UNL     1      16.479  29.241  55.399  1.00  0.00    -0.003 C 
ATOM     10  C   UNL     1      16.270  29.513  53.911  1.00  0.00     0.004 C 
ENDBRANCH   8   9
ENDBRANCH   7   8
ENDBRANCH   1   7
TORSDOF 6
ENDMDL
MODEL 3
REMARK VINA RESULT:    -3.001     13.130     14.183
REMARK INTER + INTRA:          -4.318
REMARK INTER:                  -3.936
REMARK INTRA:                  -0.382
REMARK UNBOUND:                -0.264
REMARK SMILES CCCCCCCC(=O)[O-]
REMARK SMILES IDX 5 1 6 2 7 3 8 4 9 5 10 6 4 7 3 8 2 9 1 10
REMARK H PARENT
REMARK Flexibility Score: inf
ROOT
ATOM      1  C   UNL     1      30.519  18.050  51.553  1.00  0.00     0.000 C 
ENDROOT
BRANCH   1   2
ATOM      2  C   UNL     1      29.735  17.435  50.384  1.00  0.00     0.006 C 
BRANCH   2   3
ATOM      3  C   UNL     1      28.476  16.694  50.855  1.00  0.00     0.053 C 
BRANCH   3   4
ATOM      4  C   UNL     1      27.386  17.645  51.245  1.00  0.00     0.041 C 
ATOM      5  O   UNL     1      26.926  17.635  52.418  1.00  0.00    -0.550 OA
ATOM      6  O   UNL     1      26.901  18.563  50.323  1.00  0.00    -0.550 OA
ENDBRANCH   3   4
ENDBRANCH   2   3
ENDBRANCH   1   2
BRANCH   1   7
ATOM      7  C   UNL     1      31.902  17.397  51.691  1.00  0.00     0.000 C 
BRANCH   7   8
ATOM      8  C   UNL     1      32.252  16.491  50.501  1.00  0.00    -0.000 C 
BRANCH   8   9
ATOM      9  C   UNL     1      33.125  15.294  50.906  1.00  0.00    -0.003 C 
ATOM     10  C   UNL     1      32.852  14.879  52.349  1.00  0.00     0.004 C 
ENDBRANCH   8   9
ENDBRANCH   7   8
ENDBRANCH   1   7
TORSDOF 6
ENDMDL
MODEL 4
REMARK VINA RESULT:    -2.994     13.780     15.049
REMARK INTER + INTRA:          -4.308
REMARK INTER:                  -4.014
REMARK INTRA:                  -0.295
REMARK UNBOUND:                -0.264
REMARK SMILES CCCCCCCC(=O)[O-]
REMARK SMILES IDX 5 1 6 2 7 3 8 4 9 5 10 6 4 7 3 8 2 9 1 10
REMARK H PARENT
REMARK Flexibility Score: inf
ROOT
ATOM      1  C   UNL     1      19.109  29.284  54.340  1.00  0.00     0.000 C 
ENDROOT
BRANCH   1   2
ATOM      2  C   UNL     1      20.201  30.033  55.119  1.00  0.00     0.006 C 
BRANCH   2   3
ATOM      3  C   UNL     1      20.411  29.455  56.525  1.00  0.00     0.053 C 
BRANCH   3   4
ATOM      4  C   UNL     1      21.448  30.220  57.289  1.00  0.00     0.041 C 
ATOM      5  O   UNL     1      21.184  30.676  58.433  1.00  0.00    -0.550 OA
ATOM      6  O   UNL     1      22.716  30.401  56.752  1.00  0.00    -0.550 OA
ENDBRANCH   3   4
ENDBRANCH   2   3
ENDBRANCH   1   2
BRANCH   1   7
ATOM      7  C   UNL     1      18.132  30.269  53.679  1.00  0.00     0.000 C 
BRANCH   7   8
ATOM      8  C   UNL     1      16.661  29.887  53.906  1.00  0.00    -0.000 C 
BRANCH   8   9
ATOM      9  C   UNL     1      16.465  28.994  55.140  1.00  0.00    -0.003 C 
ATOM     10  C   UNL     1      15.643  27.756  54.796  1.00  0.00     0.004 C 
ENDBRANCH   8   9
ENDBRANCH   7   8
ENDBRANCH   1   7
TORSDOF 6
ENDMDL
MODEL 5
REMARK VINA RESULT:    -2.978     13.497     14.490
REMARK INTER + INTRA:          -4.287
REMARK INTER:                  -3.945
REMARK INTRA:                  -0.342
REMARK UNBOUND:                -0.264
REMARK SMILES CCCCCCCC(=O)[O-]
REMARK SMILES IDX 5 1 6 2 7 3 8 4 9 5 10 6 4 7 3 8 2 9 1 10
REMARK H PARENT
REMARK Flexibility Score: inf
ROOT
ATOM      1  C   UNL     1      20.352  30.504  55.358  1.00  0.00     0.000 C 
ENDROOT
BRANCH   1   2
ATOM      2  C   UNL     1      19.613  29.425  54.554  1.00  0.00     0.006 C 
BRANCH   2   3
ATOM      3  C   UNL     1      18.130  29.326  54.939  1.00  0.00     0.053 C 
BRANCH   3   4
ATOM      4  C   UNL     1      17.245  29.932  53.894  1.00  0.00     0.041 C 
ATOM      5  O   UNL     1      17.697  30.808  53.110  1.00  0.00    -0.550 OA
ATOM      6  O   UNL     1      15.928  29.508  53.766  1.00  0.00    -0.550 OA
ENDBRANCH   3   4
ENDBRANCH   2   3
ENDBRANCH   1   2
BRANCH   1   7
ATOM      7  C   UNL     1      21.572  29.912  56.080  1.00  0.00     0.000 C 
BRANCH   7   8
ATOM      8  C   UNL     1      21.188  28.855  57.127  1.00  0.00    -0.000 C 
BRANCH   8   9
ATOM      9  C   UNL     1      20.402  29.449  58.305  1.00  0.00    -0.003 C 
ATOM     10  C   UNL     1      21.101  30.686  58.863  1.00  0.00     0.004 C 
ENDBRANCH   8   9
ENDBRANCH   7   8
ENDBRANCH   1   7
TORSDOF 6
ENDMDL
MODEL 6
REMARK VINA RESULT:    -2.948     13.932     14.957
REMARK INTER + INTRA:          -4.245
REMARK INTER:                  -3.812
REMARK INTRA:                  -0.433
REMARK UNBOUND:                -0.264
REMARK SMILES CCCCCCCC(=O)[O-]
REMARK SMILES IDX 5 1 6 2 7 3 8 4 9 5 10 6 4 7 3 8 2 9 1 10
REMARK H PARENT
REMARK Flexibility Score: inf
ROOT
ATOM      1  C   UNL     1      18.853  28.676  56.448  1.00  0.00     0.000 C 
ENDROOT
BRANCH   1   2
ATOM      2  C   UNL     1      19.999  28.847  55.441  1.00  0.00     0.006 C 
BRANCH   2   3
ATOM      3  C   UNL     1      20.636  30.241  55.516  1.00  0.00     0.053 C 
BRANCH   3   4
ATOM      4  C   UNL     1      21.953  30.212  56.229  1.00  0.00     0.041 C 
ATOM      5  O   UNL     1      22.027  29.771  57.406  1.00  0.00    -0.550 OA
ATOM      6  O   UNL     1      23.104  30.643  55.582  1.00  0.00    -0.550 OA
ENDBRANCH   3   4
ENDBRANCH   2   3
ENDBRANCH   1   2
BRANCH   1   7
ATOM      7  C   UNL     1      17.585  28.154  55.755  1.00  0.00     0.000 C 
BRANCH   7   8
ATOM      8  C   UNL     1      16.602  29.278  55.394  1.00  0.00    -0.000 C 
BRANCH   8   9
ATOM      9  C   UNL     1      16.453  29.470  53.878  1.00  0.00    -0.003 C 
ATOM     10  C   UNL     1      17.457  30.493  53.354  1.00  0.00     0.004 C 
ENDBRANCH   8   9
ENDBRANCH   7   8
ENDBRANCH   1   7
TORSDOF 6
ENDMDL
MODEL 7
REMARK VINA RESULT:    -2.939     12.562     13.646
REMARK INTER + INTRA:          -4.234
REMARK INTER:                  -3.890
REMARK INTRA:                  -0.344
REMARK UNBOUND:                -0.264
REMARK SMILES CCCCCCCC(=O)[O-]
REMARK SMILES IDX 5 1 6 2 7 3 8 4 9 5 10 6 4 7 3 8 2 9 1 10
REMARK H PARENT
REMARK Flexibility Score: inf
ROOT
ATOM      1  C   UNL     1      18.612  28.759  55.691  1.00  0.00     0.000 C 
ENDROOT
BRANCH   1   2
ATOM      2  C   UNL     1      17.089  28.923  55.587  1.00  0.00     0.006 C 
BRANCH   2   3
ATOM      3  C   UNL     1      16.676  29.757  54.367  1.00  0.00     0.053 C 
BRANCH   3   4
ATOM      4  C   UNL     1      15.991  28.921  53.330  1.00  0.00     0.041 C 
ATOM      5  O   UNL     1      16.641  28.463  52.354  1.00  0.00    -0.550 OA
ATOM      6  O   UNL     1      14.641  28.621  53.459  1.00  0.00    -0.550 OA
ENDBRANCH   3   4
ENDBRANCH   2   3
ENDBRANCH   1   2
BRANCH   1   7
ATOM      7  C   UNL     1      19.336  29.745  54.762  1.00  0.00     0.000 C 
BRANCH   7   8
ATOM      8  C   UNL     1      20.658  30.257  55.354  1.00  0.00    -0.000 C 
BRANCH   8   9
ATOM      9  C   UNL     1      21.089  29.474  56.603  1.00  0.00    -0.003 C 
ATOM     10  C   UNL     1      21.395  30.416  57.763  1.00  0.00     0.004 C 
ENDBRANCH   8   9
ENDBRANCH   7   8
ENDBRANCH   1   7
TORSDOF 6
ENDMDL
MODEL 8
REMARK VINA RESULT:    -2.926      3.674      5.538
REMARK INTER + INTRA:          -4.216
REMARK INTER:                  -3.862
REMARK INTRA:                  -0.354
REMARK UNBOUND:                -0.264
REMARK SMILES CCCCCCCC(=O)[O-]
REMARK SMILES IDX 5 1 6 2 7 3 8 4 9 5 10 6 4 7 3 8 2 9 1 10
REMARK H PARENT
REMARK Flexibility Score: inf
ROOT
ATOM      1  C   UNL     1      16.279  18.655  49.864  1.00  0.00     0.000 C 
ENDROOT
BRANCH   1   2
ATOM      2  C   UNL     1      15.856  17.773  51.047  1.00  0.00     0.006 C 
BRANCH   2   3
ATOM      3  C   UNL     1      17.055  17.095  51.724  1.00  0.00     0.053 C 
BRANCH   3   4
ATOM      4  C   UNL     1      17.477  17.822  52.964  1.00  0.00     0.041 C 
ATOM      5  O   UNL     1      18.487  18.573  52.946  1.00  0.00    -0.550 OA
ATOM      6  O   UNL     1      16.734  17.695  54.131  1.00  0.00    -0.550 OA
ENDBRANCH   3   4
ENDBRANCH   2   3
ENDBRANCH   1   2
BRANCH   1   7
ATOM      7  C   UNL     1      17.563  18.121  49.210  1.00  0.00     0.000 C 
BRANCH   7   8
ATOM      8  C   UNL     1      17.443  17.993  47.684  1.00  0.00    -0.000 C 
BRANCH   8   9
ATOM      9  C   UNL     1      16.023  18.282  47.176  1.00  0.00    -0.003 C 
ATOM     10  C   UNL     1      15.694  17.432  45.953  1.00  0.00     0.004 C 
ENDBRANCH   8   9
ENDBRANCH   7   8
ENDBRANCH   1   7
TORSDOF 6
ENDMDL
MODEL 9
REMARK VINA RESULT:    -2.881      4.082      5.815
REMARK INTER + INTRA:          -4.155
REMARK INTER:                  -3.831
REMARK INTRA:                  -0.325
REMARK UNBOUND:                -0.264
REMARK SMILES CCCCCCCC(=O)[O-]
REMARK SMILES IDX 5 1 6 2 7 3 8 4 9 5 10 6 4 7 3 8 2 9 1 10
REMARK H PARENT
REMARK Flexibility Score: inf
ROOT
ATOM      1  C   UNL     1      16.034  18.492  53.915  1.00  0.00     0.000 C 
ENDROOT
BRANCH   1   2
ATOM      2  C   UNL     1      17.023  17.486  53.309  1.00  0.00     0.006 C 
BRANCH   2   3
ATOM      3  C   UNL     1      16.744  17.218  51.824  1.00  0.00     0.053 C 
BRANCH   3   4
ATOM      4  C   UNL     1      17.943  17.504  50.974  1.00  0.00     0.041 C 
ATOM      5  O   UNL     1      19.086  17.586  51.496  1.00  0.00    -0.550 OA
ATOM      6  O   UNL     1      17.803  17.648  49.600  1.00  0.00    -0.550 OA
ENDBRANCH   3   4
ENDBRANCH   2   3
ENDBRANCH   1   2
BRANCH   1   7
ATOM      7  C   UNL     1      16.339  18.736  55.401  1.00  0.00     0.000 C 
BRANCH   7   8
ATOM      8  C   UNL     1      16.548  17.432  56.186  1.00  0.00    -0.000 C 
BRANCH   8   9
ATOM      9  C   UNL     1      17.677  17.539  57.221  1.00  0.00    -0.003 C 
ATOM     10  C   UNL     1      18.895  18.246  56.632  1.00  0.00     0.004 C 
ENDBRANCH   8   9
ENDBRANCH   7   8
ENDBRANCH   1   7
TORSDOF 6
ENDMDL
