MODEL 1
REMARK VINA RESULT:     0.000      0.000      0.000
REMARK INTER + INTRA:          -0.215
REMARK INTER:                   0.000
REMARK INTRA:                  -0.215
REMARK UNBOUND:                -0.215
REMARK SMILES CC1(C)CC[C@]2(C(=O)[O-])CC[C@]3(C)C(=CC[C@H]4[C@]5(C)CC[C@@H](O)C(C)(C)[C@H]5CC[C@]43C)[C@@H]2C1
REMARK SMILES IDX 6 1 5 2 10 3 32 4 4 5 11 6 14 7 33 8 2 9 12 10 15 11 1 12
REMARK SMILES IDX 3 13 13 14 30 15 16 16 17 17 29 18 31 19 18 20 28 21 27 22
REMARK SMILES IDX 20 23 19 24 24 25 21 26 22 27 25 28 26 29 7 30 8 31 9 32
REMARK SMILES IDX 23 33
REMARK H PARENT 23 34
REMARK Flexibility Score: inf
ROOT
ATOM      1  C   UNL     1       3.082  -4.922  -6.284  1.00  0.00     0.017 C 
ATOM      2  C   UNL     1       3.540  -6.295  -5.678  1.00  0.00     0.014 C 
ATOM      3  C   UNL     1       3.285  -3.815  -5.204  1.00  0.00     0.014 C 
ATOM      4  C   UNL     1       1.578  -4.979  -6.711  1.00  0.00     0.028 C 
ATOM      5  C   UNL     1       2.700  -7.483  -6.180  1.00  0.00     0.007 C 
ATOM      6  C   UNL     1       2.668  -2.440  -5.561  1.00  0.00     0.013 C 
ATOM      7  C   UNL     1       1.025  -3.568  -6.986  1.00  0.00    -0.064 C 
ATOM      8  C   UNL     1       0.743  -5.846  -5.747  1.00  0.00     0.015 C 
ATOM      9  C   UNL     1       1.188  -7.346  -5.798  1.00  0.00    -0.035 C 
ATOM     10  C   UNL     1       1.136  -2.465  -5.921  1.00  0.00    -0.006 C 
ATOM     11  C   UNL     1       0.849  -3.261  -8.281  1.00  0.00    -0.027 C 
ATOM     12  C   UNL     1       0.339  -8.105  -6.842  1.00  0.00     0.011 C 
ATOM     13  C   UNL     1       0.942  -7.997  -4.419  1.00  0.00     0.011 C 
ATOM     14  C   UNL     1       0.308  -2.881  -4.657  1.00  0.00     0.017 C 
ATOM     15  C   UNL     1       0.603  -1.007  -6.427  1.00  0.00    -0.020 C 
ATOM     16  C   UNL     1       0.601  -1.901  -8.814  1.00  0.00     0.032 C 
ATOM     17  C   UNL     1       1.046  -0.702  -7.917  1.00  0.00     0.006 C 
ATOM     18  C   UNL     1      -0.983  -0.932  -6.396  1.00  0.00     0.008 C 
ATOM     19  C   UNL     1       1.217   0.052  -5.432  1.00  0.00     0.012 C 
ATOM     20  C   UNL     1       0.532   0.715  -8.527  1.00  0.00    -0.025 C 
ATOM     21  C   UNL     1      -1.677   0.049  -7.394  1.00  0.00     0.005 C 
ATOM     22  C   UNL     1      -0.753   1.219  -7.772  1.00  0.00     0.003 C 
ATOM     23  C   UNL     1       1.600   1.832  -8.345  1.00  0.00     0.010 C 
ATOM     24  C   UNL     1       0.305   0.570 -10.071  1.00  0.00     0.012 C 
ATOM     25  C   UNL     1      -1.384   2.581  -8.262  1.00  0.00    -0.006 C 
ATOM     26  C   UNL     1       1.116   3.225  -8.827  1.00  0.00     0.033 C 
ATOM     27  C   UNL     1      -0.245   3.670  -8.235  1.00  0.00     0.120 C 
ATOM     28  C   UNL     1      -2.474   3.042  -7.247  1.00  0.00     0.014 C 
ATOM     29  C   UNL     1      -2.080   2.490  -9.649  1.00  0.00     0.014 C 
ENDROOT
BRANCH   1  30
ATOM     30  C   UNL     1       3.943  -4.634  -7.515  1.00  0.00     0.048 C 
ATOM     31  O   UNL     1       4.981  -3.922  -7.434  1.00  0.00    -0.550 OA
ATOM     32  O   UNL     1       3.638  -5.226  -8.735  1.00  0.00    -0.550 OA
ENDBRANCH   1  30
BRANCH  27  33
ATOM     33  O   UNL     1      -0.659   4.839  -8.900  1.00  0.00    -0.393 OA
ATOM     34  H   UNL     1      -0.472   5.608  -8.299  1.00  0.00     0.210 HD
ENDBRANCH  27  33
TORSDOF 2
ENDMDL
MODEL 2
REMARK VINA RESULT:     0.000      8.346     11.007
REMARK INTER + INTRA:          -0.215
REMARK INTER:                   0.000
REMARK INTRA:                  -0.215
REMARK UNBOUND:                -0.215
REMARK SMILES CC1(C)CC[C@]2(C(=O)[O-])CC[C@]3(C)C(=CC[C@H]4[C@]5(C)CC[C@@H](O)C(C)(C)[C@H]5CC[C@]43C)[C@@H]2C1
REMARK SMILES IDX 6 1 5 2 10 3 32 4 4 5 11 6 14 7 33 8 2 9 12 10 15 11 1 12
REMARK SMILES IDX 3 13 13 14 30 15 16 16 17 17 29 18 31 19 18 20 28 21 27 22
REMARK SMILES IDX 20 23 19 24 24 25 21 26 22 27 25 28 26 29 7 30 8 31 9 32
REMARK SMILES IDX 23 33
REMARK H PARENT 23 34
REMARK Flexibility Score: inf
ROOT
ATOM      1  C   UNL     1      -2.346   2.855 -15.651  1.00  0.00     0.017 C 
ATOM      2  C   UNL     1      -1.100   3.636 -16.198  1.00  0.00     0.014 C 
ATOM      3  C   UNL     1      -3.048   3.739 -14.574  1.00  0.00     0.014 C 
ATOM      4  C   UNL     1      -1.911   1.491 -15.018  1.00  0.00     0.028 C 
ATOM      5  C   UNL     1       0.079   2.714 -16.555  1.00  0.00     0.007 C 
ATOM      6  C   UNL     1      -4.161   3.021 -13.771  1.00  0.00     0.013 C 
ATOM      7  C   UNL     1      -3.052   0.876 -14.186  1.00  0.00    -0.064 C 
ATOM      8  C   UNL     1      -0.549   1.602 -14.303  1.00  0.00     0.015 C 
ATOM      9  C   UNL     1       0.604   1.913 -15.317  1.00  0.00    -0.035 C 
ATOM     10  C   UNL     1      -3.722   1.684 -13.064  1.00  0.00    -0.006 C 
ATOM     11  C   UNL     1      -3.674  -0.171 -14.750  1.00  0.00    -0.027 C 
ATOM     12  C   UNL     1       1.235   0.591 -15.808  1.00  0.00     0.011 C 
ATOM     13  C   UNL     1       1.703   2.729 -14.601  1.00  0.00     0.011 C 
ATOM     14  C   UNL     1      -2.665   2.003 -11.952  1.00  0.00     0.017 C 
ATOM     15  C   UNL     1      -4.986   0.918 -12.368  1.00  0.00    -0.020 C 
ATOM     16  C   UNL     1      -4.958  -0.752 -14.293  1.00  0.00     0.032 C 
ATOM     17  C   UNL     1      -5.884   0.171 -13.438  1.00  0.00     0.006 C 
ATOM     18  C   UNL     1      -4.492  -0.181 -11.334  1.00  0.00     0.008 C 
ATOM     19  C   UNL     1      -5.814   2.034 -11.621  1.00  0.00     0.012 C 
ATOM     20  C   UNL     1      -7.150  -0.654 -12.838  1.00  0.00    -0.025 C 
ATOM     21  C   UNL     1      -5.436  -1.399 -11.074  1.00  0.00     0.005 C 
ATOM     22  C   UNL     1      -6.908  -1.039 -11.332  1.00  0.00     0.003 C 
ATOM     23  C   UNL     1      -8.448   0.205 -12.857  1.00  0.00     0.010 C 
ATOM     24  C   UNL     1      -7.436  -1.904 -13.740  1.00  0.00     0.012 C 
ATOM     25  C   UNL     1      -8.047  -1.860 -10.610  1.00  0.00    -0.006 C 
ATOM     26  C   UNL     1      -9.662  -0.508 -12.206  1.00  0.00     0.033 C 
ATOM     27  C   UNL     1      -9.394  -1.060 -10.783  1.00  0.00     0.120 C 
ATOM     28  C   UNL     1      -7.752  -1.922  -9.080  1.00  0.00     0.014 C 
ATOM     29  C   UNL     1      -8.169  -3.331 -11.098  1.00  0.00     0.014 C 
ENDROOT
BRANCH   1  30
ATOM     30  C   UNL     1      -3.291   2.587 -16.823  1.00  0.00     0.048 C 
ATOM     31  O   UNL     1      -4.253   3.361 -17.077  1.00  0.00    -0.550 OA
ATOM     32  O   UNL     1      -3.053   1.520 -17.682  1.00  0.00    -0.550 OA
ENDBRANCH   1  30
BRANCH  27  33
ATOM     33  O   UNL     1     -10.494  -1.848 -10.396  1.00  0.00    -0.393 OA
ATOM     34  H   UNL     1     -10.668  -2.498 -11.126  1.00  0.00     0.210 HD
ENDBRANCH  27  33
TORSDOF 2
ENDMDL
MODEL 3
REMARK VINA RESULT:     0.000      4.677      6.590
REMARK INTER + INTRA:          -0.215
REMARK INTER:                   0.000
REMARK INTRA:                  -0.215
REMARK UNBOUND:                -0.215
REMARK SMILES CC1(C)CC[C@]2(C(=O)[O-])CC[C@]3(C)C(=CC[C@H]4[C@]5(C)CC[C@@H](O)C(C)(C)[C@H]5CC[C@]43C)[C@@H]2C1
REMARK SMILES IDX 6 1 5 2 10 3 32 4 4 5 11 6 14 7 33 8 2 9 12 10 15 11 1 12
REMARK SMILES IDX 3 13 13 14 30 15 16 16 17 17 29 18 31 19 18 20 28 21 27 22
REMARK SMILES IDX 20 23 19 24 24 25 21 26 22 27 25 28 26 29 7 30 8 31 9 32
REMARK SMILES IDX 23 33
REMARK H PARENT 23 34
REMARK Flexibility Score: inf
ROOT
ATOM      1  C   UNL     1       0.891  -8.859  -1.154  1.00  0.00     0.017 C 
ATOM      2  C   UNL     1       0.439 -10.355  -1.012  1.00  0.00     0.014 C 
ATOM      3  C   UNL     1       0.198  -8.026  -0.032  1.00  0.00     0.014 C 
ATOM      4  C   UNL     1       0.494  -8.292  -2.558  1.00  0.00     0.028 C 
ATOM      5  C   UNL     1       0.306 -11.074  -2.365  1.00  0.00     0.007 C 
ATOM      6  C   UNL     1       0.357  -6.492  -0.172  1.00  0.00     0.013 C 
ATOM      7  C   UNL     1       0.619  -6.758  -2.593  1.00  0.00    -0.064 C 
ATOM      8  C   UNL     1      -0.853  -8.863  -3.044  1.00  0.00     0.015 C 
ATOM      9  C   UNL     1      -0.763 -10.407  -3.292  1.00  0.00    -0.035 C 
ATOM     10  C   UNL     1      -0.107  -5.892  -1.551  1.00  0.00    -0.006 C 
ATOM     11  C   UNL     1       1.676  -6.282  -3.269  1.00  0.00    -0.027 C 
ATOM     12  C   UNL     1      -0.386 -10.675  -4.766  1.00  0.00     0.011 C 
ATOM     13  C   UNL     1      -2.146 -11.045  -3.030  1.00  0.00     0.011 C 
ATOM     14  C   UNL     1      -1.655  -6.080  -1.710  1.00  0.00     0.017 C 
ATOM     15  C   UNL     1       0.232  -4.299  -1.670  1.00  0.00    -0.020 C 
ATOM     16  C   UNL     1       2.169  -4.886  -3.218  1.00  0.00     0.032 C 
ATOM     17  C   UNL     1       1.766  -4.043  -1.965  1.00  0.00     0.006 C 
ATOM     18  C   UNL     1      -0.583  -3.625  -2.855  1.00  0.00     0.008 C 
ATOM     19  C   UNL     1      -0.188  -3.660  -0.289  1.00  0.00     0.012 C 
ATOM     20  C   UNL     1       2.198  -2.485  -2.138  1.00  0.00    -0.025 C 
ATOM     21  C   UNL     1       0.040  -2.360  -3.528  1.00  0.00     0.005 C 
ATOM     22  C   UNL     1       0.966  -1.603  -2.561  1.00  0.00     0.003 C 
ATOM     23  C   UNL     1       2.711  -1.886  -0.796  1.00  0.00     0.010 C 
ATOM     24  C   UNL     1       3.390  -2.380  -3.151  1.00  0.00     0.012 C 
ATOM     25  C   UNL     1       1.229  -0.063  -2.784  1.00  0.00    -0.006 C 
ATOM     26  C   UNL     1       3.045  -0.374  -0.889  1.00  0.00     0.033 C 
ATOM     27  C   UNL     1       1.907   0.498  -1.476  1.00  0.00     0.120 C 
ATOM     28  C   UNL     1      -0.133   0.680  -2.941  1.00  0.00     0.014 C 
ATOM     29  C   UNL     1       2.058   0.257  -4.061  1.00  0.00     0.014 C 
ENDROOT
BRANCH   1  30
ATOM     30  C   UNL     1       2.411  -8.805  -1.002  1.00  0.00     0.048 C 
ATOM     31  O   UNL     1       2.947  -8.556   0.112  1.00  0.00    -0.550 OA
ATOM     32  O   UNL     1       3.233  -9.111  -2.080  1.00  0.00    -0.550 OA
ENDBRANCH   1  30
BRANCH  27  33
ATOM     33  O   UNL     1       2.407   1.796  -1.692  1.00  0.00    -0.393 OA
ATOM     34  H   UNL     1       1.741   2.286  -2.243  1.00  0.00     0.210 HD
ENDBRANCH  27  33
TORSDOF 2
ENDMDL
MODEL 4
REMARK VINA RESULT:     0.000      3.188      7.727
REMARK INTER + INTRA:          -0.215
REMARK INTER:                   0.000
REMARK INTRA:                  -0.215
REMARK UNBOUND:                -0.215
REMARK SMILES CC1(C)CC[C@]2(C(=O)[O-])CC[C@]3(C)C(=CC[C@H]4[C@]5(C)CC[C@@H](O)C(C)(C)[C@H]5CC[C@]43C)[C@@H]2C1
REMARK SMILES IDX 6 1 5 2 10 3 32 4 4 5 11 6 14 7 33 8 2 9 12 10 15 11 1 12
REMARK SMILES IDX 3 13 13 14 30 15 16 16 17 17 29 18 31 19 18 20 28 21 27 22
REMARK SMILES IDX 20 23 19 24 24 25 21 26 22 27 25 28 26 29 7 30 8 31 9 32
REMARK SMILES IDX 23 33
REMARK H PARENT 23 34
REMARK Flexibility Score: inf
ROOT
ATOM      1  C   UNL     1       2.032   1.757  -8.793  1.00  0.00     0.017 C 
ATOM      2  C   UNL     1       2.529   2.472 -10.099  1.00  0.00     0.014 C 
ATOM      3  C   UNL     1       2.407   0.246  -8.886  1.00  0.00     0.014 C 
ATOM      4  C   UNL     1       0.483   1.912  -8.634  1.00  0.00     0.028 C 
ATOM      5  C   UNL     1       1.598   3.610 -10.553  1.00  0.00     0.007 C 
ATOM      6  C   UNL     1       1.785  -0.645  -7.783  1.00  0.00     0.013 C 
ATOM      7  C   UNL     1      -0.064   0.947  -7.564  1.00  0.00    -0.064 C 
ATOM      8  C   UNL     1      -0.239   1.874  -9.996  1.00  0.00     0.015 C 
ATOM      9  C   UNL     1       0.155   3.102 -10.884  1.00  0.00    -0.035 C 
ATOM     10  C   UNL     1       0.218  -0.560  -7.656  1.00  0.00    -0.006 C 
ATOM     11  C   UNL     1      -0.404   1.516  -6.397  1.00  0.00    -0.027 C 
ATOM     12  C   UNL     1      -0.847   4.255 -10.651  1.00  0.00     0.011 C 
ATOM     13  C   UNL     1       0.078   2.698 -12.373  1.00  0.00     0.011 C 
ATOM     14  C   UNL     1      -0.444  -1.133  -8.956  1.00  0.00     0.017 C 
ATOM     15  C   UNL     1      -0.338  -1.412  -6.378  1.00  0.00    -0.020 C 
ATOM     16  C   UNL     1      -0.684   0.788  -5.138  1.00  0.00     0.032 C 
ATOM     17  C   UNL     1      -0.091  -0.652  -5.011  1.00  0.00     0.006 C 
ATOM     18  C   UNL     1      -1.903  -1.658  -6.489  1.00  0.00     0.008 C 
ATOM     19  C   UNL     1       0.432  -2.788  -6.403  1.00  0.00     0.012 C 
ATOM     20  C   UNL     1      -0.644  -1.404  -3.679  1.00  0.00    -0.025 C 
ATOM     21  C   UNL     1      -2.698  -1.849  -5.158  1.00  0.00     0.005 C 
ATOM     22  C   UNL     1      -1.802  -2.405  -4.039  1.00  0.00     0.003 C 
ATOM     23  C   UNL     1       0.469  -2.260  -3.007  1.00  0.00     0.010 C 
ATOM     24  C   UNL     1      -1.079  -0.336  -2.617  1.00  0.00     0.012 C 
ATOM     25  C   UNL     1      -2.457  -3.204  -2.844  1.00  0.00    -0.006 C 
ATOM     26  C   UNL     1      -0.038  -3.072  -1.787  1.00  0.00     0.033 C 
ATOM     27  C   UNL     1      -1.295  -3.933  -2.067  1.00  0.00     0.120 C 
ATOM     28  C   UNL     1      -3.388  -4.318  -3.413  1.00  0.00     0.014 C 
ATOM     29  C   UNL     1      -3.334  -2.327  -1.907  1.00  0.00     0.014 C 
ENDROOT
BRANCH   1  30
ATOM     30  C   UNL     1       2.727   2.410  -7.599  1.00  0.00     0.048 C 
ATOM     31  O   UNL     1       3.785   1.925  -7.114  1.00  0.00    -0.550 OA
ATOM     32  O   UNL     1       2.245   3.606  -7.077  1.00  0.00    -0.550 OA
ENDBRANCH   1  30
BRANCH  27  33
ATOM     33  O   UNL     1      -1.763  -4.450  -0.844  1.00  0.00    -0.393 OA
ATOM     34  H   UNL     1      -1.890  -3.685  -0.225  1.00  0.00     0.210 HD
ENDBRANCH  27  33
TORSDOF 2
ENDMDL
MODEL 5
REMARK VINA RESULT:     0.000      5.122      6.979
REMARK INTER + INTRA:          -0.215
REMARK INTER:                   0.000
REMARK INTRA:                  -0.215
REMARK UNBOUND:                -0.215
REMARK SMILES CC1(C)CC[C@]2(C(=O)[O-])CC[C@]3(C)C(=CC[C@H]4[C@]5(C)CC[C@@H](O)C(C)(C)[C@H]5CC[C@]43C)[C@@H]2C1
REMARK SMILES IDX 6 1 5 2 10 3 32 4 4 5 11 6 14 7 33 8 2 9 12 10 15 11 1 12
REMARK SMILES IDX 3 13 13 14 30 15 16 16 17 17 29 18 31 19 18 20 28 21 27 22
REMARK SMILES IDX 20 23 19 24 24 25 21 26 22 27 25 28 26 29 7 30 8 31 9 32
REMARK SMILES IDX 23 33
REMARK H PARENT 23 34
REMARK Flexibility Score: inf
ROOT
ATOM      1  C   UNL     1      -1.227  -7.557  -8.100  1.00  0.00     0.017 C 
ATOM      2  C   UNL     1      -0.921  -8.629  -9.204  1.00  0.00     0.014 C 
ATOM      3  C   UNL     1       0.091  -6.787  -7.782  1.00  0.00     0.014 C 
ATOM      4  C   UNL     1      -1.770  -8.240  -6.801  1.00  0.00     0.028 C 
ATOM      5  C   UNL     1      -1.746  -9.918  -9.036  1.00  0.00     0.007 C 
ATOM      6  C   UNL     1       0.014  -5.851  -6.551  1.00  0.00     0.013 C 
ATOM      7  C   UNL     1      -1.754  -7.262  -5.611  1.00  0.00    -0.064 C 
ATOM      8  C   UNL     1      -1.099  -9.606  -6.550  1.00  0.00     0.015 C 
ATOM      9  C   UNL     1      -1.461 -10.634  -7.674  1.00  0.00    -0.035 C 
ATOM     10  C   UNL     1      -0.458  -6.537  -5.215  1.00  0.00    -0.006 C 
ATOM     11  C   UNL     1      -2.953  -6.783  -5.244  1.00  0.00    -0.027 C 
ATOM     12  C   UNL     1      -2.713 -11.438  -7.260  1.00  0.00     0.011 C 
ATOM     13  C   UNL     1      -0.291 -11.629  -7.848  1.00  0.00     0.011 C 
ATOM     14  C   UNL     1       0.609  -7.592  -4.762  1.00  0.00     0.017 C 
ATOM     15  C   UNL     1      -0.654  -5.454  -4.008  1.00  0.00    -0.020 C 
ATOM     16  C   UNL     1      -3.176  -5.637  -4.332  1.00  0.00     0.032 C 
ATOM     17  C   UNL     1      -1.995  -4.627  -4.171  1.00  0.00     0.006 C 
ATOM     18  C   UNL     1      -0.728  -6.175  -2.595  1.00  0.00     0.008 C 
ATOM     19  C   UNL     1       0.603  -4.503  -4.067  1.00  0.00     0.012 C 
ATOM     20  C   UNL     1      -2.299  -3.545  -2.995  1.00  0.00    -0.025 C 
ATOM     21  C   UNL     1      -1.524  -5.454  -1.460  1.00  0.00     0.005 C 
ATOM     22  C   UNL     1      -1.550  -3.931  -1.667  1.00  0.00     0.003 C 
ATOM     23  C   UNL     1      -1.784  -2.128  -3.380  1.00  0.00     0.010 C 
ATOM     24  C   UNL     1      -3.849  -3.410  -2.795  1.00  0.00     0.012 C 
ATOM     25  C   UNL     1      -1.760  -2.982  -0.423  1.00  0.00    -0.006 C 
ATOM     26  C   UNL     1      -1.967  -1.082  -2.249  1.00  0.00     0.033 C 
ATOM     27  C   UNL     1      -1.395  -1.516  -0.877  1.00  0.00     0.120 C 
ATOM     28  C   UNL     1      -0.752  -3.370   0.702  1.00  0.00     0.014 C 
ATOM     29  C   UNL     1      -3.180  -3.068   0.203  1.00  0.00     0.014 C 
ENDROOT
BRANCH   1  30
ATOM     30  C   UNL     1      -2.288  -6.601  -8.646  1.00  0.00     0.048 C 
ATOM     31  O   UNL     1      -1.966  -5.515  -9.199  1.00  0.00    -0.550 OA
ATOM     32  O   UNL     1      -3.632  -6.957  -8.614  1.00  0.00    -0.550 OA
ENDBRANCH   1  30
BRANCH  27  33
ATOM     33  O   UNL     1      -1.802  -0.580   0.092  1.00  0.00    -0.393 OA
ATOM     34  H   UNL     1      -1.010  -0.366   0.653  1.00  0.00     0.210 HD
ENDBRANCH  27  33
TORSDOF 2
ENDMDL
MODEL 6
REMARK VINA RESULT:     0.000      3.543      5.170
REMARK INTER + INTRA:          -0.215
REMARK INTER:                   0.000
REMARK INTRA:                  -0.215
REMARK UNBOUND:                -0.215
REMARK SMILES CC1(C)CC[C@]2(C(=O)[O-])CC[C@]3(C)C(=CC[C@H]4[C@]5(C)CC[C@@H](O)C(C)(C)[C@H]5CC[C@]43C)[C@@H]2C1
REMARK SMILES IDX 6 1 5 2 10 3 32 4 4 5 11 6 14 7 33 8 2 9 12 10 15 11 1 12
REMARK SMILES IDX 3 13 13 14 30 15 16 16 17 17 29 18 31 19 18 20 28 21 27 22
REMARK SMILES IDX 20 23 19 24 24 25 21 26 22 27 25 28 26 29 7 30 8 31 9 32
REMARK SMILES IDX 23 33
REMARK H PARENT 23 34
REMARK Flexibility Score: inf
ROOT
ATOM      1  C   UNL     1      -2.801  -6.853  -6.440  1.00  0.00     0.017 C 
ATOM      2  C   UNL     1      -2.636  -8.388  -6.722  1.00  0.00     0.014 C 
ATOM      3  C   UNL     1      -2.550  -6.078  -7.771  1.00  0.00     0.014 C 
ATOM      4  C   UNL     1      -1.785  -6.378  -5.349  1.00  0.00     0.028 C 
ATOM      5  C   UNL     1      -2.035  -9.156  -5.532  1.00  0.00     0.007 C 
ATOM      6  C   UNL     1      -2.447  -4.541  -7.616  1.00  0.00     0.013 C 
ATOM      7  C   UNL     1      -1.697  -4.841  -5.304  1.00  0.00    -0.064 C 
ATOM      8  C   UNL     1      -0.438  -7.120  -5.460  1.00  0.00     0.015 C 
ATOM      9  C   UNL     1      -0.602  -8.648  -5.158  1.00  0.00    -0.035 C 
ATOM     10  C   UNL     1      -1.377  -4.041  -6.576  1.00  0.00    -0.006 C 
ATOM     11  C   UNL     1      -2.304  -4.261  -4.257  1.00  0.00    -0.027 C 
ATOM     12  C   UNL     1      -0.354  -8.911  -3.656  1.00  0.00     0.011 C 
ATOM     13  C   UNL     1       0.453  -9.441  -5.962  1.00  0.00     0.011 C 
ATOM     14  C   UNL     1       0.059  -4.418  -7.079  1.00  0.00     0.017 C 
ATOM     15  C   UNL     1      -1.438  -2.422  -6.366  1.00  0.00    -0.020 C 
ATOM     16  C   UNL     1      -2.600  -2.814  -4.132  1.00  0.00     0.032 C 
ATOM     17  C   UNL     1      -2.662  -1.992  -5.459  1.00  0.00     0.006 C 
ATOM     18  C   UNL     1      -0.126  -1.885  -5.651  1.00  0.00     0.008 C 
ATOM     19  C   UNL     1      -1.564  -1.800  -7.810  1.00  0.00     0.012 C 
ATOM     20  C   UNL     1      -2.789  -0.398  -5.160  1.00  0.00    -0.025 C 
ATOM     21  C   UNL     1      -0.249  -0.573  -4.811  1.00  0.00     0.005 C 
ATOM     22  C   UNL     1      -1.397   0.316  -5.317  1.00  0.00     0.003 C 
ATOM     23  C   UNL     1      -3.742   0.296  -6.176  1.00  0.00     0.010 C 
ATOM     24  C   UNL     1      -3.422  -0.178  -3.742  1.00  0.00     0.012 C 
ATOM     25  C   UNL     1      -1.352   1.871  -5.043  1.00  0.00    -0.006 C 
ATOM     26  C   UNL     1      -3.820   1.834  -5.989  1.00  0.00     0.033 C 
ATOM     27  C   UNL     1      -2.444   2.546  -5.959  1.00  0.00     0.120 C 
ATOM     28  C   UNL     1       0.028   2.438  -5.494  1.00  0.00     0.014 C 
ATOM     29  C   UNL     1      -1.521   2.251  -3.545  1.00  0.00     0.014 C 
ENDROOT
BRANCH   1  30
ATOM     30  C   UNL     1      -4.226  -6.611  -5.940  1.00  0.00     0.048 C 
ATOM     31  O   UNL     1      -5.146  -6.269  -6.731  1.00  0.00    -0.550 OA
ATOM     32  O   UNL     1      -4.548  -6.846  -4.608  1.00  0.00    -0.550 OA
ENDBRANCH   1  30
BRANCH  27  33
ATOM     33  O   UNL     1      -2.645   3.888  -5.585  1.00  0.00    -0.393 OA
ATOM     34  H   UNL     1      -1.864   4.167  -5.040  1.00  0.00     0.210 HD
ENDBRANCH  27  33
TORSDOF 2
ENDMDL
MODEL 7
REMARK VINA RESULT:     0.000      4.088      6.327
REMARK INTER + INTRA:          -0.215
REMARK INTER:                   0.000
REMARK INTRA:                  -0.215
REMARK UNBOUND:                -0.215
REMARK SMILES CC1(C)CC[C@]2(C(=O)[O-])CC[C@]3(C)C(=CC[C@H]4[C@]5(C)CC[C@@H](O)C(C)(C)[C@H]5CC[C@]43C)[C@@H]2C1
REMARK SMILES IDX 6 1 5 2 10 3 32 4 4 5 11 6 14 7 33 8 2 9 12 10 15 11 1 12
REMARK SMILES IDX 3 13 13 14 30 15 16 16 17 17 29 18 31 19 18 20 28 21 27 22
REMARK SMILES IDX 20 23 19 24 24 25 21 26 22 27 25 28 26 29 7 30 8 31 9 32
REMARK SMILES IDX 23 33
REMARK H PARENT 23 34
REMARK Flexibility Score: inf
ROOT
ATOM      1  C   UNL     1      -0.294  -0.717  -1.125  1.00  0.00     0.017 C 
ATOM      2  C   UNL     1      -1.050  -1.285   0.128  1.00  0.00     0.014 C 
ATOM      3  C   UNL     1      -1.215  -0.883  -2.372  1.00  0.00     0.014 C 
ATOM      4  C   UNL     1       1.052  -1.483  -1.352  1.00  0.00     0.028 C 
ATOM      5  C   UNL     1      -0.109  -1.953   1.146  1.00  0.00     0.007 C 
ATOM      6  C   UNL     1      -0.529  -0.584  -3.728  1.00  0.00     0.013 C 
ATOM      7  C   UNL     1       1.634  -1.180  -2.746  1.00  0.00    -0.064 C 
ATOM      8  C   UNL     1       0.927  -2.977  -0.992  1.00  0.00     0.015 C 
ATOM      9  C   UNL     1       0.656  -3.175   0.538  1.00  0.00    -0.035 C 
ATOM     10  C   UNL     1       0.787  -1.400  -4.009  1.00  0.00    -0.006 C 
ATOM     11  C   UNL     1       2.694  -0.358  -2.760  1.00  0.00    -0.027 C 
ATOM     12  C   UNL     1       1.996  -3.348   1.286  1.00  0.00     0.011 C 
ATOM     13  C   UNL     1      -0.175  -4.460   0.745  1.00  0.00     0.011 C 
ATOM     14  C   UNL     1       0.441  -2.923  -4.143  1.00  0.00     0.017 C 
ATOM     15  C   UNL     1       1.523  -0.918  -5.385  1.00  0.00    -0.020 C 
ATOM     16  C   UNL     1       3.253   0.300  -3.964  1.00  0.00     0.032 C 
ATOM     17  C   UNL     1       2.298   0.450  -5.191  1.00  0.00     0.006 C 
ATOM     18  C   UNL     1       2.593  -1.987  -5.869  1.00  0.00     0.008 C 
ATOM     19  C   UNL     1       0.380  -0.767  -6.462  1.00  0.00     0.012 C 
ATOM     20  C   UNL     1       3.096   0.996  -6.498  1.00  0.00    -0.025 C 
ATOM     21  C   UNL     1       3.796  -1.466  -6.720  1.00  0.00     0.005 C 
ATOM     22  C   UNL     1       3.435  -0.182  -7.483  1.00  0.00     0.003 C 
ATOM     23  C   UNL     1       2.230   2.000  -7.314  1.00  0.00     0.010 C 
ATOM     24  C   UNL     1       4.372   1.785  -6.042  1.00  0.00     0.012 C 
ATOM     25  C   UNL     1       4.227   0.188  -8.799  1.00  0.00    -0.006 C 
ATOM     26  C   UNL     1       2.915   2.475  -8.622  1.00  0.00     0.033 C 
ATOM     27  C   UNL     1       3.424   1.330  -9.532  1.00  0.00     0.120 C 
ATOM     28  C   UNL     1       4.243  -1.041  -9.758  1.00  0.00     0.014 C 
ATOM     29  C   UNL     1       5.712   0.577  -8.551  1.00  0.00     0.014 C 
ENDROOT
BRANCH   1  30
ATOM     30  C   UNL     1       0.005   0.760  -0.871  1.00  0.00     0.048 C 
ATOM     31  O   UNL     1      -0.767   1.664  -1.291  1.00  0.00    -0.550 OA
ATOM     32  O   UNL     1       1.100   1.129  -0.097  1.00  0.00    -0.550 OA
ENDBRANCH   1  30
BRANCH  27  33
ATOM     33  O   UNL     1       4.193   1.891 -10.568  1.00  0.00    -0.393 OA
ATOM     34  H   UNL     1       4.176   1.256 -11.332  1.00  0.00     0.210 HD
ENDBRANCH  27  33
TORSDOF 2
ENDMDL
MODEL 8
REMARK VINA RESULT:     0.000      6.611      8.167
REMARK INTER + INTRA:          -0.215
REMARK INTER:                   0.000
REMARK INTRA:                  -0.215
REMARK UNBOUND:                -0.215
REMARK SMILES CC1(C)CC[C@]2(C(=O)[O-])CC[C@]3(C)C(=CC[C@H]4[C@]5(C)CC[C@@H](O)C(C)(C)[C@H]5CC[C@]43C)[C@@H]2C1
REMARK SMILES IDX 6 1 5 2 10 3 32 4 4 5 11 6 14 7 33 8 2 9 12 10 15 11 1 12
REMARK SMILES IDX 3 13 13 14 30 15 16 16 17 17 29 18 31 19 18 20 28 21 27 22
REMARK SMILES IDX 20 23 19 24 24 25 21 26 22 27 25 28 26 29 7 30 8 31 9 32
REMARK SMILES IDX 23 33
REMARK H PARENT 23 34
REMARK Flexibility Score: inf
ROOT
ATOM      1  C   UNL     1      -5.599  -6.413  -8.428  1.00  0.00     0.017 C 
ATOM      2  C   UNL     1      -5.692  -7.344  -7.168  1.00  0.00     0.014 C 
ATOM      3  C   UNL     1      -4.102  -6.311  -8.856  1.00  0.00     0.014 C 
ATOM      4  C   UNL     1      -6.157  -4.987  -8.104  1.00  0.00     0.028 C 
ATOM      5  C   UNL     1      -6.793  -6.915  -6.183  1.00  0.00     0.007 C 
ATOM      6  C   UNL     1      -3.810  -5.247  -9.942  1.00  0.00     0.013 C 
ATOM      7  C   UNL     1      -5.769  -3.977  -9.200  1.00  0.00    -0.064 C 
ATOM      8  C   UNL     1      -5.831  -4.561  -6.658  1.00  0.00     0.015 C 
ATOM      9  C   UNL     1      -6.557  -5.476  -5.616  1.00  0.00    -0.035 C 
ATOM     10  C   UNL     1      -4.298  -3.789  -9.602  1.00  0.00    -0.006 C 
ATOM     11  C   UNL     1      -6.762  -3.617 -10.027  1.00  0.00    -0.027 C 
ATOM     12  C   UNL     1      -7.922  -4.856  -5.241  1.00  0.00     0.011 C 
ATOM     13  C   UNL     1      -5.703  -5.561  -4.331  1.00  0.00     0.011 C 
ATOM     14  C   UNL     1      -3.491  -3.240  -8.375  1.00  0.00     0.017 C 
ATOM     15  C   UNL     1      -4.085  -2.765 -10.857  1.00  0.00    -0.020 C 
ATOM     16  C   UNL     1      -6.590  -2.892 -11.308  1.00  0.00     0.032 C 
ATOM     17  C   UNL     1      -5.182  -2.974 -11.979  1.00  0.00     0.006 C 
ATOM     18  C   UNL     1      -4.190  -1.252 -10.387  1.00  0.00     0.008 C 
ATOM     19  C   UNL     1      -2.642  -3.061 -11.421  1.00  0.00     0.012 C 
ATOM     20  C   UNL     1      -5.077  -1.974 -13.258  1.00  0.00    -0.025 C 
ATOM     21  C   UNL     1      -4.654  -0.201 -11.447  1.00  0.00     0.005 C 
ATOM     22  C   UNL     1      -4.315  -0.652 -12.877  1.00  0.00     0.003 C 
ATOM     23  C   UNL     1      -4.263  -2.618 -14.418  1.00  0.00     0.010 C 
ATOM     24  C   UNL     1      -6.512  -1.698 -13.827  1.00  0.00     0.012 C 
ATOM     25  C   UNL     1      -4.145   0.431 -14.013  1.00  0.00    -0.006 C 
ATOM     26  C   UNL     1      -4.056  -1.663 -15.622  1.00  0.00     0.033 C 
ATOM     27  C   UNL     1      -3.471  -0.278 -15.249  1.00  0.00     0.120 C 
ATOM     28  C   UNL     1      -3.157   1.537 -13.533  1.00  0.00     0.014 C 
ATOM     29  C   UNL     1      -5.467   1.154 -14.397  1.00  0.00     0.014 C 
ENDROOT
BRANCH   1  30
ATOM     30  C   UNL     1      -6.435  -7.038  -9.545  1.00  0.00     0.048 C 
ATOM     31  O   UNL     1      -5.908  -7.781 -10.417  1.00  0.00    -0.550 OA
ATOM     32  O   UNL     1      -7.814  -6.861  -9.568  1.00  0.00    -0.550 OA
ENDBRANCH   1  30
BRANCH  27  33
ATOM     33  O   UNL     1      -3.524   0.549 -16.387  1.00  0.00    -0.393 OA
ATOM     34  H   UNL     1      -3.546   1.491 -16.072  1.00  0.00     0.210 HD
ENDBRANCH  27  33
TORSDOF 2
ENDMDL
MODEL 9
REMARK VINA RESULT:     0.000      5.944      8.116
REMARK INTER + INTRA:          -0.215
REMARK INTER:                   0.000
REMARK INTRA:                  -0.215
REMARK UNBOUND:                -0.215
REMARK SMILES CC1(C)CC[C@]2(C(=O)[O-])CC[C@]3(C)C(=CC[C@H]4[C@]5(C)CC[C@@H](O)C(C)(C)[C@H]5CC[C@]43C)[C@@H]2C1
REMARK SMILES IDX 6 1 5 2 10 3 32 4 4 5 11 6 14 7 33 8 2 9 12 10 15 11 1 12
REMARK SMILES IDX 3 13 13 14 30 15 16 16 17 17 29 18 31 19 18 20 28 21 27 22
REMARK SMILES IDX 20 23 19 24 24 25 21 26 22 27 25 28 26 29 7 30 8 31 9 32
REMARK SMILES IDX 23 33
REMARK H PARENT 23 34
REMARK Flexibility Score: inf
ROOT
ATOM      1  C   UNL     1      -1.499  -1.778  -7.922  1.00  0.00     0.017 C 
ATOM      2  C   UNL     1      -0.133  -2.052  -8.645  1.00  0.00     0.014 C 
ATOM      3  C   UNL     1      -1.554  -2.647  -6.628  1.00  0.00     0.014 C 
ATOM      4  C   UNL     1      -2.702  -2.138  -8.856  1.00  0.00     0.028 C 
ATOM      5  C   UNL     1      -0.244  -1.996 -10.179  1.00  0.00     0.007 C 
ATOM      6  C   UNL     1      -2.931  -2.669  -5.920  1.00  0.00     0.013 C 
ATOM      7  C   UNL     1      -4.021  -2.201  -8.064  1.00  0.00    -0.064 C 
ATOM      8  C   UNL     1      -2.394  -3.366  -9.736  1.00  0.00     0.015 C 
ATOM      9  C   UNL     1      -1.233  -3.069 -10.744  1.00  0.00    -0.035 C 
ATOM     10  C   UNL     1      -4.144  -3.102  -6.825  1.00  0.00    -0.006 C 
ATOM     11  C   UNL     1      -4.853  -1.164  -8.249  1.00  0.00    -0.027 C 
ATOM     12  C   UNL     1      -1.820  -2.556 -12.078  1.00  0.00     0.011 C 
ATOM     13  C   UNL     1      -0.465  -4.378 -11.035  1.00  0.00     0.011 C 
ATOM     14  C   UNL     1      -3.970  -4.599  -7.254  1.00  0.00     0.017 C 
ATOM     15  C   UNL     1      -5.572  -2.954  -6.045  1.00  0.00    -0.020 C 
ATOM     16  C   UNL     1      -6.033  -0.851  -7.409  1.00  0.00     0.032 C 
ATOM     17  C   UNL     1      -6.045  -1.445  -5.964  1.00  0.00     0.006 C 
ATOM     18  C   UNL     1      -6.721  -3.756  -6.791  1.00  0.00     0.008 C 
ATOM     19  C   UNL     1      -5.343  -3.548  -4.601  1.00  0.00     0.012 C 
ATOM     20  C   UNL     1      -7.478  -1.196  -5.236  1.00  0.00    -0.025 C 
ATOM     21  C   UNL     1      -8.187  -3.247  -6.614  1.00  0.00     0.005 C 
ATOM     22  C   UNL     1      -8.367  -2.493  -5.286  1.00  0.00     0.003 C 
ATOM     23  C   UNL     1      -7.297  -0.860  -3.727  1.00  0.00     0.010 C 
ATOM     24  C   UNL     1      -8.187   0.044  -5.882  1.00  0.00     0.012 C 
ATOM     25  C   UNL     1      -9.801  -2.406  -4.631  1.00  0.00    -0.006 C 
ATOM     26  C   UNL     1      -8.642  -0.709  -2.969  1.00  0.00     0.033 C 
ATOM     27  C   UNL     1      -9.617  -1.899  -3.149  1.00  0.00     0.120 C 
ATOM     28  C   UNL     1     -10.421  -3.834  -4.545  1.00  0.00     0.014 C 
ATOM     29  C   UNL     1     -10.807  -1.532  -5.432  1.00  0.00     0.014 C 
ENDROOT
BRANCH   1  30
ATOM     30  C   UNL     1      -1.562  -0.291  -7.572  1.00  0.00     0.048 C 
ATOM     31  O   UNL     1      -1.210   0.128  -6.436  1.00  0.00    -0.550 OA
ATOM     32  O   UNL     1      -1.935   0.639  -8.536  1.00  0.00    -0.550 OA
ENDBRANCH   1  30
BRANCH  27  33
ATOM     33  O   UNL     1     -10.858  -1.548  -2.586  1.00  0.00    -0.393 OA
ATOM     34  H   UNL     1     -11.368  -2.388  -2.438  1.00  0.00     0.210 HD
ENDBRANCH  27  33
TORSDOF 2
ENDMDL
