MODEL 1
REMARK VINA RESULT:    -4.080      0.000      0.000
REMARK INTER + INTRA:          -4.517
REMARK INTER:                  -4.557
REMARK INTRA:                   0.039
REMARK UNBOUND:                 0.039
REMARK SMILES COc1cc2ccc(=O)oc2c(O)c1O
REMARK SMILES IDX 3 1 14 2 12 3 11 4 5 5 4 6 6 7 7 8 8 9 9 10 10 11 2 12 1 13
REMARK SMILES IDX 15 14 13 16
REMARK H PARENT 15 15 13 17
REMARK Flexibility Score: inf
ROOT
ATOM      1  C   UNL     1       3.410   0.415 -18.676  1.00  0.00     0.165 A 
ATOM      2  C   UNL     1       3.407   1.752 -19.106  1.00  0.00     0.204 A 
ATOM      3  C   UNL     1       3.931   2.766 -18.285  1.00  0.00     0.205 A 
ATOM      4  C   UNL     1       4.463   2.441 -17.025  1.00  0.00     0.184 A 
ATOM      5  C   UNL     1       4.466   1.098 -16.591  1.00  0.00     0.025 A 
ATOM      6  C   UNL     1       3.942   0.092 -17.413  1.00  0.00     0.062 A 
ATOM      7  C   UNL     1       5.001   0.804 -15.333  1.00  0.00     0.020 A 
ATOM      8  C   UNL     1       5.512   1.835 -14.546  1.00  0.00     0.094 A 
ATOM      9  C   UNL     1       5.475   3.142 -15.040  1.00  0.00     0.336 A 
ATOM     10  O   UNL     1       5.931   4.089 -14.346  1.00  0.00    -0.246 OA
ATOM     11  O   UNL     1       4.961   3.395 -16.241  1.00  0.00    -0.419 OA
ENDROOT
BRANCH   1  12
ATOM     12  O   UNL     1       2.875  -0.561 -19.531  1.00  0.00    -0.493 OA
ATOM     13  C   UNL     1       3.560  -1.120 -20.647  1.00  0.00     0.278 C 
ENDBRANCH   1  12
BRANCH   2  14
ATOM     14  O   UNL     1       2.875   2.055 -20.360  1.00  0.00    -0.502 OA
ATOM     15  H   UNL     1       1.891   2.252 -20.496  1.00  0.00     0.293 HD
ENDBRANCH   2  14
BRANCH   3  16
ATOM     16  O   UNL     1       3.920   4.088 -18.731  1.00  0.00    -0.502 OA
ATOM     17  H   UNL     1       3.310   4.790 -18.328  1.00  0.00     0.293 HD
ENDBRANCH   3  16
TORSDOF 3
ENDMDL
MODEL 2
REMARK VINA RESULT:    -3.580      1.628      1.969
REMARK INTER + INTRA:          -3.959
REMARK INTER:                  -3.979
REMARK INTRA:                   0.020
REMARK UNBOUND:                 0.039
REMARK SMILES COc1cc2ccc(=O)oc2c(O)c1O
REMARK SMILES IDX 3 1 14 2 12 3 11 4 5 5 4 6 6 7 7 8 8 9 9 10 10 11 2 12 1 13
REMARK SMILES IDX 15 14 13 16
REMARK H PARENT 15 15 13 17
REMARK Flexibility Score: inf
ROOT
ATOM      1  C   UNL     1       3.002  -0.162 -20.153  1.00  0.00     0.165 A 
ATOM      2  C   UNL     1       3.001   1.131 -20.701  1.00  0.00     0.204 A 
ATOM      3  C   UNL     1       3.123   2.257 -19.868  1.00  0.00     0.205 A 
ATOM      4  C   UNL     1       3.249   2.090 -18.479  1.00  0.00     0.184 A 
ATOM      5  C   UNL     1       3.249   0.791 -17.927  1.00  0.00     0.025 A 
ATOM      6  C   UNL     1       3.126  -0.327 -18.760  1.00  0.00     0.062 A 
ATOM      7  C   UNL     1       3.376   0.655 -16.541  1.00  0.00     0.020 A 
ATOM      8  C   UNL     1       3.495   1.794 -15.747  1.00  0.00     0.094 A 
ATOM      9  C   UNL     1       3.487   3.050 -16.361  1.00  0.00     0.336 A 
ATOM     10  O   UNL     1       3.594   4.092 -15.664  1.00  0.00    -0.246 OA
ATOM     11  O   UNL     1       3.366   3.152 -17.683  1.00  0.00    -0.419 OA
ENDROOT
BRANCH   1  12
ATOM     12  O   UNL     1       2.875  -1.255 -21.025  1.00  0.00    -0.493 OA
ATOM     13  C   UNL     1       3.950  -1.825 -21.767  1.00  0.00     0.278 C 
ENDBRANCH   1  12
BRANCH   2  14
ATOM     14  O   UNL     1       2.875   1.277 -22.083  1.00  0.00    -0.502 OA
ATOM     15  H   UNL     1       3.438   1.934 -22.610  1.00  0.00     0.293 HD
ENDBRANCH   2  14
BRANCH   3  16
ATOM     16  O   UNL     1       3.121   3.534 -20.433  1.00  0.00    -0.502 OA
ATOM     17  H   UNL     1       2.421   3.827 -21.104  1.00  0.00     0.293 HD
ENDBRANCH   3  16
TORSDOF 3
ENDMDL
MODEL 3
REMARK VINA RESULT:    -3.407      2.201      5.414
REMARK INTER + INTRA:          -3.766
REMARK INTER:                  -3.696
REMARK INTRA:                  -0.070
REMARK UNBOUND:                 0.039
REMARK SMILES COc1cc2ccc(=O)oc2c(O)c1O
REMARK SMILES IDX 3 1 14 2 12 3 11 4 5 5 4 6 6 7 7 8 8 9 9 10 10 11 2 12 1 13
REMARK SMILES IDX 15 14 13 16
REMARK H PARENT 15 15 13 17
REMARK Flexibility Score: inf
ROOT
ATOM      1  C   UNL     1       2.899   0.743 -17.870  1.00  0.00     0.165 A 
ATOM      2  C   UNL     1       2.888   2.061 -18.354  1.00  0.00     0.204 A 
ATOM      3  C   UNL     1       2.887   2.312 -19.738  1.00  0.00     0.205 A 
ATOM      4  C   UNL     1       2.898   1.238 -20.644  1.00  0.00     0.184 A 
ATOM      5  C   UNL     1       2.910  -0.087 -20.159  1.00  0.00     0.025 A 
ATOM      6  C   UNL     1       2.911  -0.332 -18.780  1.00  0.00     0.062 A 
ATOM      7  C   UNL     1       2.920  -1.136 -21.084  1.00  0.00     0.020 A 
ATOM      8  C   UNL     1       2.919  -0.849 -22.448  1.00  0.00     0.094 A 
ATOM      9  C   UNL     1       2.908   0.488 -22.857  1.00  0.00     0.336 A 
ATOM     10  O   UNL     1       2.906   0.770 -24.083  1.00  0.00    -0.246 OA
ATOM     11  O   UNL     1       2.897   1.467 -21.956  1.00  0.00    -0.419 OA
ENDROOT
BRANCH   1  12
ATOM     12  O   UNL     1       2.900   0.543 -16.481  1.00  0.00    -0.493 OA
ATOM     13  C   UNL     1       4.044   0.166 -15.720  1.00  0.00     0.278 C 
ENDBRANCH   1  12
BRANCH   2  14
ATOM     14  O   UNL     1       2.878   3.115 -17.439  1.00  0.00    -0.502 OA
ATOM     15  H   UNL     1       2.842   4.084 -17.731  1.00  0.00     0.293 HD
ENDBRANCH   2  14
BRANCH   3  16
ATOM     16  O   UNL     1       2.875   3.630 -20.198  1.00  0.00    -0.502 OA
ATOM     17  H   UNL     1       2.162   3.976 -20.830  1.00  0.00     0.293 HD
ENDBRANCH   3  16
TORSDOF 3
ENDMDL
MODEL 4
REMARK VINA RESULT:    -2.358      2.523      3.854
REMARK INTER + INTRA:          -2.594
REMARK INTER:                  -2.544
REMARK INTRA:                  -0.051
REMARK UNBOUND:                 0.039
REMARK SMILES COc1cc2ccc(=O)oc2c(O)c1O
REMARK SMILES IDX 3 1 14 2 12 3 11 4 5 5 4 6 6 7 7 8 8 9 9 10 10 11 2 12 1 13
REMARK SMILES IDX 15 14 13 16
REMARK H PARENT 15 15 13 17
REMARK Flexibility Score: inf
ROOT
ATOM      1  C   UNL     1       2.876   0.418 -21.471  1.00  0.00     0.165 A 
ATOM      2  C   UNL     1       2.877  -0.471 -20.384  1.00  0.00     0.204 A 
ATOM      3  C   UNL     1       2.877   0.017 -19.065  1.00  0.00     0.205 A 
ATOM      4  C   UNL     1       2.877   1.403 -18.831  1.00  0.00     0.184 A 
ATOM      5  C   UNL     1       2.877   2.297 -19.923  1.00  0.00     0.025 A 
ATOM      6  C   UNL     1       2.877   1.806 -21.234  1.00  0.00     0.062 A 
ATOM      7  C   UNL     1       2.876   3.671 -19.660  1.00  0.00     0.020 A 
ATOM      8  C   UNL     1       2.877   4.118 -18.340  1.00  0.00     0.094 A 
ATOM      9  C   UNL     1       2.878   3.175 -17.308  1.00  0.00     0.336 A 
ATOM     10  O   UNL     1       2.878   3.556 -16.108  1.00  0.00    -0.246 OA
ATOM     11  O   UNL     1       2.877   1.873 -17.585  1.00  0.00    -0.419 OA
ENDROOT
BRANCH   1  12
ATOM     12  O   UNL     1       2.877  -0.117 -22.768  1.00  0.00    -0.493 OA
ATOM     13  C   UNL     1       2.929   0.659 -23.962  1.00  0.00     0.278 C 
ENDBRANCH   1  12
BRANCH   2  14
ATOM     14  O   UNL     1       2.877  -1.843 -20.636  1.00  0.00    -0.502 OA
ATOM     15  H   UNL     1       2.914  -2.220 -21.576  1.00  0.00     0.293 HD
ENDBRANCH   2  14
BRANCH   3  16
ATOM     16  O   UNL     1       2.877  -0.883 -17.998  1.00  0.00    -0.502 OA
ATOM     17  H   UNL     1       3.611  -0.894 -17.300  1.00  0.00     0.293 HD
ENDBRANCH   3  16
TORSDOF 3
ENDMDL
MODEL 5
REMARK VINA RESULT:    -2.135      1.516      2.574
REMARK INTER + INTRA:          -2.346
REMARK INTER:                  -2.869
REMARK INTRA:                   0.523
REMARK UNBOUND:                 0.039
REMARK SMILES COc1cc2ccc(=O)oc2c(O)c1O
REMARK SMILES IDX 3 1 14 2 12 3 11 4 5 5 4 6 6 7 7 8 8 9 9 10 10 11 2 12 1 13
REMARK SMILES IDX 15 14 13 16
REMARK H PARENT 15 15 13 17
REMARK Flexibility Score: inf
ROOT
ATOM      1  C   UNL     1       3.572   1.487 -18.891  1.00  0.00     0.165 A 
ATOM      2  C   UNL     1       3.575   0.447 -17.947  1.00  0.00     0.204 A 
ATOM      3  C   UNL     1       4.259   0.594 -16.727  1.00  0.00     0.205 A 
ATOM      4  C   UNL     1       4.944   1.789 -16.449  1.00  0.00     0.184 A 
ATOM      5  C   UNL     1       4.942   2.835 -17.396  1.00  0.00     0.025 A 
ATOM      6  C   UNL     1       4.260   2.683 -18.610  1.00  0.00     0.062 A 
ATOM      7  C   UNL     1       5.632   4.013 -17.092  1.00  0.00     0.020 A 
ATOM      8  C   UNL     1       6.299   4.123 -15.873  1.00  0.00     0.094 A 
ATOM      9  C   UNL     1       6.258   3.047 -14.982  1.00  0.00     0.336 A 
ATOM     10  O   UNL     1       6.853   3.124 -13.875  1.00  0.00    -0.246 OA
ATOM     11  O   UNL     1       5.594   1.937 -15.296  1.00  0.00    -0.419 OA
ENDROOT
BRANCH   1  12
ATOM     12  O   UNL     1       2.877   1.292 -20.094  1.00  0.00    -0.493 OA
ATOM     13  C   UNL     1       2.954   0.114 -20.891  1.00  0.00     0.278 C 
ENDBRANCH   1  12
BRANCH   2  14
ATOM     14  O   UNL     1       2.889  -0.732 -18.242  1.00  0.00    -0.502 OA
ATOM     15  H   UNL     1       3.081  -1.603 -17.760  1.00  0.00     0.293 HD
ENDBRANCH   2  14
BRANCH   3  16
ATOM     16  O   UNL     1       4.249  -0.451 -15.802  1.00  0.00    -0.502 OA
ATOM     17  H   UNL     1       4.901  -0.494 -15.028  1.00  0.00     0.293 HD
ENDBRANCH   3  16
TORSDOF 3
ENDMDL
