MODEL 1
REMARK VINA RESULT:    -5.085      0.000      0.000
REMARK INTER + INTRA:          -6.524
REMARK INTER:                  -6.125
REMARK INTRA:                  -0.399
REMARK UNBOUND:                -0.399
REMARK SMILES O=c1c(O)c(-c2ccc(O)cc2O)oc2cc(O)cc(O)c12
REMARK SMILES IDX 5 1 3 2 2 3 1 4 22 5 20 6 19 7 17 8 16 9 15 10 14 11 6 12
REMARK SMILES IDX 8 13 7 14 9 15 11 16 12 17 10 18 13 20 4 22 21 24 18 26
REMARK H PARENT 10 19 13 21 4 23 21 25 18 27
REMARK Flexibility Score: inf
ROOT
ATOM      1  C   UNL     1     133.504 136.865 135.534  1.00  0.00     0.184 A 
ATOM      2  C   UNL     1     133.555 135.760 134.673  1.00  0.00     0.208 A 
ATOM      3  C   UNL     1     132.358 135.256 134.141  1.00  0.00     0.238 A 
ATOM      4  O   UNL     1     132.415 134.304 133.321  1.00  0.00    -0.285 OA
ATOM      5  C   UNL     1     131.123 135.848 134.503  1.00  0.00     0.111 A 
ATOM      6  C   UNL     1     129.844 135.396 134.057  1.00  0.00     0.134 A 
ATOM      7  C   UNL     1     128.699 136.133 134.381  1.00  0.00     0.093 A 
ATOM      8  C   UNL     1     128.778 137.270 135.189  1.00  0.00     0.123 A 
ATOM      9  C   UNL     1     130.014 137.686 135.677  1.00  0.00     0.094 A 
ATOM     10  C   UNL     1     131.179 136.993 135.341  1.00  0.00     0.146 A 
ATOM     11  O   UNL     1     132.338 137.433 135.817  1.00  0.00    -0.451 OA
ENDROOT
BRANCH   1  12
ATOM     12  C   UNL     1     134.731 137.424 136.143  1.00  0.00     0.063 A 
ATOM     13  C   UNL     1     136.348 137.410 137.961  1.00  0.00     0.047 A 
ATOM     14  C   UNL     1     135.224 136.867 137.335  1.00  0.00     0.020 A 
ATOM     15  C   UNL     1     136.991 138.520 137.411  1.00  0.00     0.119 A 
ATOM     16  C   UNL     1     136.508 139.085 136.224  1.00  0.00     0.093 A 
ATOM     17  C   UNL     1     135.389 138.544 135.581  1.00  0.00     0.130 A 
BRANCH  15  18
ATOM     18  O   UNL     1     138.108 139.054 138.049  1.00  0.00    -0.508 OA
ATOM     19  H   UNL     1     138.463 139.975 137.817  1.00  0.00     0.293 HD
ENDBRANCH  15  18
BRANCH  17  20
ATOM     20  O   UNL     1     134.971 139.125 134.382  1.00  0.00    -0.507 OA
ATOM     21  H   UNL     1     134.026 139.047 134.030  1.00  0.00     0.293 HD
ENDBRANCH  17  20
ENDBRANCH   1  12
BRANCH   2  22
ATOM     22  O   UNL     1     134.787 135.193 134.337  1.00  0.00    -0.502 OA
ATOM     23  H   UNL     1     135.634 135.744 134.256  1.00  0.00     0.293 HD
ENDBRANCH   2  22
BRANCH   6  24
ATOM     24  O   UNL     1     129.644 134.224 133.321  1.00  0.00    -0.507 OA
ATOM     25  H   UNL     1     129.488 134.189 132.325  1.00  0.00     0.293 HD
ENDBRANCH   6  24
BRANCH   8  26
ATOM     26  O   UNL     1     127.632 137.988 135.519  1.00  0.00    -0.508 OA
ATOM     27  H   UNL     1     126.926 138.208 134.826  1.00  0.00     0.293 HD
ENDBRANCH   8  26
TORSDOF 6
ENDMDL
MODEL 2
REMARK VINA RESULT:    -5.040     11.999     15.812
REMARK INTER + INTRA:          -6.471
REMARK INTER:                  -6.068
REMARK INTRA:                  -0.402
REMARK UNBOUND:                -0.399
REMARK SMILES O=c1c(O)c(-c2ccc(O)cc2O)oc2cc(O)cc(O)c12
REMARK SMILES IDX 5 1 3 2 2 3 1 4 22 5 20 6 19 7 17 8 16 9 15 10 14 11 6 12
REMARK SMILES IDX 8 13 7 14 9 15 11 16 12 17 10 18 13 20 4 22 21 24 18 26
REMARK H PARENT 10 19 13 21 4 23 21 25 18 27
REMARK Flexibility Score: inf
ROOT
ATOM      1  C   UNL     1     122.367 128.117 129.565  1.00  0.00     0.184 A 
ATOM      2  C   UNL     1     121.054 128.597 129.680  1.00  0.00     0.208 A 
ATOM      3  C   UNL     1     119.988 127.686 129.620  1.00  0.00     0.238 A 
ATOM      4  O   UNL     1     118.817 128.115 129.786  1.00  0.00    -0.285 OA
ATOM      5  C   UNL     1     120.250 126.309 129.418  1.00  0.00     0.111 A 
ATOM      6  C   UNL     1     119.246 125.301 129.301  1.00  0.00     0.134 A 
ATOM      7  C   UNL     1     119.624 123.955 129.225  1.00  0.00     0.093 A 
ATOM      8  C   UNL     1     120.971 123.585 129.195  1.00  0.00     0.123 A 
ATOM      9  C   UNL     1     121.958 124.566 129.249  1.00  0.00     0.094 A 
ATOM     10  C   UNL     1     121.612 125.914 129.363  1.00  0.00     0.146 A 
ATOM     11  O   UNL     1     122.586 126.815 129.426  1.00  0.00    -0.451 OA
ENDROOT
BRANCH   1  12
ATOM     12  C   UNL     1     123.527 129.032 129.597  1.00  0.00     0.063 A 
ATOM     13  C   UNL     1     124.985 130.590 128.426  1.00  0.00     0.047 A 
ATOM     14  C   UNL     1     123.862 129.761 128.442  1.00  0.00     0.020 A 
ATOM     15  C   UNL     1     125.795 130.699 129.559  1.00  0.00     0.119 A 
ATOM     16  C   UNL     1     125.472 129.977 130.715  1.00  0.00     0.093 A 
ATOM     17  C   UNL     1     124.343 129.151 130.747  1.00  0.00     0.130 A 
BRANCH  15  18
ATOM     18  O   UNL     1     126.915 131.527 129.527  1.00  0.00    -0.508 OA
ATOM     19  H   UNL     1     126.838 132.515 129.316  1.00  0.00     0.293 HD
ENDBRANCH  15  18
BRANCH  17  20
ATOM     20  O   UNL     1     124.048 128.482 131.936  1.00  0.00    -0.507 OA
ATOM     21  H   UNL     1     124.131 127.479 132.041  1.00  0.00     0.293 HD
ENDBRANCH  17  20
ENDBRANCH   1  12
BRANCH   2  22
ATOM     22  O   UNL     1     120.825 129.962 129.875  1.00  0.00    -0.502 OA
ATOM     23  H   UNL     1     121.412 130.675 129.457  1.00  0.00     0.293 HD
ENDBRANCH   2  22
BRANCH   6  24
ATOM     24  O   UNL     1     117.875 125.568 129.231  1.00  0.00    -0.507 OA
ATOM     25  H   UNL     1     117.255 125.212 128.519  1.00  0.00     0.293 HD
ENDBRANCH   6  24
BRANCH   8  26
ATOM     26  O   UNL     1     121.339 122.245 129.103  1.00  0.00    -0.508 OA
ATOM     27  H   UNL     1     121.192 121.712 128.253  1.00  0.00     0.293 HD
ENDBRANCH   8  26
TORSDOF 6
ENDMDL
MODEL 3
REMARK VINA RESULT:    -5.031      2.328      7.076
REMARK INTER + INTRA:          -6.460
REMARK INTER:                  -6.148
REMARK INTRA:                  -0.312
REMARK UNBOUND:                -0.399
REMARK SMILES O=c1c(O)c(-c2ccc(O)cc2O)oc2cc(O)cc(O)c12
REMARK SMILES IDX 5 1 3 2 2 3 1 4 22 5 20 6 19 7 17 8 16 9 15 10 14 11 6 12
REMARK SMILES IDX 8 13 7 14 9 15 11 16 12 17 10 18 13 20 4 22 21 24 18 26
REMARK H PARENT 10 19 13 21 4 23 21 25 18 27
REMARK Flexibility Score: inf
ROOT
ATOM      1  C   UNL     1     133.110 138.086 137.580  1.00  0.00     0.184 A 
ATOM      2  C   UNL     1     134.218 138.475 136.814  1.00  0.00     0.208 A 
ATOM      3  C   UNL     1     135.499 138.399 137.383  1.00  0.00     0.238 A 
ATOM      4  O   UNL     1     136.494 138.692 136.670  1.00  0.00    -0.285 OA
ATOM      5  C   UNL     1     135.650 137.961 138.721  1.00  0.00     0.111 A 
ATOM      6  C   UNL     1     136.896 137.881 139.413  1.00  0.00     0.134 A 
ATOM      7  C   UNL     1     136.940 137.318 140.693  1.00  0.00     0.093 A 
ATOM      8  C   UNL     1     135.775 136.890 141.333  1.00  0.00     0.123 A 
ATOM      9  C   UNL     1     134.546 137.017 140.690  1.00  0.00     0.094 A 
ATOM     10  C   UNL     1     134.475 137.541 139.397  1.00  0.00     0.146 A 
ATOM     11  O   UNL     1     133.284 137.630 138.815  1.00  0.00    -0.451 OA
ENDROOT
BRANCH   1  12
ATOM     12  C   UNL     1     131.735 138.167 137.042  1.00  0.00     0.063 A 
ATOM     13  C   UNL     1     129.498 139.117 137.174  1.00  0.00     0.047 A 
ATOM     14  C   UNL     1     130.818 139.059 137.625  1.00  0.00     0.020 A 
ATOM     15  C   UNL     1     129.071 138.280 136.141  1.00  0.00     0.119 A 
ATOM     16  C   UNL     1     129.974 137.386 135.553  1.00  0.00     0.093 A 
ATOM     17  C   UNL     1     131.303 137.326 135.989  1.00  0.00     0.130 A 
BRANCH  15  18
ATOM     18  O   UNL     1     127.750 138.346 135.704  1.00  0.00    -0.508 OA
ATOM     19  H   UNL     1     127.146 139.120 135.954  1.00  0.00     0.293 HD
ENDBRANCH  15  18
BRANCH  17  20
ATOM     20  O   UNL     1     132.170 136.441 135.344  1.00  0.00    -0.507 OA
ATOM     21  H   UNL     1     131.947 135.468 135.183  1.00  0.00     0.293 HD
ENDBRANCH  17  20
ENDBRANCH   1  12
BRANCH   2  22
ATOM     22  O   UNL     1     134.038 138.908 135.498  1.00  0.00    -0.502 OA
ATOM     23  H   UNL     1     134.389 139.799 135.167  1.00  0.00     0.293 HD
ENDBRANCH   2  22
BRANCH   6  24
ATOM     24  O   UNL     1     138.106 138.362 138.901  1.00  0.00    -0.507 OA
ATOM     25  H   UNL     1     138.600 139.167 139.254  1.00  0.00     0.293 HD
ENDBRANCH   6  24
BRANCH   8  26
ATOM     26  O   UNL     1     135.826 136.344 142.614  1.00  0.00    -0.508 OA
ATOM     27  H   UNL     1     135.534 136.874 143.427  1.00  0.00     0.293 HD
ENDBRANCH   8  26
TORSDOF 6
ENDMDL
MODEL 4
REMARK VINA RESULT:    -4.923      1.684      6.945
REMARK INTER + INTRA:          -6.329
REMARK INTER:                  -6.043
REMARK INTRA:                  -0.286
REMARK UNBOUND:                -0.399
REMARK SMILES O=c1c(O)c(-c2ccc(O)cc2O)oc2cc(O)cc(O)c12
REMARK SMILES IDX 5 1 3 2 2 3 1 4 22 5 20 6 19 7 17 8 16 9 15 10 14 11 6 12
REMARK SMILES IDX 8 13 7 14 9 15 11 16 12 17 10 18 13 20 4 22 21 24 18 26
REMARK H PARENT 10 19 13 21 4 23 21 25 18 27
REMARK Flexibility Score: inf
ROOT
ATOM      1  C   UNL     1     132.402 137.401 135.903  1.00  0.00     0.184 A 
ATOM      2  C   UNL     1     132.509 137.725 137.264  1.00  0.00     0.208 A 
ATOM      3  C   UNL     1     133.719 138.245 137.747  1.00  0.00     0.238 A 
ATOM      4  O   UNL     1     133.789 138.591 138.955  1.00  0.00    -0.285 OA
ATOM      5  C   UNL     1     134.816 138.408 136.866  1.00  0.00     0.111 A 
ATOM      6  C   UNL     1     136.103 138.889 137.254  1.00  0.00     0.134 A 
ATOM      7  C   UNL     1     137.076 139.125 136.275  1.00  0.00     0.093 A 
ATOM      8  C   UNL     1     136.831 138.836 134.931  1.00  0.00     0.123 A 
ATOM      9  C   UNL     1     135.598 138.311 134.550  1.00  0.00     0.094 A 
ATOM     10  C   UNL     1     134.595 138.099 135.498  1.00  0.00     0.146 A 
ATOM     11  O   UNL     1     133.430 137.611 135.089  1.00  0.00    -0.451 OA
ENDROOT
BRANCH   1  12
ATOM     12  C   UNL     1     131.159 136.828 135.343  1.00  0.00     0.063 A 
ATOM     13  C   UNL     1     130.038 134.986 134.214  1.00  0.00     0.047 A 
ATOM     14  C   UNL     1     131.182 135.531 134.799  1.00  0.00     0.020 A 
ATOM     15  C   UNL     1     128.857 135.728 134.155  1.00  0.00     0.119 A 
ATOM     16  C   UNL     1     128.822 137.021 134.692  1.00  0.00     0.093 A 
ATOM     17  C   UNL     1     129.959 137.575 135.292  1.00  0.00     0.130 A 
BRANCH  15  18
ATOM     18  O   UNL     1     127.724 135.174 133.564  1.00  0.00    -0.508 OA
ATOM     19  H   UNL     1     126.803 135.293 133.968  1.00  0.00     0.293 HD
ENDBRANCH  15  18
BRANCH  17  20
ATOM     20  O   UNL     1     129.858 138.854 135.843  1.00  0.00    -0.507 OA
ATOM     21  H   UNL     1     128.973 139.298 136.051  1.00  0.00     0.293 HD
ENDBRANCH  17  20
ENDBRANCH   1  12
BRANCH   2  22
ATOM     22  O   UNL     1     131.410 137.549 138.111  1.00  0.00    -0.502 OA
ATOM     23  H   UNL     1     131.284 138.094 138.955  1.00  0.00     0.293 HD
ENDBRANCH   2  22
BRANCH   6  24
ATOM     24  O   UNL     1     136.483 139.125 138.579  1.00  0.00    -0.507 OA
ATOM     25  H   UNL     1     136.298 139.976 139.088  1.00  0.00     0.293 HD
ENDBRANCH   6  24
BRANCH   8  26
ATOM     26  O   UNL     1     137.810 139.059 133.965  1.00  0.00    -0.508 OA
ATOM     27  H   UNL     1     137.606 138.979 132.975  1.00  0.00     0.293 HD
ENDBRANCH   8  26
TORSDOF 6
ENDMDL
MODEL 5
REMARK VINA RESULT:    -4.870      1.505      3.102
REMARK INTER + INTRA:          -6.266
REMARK INTER:                  -5.868
REMARK INTRA:                  -0.398
REMARK UNBOUND:                -0.399
REMARK SMILES O=c1c(O)c(-c2ccc(O)cc2O)oc2cc(O)cc(O)c12
REMARK SMILES IDX 5 1 3 2 2 3 1 4 22 5 20 6 19 7 17 8 16 9 15 10 14 11 6 12
REMARK SMILES IDX 8 13 7 14 9 15 11 16 12 17 10 18 13 20 4 22 21 24 18 26
REMARK H PARENT 10 19 13 21 4 23 21 25 18 27
REMARK Flexibility Score: inf
ROOT
ATOM      1  C   UNL     1     132.635 137.434 136.659  1.00  0.00     0.184 A 
ATOM      2  C   UNL     1     131.782 138.320 137.334  1.00  0.00     0.208 A 
ATOM      3  C   UNL     1     130.428 138.373 136.969  1.00  0.00     0.238 A 
ATOM      4  O   UNL     1     129.657 139.125 137.619  1.00  0.00    -0.285 OA
ATOM      5  C   UNL     1     129.952 137.557 135.914  1.00  0.00     0.111 A 
ATOM      6  C   UNL     1     128.607 137.557 135.433  1.00  0.00     0.134 A 
ATOM      7  C   UNL     1     128.220 136.621 134.466  1.00  0.00     0.093 A 
ATOM      8  C   UNL     1     129.143 135.728 133.917  1.00  0.00     0.123 A 
ATOM      9  C   UNL     1     130.470 135.760 134.337  1.00  0.00     0.094 A 
ATOM     10  C   UNL     1     130.879 136.657 135.327  1.00  0.00     0.146 A 
ATOM     11  O   UNL     1     132.151 136.643 135.708  1.00  0.00    -0.451 OA
ENDROOT
BRANCH   1  12
ATOM     12  C   UNL     1     134.075 137.352 136.984  1.00  0.00     0.063 A 
ATOM     13  C   UNL     1     135.850 136.424 138.367  1.00  0.00     0.047 A 
ATOM     14  C   UNL     1     134.503 136.480 138.001  1.00  0.00     0.020 A 
ATOM     15  C   UNL     1     136.786 137.240 137.730  1.00  0.00     0.119 A 
ATOM     16  C   UNL     1     136.371 138.114 136.717  1.00  0.00     0.093 A 
ATOM     17  C   UNL     1     135.026 138.172 136.333  1.00  0.00     0.130 A 
BRANCH  15  18
ATOM     18  O   UNL     1     138.125 137.176 138.109  1.00  0.00    -0.508 OA
ATOM     19  H   UNL     1     138.588 137.960 138.554  1.00  0.00     0.293 HD
ENDBRANCH  15  18
BRANCH  17  20
ATOM     20  O   UNL     1     134.674 139.035 135.294  1.00  0.00    -0.507 OA
ATOM     21  H   UNL     1     134.639 140.041 135.398  1.00  0.00     0.293 HD
ENDBRANCH  17  20
ENDBRANCH   1  12
BRANCH   2  22
ATOM     22  O   UNL     1     132.282 139.116 138.368  1.00  0.00    -0.502 OA
ATOM     23  H   UNL     1     133.133 139.658 138.273  1.00  0.00     0.293 HD
ENDBRANCH   2  22
BRANCH   6  24
ATOM     24  O   UNL     1     127.628 138.464 135.849  1.00  0.00    -0.507 OA
ATOM     25  H   UNL     1     127.755 139.157 136.571  1.00  0.00     0.293 HD
ENDBRANCH   6  24
BRANCH   8  26
ATOM     26  O   UNL     1     128.753 134.810 132.944  1.00  0.00    -0.508 OA
ATOM     27  H   UNL     1     129.229 134.749 132.052  1.00  0.00     0.293 HD
ENDBRANCH   8  26
TORSDOF 6
ENDMDL
MODEL 6
REMARK VINA RESULT:    -4.868     17.429     19.811
REMARK INTER + INTRA:          -6.263
REMARK INTER:                  -5.970
REMARK INTRA:                  -0.293
REMARK UNBOUND:                -0.399
REMARK SMILES O=c1c(O)c(-c2ccc(O)cc2O)oc2cc(O)cc(O)c12
REMARK SMILES IDX 5 1 3 2 2 3 1 4 22 5 20 6 19 7 17 8 16 9 15 10 14 11 6 12
REMARK SMILES IDX 8 13 7 14 9 15 11 16 12 17 10 18 13 20 4 22 21 24 18 26
REMARK H PARENT 10 19 13 21 4 23 21 25 18 27
REMARK Flexibility Score: inf
ROOT
ATOM      1  C   UNL     1     124.850 121.117 142.910  1.00  0.00     0.184 A 
ATOM      2  C   UNL     1     126.097 120.538 143.186  1.00  0.00     0.208 A 
ATOM      3  C   UNL     1     127.006 120.344 142.135  1.00  0.00     0.238 A 
ATOM      4  O   UNL     1     128.146 119.881 142.399  1.00  0.00    -0.285 OA
ATOM      5  C   UNL     1     126.643 120.707 140.815  1.00  0.00     0.111 A 
ATOM      6  C   UNL     1     127.469 120.519 139.665  1.00  0.00     0.134 A 
ATOM      7  C   UNL     1     127.055 121.027 138.428  1.00  0.00     0.093 A 
ATOM      8  C   UNL     1     125.818 121.659 138.285  1.00  0.00     0.123 A 
ATOM      9  C   UNL     1     124.979 121.795 139.388  1.00  0.00     0.094 A 
ATOM     10  C   UNL     1     125.379 121.331 140.644  1.00  0.00     0.146 A 
ATOM     11  O   UNL     1     124.555 121.495 141.671  1.00  0.00    -0.451 OA
ENDROOT
BRANCH   1  12
ATOM     12  C   UNL     1     123.844 121.324 143.973  1.00  0.00     0.063 A 
ATOM     13  C   UNL     1     122.651 122.852 145.444  1.00  0.00     0.047 A 
ATOM     14  C   UNL     1     123.555 122.631 144.404  1.00  0.00     0.020 A 
ATOM     15  C   UNL     1     122.028 121.774 146.076  1.00  0.00     0.119 A 
ATOM     16  C   UNL     1     122.309 120.467 145.657  1.00  0.00     0.093 A 
ATOM     17  C   UNL     1     123.205 120.233 144.608  1.00  0.00     0.130 A 
BRANCH  15  18
ATOM     18  O   UNL     1     121.132 122.010 147.115  1.00  0.00    -0.508 OA
ATOM     19  H   UNL     1     121.395 121.872 148.084  1.00  0.00     0.293 HD
ENDBRANCH  15  18
BRANCH  17  20
ATOM     20  O   UNL     1     123.422 118.913 144.207  1.00  0.00    -0.507 OA
ATOM     21  H   UNL     1     122.745 118.174 144.349  1.00  0.00     0.293 HD
ENDBRANCH  17  20
ENDBRANCH   1  12
BRANCH   2  22
ATOM     22  O   UNL     1     126.427 120.186 144.498  1.00  0.00    -0.502 OA
ATOM     23  H   UNL     1     126.948 120.803 145.110  1.00  0.00     0.293 HD
ENDBRANCH   2  22
BRANCH   6  24
ATOM     24  O   UNL     1     128.681 119.824 139.680  1.00  0.00    -0.507 OA
ATOM     25  H   UNL     1     128.774 118.831 139.834  1.00  0.00     0.293 HD
ENDBRANCH   6  24
BRANCH   8  26
ATOM     26  O   UNL     1     125.408 122.148 137.046  1.00  0.00    -0.508 OA
ATOM     27  H   UNL     1     126.002 122.084 136.228  1.00  0.00     0.293 HD
ENDBRANCH   8  26
TORSDOF 6
ENDMDL
MODEL 7
REMARK VINA RESULT:    -4.861      2.563      7.093
REMARK INTER + INTRA:          -6.254
REMARK INTER:                  -5.884
REMARK INTRA:                  -0.370
REMARK UNBOUND:                -0.399
REMARK SMILES O=c1c(O)c(-c2ccc(O)cc2O)oc2cc(O)cc(O)c12
REMARK SMILES IDX 5 1 3 2 2 3 1 4 22 5 20 6 19 7 17 8 16 9 15 10 14 11 6 12
REMARK SMILES IDX 8 13 7 14 9 15 11 16 12 17 10 18 13 20 4 22 21 24 18 26
REMARK H PARENT 10 19 13 21 4 23 21 25 18 27
REMARK Flexibility Score: inf
ROOT
ATOM      1  C   UNL     1     132.895 138.360 137.370  1.00  0.00     0.184 A 
ATOM      2  C   UNL     1     133.607 138.546 138.564  1.00  0.00     0.208 A 
ATOM      3  C   UNL     1     134.988 138.785 138.503  1.00  0.00     0.238 A 
ATOM      4  O   UNL     1     135.610 139.012 139.573  1.00  0.00    -0.285 OA
ATOM      5  C   UNL     1     135.643 138.806 137.247  1.00  0.00     0.111 A 
ATOM      6  C   UNL     1     137.047 138.999 137.068  1.00  0.00     0.134 A 
ATOM      7  C   UNL     1     137.567 139.123 135.774  1.00  0.00     0.093 A 
ATOM      8  C   UNL     1     136.745 138.997 134.652  1.00  0.00     0.123 A 
ATOM      9  C   UNL     1     135.384 138.749 134.815  1.00  0.00     0.094 A 
ATOM     10  C   UNL     1     134.830 138.657 136.094  1.00  0.00     0.146 A 
ATOM     11  O   UNL     1     133.525 138.435 136.203  1.00  0.00    -0.451 OA
ENDROOT
BRANCH   1  12
ATOM     12  C   UNL     1     131.443 138.082 137.374  1.00  0.00     0.063 A 
ATOM     13  C   UNL     1     129.169 138.876 137.727  1.00  0.00     0.047 A 
ATOM     14  C   UNL     1     130.542 139.123 137.662  1.00  0.00     0.020 A 
ATOM     15  C   UNL     1     128.675 137.588 137.516  1.00  0.00     0.119 A 
ATOM     16  C   UNL     1     129.562 136.542 137.230  1.00  0.00     0.093 A 
ATOM     17  C   UNL     1     130.940 136.778 137.150  1.00  0.00     0.130 A 
BRANCH  15  18
ATOM     18  O   UNL     1     127.304 137.356 137.589  1.00  0.00    -0.508 OA
ATOM     19  H   UNL     1     126.672 137.681 136.867  1.00  0.00     0.293 HD
ENDBRANCH  15  18
BRANCH  17  20
ATOM     20  O   UNL     1     131.775 135.707 136.828  1.00  0.00    -0.507 OA
ATOM     21  H   UNL     1     132.271 135.638 135.948  1.00  0.00     0.293 HD
ENDBRANCH  17  20
ENDBRANCH   1  12
BRANCH   2  22
ATOM     22  O   UNL     1     132.934 138.515 139.789  1.00  0.00    -0.502 OA
ATOM     23  H   UNL     1     133.271 139.011 140.605  1.00  0.00     0.293 HD
ENDBRANCH   2  22
BRANCH   6  24
ATOM     24  O   UNL     1     137.969 139.050 138.118  1.00  0.00    -0.507 OA
ATOM     25  H   UNL     1     137.782 139.439 139.029  1.00  0.00     0.293 HD
ENDBRANCH   6  24
BRANCH   8  26
ATOM     26  O   UNL     1     137.273 139.106 133.367  1.00  0.00    -0.508 OA
ATOM     27  H   UNL     1     138.138 139.604 133.191  1.00  0.00     0.293 HD
ENDBRANCH   8  26
TORSDOF 6
ENDMDL
MODEL 8
REMARK VINA RESULT:    -4.831     20.030     21.556
REMARK INTER + INTRA:          -6.218
REMARK INTER:                  -5.918
REMARK INTRA:                  -0.300
REMARK UNBOUND:                -0.399
REMARK SMILES O=c1c(O)c(-c2ccc(O)cc2O)oc2cc(O)cc(O)c12
REMARK SMILES IDX 5 1 3 2 2 3 1 4 22 5 20 6 19 7 17 8 16 9 15 10 14 11 6 12
REMARK SMILES IDX 8 13 7 14 9 15 11 16 12 17 10 18 13 20 4 22 21 24 18 26
REMARK H PARENT 10 19 13 21 4 23 21 25 18 27
REMARK Flexibility Score: inf
ROOT
ATOM      1  C   UNL     1     122.987 120.847 145.735  1.00  0.00     0.184 A 
ATOM      2  C   UNL     1     122.060 120.048 146.420  1.00  0.00     0.208 A 
ATOM      3  C   UNL     1     120.699 120.383 146.364  1.00  0.00     0.238 A 
ATOM      4  O   UNL     1     119.867 119.628 146.929  1.00  0.00    -0.285 OA
ATOM      5  C   UNL     1     120.287 121.532 145.645  1.00  0.00     0.111 A 
ATOM      6  C   UNL     1     118.937 121.990 145.552  1.00  0.00     0.134 A 
ATOM      7  C   UNL     1     118.630 123.068 144.714  1.00  0.00     0.093 A 
ATOM      8  C   UNL     1     119.632 123.745 144.014  1.00  0.00     0.123 A 
ATOM      9  C   UNL     1     120.958 123.343 144.143  1.00  0.00     0.094 A 
ATOM     10  C   UNL     1     121.292 122.248 144.944  1.00  0.00     0.146 A 
ATOM     11  O   UNL     1     122.568 121.889 145.026  1.00  0.00    -0.451 OA
ENDROOT
BRANCH   1  12
ATOM     12  C   UNL     1     124.436 120.556 145.778  1.00  0.00     0.063 A 
ATOM     13  C   UNL     1     126.472 120.297 147.086  1.00  0.00     0.047 A 
ATOM     14  C   UNL     1     125.094 120.515 147.019  1.00  0.00     0.020 A 
ATOM     15  C   UNL     1     127.214 120.125 145.916  1.00  0.00     0.119 A 
ATOM     16  C   UNL     1     126.570 120.165 144.673  1.00  0.00     0.093 A 
ATOM     17  C   UNL     1     125.187 120.371 144.593  1.00  0.00     0.130 A 
BRANCH  15  18
ATOM     18  O   UNL     1     128.588 119.913 145.997  1.00  0.00    -0.508 OA
ATOM     19  H   UNL     1     129.242 120.685 146.042  1.00  0.00     0.293 HD
ENDBRANCH  15  18
BRANCH  17  20
ATOM     20  O   UNL     1     124.591 120.367 143.330  1.00  0.00    -0.507 OA
ATOM     21  H   UNL     1     123.629 120.096 143.174  1.00  0.00     0.293 HD
ENDBRANCH  17  20
ENDBRANCH   1  12
BRANCH   2  22
ATOM     22  O   UNL     1     122.497 118.923 147.125  1.00  0.00    -0.502 OA
ATOM     23  H   UNL     1     121.873 118.364 147.695  1.00  0.00     0.293 HD
ENDBRANCH   2  22
BRANCH   6  24
ATOM     24  O   UNL     1     117.875 121.442 146.278  1.00  0.00    -0.507 OA
ATOM     25  H   UNL     1     117.263 121.965 146.886  1.00  0.00     0.293 HD
ENDBRANCH   6  24
BRANCH   8  26
ATOM     26  O   UNL     1     119.319 124.827 143.194  1.00  0.00    -0.508 OA
ATOM     27  H   UNL     1     119.531 124.819 142.203  1.00  0.00     0.293 HD
ENDBRANCH   8  26
TORSDOF 6
ENDMDL
MODEL 9
REMARK VINA RESULT:    -4.820     12.389     17.013
REMARK INTER + INTRA:          -6.205
REMARK INTER:                  -5.914
REMARK INTRA:                  -0.292
REMARK UNBOUND:                -0.399
REMARK SMILES O=c1c(O)c(-c2ccc(O)cc2O)oc2cc(O)cc(O)c12
REMARK SMILES IDX 5 1 3 2 2 3 1 4 22 5 20 6 19 7 17 8 16 9 15 10 14 11 6 12
REMARK SMILES IDX 8 13 7 14 9 15 11 16 12 17 10 18 13 20 4 22 21 24 18 26
REMARK H PARENT 10 19 13 21 4 23 21 25 18 27
REMARK Flexibility Score: inf
ROOT
ATOM      1  C   UNL     1     122.582 126.859 128.429  1.00  0.00     0.184 A 
ATOM      2  C   UNL     1     122.294 128.147 128.904  1.00  0.00     0.208 A 
ATOM      3  C   UNL     1     123.324 129.098 128.958  1.00  0.00     0.238 A 
ATOM      4  O   UNL     1     123.046 130.269 129.327  1.00  0.00    -0.285 OA
ATOM      5  C   UNL     1     124.635 128.740 128.561  1.00  0.00     0.111 A 
ATOM      6  C   UNL     1     125.765 129.611 128.611  1.00  0.00     0.134 A 
ATOM      7  C   UNL     1     126.988 129.187 128.078  1.00  0.00     0.093 A 
ATOM      8  C   UNL     1     127.140 127.900 127.557  1.00  0.00     0.123 A 
ATOM      9  C   UNL     1     126.059 127.022 127.557  1.00  0.00     0.094 A 
ATOM     10  C   UNL     1     124.816 127.429 128.048  1.00  0.00     0.146 A 
ATOM     11  O   UNL     1     123.809 126.564 128.015  1.00  0.00    -0.451 OA
ENDROOT
BRANCH   1  12
ATOM     12  C   UNL     1     121.543 125.809 128.372  1.00  0.00     0.063 A 
ATOM     13  C   UNL     1     119.373 125.066 127.558  1.00  0.00     0.047 A 
ATOM     14  C   UNL     1     120.395 126.016 127.586  1.00  0.00     0.020 A 
ATOM     15  C   UNL     1     119.476 123.900 128.318  1.00  0.00     0.119 A 
ATOM     16  C   UNL     1     120.613 123.682 129.106  1.00  0.00     0.093 A 
ATOM     17  C   UNL     1     121.650 124.622 129.135  1.00  0.00     0.130 A 
BRANCH  15  18
ATOM     18  O   UNL     1     118.445 122.963 128.283  1.00  0.00    -0.508 OA
ATOM     19  H   UNL     1     117.512 123.188 128.608  1.00  0.00     0.293 HD
ENDBRANCH  15  18
BRANCH  17  20
ATOM     20  O   UNL     1     122.776 124.338 129.910  1.00  0.00    -0.507 OA
ATOM     21  H   UNL     1     123.519 125.006 130.070  1.00  0.00     0.293 HD
ENDBRANCH  17  20
ENDBRANCH   1  12
BRANCH   2  22
ATOM     22  O   UNL     1     120.991 128.471 129.294  1.00  0.00    -0.502 OA
ATOM     23  H   UNL     1     120.263 127.773 129.387  1.00  0.00     0.293 HD
ENDBRANCH   2  22
BRANCH   6  24
ATOM     24  O   UNL     1     125.745 130.883 129.191  1.00  0.00    -0.507 OA
ATOM     25  H   UNL     1     125.586 131.066 130.170  1.00  0.00     0.293 HD
ENDBRANCH   6  24
BRANCH   8  26
ATOM     26  O   UNL     1     128.365 127.480 127.043  1.00  0.00    -0.508 OA
ATOM     27  H   UNL     1     128.503 127.341 126.049  1.00  0.00     0.293 HD
ENDBRANCH   8  26
TORSDOF 6
ENDMDL
