MODEL 1
REMARK VINA RESULT:    -3.629      0.000      0.000
REMARK INTER + INTRA:          -5.455
REMARK INTER:                  -5.113
REMARK INTRA:                  -0.342
REMARK UNBOUND:                -0.342
REMARK SMILES CCCCCCCCC(=O)[O-]
REMARK SMILES IDX 6 1 7 2 8 3 9 4 10 5 11 6 5 7 4 8 3 9 2 10 1 11
REMARK H PARENT
REMARK Flexibility Score: inf
ROOT
ATOM      1  C   UNL     1      60.999  31.847  60.605  1.00  0.00     0.000 C 
ENDROOT
BRANCH   1   2
ATOM      2  C   UNL     1      61.113  30.803  61.723  1.00  0.00     0.006 C 
BRANCH   2   3
ATOM      3  C   UNL     1      62.450  30.062  61.648  1.00  0.00     0.053 C 
BRANCH   3   4
ATOM      4  C   UNL     1      62.273  28.725  61.001  1.00  0.00     0.041 C 
ATOM      5  O   UNL     1      62.220  28.630  59.746  1.00  0.00    -0.550 OA
ATOM      6  O   UNL     1      62.217  27.576  61.780  1.00  0.00    -0.550 OA
ENDBRANCH   3   4
ENDBRANCH   2   3
ENDBRANCH   1   2
BRANCH   1   7
ATOM      7  C   UNL     1      62.235  32.753  60.569  1.00  0.00     0.000 C 
BRANCH   7   8
ATOM      8  C   UNL     1      61.839  34.215  60.315  1.00  0.00    -0.000 C 
BRANCH   8   9
ATOM      9  C   UNL     1      62.849  35.213  60.902  1.00  0.00    -0.000 C 
BRANCH   9  10
ATOM     10  C   UNL     1      64.215  34.574  61.187  1.00  0.00    -0.003 C 
ATOM     11  C   UNL     1      65.195  35.600  61.749  1.00  0.00     0.004 C 
ENDBRANCH   9  10
ENDBRANCH   8   9
ENDBRANCH   7   8
ENDBRANCH   1   7
TORSDOF 7
ENDMDL
MODEL 2
REMARK VINA RESULT:    -3.557     12.355     13.900
REMARK INTER + INTRA:          -5.354
REMARK INTER:                  -5.040
REMARK INTRA:                  -0.314
REMARK UNBOUND:                -0.342
REMARK SMILES CCCCCCCCC(=O)[O-]
REMARK SMILES IDX 6 1 7 2 8 3 9 4 10 5 11 6 5 7 4 8 3 9 2 10 1 11
REMARK H PARENT
REMARK Flexibility Score: inf
ROOT
ATOM      1  C   UNL     1      57.028  29.310  50.616  1.00  0.00     0.000 C 
ENDROOT
BRANCH   1   2
ATOM      2  C   UNL     1      57.810  28.037  50.272  1.00  0.00     0.006 C 
BRANCH   2   3
ATOM      3  C   UNL     1      59.142  28.375  49.597  1.00  0.00     0.053 C 
BRANCH   3   4
ATOM      4  C   UNL     1      60.067  27.201  49.646  1.00  0.00     0.041 C 
ATOM      5  O   UNL     1      59.605  26.029  49.652  1.00  0.00    -0.550 OA
ATOM      6  O   UNL     1      61.442  27.398  49.636  1.00  0.00    -0.550 OA
ENDBRANCH   3   4
ENDBRANCH   2   3
ENDBRANCH   1   2
BRANCH   1   7
ATOM      7  C   UNL     1      55.592  28.979  51.038  1.00  0.00     0.000 C 
BRANCH   7   8
ATOM      8  C   UNL     1      55.133  27.647  50.428  1.00  0.00    -0.000 C 
BRANCH   8   9
ATOM      9  C   UNL     1      53.637  27.641  50.077  1.00  0.00    -0.000 C 
BRANCH   9  10
ATOM     10  C   UNL     1      53.146  26.266  49.602  1.00  0.00    -0.003 C 
ATOM     11  C   UNL     1      54.298  25.266  49.533  1.00  0.00     0.004 C 
ENDBRANCH   9  10
ENDBRANCH   8   9
ENDBRANCH   7   8
ENDBRANCH   1   7
TORSDOF 7
ENDMDL
MODEL 3
REMARK VINA RESULT:    -3.466      1.187      1.418
REMARK INTER + INTRA:          -5.226
REMARK INTER:                  -4.825
REMARK INTRA:                  -0.402
REMARK UNBOUND:                -0.342
REMARK SMILES CCCCCCCCC(=O)[O-]
REMARK SMILES IDX 6 1 7 2 8 3 9 4 10 5 11 6 5 7 4 8 3 9 2 10 1 11
REMARK H PARENT
REMARK Flexibility Score: inf
ROOT
ATOM      1  C   UNL     1      60.853  31.814  59.734  1.00  0.00     0.000 C 
ENDROOT
BRANCH   1   2
ATOM      2  C   UNL     1      60.378  30.785  60.767  1.00  0.00     0.006 C 
BRANCH   2   3
ATOM      3  C   UNL     1      61.333  30.723  61.962  1.00  0.00     0.053 C 
BRANCH   3   4
ATOM      4  C   UNL     1      62.519  29.870  61.642  1.00  0.00     0.041 C 
ATOM      5  O   UNL     1      62.371  28.641  61.408  1.00  0.00    -0.550 OA
ATOM      6  O   UNL     1      63.783  30.439  61.552  1.00  0.00    -0.550 OA
ENDBRANCH   3   4
ENDBRANCH   2   3
ENDBRANCH   1   2
BRANCH   1   7
ATOM      7  C   UNL     1      61.220  33.141  60.407  1.00  0.00     0.000 C 
BRANCH   7   8
ATOM      8  C   UNL     1      62.624  33.601  59.988  1.00  0.00    -0.000 C 
BRANCH   8   9
ATOM      9  C   UNL     1      63.154  34.753  60.855  1.00  0.00    -0.000 C 
BRANCH   9  10
ATOM     10  C   UNL     1      64.588  34.510  61.349  1.00  0.00    -0.003 C 
ATOM     11  C   UNL     1      65.273  35.825  61.713  1.00  0.00     0.004 C 
ENDBRANCH   9  10
ENDBRANCH   8   9
ENDBRANCH   7   8
ENDBRANCH   1   7
TORSDOF 7
ENDMDL
MODEL 4
REMARK VINA RESULT:    -3.463     12.298     13.503
REMARK INTER + INTRA:          -5.221
REMARK INTER:                  -4.653
REMARK INTRA:                  -0.568
REMARK UNBOUND:                -0.342
REMARK SMILES CCCCCCCCC(=O)[O-]
REMARK SMILES IDX 6 1 7 2 8 3 9 4 10 5 11 6 5 7 4 8 3 9 2 10 1 11
REMARK H PARENT
REMARK Flexibility Score: inf
ROOT
ATOM      1  C   UNL     1      56.570  27.909  51.256  1.00  0.00     0.000 C 
ENDROOT
BRANCH   1   2
ATOM      2  C   UNL     1      55.409  27.352  50.424  1.00  0.00     0.006 C 
BRANCH   2   3
ATOM      3  C   UNL     1      55.618  25.868  50.113  1.00  0.00     0.053 C 
BRANCH   3   4
ATOM      4  C   UNL     1      54.305  25.154  50.057  1.00  0.00     0.041 C 
ATOM      5  O   UNL     1      53.610  25.187  49.007  1.00  0.00    -0.550 OA
ATOM      6  O   UNL     1      53.869  24.411  51.147  1.00  0.00    -0.550 OA
ENDBRANCH   3   4
ENDBRANCH   2   3
ENDBRANCH   1   2
BRANCH   1   7
ATOM      7  C   UNL     1      56.961  29.315  50.787  1.00  0.00     0.000 C 
BRANCH   7   8
ATOM      8  C   UNL     1      58.474  29.412  50.541  1.00  0.00    -0.000 C 
BRANCH   8   9
ATOM      9  C   UNL     1      58.922  28.638  49.292  1.00  0.00    -0.000 C 
BRANCH   9  10
ATOM     10  C   UNL     1      60.060  27.649  49.585  1.00  0.00    -0.003 C 
ATOM     11  C   UNL     1      59.529  26.224  49.710  1.00  0.00     0.004 C 
ENDBRANCH   9  10
ENDBRANCH   8   9
ENDBRANCH   7   8
ENDBRANCH   1   7
TORSDOF 7
ENDMDL
MODEL 5
REMARK VINA RESULT:    -3.409     11.886     13.237
REMARK INTER + INTRA:          -5.146
REMARK INTER:                  -4.727
REMARK INTRA:                  -0.418
REMARK UNBOUND:                -0.342
REMARK SMILES CCCCCCCCC(=O)[O-]
REMARK SMILES IDX 6 1 7 2 8 3 9 4 10 5 11 6 5 7 4 8 3 9 2 10 1 11
REMARK H PARENT
REMARK Flexibility Score: inf
ROOT
ATOM      1  C   UNL     1      58.768  29.206  49.605  1.00  0.00     0.000 C 
ENDROOT
BRANCH   1   2
ATOM      2  C   UNL     1      59.537  27.928  49.252  1.00  0.00     0.006 C 
BRANCH   2   3
ATOM      3  C   UNL     1      59.771  27.065  50.494  1.00  0.00     0.053 C 
BRANCH   3   4
ATOM      4  C   UNL     1      59.290  25.668  50.260  1.00  0.00     0.041 C 
ATOM      5  O   UNL     1      58.063  25.440  50.088  1.00  0.00    -0.550 OA
ATOM      6  O   UNL     1      60.201  24.622  50.183  1.00  0.00    -0.550 OA
ENDBRANCH   3   4
ENDBRANCH   2   3
ENDBRANCH   1   2
BRANCH   1   7
ATOM      7  C   UNL     1      58.013  29.047  50.930  1.00  0.00     0.000 C 
BRANCH   7   8
ATOM      8  C   UNL     1      56.508  29.281  50.737  1.00  0.00    -0.000 C 
BRANCH   8   9
ATOM      9  C   UNL     1      55.700  27.973  50.730  1.00  0.00    -0.000 C 
BRANCH   9  10
ATOM     10  C   UNL     1      54.235  28.185  50.322  1.00  0.00    -0.003 C 
ATOM     11  C   UNL     1      53.591  26.871  49.890  1.00  0.00     0.004 C 
ENDBRANCH   9  10
ENDBRANCH   8   9
ENDBRANCH   7   8
ENDBRANCH   1   7
TORSDOF 7
ENDMDL
MODEL 6
REMARK VINA RESULT:    -3.393      1.880      2.900
REMARK INTER + INTRA:          -5.123
REMARK INTER:                  -4.418
REMARK INTRA:                  -0.705
REMARK UNBOUND:                -0.342
REMARK SMILES CCCCCCCCC(=O)[O-]
REMARK SMILES IDX 6 1 7 2 8 3 9 4 10 5 11 6 5 7 4 8 3 9 2 10 1 11
REMARK H PARENT
REMARK Flexibility Score: inf
ROOT
ATOM      1  C   UNL     1      63.152  30.384  60.538  1.00  0.00     0.000 C 
ENDROOT
BRANCH   1   2
ATOM      2  C   UNL     1      62.252  30.095  61.745  1.00  0.00     0.006 C 
BRANCH   2   3
ATOM      3  C   UNL     1      60.984  30.952  61.703  1.00  0.00     0.053 C 
BRANCH   3   4
ATOM      4  C   UNL     1      60.049  30.454  60.646  1.00  0.00     0.041 C 
ATOM      5  O   UNL     1      59.410  29.383  60.819  1.00  0.00    -0.550 OA
ATOM      6  O   UNL     1      59.846  31.198  59.491  1.00  0.00    -0.550 OA
ENDBRANCH   3   4
ENDBRANCH   2   3
ENDBRANCH   1   2
BRANCH   1   7
ATOM      7  C   UNL     1      64.345  31.259  60.936  1.00  0.00     0.000 C 
BRANCH   7   8
ATOM      8  C   UNL     1      64.422  32.517  60.059  1.00  0.00    -0.000 C 
BRANCH   8   9
ATOM      9  C   UNL     1      64.310  33.815  60.874  1.00  0.00    -0.000 C 
BRANCH   9  10
ATOM     10  C   UNL     1      62.924  34.467  60.760  1.00  0.00    -0.003 C 
ATOM     11  C   UNL     1      62.138  33.885  59.588  1.00  0.00     0.004 C 
ENDBRANCH   9  10
ENDBRANCH   8   9
ENDBRANCH   7   8
ENDBRANCH   1   7
TORSDOF 7
ENDMDL
MODEL 7
REMARK VINA RESULT:    -3.380      3.751      5.750
REMARK INTER + INTRA:          -5.104
REMARK INTER:                  -4.415
REMARK INTRA:                  -0.690
REMARK UNBOUND:                -0.342
REMARK SMILES CCCCCCCCC(=O)[O-]
REMARK SMILES IDX 6 1 7 2 8 3 9 4 10 5 11 6 5 7 4 8 3 9 2 10 1 11
REMARK H PARENT
REMARK Flexibility Score: inf
ROOT
ATOM      1  C   UNL     1      64.299  32.400  60.047  1.00  0.00     0.000 C 
ENDROOT
BRANCH   1   2
ATOM      2  C   UNL     1      64.047  33.636  60.919  1.00  0.00     0.006 C 
BRANCH   2   3
ATOM      3  C   UNL     1      62.692  34.271  60.595  1.00  0.00     0.053 C 
BRANCH   3   4
ATOM      4  C   UNL     1      62.770  35.760  60.708  1.00  0.00     0.041 C 
ATOM      5  O   UNL     1      61.810  36.410  61.200  1.00  0.00    -0.550 OA
ATOM      6  O   UNL     1      63.922  36.428  60.314  1.00  0.00    -0.550 OA
ENDBRANCH   3   4
ENDBRANCH   2   3
ENDBRANCH   1   2
BRANCH   1   7
ATOM      7  C   UNL     1      64.376  31.130  60.900  1.00  0.00     0.000 C 
BRANCH   7   8
ATOM      8  C   UNL     1      63.213  30.180  60.579  1.00  0.00    -0.000 C 
BRANCH   8   9
ATOM      9  C   UNL     1      62.256  29.991  61.767  1.00  0.00    -0.000 C 
BRANCH   9  10
ATOM     10  C   UNL     1      61.037  30.923  61.698  1.00  0.00    -0.003 C 
ATOM     11  C   UNL     1      60.642  31.203  60.251  1.00  0.00     0.004 C 
ENDBRANCH   9  10
ENDBRANCH   8   9
ENDBRANCH   7   8
ENDBRANCH   1   7
TORSDOF 7
ENDMDL
MODEL 8
REMARK VINA RESULT:    -3.333     12.328     13.619
REMARK INTER + INTRA:          -5.039
REMARK INTER:                  -4.419
REMARK INTRA:                  -0.620
REMARK UNBOUND:                -0.342
REMARK SMILES CCCCCCCCC(=O)[O-]
REMARK SMILES IDX 6 1 7 2 8 3 9 4 10 5 11 6 5 7 4 8 3 9 2 10 1 11
REMARK H PARENT
REMARK Flexibility Score: inf
ROOT
ATOM      1  C   UNL     1      57.006  25.767  51.163  1.00  0.00     0.000 C 
ENDROOT
BRANCH   1   2
ATOM      2  C   UNL     1      55.802  25.972  50.236  1.00  0.00     0.006 C 
BRANCH   2   3
ATOM      3  C   UNL     1      55.206  27.372  50.412  1.00  0.00     0.053 C 
BRANCH   3   4
ATOM      4  C   UNL     1      53.766  27.383  50.005  1.00  0.00     0.041 C 
ATOM      5  O   UNL     1      53.191  26.311  49.679  1.00  0.00    -0.550 OA
ATOM      6  O   UNL     1      53.045  28.570  50.033  1.00  0.00    -0.550 OA
ENDBRANCH   3   4
ENDBRANCH   2   3
ENDBRANCH   1   2
BRANCH   1   7
ATOM      7  C   UNL     1      58.312  25.702  50.363  1.00  0.00     0.000 C 
BRANCH   7   8
ATOM      8  C   UNL     1      59.163  26.959  50.596  1.00  0.00    -0.000 C 
BRANCH   8   9
ATOM      9  C   UNL     1      59.299  27.825  49.334  1.00  0.00    -0.000 C 
BRANCH   9  10
ATOM     10  C   UNL     1      58.862  29.279  49.565  1.00  0.00    -0.003 C 
ATOM     11  C   UNL     1      58.123  29.425  50.892  1.00  0.00     0.004 C 
ENDBRANCH   9  10
ENDBRANCH   8   9
ENDBRANCH   7   8
ENDBRANCH   1   7
TORSDOF 7
ENDMDL
MODEL 9
REMARK VINA RESULT:    -3.285      3.391      5.481
REMARK INTER + INTRA:          -4.971
REMARK INTER:                  -4.472
REMARK INTRA:                  -0.498
REMARK UNBOUND:                -0.342
REMARK SMILES CCCCCCCCC(=O)[O-]
REMARK SMILES IDX 6 1 7 2 8 3 9 4 10 5 11 6 5 7 4 8 3 9 2 10 1 11
REMARK H PARENT
REMARK Flexibility Score: inf
ROOT
ATOM      1  C   UNL     1      61.251  33.341  60.502  1.00  0.00     0.000 C 
ENDROOT
BRANCH   1   2
ATOM      2  C   UNL     1      62.569  33.999  60.076  1.00  0.00     0.006 C 
BRANCH   2   3
ATOM      3  C   UNL     1      62.824  35.282  60.871  1.00  0.00     0.053 C 
BRANCH   3   4
ATOM      4  C   UNL     1      64.293  35.536  60.998  1.00  0.00     0.041 C 
ATOM      5  O   UNL     1      64.959  34.970  61.905  1.00  0.00    -0.550 OA
ATOM      6  O   UNL     1      64.938  36.360  60.084  1.00  0.00    -0.550 OA
ENDBRANCH   3   4
ENDBRANCH   2   3
ENDBRANCH   1   2
BRANCH   1   7
ATOM      7  C   UNL     1      60.864  32.210  59.542  1.00  0.00     0.000 C 
BRANCH   7   8
ATOM      8  C   UNL     1      60.435  30.955  60.315  1.00  0.00    -0.000 C 
BRANCH   8   9
ATOM      9  C   UNL     1      61.108  30.847  61.692  1.00  0.00    -0.000 C 
BRANCH   9  10
ATOM     10  C   UNL     1      62.239  29.809  61.718  1.00  0.00    -0.003 C 
ATOM     11  C   UNL     1      63.570  30.438  61.318  1.00  0.00     0.004 C 
ENDBRANCH   9  10
ENDBRANCH   8   9
ENDBRANCH   7   8
ENDBRANCH   1   7
TORSDOF 7
ENDMDL
