MODEL 1
REMARK VINA RESULT:    -4.816      0.000      0.000
REMARK INTER + INTRA:         -13.684
REMARK INTER:                 -10.447
REMARK INTRA:                  -3.236
REMARK UNBOUND:                -3.236
REMARK SMILES CCCCCCCCCCCCCCCCCCCCCC(=O)[O-]
REMARK SMILES IDX 12 1 11 2 10 3 9 4 8 5 7 6 6 7 5 8 4 9 3 10 2 11 1 12 13 13
REMARK SMILES IDX 14 14 15 15 16 16 17 17 18 18 19 19 20 20 21 21 22 22 23 23
REMARK SMILES IDX 24 24
REMARK H PARENT
REMARK Flexibility Score: inf
ROOT
ATOM      1  C   UNL     1      18.371  28.121  31.059  1.00  0.00     0.000 C 
ENDROOT
BRANCH   1   2
ATOM      2  C   UNL     1      17.875  29.551  30.782  1.00  0.00     0.000 C 
BRANCH   2   3
ATOM      3  C   UNL     1      18.848  30.673  31.194  1.00  0.00     0.000 C 
BRANCH   3   4
ATOM      4  C   UNL     1      18.716  31.985  30.394  1.00  0.00    -0.000 C 
BRANCH   4   5
ATOM      5  C   UNL     1      18.655  31.810  28.866  1.00  0.00    -0.000 C 
BRANCH   5   6
ATOM      6  C   UNL     1      19.954  31.226  28.284  1.00  0.00    -0.000 C 
BRANCH   6   7
ATOM      7  C   UNL     1      19.707  30.392  27.015  1.00  0.00    -0.000 C 
BRANCH   7   8
ATOM      8  C   UNL     1      19.361  28.928  27.337  1.00  0.00    -0.000 C 
BRANCH   8   9
ATOM      9  C   UNL     1      17.847  28.663  27.349  1.00  0.00    -0.000 C 
BRANCH   9  10
ATOM     10  C   UNL     1      17.482  27.164  27.407  1.00  0.00    -0.000 C 
BRANCH  10  11
ATOM     11  C   UNL     1      18.724  26.263  27.354  1.00  0.00    -0.003 C 
ATOM     12  C   UNL     1      18.826  25.391  28.600  1.00  0.00     0.004 C 
ENDBRANCH  10  11
ENDBRANCH   9  10
ENDBRANCH   8   9
ENDBRANCH   7   8
ENDBRANCH   6   7
ENDBRANCH   5   6
ENDBRANCH   4   5
ENDBRANCH   3   4
ENDBRANCH   2   3
ENDBRANCH   1   2
BRANCH   1  13
ATOM     13  C   UNL     1      19.731  28.088  31.779  1.00  0.00     0.000 C 
BRANCH  13  14
ATOM     14  C   UNL     1      19.929  26.805  32.603  1.00  0.00     0.000 C 
BRANCH  14  15
ATOM     15  C   UNL     1      20.093  27.085  34.108  1.00  0.00     0.000 C 
BRANCH  15  16
ATOM     16  C   UNL     1      20.034  28.594  34.426  1.00  0.00     0.000 C 
BRANCH  16  17
ATOM     17  C   UNL     1      18.895  28.984  35.383  1.00  0.00     0.000 C 
BRANCH  17  18
ATOM     18  C   UNL     1      17.526  29.046  34.687  1.00  0.00     0.000 C 
BRANCH  18  19
ATOM     19  C   UNL     1      16.753  30.343  34.994  1.00  0.00     0.000 C 
BRANCH  19  20
ATOM     20  C   UNL     1      16.400  31.204  33.765  1.00  0.00     0.006 C 
BRANCH  20  21
ATOM     21  C   UNL     1      16.972  32.625  33.844  1.00  0.00     0.053 C 
BRANCH  21  22
ATOM     22  C   UNL     1      15.924  33.592  34.294  1.00  0.00     0.041 C 
ATOM     23  O   UNL     1      15.747  33.806  35.523  1.00  0.00    -0.550 OA
ATOM     24  O   UNL     1      15.153  34.271  33.359  1.00  0.00    -0.550 OA
ENDBRANCH  21  22
ENDBRANCH  20  21
ENDBRANCH  19  20
ENDBRANCH  18  19
ENDBRANCH  17  18
ENDBRANCH  16  17
ENDBRANCH  15  16
ENDBRANCH  14  15
ENDBRANCH  13  14
ENDBRANCH   1  13
TORSDOF 20
ENDMDL
MODEL 2
REMARK VINA RESULT:    -4.807      1.029      2.155
REMARK INTER + INTRA:         -13.663
REMARK INTER:                 -10.753
REMARK INTRA:                  -2.910
REMARK UNBOUND:                -3.236
REMARK SMILES CCCCCCCCCCCCCCCCCCCCCC(=O)[O-]
REMARK SMILES IDX 12 1 11 2 10 3 9 4 8 5 7 6 6 7 5 8 4 9 3 10 2 11 1 12 13 13
REMARK SMILES IDX 14 14 15 15 16 16 17 17 18 18 19 19 20 20 21 21 22 22 23 23
REMARK SMILES IDX 24 24
REMARK H PARENT
REMARK Flexibility Score: inf
ROOT
ATOM      1  C   UNL     1      18.007  30.032  31.093  1.00  0.00     0.000 C 
ENDROOT
BRANCH   1   2
ATOM      2  C   UNL     1      19.347  30.665  30.677  1.00  0.00     0.000 C 
BRANCH   2   3
ATOM      3  C   UNL     1      19.255  31.709  29.547  1.00  0.00     0.000 C 
BRANCH   3   4
ATOM      4  C   UNL     1      18.579  31.217  28.251  1.00  0.00    -0.000 C 
BRANCH   4   5
ATOM      5  C   UNL     1      19.506  30.462  27.282  1.00  0.00    -0.000 C 
BRANCH   5   6
ATOM      6  C   UNL     1      19.288  28.940  27.317  1.00  0.00    -0.000 C 
BRANCH   6   7
ATOM      7  C   UNL     1      17.802  28.560  27.425  1.00  0.00    -0.000 C 
BRANCH   7   8
ATOM      8  C   UNL     1      17.528  27.128  26.934  1.00  0.00    -0.000 C 
BRANCH   8   9
ATOM      9  C   UNL     1      18.670  26.155  27.268  1.00  0.00    -0.000 C 
BRANCH   9  10
ATOM     10  C   UNL     1      18.455  25.377  28.584  1.00  0.00    -0.000 C 
BRANCH  10  11
ATOM     11  C   UNL     1      19.474  24.242  28.759  1.00  0.00    -0.003 C 
ATOM     12  C   UNL     1      19.075  23.014  27.947  1.00  0.00     0.004 C 
ENDBRANCH  10  11
ENDBRANCH   9  10
ENDBRANCH   8   9
ENDBRANCH   7   8
ENDBRANCH   6   7
ENDBRANCH   5   6
ENDBRANCH   4   5
ENDBRANCH   3   4
ENDBRANCH   2   3
ENDBRANCH   1   2
BRANCH   1  13
ATOM     13  C   UNL     1      18.008  28.498  30.976  1.00  0.00     0.000 C 
BRANCH  13  14
ATOM     14  C   UNL     1      19.423  27.923  30.797  1.00  0.00     0.000 C 
BRANCH  14  15
ATOM     15  C   UNL     1      19.849  27.020  31.968  1.00  0.00     0.000 C 
BRANCH  15  16
ATOM     16  C   UNL     1      20.270  27.838  33.207  1.00  0.00     0.000 C 
BRANCH  16  17
ATOM     17  C   UNL     1      19.522  27.448  34.493  1.00  0.00     0.000 C 
BRANCH  17  18
ATOM     18  C   UNL     1      18.960  28.663  35.248  1.00  0.00     0.000 C 
BRANCH  18  19
ATOM     19  C   UNL     1      17.532  29.039  34.807  1.00  0.00     0.000 C 
BRANCH  19  20
ATOM     20  C   UNL     1      17.300  30.538  34.540  1.00  0.00     0.006 C 
BRANCH  20  21
ATOM     21  C   UNL     1      16.520  31.235  35.662  1.00  0.00     0.053 C 
BRANCH  21  22
ATOM     22  C   UNL     1      16.777  32.708  35.647  1.00  0.00     0.041 C 
ATOM     23  O   UNL     1      17.920  33.154  35.933  1.00  0.00    -0.550 OA
ATOM     24  O   UNL     1      15.761  33.591  35.300  1.00  0.00    -0.550 OA
ENDBRANCH  21  22
ENDBRANCH  20  21
ENDBRANCH  19  20
ENDBRANCH  18  19
ENDBRANCH  17  18
ENDBRANCH  16  17
ENDBRANCH  15  16
ENDBRANCH  14  15
ENDBRANCH  13  14
ENDBRANCH   1  13
TORSDOF 20
ENDMDL
MODEL 3
REMARK VINA RESULT:    -4.804      1.469      2.582
REMARK INTER + INTRA:         -13.657
REMARK INTER:                 -11.233
REMARK INTRA:                  -2.424
REMARK UNBOUND:                -3.236
REMARK SMILES CCCCCCCCCCCCCCCCCCCCCC(=O)[O-]
REMARK SMILES IDX 12 1 11 2 10 3 9 4 8 5 7 6 6 7 5 8 4 9 3 10 2 11 1 12 13 13
REMARK SMILES IDX 14 14 15 15 16 16 17 17 18 18 19 19 20 20 21 21 22 22 23 23
REMARK SMILES IDX 24 24
REMARK H PARENT
REMARK Flexibility Score: inf
ROOT
ATOM      1  C   UNL     1      19.180  27.731  31.259  1.00  0.00     0.000 C 
ENDROOT
BRANCH   1   2
ATOM      2  C   UNL     1      18.033  28.614  30.734  1.00  0.00     0.000 C 
BRANCH   2   3
ATOM      3  C   UNL     1      18.443  30.042  30.324  1.00  0.00     0.000 C 
BRANCH   3   4
ATOM      4  C   UNL     1      18.594  30.272  28.806  1.00  0.00    -0.000 C 
BRANCH   4   5
ATOM      5  C   UNL     1      18.038  29.143  27.920  1.00  0.00    -0.000 C 
BRANCH   5   6
ATOM      6  C   UNL     1      19.114  28.512  27.019  1.00  0.00    -0.000 C 
BRANCH   6   7
ATOM      7  C   UNL     1      19.665  27.196  27.593  1.00  0.00    -0.000 C 
BRANCH   7   8
ATOM      8  C   UNL     1      18.582  26.109  27.703  1.00  0.00    -0.000 C 
BRANCH   8   9
ATOM      9  C   UNL     1      19.004  24.938  28.605  1.00  0.00    -0.000 C 
BRANCH   9  10
ATOM     10  C   UNL     1      19.060  23.581  27.872  1.00  0.00    -0.000 C 
BRANCH  10  11
ATOM     11  C   UNL     1      18.779  22.401  28.814  1.00  0.00    -0.003 C 
ATOM     12  C   UNL     1      19.857  21.329  28.690  1.00  0.00     0.004 C 
ENDBRANCH  10  11
ENDBRANCH   9  10
ENDBRANCH   8   9
ENDBRANCH   7   8
ENDBRANCH   6   7
ENDBRANCH   5   6
ENDBRANCH   4   5
ENDBRANCH   3   4
ENDBRANCH   2   3
ENDBRANCH   1   2
BRANCH   1  13
ATOM     13  C   UNL     1      19.800  28.267  32.561  1.00  0.00     0.000 C 
BRANCH  13  14
ATOM     14  C   UNL     1      19.527  27.348  33.764  1.00  0.00     0.000 C 
BRANCH  14  15
ATOM     15  C   UNL     1      19.010  28.116  34.993  1.00  0.00     0.000 C 
BRANCH  15  16
ATOM     16  C   UNL     1      18.434  29.497  34.613  1.00  0.00     0.000 C 
BRANCH  16  17
ATOM     17  C   UNL     1      16.897  29.546  34.592  1.00  0.00     0.000 C 
BRANCH  17  18
ATOM     18  C   UNL     1      16.346  30.596  33.615  1.00  0.00     0.000 C 
BRANCH  18  19
ATOM     19  C   UNL     1      17.364  31.705  33.285  1.00  0.00     0.000 C 
BRANCH  19  20
ATOM     20  C   UNL     1      17.182  33.018  34.069  1.00  0.00     0.006 C 
BRANCH  20  21
ATOM     21  C   UNL     1      15.735  33.527  34.061  1.00  0.00     0.053 C 
BRANCH  21  22
ATOM     22  C   UNL     1      15.599  34.717  33.167  1.00  0.00     0.041 C 
ATOM     23  O   UNL     1      16.497  34.981  32.323  1.00  0.00    -0.550 OA
ATOM     24  O   UNL     1      14.473  35.528  33.249  1.00  0.00    -0.550 OA
ENDBRANCH  21  22
ENDBRANCH  20  21
ENDBRANCH  19  20
ENDBRANCH  18  19
ENDBRANCH  17  18
ENDBRANCH  16  17
ENDBRANCH  15  16
ENDBRANCH  14  15
ENDBRANCH  13  14
ENDBRANCH   1  13
TORSDOF 20
ENDMDL
MODEL 4
REMARK VINA RESULT:    -4.747      3.599      8.115
REMARK INTER + INTRA:         -13.534
REMARK INTER:                 -10.881
REMARK INTRA:                  -2.653
REMARK UNBOUND:                -3.236
REMARK SMILES CCCCCCCCCCCCCCCCCCCCCC(=O)[O-]
REMARK SMILES IDX 12 1 11 2 10 3 9 4 8 5 7 6 6 7 5 8 4 9 3 10 2 11 1 12 13 13
REMARK SMILES IDX 14 14 15 15 16 16 17 17 18 18 19 19 20 20 21 21 22 22 23 23
REMARK SMILES IDX 24 24
REMARK H PARENT
REMARK Flexibility Score: inf
ROOT
ATOM      1  C   UNL     1      18.892  27.845  31.248  1.00  0.00     0.000 C 
ENDROOT
BRANCH   1   2
ATOM      2  C   UNL     1      19.766  28.247  32.450  1.00  0.00     0.000 C 
BRANCH   2   3
ATOM      3  C   UNL     1      19.732  27.268  33.640  1.00  0.00     0.000 C 
BRANCH   3   4
ATOM      4  C   UNL     1      19.562  27.924  35.025  1.00  0.00    -0.000 C 
BRANCH   4   5
ATOM      5  C   UNL     1      18.749  29.230  35.031  1.00  0.00    -0.000 C 
BRANCH   5   6
ATOM      6  C   UNL     1      17.242  28.992  34.837  1.00  0.00    -0.000 C 
BRANCH   6   7
ATOM      7  C   UNL     1      16.525  30.213  34.237  1.00  0.00    -0.000 C 
BRANCH   7   8
ATOM      8  C   UNL     1      17.400  31.477  34.267  1.00  0.00    -0.000 C 
BRANCH   8   9
ATOM      9  C   UNL     1      16.657  32.728  33.769  1.00  0.00    -0.000 C 
BRANCH   9  10
ATOM     10  C   UNL     1      15.972  33.530  34.895  1.00  0.00    -0.000 C 
BRANCH  10  11
ATOM     11  C   UNL     1      15.603  34.953  34.451  1.00  0.00    -0.003 C 
ATOM     12  C   UNL     1      14.863  34.940  33.117  1.00  0.00     0.004 C 
ENDBRANCH  10  11
ENDBRANCH   9  10
ENDBRANCH   8   9
ENDBRANCH   7   8
ENDBRANCH   6   7
ENDBRANCH   5   6
ENDBRANCH   4   5
ENDBRANCH   3   4
ENDBRANCH   2   3
ENDBRANCH   1   2
BRANCH   1  13
ATOM     13  C   UNL     1      17.798  28.879  30.931  1.00  0.00     0.000 C 
BRANCH  13  14
ATOM     14  C   UNL     1      18.377  30.265  30.602  1.00  0.00     0.000 C 
BRANCH  14  15
ATOM     15  C   UNL     1      18.441  30.538  29.088  1.00  0.00     0.000 C 
BRANCH  15  16
ATOM     16  C   UNL     1      19.657  29.855  28.427  1.00  0.00     0.000 C 
BRANCH  16  17
ATOM     17  C   UNL     1      19.294  28.972  27.221  1.00  0.00     0.000 C 
BRANCH  17  18
ATOM     18  C   UNL     1      17.829  28.506  27.242  1.00  0.00     0.000 C 
BRANCH  18  19
ATOM     19  C   UNL     1      17.675  27.024  27.634  1.00  0.00     0.000 C 
BRANCH  19  20
ATOM     20  C   UNL     1      18.993  26.279  27.921  1.00  0.00     0.006 C 
BRANCH  20  21
ATOM     21  C   UNL     1      18.778  24.828  28.370  1.00  0.00     0.053 C 
BRANCH  21  22
ATOM     22  C   UNL     1      19.932  24.354  29.194  1.00  0.00     0.041 C 
ATOM     23  O   UNL     1      20.074  23.126  29.437  1.00  0.00    -0.550 OA
ATOM     24  O   UNL     1      20.863  25.264  29.680  1.00  0.00    -0.550 OA
ENDBRANCH  21  22
ENDBRANCH  20  21
ENDBRANCH  19  20
ENDBRANCH  18  19
ENDBRANCH  17  18
ENDBRANCH  16  17
ENDBRANCH  15  16
ENDBRANCH  14  15
ENDBRANCH  13  14
ENDBRANCH   1  13
TORSDOF 20
ENDMDL
MODEL 5
REMARK VINA RESULT:    -4.733      3.742      8.067
REMARK INTER + INTRA:         -13.503
REMARK INTER:                 -10.459
REMARK INTRA:                  -3.044
REMARK UNBOUND:                -3.236
REMARK SMILES CCCCCCCCCCCCCCCCCCCCCC(=O)[O-]
REMARK SMILES IDX 12 1 11 2 10 3 9 4 8 5 7 6 6 7 5 8 4 9 3 10 2 11 1 12 13 13
REMARK SMILES IDX 14 14 15 15 16 16 17 17 18 18 19 19 20 20 21 21 22 22 23 23
REMARK SMILES IDX 24 24
REMARK H PARENT
REMARK Flexibility Score: inf
ROOT
ATOM      1  C   UNL     1      18.036  29.055  31.304  1.00  0.00     0.000 C 
ENDROOT
BRANCH   1   2
ATOM      2  C   UNL     1      19.469  28.491  31.311  1.00  0.00     0.000 C 
BRANCH   2   3
ATOM      3  C   UNL     1      19.585  27.005  31.700  1.00  0.00     0.000 C 
BRANCH   3   4
ATOM      4  C   UNL     1      20.400  26.722  32.978  1.00  0.00    -0.000 C 
BRANCH   4   5
ATOM      5  C   UNL     1      20.595  27.933  33.906  1.00  0.00    -0.000 C 
BRANCH   5   6
ATOM      6  C   UNL     1      19.638  27.917  35.111  1.00  0.00    -0.000 C 
BRANCH   6   7
ATOM      7  C   UNL     1      18.812  29.209  35.224  1.00  0.00    -0.000 C 
BRANCH   7   8
ATOM      8  C   UNL     1      17.332  28.989  34.866  1.00  0.00    -0.000 C 
BRANCH   8   9
ATOM      9  C   UNL     1      16.552  30.306  34.725  1.00  0.00    -0.000 C 
BRANCH   9  10
ATOM     10  C   UNL     1      17.173  31.481  35.511  1.00  0.00    -0.000 C 
BRANCH  10  11
ATOM     11  C   UNL     1      16.471  32.814  35.211  1.00  0.00    -0.003 C 
ATOM     12  C   UNL     1      16.170  32.956  33.723  1.00  0.00     0.004 C 
ENDBRANCH  10  11
ENDBRANCH   9  10
ENDBRANCH   8   9
ENDBRANCH   7   8
ENDBRANCH   6   7
ENDBRANCH   5   6
ENDBRANCH   4   5
ENDBRANCH   3   4
ENDBRANCH   2   3
ENDBRANCH   1   2
BRANCH   1  13
ATOM     13  C   UNL     1      17.999  30.593  31.277  1.00  0.00     0.000 C 
BRANCH  13  14
ATOM     14  C   UNL     1      19.000  31.188  30.273  1.00  0.00     0.000 C 
BRANCH  14  15
ATOM     15  C   UNL     1      18.419  31.302  28.852  1.00  0.00     0.000 C 
BRANCH  15  16
ATOM     16  C   UNL     1      19.451  30.913  27.772  1.00  0.00     0.000 C 
BRANCH  16  17
ATOM     17  C   UNL     1      19.352  29.446  27.319  1.00  0.00     0.000 C 
BRANCH  17  18
ATOM     18  C   UNL     1      17.997  28.807  27.657  1.00  0.00     0.000 C 
BRANCH  18  19
ATOM     19  C   UNL     1      17.893  27.338  27.203  1.00  0.00     0.000 C 
BRANCH  19  20
ATOM     20  C   UNL     1      18.215  26.291  28.286  1.00  0.00     0.006 C 
BRANCH  20  21
ATOM     21  C   UNL     1      19.668  25.804  28.238  1.00  0.00     0.053 C 
BRANCH  21  22
ATOM     22  C   UNL     1      19.732  24.317  28.384  1.00  0.00     0.041 C 
ATOM     23  O   UNL     1      18.670  23.645  28.485  1.00  0.00    -0.550 OA
ATOM     24  O   UNL     1      20.960  23.668  28.390  1.00  0.00    -0.550 OA
ENDBRANCH  21  22
ENDBRANCH  20  21
ENDBRANCH  19  20
ENDBRANCH  18  19
ENDBRANCH  17  18
ENDBRANCH  16  17
ENDBRANCH  15  16
ENDBRANCH  14  15
ENDBRANCH  13  14
ENDBRANCH   1  13
TORSDOF 20
ENDMDL
MODEL 6
REMARK VINA RESULT:    -4.712      1.763      3.935
REMARK INTER + INTRA:         -13.458
REMARK INTER:                 -10.563
REMARK INTRA:                  -2.895
REMARK UNBOUND:                -3.236
REMARK SMILES CCCCCCCCCCCCCCCCCCCCCC(=O)[O-]
REMARK SMILES IDX 12 1 11 2 10 3 9 4 8 5 7 6 6 7 5 8 4 9 3 10 2 11 1 12 13 13
REMARK SMILES IDX 14 14 15 15 16 16 17 17 18 18 19 19 20 20 21 21 22 22 23 23
REMARK SMILES IDX 24 24
REMARK H PARENT
REMARK Flexibility Score: inf
ROOT
ATOM      1  C   UNL     1      19.041  29.163  35.502  1.00  0.00     0.000 C 
ENDROOT
BRANCH   1   2
ATOM      2  C   UNL     1      18.613  28.002  34.586  1.00  0.00     0.000 C 
BRANCH   2   3
ATOM      3  C   UNL     1      19.748  27.369  33.759  1.00  0.00     0.000 C 
BRANCH   3   4
ATOM      4  C   UNL     1      19.519  27.352  32.233  1.00  0.00    -0.000 C 
BRANCH   4   5
ATOM      5  C   UNL     1      19.296  28.734  31.594  1.00  0.00    -0.000 C 
BRANCH   5   6
ATOM      6  C   UNL     1      18.042  28.780  30.705  1.00  0.00    -0.000 C 
BRANCH   6   7
ATOM      7  C   UNL     1      18.221  29.694  29.482  1.00  0.00    -0.000 C 
BRANCH   7   8
ATOM      8  C   UNL     1      18.441  28.897  28.185  1.00  0.00    -0.000 C 
BRANCH   8   9
ATOM      9  C   UNL     1      17.747  27.525  28.204  1.00  0.00    -0.000 C 
BRANCH   9  10
ATOM     10  C   UNL     1      18.608  26.389  27.612  1.00  0.00    -0.000 C 
BRANCH  10  11
ATOM     11  C   UNL     1      19.020  25.360  28.675  1.00  0.00    -0.003 C 
ATOM     12  C   UNL     1      18.903  23.937  28.140  1.00  0.00     0.004 C 
ENDBRANCH  10  11
ENDBRANCH   9  10
ENDBRANCH   8   9
ENDBRANCH   7   8
ENDBRANCH   6   7
ENDBRANCH   5   6
ENDBRANCH   4   5
ENDBRANCH   3   4
ENDBRANCH   2   3
ENDBRANCH   1   2
BRANCH   1  13
ATOM     13  C   UNL     1      18.095  30.373  35.416  1.00  0.00     0.000 C 
BRANCH  13  14
ATOM     14  C   UNL     1      16.758  30.028  34.739  1.00  0.00     0.000 C 
BRANCH  14  15
ATOM     15  C   UNL     1      16.526  30.823  33.443  1.00  0.00     0.000 C 
BRANCH  15  16
ATOM     16  C   UNL     1      17.677  31.811  33.155  1.00  0.00     0.000 C 
BRANCH  16  17
ATOM     17  C   UNL     1      17.230  33.281  33.085  1.00  0.00     0.000 C 
BRANCH  17  18
ATOM     18  C   UNL     1      15.805  33.498  33.619  1.00  0.00     0.000 C 
BRANCH  18  19
ATOM     19  C   UNL     1      15.774  34.243  34.968  1.00  0.00     0.000 C 
BRANCH  19  20
ATOM     20  C   UNL     1      15.961  33.354  36.213  1.00  0.00     0.006 C 
BRANCH  20  21
ATOM     21  C   UNL     1      16.784  34.032  37.316  1.00  0.00     0.053 C 
BRANCH  21  22
ATOM     22  C   UNL     1      18.182  33.502  37.332  1.00  0.00     0.041 C 
ATOM     23  O   UNL     1      18.595  32.834  38.317  1.00  0.00    -0.550 OA
ATOM     24  O   UNL     1      19.027  33.730  36.252  1.00  0.00    -0.550 OA
ENDBRANCH  21  22
ENDBRANCH  20  21
ENDBRANCH  19  20
ENDBRANCH  18  19
ENDBRANCH  17  18
ENDBRANCH  16  17
ENDBRANCH  15  16
ENDBRANCH  14  15
ENDBRANCH  13  14
ENDBRANCH   1  13
TORSDOF 20
ENDMDL
MODEL 7
REMARK VINA RESULT:    -4.706      3.521      7.843
REMARK INTER + INTRA:         -13.444
REMARK INTER:                 -10.891
REMARK INTRA:                  -2.553
REMARK UNBOUND:                -3.236
REMARK SMILES CCCCCCCCCCCCCCCCCCCCCC(=O)[O-]
REMARK SMILES IDX 12 1 11 2 10 3 9 4 8 5 7 6 6 7 5 8 4 9 3 10 2 11 1 12 13 13
REMARK SMILES IDX 14 14 15 15 16 16 17 17 18 18 19 19 20 20 21 21 22 22 23 23
REMARK SMILES IDX 24 24
REMARK H PARENT
REMARK Flexibility Score: inf
ROOT
ATOM      1  C   UNL     1      19.790  26.819  34.239  1.00  0.00     0.000 C 
ENDROOT
BRANCH   1   2
ATOM      2  C   UNL     1      20.250  27.796  35.337  1.00  0.00     0.000 C 
BRANCH   2   3
ATOM      3  C   UNL     1      19.273  28.948  35.639  1.00  0.00     0.000 C 
BRANCH   3   4
ATOM      4  C   UNL     1      17.888  28.827  34.970  1.00  0.00    -0.000 C 
BRANCH   4   5
ATOM      5  C   UNL     1      17.115  30.150  34.833  1.00  0.00    -0.000 C 
BRANCH   5   6
ATOM      6  C   UNL     1      18.042  31.377  34.780  1.00  0.00    -0.000 C 
BRANCH   6   7
ATOM      7  C   UNL     1      17.615  32.391  33.706  1.00  0.00    -0.000 C 
BRANCH   7   8
ATOM      8  C   UNL     1      16.101  32.657  33.723  1.00  0.00    -0.000 C 
BRANCH   8   9
ATOM      9  C   UNL     1      15.737  33.987  34.403  1.00  0.00    -0.000 C 
BRANCH   9  10
ATOM     10  C   UNL     1      16.397  34.176  35.785  1.00  0.00    -0.000 C 
BRANCH  10  11
ATOM     11  C   UNL     1      15.426  33.878  36.937  1.00  0.00    -0.003 C 
ATOM     12  C   UNL     1      15.549  32.431  37.401  1.00  0.00     0.004 C 
ENDBRANCH  10  11
ENDBRANCH   9  10
ENDBRANCH   8   9
ENDBRANCH   7   8
ENDBRANCH   6   7
ENDBRANCH   5   6
ENDBRANCH   4   5
ENDBRANCH   3   4
ENDBRANCH   2   3
ENDBRANCH   1   2
BRANCH   1  13
ATOM     13  C   UNL     1      20.302  27.205  32.841  1.00  0.00     0.000 C 
BRANCH  13  14
ATOM     14  C   UNL     1      19.186  27.752  31.936  1.00  0.00     0.000 C 
BRANCH  14  15
ATOM     15  C   UNL     1      19.338  29.257  31.650  1.00  0.00     0.000 C 
BRANCH  15  16
ATOM     16  C   UNL     1      18.095  29.840  30.943  1.00  0.00     0.000 C 
BRANCH  16  17
ATOM     17  C   UNL     1      18.386  30.411  29.545  1.00  0.00     0.000 C 
BRANCH  17  18
ATOM     18  C   UNL     1      18.963  29.363  28.581  1.00  0.00     0.000 C 
BRANCH  18  19
ATOM     19  C   UNL     1      17.977  28.958  27.469  1.00  0.00     0.000 C 
BRANCH  19  20
ATOM     20  C   UNL     1      17.601  27.464  27.435  1.00  0.00     0.006 C 
BRANCH  20  21
ATOM     21  C   UNL     1      18.078  26.696  28.674  1.00  0.00     0.053 C 
BRANCH  21  22
ATOM     22  C   UNL     1      19.069  25.644  28.292  1.00  0.00     0.041 C 
ATOM     23  O   UNL     1      18.678  24.482  28.000  1.00  0.00    -0.550 OA
ATOM     24  O   UNL     1      20.425  25.946  28.242  1.00  0.00    -0.550 OA
ENDBRANCH  21  22
ENDBRANCH  20  21
ENDBRANCH  19  20
ENDBRANCH  18  19
ENDBRANCH  17  18
ENDBRANCH  16  17
ENDBRANCH  15  16
ENDBRANCH  14  15
ENDBRANCH  13  14
ENDBRANCH   1  13
TORSDOF 20
ENDMDL
MODEL 8
REMARK VINA RESULT:    -4.699      3.271      7.843
REMARK INTER + INTRA:         -13.430
REMARK INTER:                 -10.572
REMARK INTRA:                  -2.859
REMARK UNBOUND:                -3.236
REMARK SMILES CCCCCCCCCCCCCCCCCCCCCC(=O)[O-]
REMARK SMILES IDX 12 1 11 2 10 3 9 4 8 5 7 6 6 7 5 8 4 9 3 10 2 11 1 12 13 13
REMARK SMILES IDX 14 14 15 15 16 16 17 17 18 18 19 19 20 20 21 21 22 22 23 23
REMARK SMILES IDX 24 24
REMARK H PARENT
REMARK Flexibility Score: inf
ROOT
ATOM      1  C   UNL     1      18.708  31.197  30.564  1.00  0.00     0.000 C 
ENDROOT
BRANCH   1   2
ATOM      2  C   UNL     1      18.088  29.838  30.191  1.00  0.00     0.000 C 
BRANCH   2   3
ATOM      3  C   UNL     1      18.146  28.767  31.297  1.00  0.00     0.000 C 
BRANCH   3   4
ATOM      4  C   UNL     1      19.540  28.538  31.917  1.00  0.00    -0.000 C 
BRANCH   4   5
ATOM      5  C   UNL     1      19.698  27.216  32.689  1.00  0.00    -0.000 C 
BRANCH   5   6
ATOM      6  C   UNL     1      20.079  27.433  34.164  1.00  0.00    -0.000 C 
BRANCH   6   7
ATOM      7  C   UNL     1      18.902  27.951  35.006  1.00  0.00    -0.000 C 
BRANCH   7   8
ATOM      8  C   UNL     1      19.229  29.275  35.716  1.00  0.00    -0.000 C 
BRANCH   8   9
ATOM      9  C   UNL     1      18.194  30.376  35.430  1.00  0.00    -0.000 C 
BRANCH   9  10
ATOM     10  C   UNL     1      16.954  29.875  34.660  1.00  0.00    -0.000 C 
BRANCH  10  11
ATOM     11  C   UNL     1      16.461  30.897  33.626  1.00  0.00    -0.003 C 
ATOM     12  C   UNL     1      17.234  32.207  33.734  1.00  0.00     0.004 C 
ENDBRANCH  10  11
ENDBRANCH   9  10
ENDBRANCH   8   9
ENDBRANCH   7   8
ENDBRANCH   6   7
ENDBRANCH   5   6
ENDBRANCH   4   5
ENDBRANCH   3   4
ENDBRANCH   2   3
ENDBRANCH   1   2
BRANCH   1  13
ATOM     13  C   UNL     1      18.542  32.255  29.459  1.00  0.00     0.000 C 
BRANCH  13  14
ATOM     14  C   UNL     1      18.665  31.655  28.049  1.00  0.00     0.000 C 
BRANCH  14  15
ATOM     15  C   UNL     1      19.861  32.224  27.264  1.00  0.00     0.000 C 
BRANCH  15  16
ATOM     16  C   UNL     1      20.361  31.244  26.180  1.00  0.00     0.000 C 
BRANCH  16  17
ATOM     17  C   UNL     1      20.415  29.779  26.644  1.00  0.00     0.000 C 
BRANCH  17  18
ATOM     18  C   UNL     1      19.974  28.791  25.553  1.00  0.00     0.000 C 
BRANCH  18  19
ATOM     19  C   UNL     1      19.095  27.647  26.096  1.00  0.00     0.000 C 
BRANCH  19  20
ATOM     20  C   UNL     1      18.121  28.044  27.222  1.00  0.00     0.006 C 
BRANCH  20  21
ATOM     21  C   UNL     1      17.557  26.837  27.982  1.00  0.00     0.053 C 
BRANCH  21  22
ATOM     22  C   UNL     1      18.657  25.912  28.394  1.00  0.00     0.041 C 
ATOM     23  O   UNL     1      19.512  26.283  29.242  1.00  0.00    -0.550 OA
ATOM     24  O   UNL     1      18.732  24.632  27.857  1.00  0.00    -0.550 OA
ENDBRANCH  21  22
ENDBRANCH  20  21
ENDBRANCH  19  20
ENDBRANCH  18  19
ENDBRANCH  17  18
ENDBRANCH  16  17
ENDBRANCH  15  16
ENDBRANCH  14  15
ENDBRANCH  13  14
ENDBRANCH   1  13
TORSDOF 20
ENDMDL
MODEL 9
REMARK VINA RESULT:    -4.691      1.483      3.214
REMARK INTER + INTRA:         -13.413
REMARK INTER:                 -10.425
REMARK INTRA:                  -2.988
REMARK UNBOUND:                -3.236
REMARK SMILES CCCCCCCCCCCCCCCCCCCCCC(=O)[O-]
REMARK SMILES IDX 12 1 11 2 10 3 9 4 8 5 7 6 6 7 5 8 4 9 3 10 2 11 1 12 13 13
REMARK SMILES IDX 14 14 15 15 16 16 17 17 18 18 19 19 20 20 21 21 22 22 23 23
REMARK SMILES IDX 24 24
REMARK H PARENT
REMARK Flexibility Score: inf
ROOT
ATOM      1  C   UNL     1      19.971  28.239  34.120  1.00  0.00     0.000 C 
ENDROOT
BRANCH   1   2
ATOM      2  C   UNL     1      19.551  27.086  33.191  1.00  0.00     0.000 C 
BRANCH   2   3
ATOM      3  C   UNL     1      19.541  27.427  31.688  1.00  0.00     0.000 C 
BRANCH   3   4
ATOM      4  C   UNL     1      18.630  28.605  31.288  1.00  0.00    -0.000 C 
BRANCH   4   5
ATOM      5  C   UNL     1      19.349  29.778  30.597  1.00  0.00    -0.000 C 
BRANCH   5   6
ATOM      6  C   UNL     1      18.375  30.741  29.897  1.00  0.00    -0.000 C 
BRANCH   6   7
ATOM      7  C   UNL     1      18.497  30.692  28.365  1.00  0.00    -0.000 C 
BRANCH   7   8
ATOM      8  C   UNL     1      19.657  29.795  27.900  1.00  0.00    -0.000 C 
BRANCH   8   9
ATOM      9  C   UNL     1      19.185  28.609  27.043  1.00  0.00    -0.000 C 
BRANCH   9  10
ATOM     10  C   UNL     1      17.743  28.156  27.354  1.00  0.00    -0.000 C 
BRANCH  10  11
ATOM     11  C   UNL     1      17.707  26.945  28.298  1.00  0.00    -0.003 C 
ATOM     12  C   UNL     1      18.978  26.112  28.175  1.00  0.00     0.004 C 
ENDBRANCH  10  11
ENDBRANCH   9  10
ENDBRANCH   8   9
ENDBRANCH   7   8
ENDBRANCH   6   7
ENDBRANCH   5   6
ENDBRANCH   4   5
ENDBRANCH   3   4
ENDBRANCH   2   3
ENDBRANCH   1   2
BRANCH   1  13
ATOM     13  C   UNL     1      18.974  28.477  35.268  1.00  0.00     0.000 C 
BRANCH  13  14
ATOM     14  C   UNL     1      18.313  29.863  35.194  1.00  0.00     0.000 C 
BRANCH  14  15
ATOM     15  C   UNL     1      16.830  29.792  34.786  1.00  0.00     0.000 C 
BRANCH  15  16
ATOM     16  C   UNL     1      16.560  30.525  33.455  1.00  0.00     0.000 C 
BRANCH  16  17
ATOM     17  C   UNL     1      17.142  31.947  33.399  1.00  0.00     0.000 C 
BRANCH  17  18
ATOM     18  C   UNL     1      16.092  33.033  33.682  1.00  0.00     0.000 C 
BRANCH  18  19
ATOM     19  C   UNL     1      16.459  33.929  34.880  1.00  0.00     0.000 C 
BRANCH  19  20
ATOM     20  C   UNL     1      17.509  33.341  35.843  1.00  0.00     0.006 C 
BRANCH  20  21
ATOM     21  C   UNL     1      17.076  33.400  37.313  1.00  0.00     0.053 C 
BRANCH  21  22
ATOM     22  C   UNL     1      15.613  33.124  37.443  1.00  0.00     0.041 C 
ATOM     23  O   UNL     1      15.165  31.966  37.223  1.00  0.00    -0.550 OA
ATOM     24  O   UNL     1      14.742  34.137  37.826  1.00  0.00    -0.550 OA
ENDBRANCH  21  22
ENDBRANCH  20  21
ENDBRANCH  19  20
ENDBRANCH  18  19
ENDBRANCH  17  18
ENDBRANCH  16  17
ENDBRANCH  15  16
ENDBRANCH  14  15
ENDBRANCH  13  14
ENDBRANCH   1  13
TORSDOF 20
ENDMDL
