MODEL 1
REMARK VINA RESULT:    -3.778      0.000      0.000
REMARK INTER + INTRA:         -13.911
REMARK INTER:                  -9.520
REMARK INTRA:                  -4.391
REMARK UNBOUND:                -4.391
REMARK SMILES CCCCCCCCCCCCCCCCCCCCCCCCCCCC(=O)[O-]
REMARK SMILES IDX 15 1 16 2 17 3 18 4 19 5 20 6 21 7 22 8 23 9 24 10 25 11
REMARK SMILES IDX 26 12 27 13 28 14 29 15 30 16 14 17 13 18 12 19 11 20 10 21
REMARK SMILES IDX 9 22 8 23 7 24 6 25 5 26 4 27 3 28 2 29 1 30
REMARK H PARENT
REMARK Flexibility Score: inf
ROOT
ATOM      1  C   UNL     1     -13.074   7.123   5.392  1.00  0.00     0.000 C 
ENDROOT
BRANCH   1   2
ATOM      2  C   UNL     1     -14.158   7.990   6.056  1.00  0.00     0.000 C 
BRANCH   2   3
ATOM      3  C   UNL     1     -15.026   7.203   7.054  1.00  0.00     0.000 C 
BRANCH   3   4
ATOM      4  C   UNL     1     -14.802   7.568   8.534  1.00  0.00     0.000 C 
BRANCH   4   5
ATOM      5  C   UNL     1     -13.630   8.546   8.737  1.00  0.00     0.000 C 
BRANCH   5   6
ATOM      6  C   UNL     1     -14.101   9.964   9.090  1.00  0.00     0.000 C 
BRANCH   6   7
ATOM      7  C   UNL     1     -12.998  11.018   8.890  1.00  0.00     0.000 C 
BRANCH   7   8
ATOM      8  C   UNL     1     -12.282  10.883   7.534  1.00  0.00     0.000 C 
BRANCH   8   9
ATOM      9  C   UNL     1     -12.564  12.019   6.535  1.00  0.00     0.000 C 
BRANCH   9  10
ATOM     10  C   UNL     1     -13.966  11.930   5.910  1.00  0.00     0.000 C 
BRANCH  10  11
ATOM     11  C   UNL     1     -13.933  11.747   4.381  1.00  0.00     0.000 C 
BRANCH  11  12
ATOM     12  C   UNL     1     -12.576  11.307   3.795  1.00  0.00     0.006 C 
BRANCH  12  13
ATOM     13  C   UNL     1     -12.282  11.871   2.392  1.00  0.00     0.053 C 
BRANCH  13  14
ATOM     14  C   UNL     1     -12.339  10.820   1.325  1.00  0.00     0.041 C 
ATOM     15  O   UNL     1     -11.538  10.855   0.355  1.00  0.00    -0.550 OA
ATOM     16  O   UNL     1     -13.309   9.826   1.377  1.00  0.00    -0.550 OA
ENDBRANCH  13  14
ENDBRANCH  12  13
ENDBRANCH  11  12
ENDBRANCH  10  11
ENDBRANCH   9  10
ENDBRANCH   8   9
ENDBRANCH   7   8
ENDBRANCH   6   7
ENDBRANCH   5   6
ENDBRANCH   4   5
ENDBRANCH   3   4
ENDBRANCH   2   3
ENDBRANCH   1   2
BRANCH   1  17
ATOM     17  C   UNL     1     -13.335   5.618   5.569  1.00  0.00     0.000 C 
BRANCH  17  18
ATOM     18  C   UNL     1     -12.424   4.759   4.675  1.00  0.00     0.000 C 
BRANCH  18  19
ATOM     19  C   UNL     1     -11.728   3.629   5.451  1.00  0.00     0.000 C 
BRANCH  19  20
ATOM     20  C   UNL     1     -12.080   3.633   6.946  1.00  0.00     0.000 C 
BRANCH  20  21
ATOM     21  C   UNL     1     -10.850   3.834   7.849  1.00  0.00     0.000 C 
BRANCH  21  22
ATOM     22  C   UNL     1     -10.932   5.099   8.729  1.00  0.00    -0.000 C 
BRANCH  22  23
ATOM     23  C   UNL     1     -10.488   6.362   7.969  1.00  0.00    -0.000 C 
BRANCH  23  24
ATOM     24  C   UNL     1      -9.340   6.090   6.985  1.00  0.00    -0.000 C 
BRANCH  24  25
ATOM     25  C   UNL     1      -9.398   7.008   5.751  1.00  0.00    -0.000 C 
BRANCH  25  26
ATOM     26  C   UNL     1      -9.849   8.440   6.094  1.00  0.00    -0.000 C 
BRANCH  26  27
ATOM     27  C   UNL     1      -8.976   9.556   5.489  1.00  0.00    -0.000 C 
BRANCH  27  28
ATOM     28  C   UNL     1      -7.501   9.142   5.339  1.00  0.00    -0.000 C 
BRANCH  28  29
ATOM     29  C   UNL     1      -6.548  10.349   5.343  1.00  0.00    -0.003 C 
ATOM     30  C   UNL     1      -5.390  10.188   6.327  1.00  0.00     0.004 C 
ENDBRANCH  28  29
ENDBRANCH  27  28
ENDBRANCH  26  27
ENDBRANCH  25  26
ENDBRANCH  24  25
ENDBRANCH  23  24
ENDBRANCH  22  23
ENDBRANCH  21  22
ENDBRANCH  20  21
ENDBRANCH  19  20
ENDBRANCH  18  19
ENDBRANCH  17  18
ENDBRANCH   1  17
TORSDOF 26
ENDMDL
MODEL 2
REMARK VINA RESULT:    -3.712      1.660      4.011
REMARK INTER + INTRA:         -13.744
REMARK INTER:                 -10.117
REMARK INTRA:                  -3.627
REMARK UNBOUND:                -4.391
REMARK SMILES CCCCCCCCCCCCCCCCCCCCCCCCCCCC(=O)[O-]
REMARK SMILES IDX 15 1 16 2 17 3 18 4 19 5 20 6 21 7 22 8 23 9 24 10 25 11
REMARK SMILES IDX 26 12 27 13 28 14 29 15 30 16 14 17 13 18 12 19 11 20 10 21
REMARK SMILES IDX 9 22 8 23 7 24 6 25 5 26 4 27 3 28 2 29 1 30
REMARK H PARENT
REMARK Flexibility Score: inf
ROOT
ATOM      1  C   UNL     1     -11.338   4.110   5.325  1.00  0.00     0.000 C 
ENDROOT
BRANCH   1   2
ATOM      2  C   UNL     1     -11.983   3.564   6.611  1.00  0.00     0.000 C 
BRANCH   2   3
ATOM      3  C   UNL     1     -11.003   3.512   7.797  1.00  0.00     0.000 C 
BRANCH   3   4
ATOM      4  C   UNL     1     -11.505   4.201   9.081  1.00  0.00     0.000 C 
BRANCH   4   5
ATOM      5  C   UNL     1     -12.794   5.013   8.858  1.00  0.00     0.000 C 
BRANCH   5   6
ATOM      6  C   UNL     1     -12.524   6.518   8.714  1.00  0.00     0.000 C 
BRANCH   6   7
ATOM      7  C   UNL     1     -13.657   7.250   7.974  1.00  0.00     0.000 C 
BRANCH   7   8
ATOM      8  C   UNL     1     -13.466   7.259   6.447  1.00  0.00     0.000 C 
BRANCH   8   9
ATOM      9  C   UNL     1     -14.123   8.444   5.716  1.00  0.00     0.000 C 
BRANCH   9  10
ATOM     10  C   UNL     1     -13.461   9.792   6.049  1.00  0.00     0.000 C 
BRANCH  10  11
ATOM     11  C   UNL     1     -13.564  10.812   4.901  1.00  0.00     0.000 C 
BRANCH  11  12
ATOM     12  C   UNL     1     -13.857  10.217   3.508  1.00  0.00     0.006 C 
BRANCH  12  13
ATOM     13  C   UNL     1     -13.692  11.215   2.347  1.00  0.00     0.053 C 
BRANCH  13  14
ATOM     14  C   UNL     1     -12.259  11.396   1.943  1.00  0.00     0.041 C 
ATOM     15  O   UNL     1     -11.455  11.992   2.706  1.00  0.00    -0.550 OA
ATOM     16  O   UNL     1     -11.823  10.948   0.703  1.00  0.00    -0.550 OA
ENDBRANCH  13  14
ENDBRANCH  12  13
ENDBRANCH  11  12
ENDBRANCH  10  11
ENDBRANCH   9  10
ENDBRANCH   8   9
ENDBRANCH   7   8
ENDBRANCH   6   7
ENDBRANCH   5   6
ENDBRANCH   4   5
ENDBRANCH   3   4
ENDBRANCH   2   3
ENDBRANCH   1   2
BRANCH   1  17
ATOM     17  C   UNL     1     -11.018   5.610   5.419  1.00  0.00     0.000 C 
BRANCH  17  18
ATOM     18  C   UNL     1      -9.508   5.879   5.542  1.00  0.00     0.000 C 
BRANCH  18  19
ATOM     19  C   UNL     1      -9.171   6.854   6.682  1.00  0.00     0.000 C 
BRANCH  19  20
ATOM     20  C   UNL     1      -8.675   8.215   6.170  1.00  0.00     0.000 C 
BRANCH  20  21
ATOM     21  C   UNL     1      -9.822   9.143   5.732  1.00  0.00     0.000 C 
BRANCH  21  22
ATOM     22  C   UNL     1      -9.341  10.522   5.233  1.00  0.00    -0.000 C 
BRANCH  22  23
ATOM     23  C   UNL     1     -10.035  11.679   5.975  1.00  0.00    -0.000 C 
BRANCH  23  24
ATOM     24  C   UNL     1      -9.453  11.919   7.376  1.00  0.00    -0.000 C 
BRANCH  24  25
ATOM     25  C   UNL     1      -7.925  12.099   7.351  1.00  0.00    -0.000 C 
BRANCH  25  26
ATOM     26  C   UNL     1      -7.183  11.013   8.154  1.00  0.00    -0.000 C 
BRANCH  26  27
ATOM     27  C   UNL     1      -5.818  10.598   7.573  1.00  0.00    -0.000 C 
BRANCH  27  28
ATOM     28  C   UNL     1      -5.701  10.883   6.065  1.00  0.00    -0.000 C 
BRANCH  28  29
ATOM     29  C   UNL     1      -4.326  10.494   5.497  1.00  0.00    -0.003 C 
ATOM     30  C   UNL     1      -3.570  11.683   4.904  1.00  0.00     0.004 C 
ENDBRANCH  28  29
ENDBRANCH  27  28
ENDBRANCH  26  27
ENDBRANCH  25  26
ENDBRANCH  24  25
ENDBRANCH  23  24
ENDBRANCH  22  23
ENDBRANCH  21  22
ENDBRANCH  20  21
ENDBRANCH  19  20
ENDBRANCH  18  19
ENDBRANCH  17  18
ENDBRANCH   1  17
TORSDOF 26
ENDMDL
MODEL 3
REMARK VINA RESULT:    -3.125      2.301      5.290
REMARK INTER + INTRA:         -12.267
REMARK INTER:                  -9.609
REMARK INTRA:                  -2.658
REMARK UNBOUND:                -4.391
REMARK SMILES CCCCCCCCCCCCCCCCCCCCCCCCCCCC(=O)[O-]
REMARK SMILES IDX 15 1 16 2 17 3 18 4 19 5 20 6 21 7 22 8 23 9 24 10 25 11
REMARK SMILES IDX 26 12 27 13 28 14 29 15 30 16 14 17 13 18 12 19 11 20 10 21
REMARK SMILES IDX 9 22 8 23 7 24 6 25 5 26 4 27 3 28 2 29 1 30
REMARK H PARENT
REMARK Flexibility Score: inf
ROOT
ATOM      1  C   UNL     1      -9.473   5.822   6.429  1.00  0.00     0.000 C 
ENDROOT
BRANCH   1   2
ATOM      2  C   UNL     1     -10.114   5.414   7.767  1.00  0.00     0.000 C 
BRANCH   2   3
ATOM      3  C   UNL     1     -10.954   4.128   7.661  1.00  0.00     0.000 C 
BRANCH   3   4
ATOM      4  C   UNL     1     -12.381   4.332   7.117  1.00  0.00     0.000 C 
BRANCH   4   5
ATOM      5  C   UNL     1     -12.452   4.255   5.582  1.00  0.00     0.000 C 
BRANCH   5   6
ATOM      6  C   UNL     1     -13.071   5.514   4.957  1.00  0.00     0.000 C 
BRANCH   6   7
ATOM      7  C   UNL     1     -13.579   6.508   6.016  1.00  0.00     0.000 C 
BRANCH   7   8
ATOM      8  C   UNL     1     -12.694   7.763   6.131  1.00  0.00     0.000 C 
BRANCH   8   9
ATOM      9  C   UNL     1     -13.445   9.056   6.496  1.00  0.00     0.000 C 
BRANCH   9  10
ATOM     10  C   UNL     1     -12.499  10.212   6.864  1.00  0.00     0.000 C 
BRANCH  10  11
ATOM     11  C   UNL     1     -12.116  11.084   5.654  1.00  0.00     0.000 C 
BRANCH  11  12
ATOM     12  C   UNL     1     -12.935  10.836   4.371  1.00  0.00     0.006 C 
BRANCH  12  13
ATOM     13  C   UNL     1     -12.484  11.676   3.162  1.00  0.00     0.053 C 
BRANCH  13  14
ATOM     14  C   UNL     1     -12.682  10.962   1.859  1.00  0.00     0.041 C 
ATOM     15  O   UNL     1     -11.817  11.048   0.949  1.00  0.00    -0.550 OA
ATOM     16  O   UNL     1     -13.846  10.238   1.631  1.00  0.00    -0.550 OA
ENDBRANCH  13  14
ENDBRANCH  12  13
ENDBRANCH  11  12
ENDBRANCH  10  11
ENDBRANCH   9  10
ENDBRANCH   8   9
ENDBRANCH   7   8
ENDBRANCH   6   7
ENDBRANCH   5   6
ENDBRANCH   4   5
ENDBRANCH   3   4
ENDBRANCH   2   3
ENDBRANCH   1   2
BRANCH   1  17
ATOM     17  C   UNL     1      -8.822   7.213   6.488  1.00  0.00     0.000 C 
BRANCH  17  18
ATOM     18  C   UNL     1      -8.861   7.934   5.130  1.00  0.00     0.000 C 
BRANCH  18  19
ATOM     19  C   UNL     1      -8.091   9.265   5.144  1.00  0.00     0.000 C 
BRANCH  19  20
ATOM     20  C   UNL     1      -8.867  10.391   5.846  1.00  0.00     0.000 C 
BRANCH  20  21
ATOM     21  C   UNL     1      -8.098  10.996   7.033  1.00  0.00     0.000 C 
BRANCH  21  22
ATOM     22  C   UNL     1      -6.882  10.153   7.474  1.00  0.00    -0.000 C 
BRANCH  22  23
ATOM     23  C   UNL     1      -5.588  10.986   7.519  1.00  0.00    -0.000 C 
BRANCH  23  24
ATOM     24  C   UNL     1      -5.297  11.703   6.192  1.00  0.00    -0.000 C 
BRANCH  24  25
ATOM     25  C   UNL     1      -4.282  10.938   5.325  1.00  0.00    -0.000 C 
BRANCH  25  26
ATOM     26  C   UNL     1      -3.884  11.709   4.052  1.00  0.00    -0.000 C 
BRANCH  26  27
ATOM     27  C   UNL     1      -2.402  11.580   3.653  1.00  0.00    -0.000 C 
BRANCH  27  28
ATOM     28  C   UNL     1      -1.473  11.399   4.868  1.00  0.00    -0.000 C 
BRANCH  28  29
ATOM     29  C   UNL     1      -0.108  12.078   4.671  1.00  0.00    -0.003 C 
ATOM     30  C   UNL     1       1.050  11.082   4.614  1.00  0.00     0.004 C 
ENDBRANCH  28  29
ENDBRANCH  27  28
ENDBRANCH  26  27
ENDBRANCH  25  26
ENDBRANCH  24  25
ENDBRANCH  23  24
ENDBRANCH  22  23
ENDBRANCH  21  22
ENDBRANCH  20  21
ENDBRANCH  19  20
ENDBRANCH  18  19
ENDBRANCH  17  18
ENDBRANCH   1  17
TORSDOF 26
ENDMDL
MODEL 4
REMARK VINA RESULT:    -2.765      2.078      4.486
REMARK INTER + INTRA:         -11.359
REMARK INTER:                  -9.312
REMARK INTRA:                  -2.047
REMARK UNBOUND:                -4.391
REMARK SMILES CCCCCCCCCCCCCCCCCCCCCCCCCCCC(=O)[O-]
REMARK SMILES IDX 15 1 16 2 17 3 18 4 19 5 20 6 21 7 22 8 23 9 24 10 25 11
REMARK SMILES IDX 26 12 27 13 28 14 29 15 30 16 14 17 13 18 12 19 11 20 10 21
REMARK SMILES IDX 9 22 8 23 7 24 6 25 5 26 4 27 3 28 2 29 1 30
REMARK H PARENT
REMARK Flexibility Score: inf
ROOT
ATOM      1  C   UNL     1      -9.887   5.397   5.139  1.00  0.00     0.000 C 
ENDROOT
BRANCH   1   2
ATOM      2  C   UNL     1     -11.357   5.092   5.475  1.00  0.00     0.000 C 
BRANCH   2   3
ATOM      3  C   UNL     1     -12.028   6.208   6.297  1.00  0.00     0.000 C 
BRANCH   3   4
ATOM      4  C   UNL     1     -12.313   5.845   7.767  1.00  0.00     0.000 C 
BRANCH   4   5
ATOM      5  C   UNL     1     -13.258   6.846   8.456  1.00  0.00     0.000 C 
BRANCH   5   6
ATOM      6  C   UNL     1     -13.425   8.146   7.656  1.00  0.00     0.000 C 
BRANCH   6   7
ATOM      7  C   UNL     1     -14.057   9.274   8.490  1.00  0.00     0.000 C 
BRANCH   7   8
ATOM      8  C   UNL     1     -13.136  10.500   8.634  1.00  0.00     0.000 C 
BRANCH   8   9
ATOM      9  C   UNL     1     -13.051  11.398   7.387  1.00  0.00     0.000 C 
BRANCH   9  10
ATOM     10  C   UNL     1     -13.753  10.787   6.162  1.00  0.00     0.000 C 
BRANCH  10  11
ATOM     11  C   UNL     1     -12.823  10.646   4.944  1.00  0.00     0.000 C 
BRANCH  11  12
ATOM     12  C   UNL     1     -12.438  11.967   4.246  1.00  0.00     0.006 C 
BRANCH  12  13
ATOM     13  C   UNL     1     -11.572  11.786   2.986  1.00  0.00     0.053 C 
BRANCH  13  14
ATOM     14  C   UNL     1     -12.376  11.380   1.788  1.00  0.00     0.041 C 
ATOM     15  O   UNL     1     -13.627  11.274   1.869  1.00  0.00    -0.550 OA
ATOM     16  O   UNL     1     -11.738  11.073   0.592  1.00  0.00    -0.550 OA
ENDBRANCH  13  14
ENDBRANCH  12  13
ENDBRANCH  11  12
ENDBRANCH  10  11
ENDBRANCH   9  10
ENDBRANCH   8   9
ENDBRANCH   7   8
ENDBRANCH   6   7
ENDBRANCH   5   6
ENDBRANCH   4   5
ENDBRANCH   3   4
ENDBRANCH   2   3
ENDBRANCH   1   2
BRANCH   1  17
ATOM     17  C   UNL     1      -9.313   6.538   5.995  1.00  0.00     0.000 C 
BRANCH  17  18
ATOM     18  C   UNL     1      -8.730   7.675   5.137  1.00  0.00     0.000 C 
BRANCH  18  19
ATOM     19  C   UNL     1      -8.402   8.931   5.961  1.00  0.00     0.000 C 
BRANCH  19  20
ATOM     20  C   UNL     1      -9.347  10.103   5.656  1.00  0.00     0.000 C 
BRANCH  20  21
ATOM     21  C   UNL     1      -9.253  11.234   6.695  1.00  0.00     0.000 C 
BRANCH  21  22
ATOM     22  C   UNL     1      -7.865  11.908   6.747  1.00  0.00    -0.000 C 
BRANCH  22  23
ATOM     23  C   UNL     1      -7.004  11.370   7.904  1.00  0.00    -0.000 C 
BRANCH  23  24
ATOM     24  C   UNL     1      -5.503  11.369   7.576  1.00  0.00    -0.000 C 
BRANCH  24  25
ATOM     25  C   UNL     1      -5.147  10.356   6.474  1.00  0.00    -0.000 C 
BRANCH  25  26
ATOM     26  C   UNL     1      -4.819  11.030   5.128  1.00  0.00    -0.000 C 
BRANCH  26  27
ATOM     27  C   UNL     1      -3.441  11.716   5.066  1.00  0.00    -0.000 C 
BRANCH  27  28
ATOM     28  C   UNL     1      -2.680  11.407   3.764  1.00  0.00    -0.000 C 
BRANCH  28  29
ATOM     29  C   UNL     1      -1.316  12.112   3.698  1.00  0.00    -0.003 C 
ATOM     30  C   UNL     1      -0.572  12.094   5.034  1.00  0.00     0.004 C 
ENDBRANCH  28  29
ENDBRANCH  27  28
ENDBRANCH  26  27
ENDBRANCH  25  26
ENDBRANCH  24  25
ENDBRANCH  23  24
ENDBRANCH  22  23
ENDBRANCH  21  22
ENDBRANCH  20  21
ENDBRANCH  19  20
ENDBRANCH  18  19
ENDBRANCH  17  18
ENDBRANCH   1  17
TORSDOF 26
ENDMDL
MODEL 5
REMARK VINA RESULT:    -2.720      2.521      5.035
REMARK INTER + INTRA:         -11.244
REMARK INTER:                  -8.493
REMARK INTRA:                  -2.751
REMARK UNBOUND:                -4.391
REMARK SMILES CCCCCCCCCCCCCCCCCCCCCCCCCCCC(=O)[O-]
REMARK SMILES IDX 15 1 16 2 17 3 18 4 19 5 20 6 21 7 22 8 23 9 24 10 25 11
REMARK SMILES IDX 26 12 27 13 28 14 29 15 30 16 14 17 13 18 12 19 11 20 10 21
REMARK SMILES IDX 9 22 8 23 7 24 6 25 5 26 4 27 3 28 2 29 1 30
REMARK H PARENT
REMARK Flexibility Score: inf
ROOT
ATOM      1  C   UNL     1     -12.592   4.524   5.229  1.00  0.00     0.000 C 
ENDROOT
BRANCH   1   2
ATOM      2  C   UNL     1     -13.174   5.402   4.107  1.00  0.00     0.000 C 
BRANCH   2   3
ATOM      3  C   UNL     1     -14.371   6.252   4.571  1.00  0.00     0.000 C 
BRANCH   3   4
ATOM      4  C   UNL     1     -14.342   7.719   4.103  1.00  0.00     0.000 C 
BRANCH   4   5
ATOM      5  C   UNL     1     -14.474   8.720   5.265  1.00  0.00     0.000 C 
BRANCH   5   6
ATOM      6  C   UNL     1     -14.630  10.169   4.779  1.00  0.00     0.000 C 
BRANCH   6   7
ATOM      7  C   UNL     1     -13.439  10.634   3.923  1.00  0.00     0.000 C 
BRANCH   7   8
ATOM      8  C   UNL     1     -12.875  11.995   4.372  1.00  0.00     0.000 C 
BRANCH   8   9
ATOM      9  C   UNL     1     -11.604  11.919   5.237  1.00  0.00     0.000 C 
BRANCH   9  10
ATOM     10  C   UNL     1     -10.932  10.536   5.190  1.00  0.00     0.000 C 
BRANCH  10  11
ATOM     11  C   UNL     1      -9.427  10.589   5.506  1.00  0.00     0.000 C 
BRANCH  11  12
ATOM     12  C   UNL     1      -8.636   9.303   5.188  1.00  0.00     0.006 C 
BRANCH  12  13
ATOM     13  C   UNL     1      -7.144   9.371   5.560  1.00  0.00     0.053 C 
BRANCH  13  14
ATOM     14  C   UNL     1      -6.854  10.419   6.592  1.00  0.00     0.041 C 
ATOM     15  O   UNL     1      -6.105  11.391   6.317  1.00  0.00    -0.550 OA
ATOM     16  O   UNL     1      -7.375  10.296   7.875  1.00  0.00    -0.550 OA
ENDBRANCH  13  14
ENDBRANCH  12  13
ENDBRANCH  11  12
ENDBRANCH  10  11
ENDBRANCH   9  10
ENDBRANCH   8   9
ENDBRANCH   7   8
ENDBRANCH   6   7
ENDBRANCH   5   6
ENDBRANCH   4   5
ENDBRANCH   3   4
ENDBRANCH   2   3
ENDBRANCH   1   2
BRANCH   1  17
ATOM     17  C   UNL     1     -11.057   4.577   5.281  1.00  0.00     0.000 C 
BRANCH  17  18
ATOM     18  C   UNL     1     -10.529   6.002   5.523  1.00  0.00     0.000 C 
BRANCH  18  19
ATOM     19  C   UNL     1      -9.646   6.102   6.778  1.00  0.00     0.000 C 
BRANCH  19  20
ATOM     20  C   UNL     1     -10.464   6.103   8.079  1.00  0.00     0.000 C 
BRANCH  20  21
ATOM     21  C   UNL     1     -10.470   4.734   8.782  1.00  0.00     0.000 C 
BRANCH  21  22
ATOM     22  C   UNL     1     -11.576   3.785   8.273  1.00  0.00    -0.000 C 
BRANCH  22  23
ATOM     23  C   UNL     1     -12.970   4.199   8.778  1.00  0.00    -0.000 C 
BRANCH  23  24
ATOM     24  C   UNL     1     -13.056   5.693   9.125  1.00  0.00    -0.000 C 
BRANCH  24  25
ATOM     25  C   UNL     1     -13.896   6.483   8.106  1.00  0.00    -0.000 C 
BRANCH  25  26
ATOM     26  C   UNL     1     -14.942   7.396   8.773  1.00  0.00    -0.000 C 
BRANCH  26  27
ATOM     27  C   UNL     1     -14.465   8.836   9.043  1.00  0.00    -0.000 C 
BRANCH  27  28
ATOM     28  C   UNL     1     -13.308   9.263   8.122  1.00  0.00    -0.000 C 
BRANCH  28  29
ATOM     29  C   UNL     1     -12.857  10.711   8.377  1.00  0.00    -0.003 C 
ATOM     30  C   UNL     1     -14.023  11.699   8.414  1.00  0.00     0.004 C 
ENDBRANCH  28  29
ENDBRANCH  27  28
ENDBRANCH  26  27
ENDBRANCH  25  26
ENDBRANCH  24  25
ENDBRANCH  23  24
ENDBRANCH  22  23
ENDBRANCH  21  22
ENDBRANCH  20  21
ENDBRANCH  19  20
ENDBRANCH  18  19
ENDBRANCH  17  18
ENDBRANCH   1  17
TORSDOF 26
ENDMDL
MODEL 6
REMARK VINA RESULT:    -2.718      1.577      3.133
REMARK INTER + INTRA:         -11.241
REMARK INTER:                  -9.187
REMARK INTRA:                  -2.054
REMARK UNBOUND:                -4.391
REMARK SMILES CCCCCCCCCCCCCCCCCCCCCCCCCCCC(=O)[O-]
REMARK SMILES IDX 15 1 16 2 17 3 18 4 19 5 20 6 21 7 22 8 23 9 24 10 25 11
REMARK SMILES IDX 26 12 27 13 28 14 29 15 30 16 14 17 13 18 12 19 11 20 10 21
REMARK SMILES IDX 9 22 8 23 7 24 6 25 5 26 4 27 3 28 2 29 1 30
REMARK H PARENT
REMARK Flexibility Score: inf
ROOT
ATOM      1  C   UNL     1     -11.684   4.933   8.293  1.00  0.00     0.000 C 
ENDROOT
BRANCH   1   2
ATOM      2  C   UNL     1     -13.163   4.754   8.678  1.00  0.00     0.000 C 
BRANCH   2   3
ATOM      3  C   UNL     1     -13.829   6.069   9.125  1.00  0.00     0.000 C 
BRANCH   3   4
ATOM      4  C   UNL     1     -14.111   7.069   7.988  1.00  0.00     0.000 C 
BRANCH   4   5
ATOM      5  C   UNL     1     -14.751   8.377   8.487  1.00  0.00     0.000 C 
BRANCH   5   6
ATOM      6  C   UNL     1     -13.712   9.476   8.756  1.00  0.00     0.000 C 
BRANCH   6   7
ATOM      7  C   UNL     1     -14.124  10.833   8.159  1.00  0.00     0.000 C 
BRANCH   7   8
ATOM      8  C   UNL     1     -13.909  10.906   6.636  1.00  0.00     0.000 C 
BRANCH   8   9
ATOM      9  C   UNL     1     -12.534  10.417   6.149  1.00  0.00     0.000 C 
BRANCH   9  10
ATOM     10  C   UNL     1     -11.393  11.381   6.517  1.00  0.00     0.000 C 
BRANCH  10  11
ATOM     11  C   UNL     1     -10.660  11.942   5.285  1.00  0.00     0.000 C 
BRANCH  11  12
ATOM     12  C   UNL     1     -10.993  11.256   3.944  1.00  0.00     0.006 C 
BRANCH  12  13
ATOM     13  C   UNL     1     -11.935  12.069   3.037  1.00  0.00     0.053 C 
BRANCH  13  14
ATOM     14  C   UNL     1     -12.479  11.258   1.899  1.00  0.00     0.041 C 
ATOM     15  O   UNL     1     -13.548  10.609   2.036  1.00  0.00    -0.550 OA
ATOM     16  O   UNL     1     -11.781  11.183   0.701  1.00  0.00    -0.550 OA
ENDBRANCH  13  14
ENDBRANCH  12  13
ENDBRANCH  11  12
ENDBRANCH  10  11
ENDBRANCH   9  10
ENDBRANCH   8   9
ENDBRANCH   7   8
ENDBRANCH   6   7
ENDBRANCH   5   6
ENDBRANCH   4   5
ENDBRANCH   3   4
ENDBRANCH   2   3
ENDBRANCH   1   2
BRANCH   1  17
ATOM     17  C   UNL     1     -11.161   3.784   7.417  1.00  0.00     0.000 C 
BRANCH  17  18
ATOM     18  C   UNL     1     -11.637   3.898   5.958  1.00  0.00     0.000 C 
BRANCH  18  19
ATOM     19  C   UNL     1     -11.352   5.281   5.349  1.00  0.00     0.000 C 
BRANCH  19  20
ATOM     20  C   UNL     1     -10.363   6.105   6.187  1.00  0.00     0.000 C 
BRANCH  20  21
ATOM     21  C   UNL     1      -9.367   6.901   5.325  1.00  0.00     0.000 C 
BRANCH  21  22
ATOM     22  C   UNL     1      -9.248   8.385   5.734  1.00  0.00    -0.000 C 
BRANCH  22  23
ATOM     23  C   UNL     1      -7.796   8.890   5.659  1.00  0.00    -0.000 C 
BRANCH  23  24
ATOM     24  C   UNL     1      -7.323   9.534   6.971  1.00  0.00    -0.000 C 
BRANCH  24  25
ATOM     25  C   UNL     1      -7.655  11.036   7.037  1.00  0.00    -0.000 C 
BRANCH  25  26
ATOM     26  C   UNL     1      -6.432  11.931   6.762  1.00  0.00    -0.000 C 
BRANCH  26  27
ATOM     27  C   UNL     1      -5.078  11.195   6.762  1.00  0.00    -0.000 C 
BRANCH  27  28
ATOM     28  C   UNL     1      -4.520  10.973   5.344  1.00  0.00    -0.000 C 
BRANCH  28  29
ATOM     29  C   UNL     1      -3.227  11.765   5.091  1.00  0.00    -0.003 C 
ATOM     30  C   UNL     1      -2.774  11.712   3.632  1.00  0.00     0.004 C 
ENDBRANCH  28  29
ENDBRANCH  27  28
ENDBRANCH  26  27
ENDBRANCH  25  26
ENDBRANCH  24  25
ENDBRANCH  23  24
ENDBRANCH  22  23
ENDBRANCH  21  22
ENDBRANCH  20  21
ENDBRANCH  19  20
ENDBRANCH  18  19
ENDBRANCH  17  18
ENDBRANCH   1  17
TORSDOF 26
ENDMDL
MODEL 7
REMARK VINA RESULT:    -2.638      2.883      6.152
REMARK INTER + INTRA:         -11.038
REMARK INTER:                  -8.149
REMARK INTRA:                  -2.889
REMARK UNBOUND:                -4.391
REMARK SMILES CCCCCCCCCCCCCCCCCCCCCCCCCCCC(=O)[O-]
REMARK SMILES IDX 15 1 16 2 17 3 18 4 19 5 20 6 21 7 22 8 23 9 24 10 25 11
REMARK SMILES IDX 26 12 27 13 28 14 29 15 30 16 14 17 13 18 12 19 11 20 10 21
REMARK SMILES IDX 9 22 8 23 7 24 6 25 5 26 4 27 3 28 2 29 1 30
REMARK H PARENT
REMARK Flexibility Score: inf
ROOT
ATOM      1  C   UNL     1     -10.531   4.907   5.219  1.00  0.00     0.000 C 
ENDROOT
BRANCH   1   2
ATOM      2  C   UNL     1     -10.145   6.385   5.410  1.00  0.00     0.000 C 
BRANCH   2   3
ATOM      3  C   UNL     1      -9.053   6.584   6.478  1.00  0.00     0.000 C 
BRANCH   3   4
ATOM      4  C   UNL     1      -8.326   7.941   6.412  1.00  0.00     0.000 C 
BRANCH   4   5
ATOM      5  C   UNL     1      -8.759   8.793   5.205  1.00  0.00     0.000 C 
BRANCH   5   6
ATOM      6  C   UNL     1      -7.825   9.989   4.963  1.00  0.00     0.000 C 
BRANCH   6   7
ATOM      7  C   UNL     1      -8.443  11.320   5.426  1.00  0.00     0.000 C 
BRANCH   7   8
ATOM      8  C   UNL     1      -9.725  11.127   6.257  1.00  0.00     0.000 C 
BRANCH   8   9
ATOM      9  C   UNL     1      -9.653  11.663   7.698  1.00  0.00     0.000 C 
BRANCH   9  10
ATOM     10  C   UNL     1      -8.240  12.125   8.093  1.00  0.00     0.000 C 
BRANCH  10  11
ATOM     11  C   UNL     1      -7.254  10.957   8.273  1.00  0.00     0.000 C 
BRANCH  11  12
ATOM     12  C   UNL     1      -5.768  11.354   8.379  1.00  0.00     0.006 C 
BRANCH  12  13
ATOM     13  C   UNL     1      -5.212  12.062   7.130  1.00  0.00     0.053 C 
BRANCH  13  14
ATOM     14  C   UNL     1      -4.585  11.108   6.158  1.00  0.00     0.041 C 
ATOM     15  O   UNL     1      -4.708   9.866   6.318  1.00  0.00    -0.550 OA
ATOM     16  O   UNL     1      -3.825  11.591   5.100  1.00  0.00    -0.550 OA
ENDBRANCH  13  14
ENDBRANCH  12  13
ENDBRANCH  11  12
ENDBRANCH  10  11
ENDBRANCH   9  10
ENDBRANCH   8   9
ENDBRANCH   7   8
ENDBRANCH   6   7
ENDBRANCH   5   6
ENDBRANCH   4   5
ENDBRANCH   3   4
ENDBRANCH   2   3
ENDBRANCH   1   2
BRANCH   1  17
ATOM     17  C   UNL     1     -10.984   4.244   6.530  1.00  0.00     0.000 C 
BRANCH  17  18
ATOM     18  C   UNL     1     -12.509   4.306   6.720  1.00  0.00     0.000 C 
BRANCH  18  19
ATOM     19  C   UNL     1     -12.915   4.951   8.055  1.00  0.00     0.000 C 
BRANCH  19  20
ATOM     20  C   UNL     1     -12.325   6.358   8.236  1.00  0.00     0.000 C 
BRANCH  20  21
ATOM     21  C   UNL     1     -13.402   7.455   8.293  1.00  0.00     0.000 C 
BRANCH  21  22
ATOM     22  C   UNL     1     -14.654   7.134   7.450  1.00  0.00    -0.000 C 
BRANCH  22  23
ATOM     23  C   UNL     1     -15.030   8.292   6.509  1.00  0.00    -0.000 C 
BRANCH  23  24
ATOM     24  C   UNL     1     -13.936   8.593   5.473  1.00  0.00    -0.000 C 
BRANCH  24  25
ATOM     25  C   UNL     1     -14.273   9.819   4.606  1.00  0.00    -0.000 C 
BRANCH  25  26
ATOM     26  C   UNL     1     -14.211  11.142   5.393  1.00  0.00    -0.000 C 
BRANCH  26  27
ATOM     27  C   UNL     1     -13.113  12.119   4.931  1.00  0.00    -0.000 C 
BRANCH  27  28
ATOM     28  C   UNL     1     -12.184  11.510   3.865  1.00  0.00    -0.000 C 
BRANCH  28  29
ATOM     29  C   UNL     1     -12.503  12.015   2.449  1.00  0.00    -0.003 C 
ATOM     30  C   UNL     1     -12.821  10.883   1.472  1.00  0.00     0.004 C 
ENDBRANCH  28  29
ENDBRANCH  27  28
ENDBRANCH  26  27
ENDBRANCH  25  26
ENDBRANCH  24  25
ENDBRANCH  23  24
ENDBRANCH  22  23
ENDBRANCH  21  22
ENDBRANCH  20  21
ENDBRANCH  19  20
ENDBRANCH  18  19
ENDBRANCH  17  18
ENDBRANCH   1  17
TORSDOF 26
ENDMDL
