MODEL 1
REMARK VINA RESULT:    -4.982      0.000      0.000
REMARK INTER + INTRA:          -8.288
REMARK INTER:                  -7.313
REMARK INTRA:                  -0.975
REMARK UNBOUND:                -0.975
REMARK SMILES CC(C)COC(=O)c1ccccc1C(=O)OCC(C)C
REMARK SMILES IDX 8 1 9 2 10 3 11 4 12 5 13 6 6 7 7 8 5 9 4 10 2 11 1 12 3 13
REMARK SMILES IDX 14 14 15 15 16 16 17 17 18 18 19 19 20 20
REMARK H PARENT
REMARK Flexibility Score: inf
ROOT
ATOM      1  C   UNL     1      -2.500  -9.401 -40.658  1.00  0.00     0.074 A 
ATOM      2  C   UNL     1      -3.672  -8.638 -40.503  1.00  0.00     0.016 A 
ATOM      3  C   UNL     1      -4.208  -7.927 -41.577  1.00  0.00     0.001 A 
ATOM      4  C   UNL     1      -3.583  -7.965 -42.822  1.00  0.00     0.001 A 
ATOM      5  C   UNL     1      -2.430  -8.731 -43.002  1.00  0.00     0.016 A 
ATOM      6  C   UNL     1      -1.884  -9.472 -41.938  1.00  0.00     0.074 A 
ENDROOT
BRANCH   1   7
ATOM      7  C   UNL     1      -1.916 -10.039 -39.457  1.00  0.00     0.339 C 
ATOM      8  O   UNL     1      -2.450 -11.078 -38.978  1.00  0.00    -0.246 OA
BRANCH   7   9
ATOM      9  O   UNL     1      -0.802  -9.466 -38.832  1.00  0.00    -0.462 OA
BRANCH   9  10
ATOM     10  C   UNL     1      -0.709  -9.252 -37.424  1.00  0.00     0.236 C 
BRANCH  10  11
ATOM     11  C   UNL     1      -0.392  -7.780 -37.106  1.00  0.00     0.021 C 
ATOM     12  C   UNL     1      -1.043  -7.349 -35.785  1.00  0.00     0.011 C 
ATOM     13  C   UNL     1      -0.861  -6.875 -38.251  1.00  0.00     0.011 C 
ENDBRANCH  10  11
ENDBRANCH   9  10
ENDBRANCH   7   9
ENDBRANCH   1   7
BRANCH   6  14
ATOM     14  C   UNL     1      -0.731 -10.357 -42.219  1.00  0.00     0.339 C 
ATOM     15  O   UNL     1      -0.929 -11.564 -42.530  1.00  0.00    -0.246 OA
BRANCH  14  16
ATOM     16  O   UNL     1       0.574  -9.863 -42.092  1.00  0.00    -0.462 OA
BRANCH  16  17
ATOM     17  C   UNL     1       1.484  -9.723 -43.183  1.00  0.00     0.236 C 
BRANCH  17  18
ATOM     18  C   UNL     1       2.572 -10.812 -43.157  1.00  0.00     0.021 C 
ATOM     19  C   UNL     1       2.858 -11.277 -41.724  1.00  0.00     0.011 C 
ATOM     20  C   UNL     1       2.211 -12.005 -44.051  1.00  0.00     0.011 C 
ENDBRANCH  17  18
ENDBRANCH  16  17
ENDBRANCH  14  16
ENDBRANCH   6  14
TORSDOF 8
ENDMDL
MODEL 2
REMARK VINA RESULT:    -4.968      1.580      5.468
REMARK INTER + INTRA:          -8.267
REMARK INTER:                  -7.271
REMARK INTRA:                  -0.996
REMARK UNBOUND:                -0.975
REMARK SMILES CC(C)COC(=O)c1ccccc1C(=O)OCC(C)C
REMARK SMILES IDX 8 1 9 2 10 3 11 4 12 5 13 6 6 7 7 8 5 9 4 10 2 11 1 12 3 13
REMARK SMILES IDX 14 14 15 15 16 16 17 17 18 18 19 19 20 20
REMARK H PARENT
REMARK Flexibility Score: inf
ROOT
ATOM      1  C   UNL     1      -1.245  -9.426 -41.141  1.00  0.00     0.074 A 
ATOM      2  C   UNL     1      -1.769  -9.528 -42.443  1.00  0.00     0.016 A 
ATOM      3  C   UNL     1      -2.947  -8.868 -42.792  1.00  0.00     0.001 A 
ATOM      4  C   UNL     1      -3.622  -8.096 -41.847  1.00  0.00     0.001 A 
ATOM      5  C   UNL     1      -3.109  -7.966 -40.556  1.00  0.00     0.016 A 
ATOM      6  C   UNL     1      -1.911  -8.607 -40.189  1.00  0.00     0.074 A 
ENDROOT
BRANCH   1   7
ATOM      7  C   UNL     1      -0.057 -10.239 -40.798  1.00  0.00     0.339 C 
ATOM      8  O   UNL     1      -0.206 -11.370 -40.259  1.00  0.00    -0.246 OA
BRANCH   7   9
ATOM      9  O   UNL     1       1.228  -9.734 -41.034  1.00  0.00    -0.462 OA
BRANCH   9  10
ATOM     10  C   UNL     1       2.156 -10.327 -41.941  1.00  0.00     0.236 C 
BRANCH  10  11
ATOM     11  C   UNL     1       1.644 -10.246 -43.391  1.00  0.00     0.021 C 
ATOM     12  C   UNL     1       2.556 -11.031 -44.342  1.00  0.00     0.011 C 
ATOM     13  C   UNL     1       1.543  -8.783 -43.837  1.00  0.00     0.011 C 
ENDBRANCH  10  11
ENDBRANCH   9  10
ENDBRANCH   7   9
ENDBRANCH   1   7
BRANCH   6  14
ATOM     14  C   UNL     1      -1.356  -8.337 -38.843  1.00  0.00     0.339 C 
ATOM     15  O   UNL     1      -0.705  -7.276 -38.635  1.00  0.00    -0.246 OA
BRANCH  14  16
ATOM     16  O   UNL     1      -1.516  -9.281 -37.820  1.00  0.00    -0.462 OA
BRANCH  16  17
ATOM     17  C   UNL     1      -0.839  -9.221 -36.565  1.00  0.00     0.236 C 
BRANCH  17  18
ATOM     18  C   UNL     1      -1.173 -10.438 -35.682  1.00  0.00     0.021 C 
ATOM     19  C   UNL     1      -1.643 -11.626 -36.530  1.00  0.00     0.011 C 
ATOM     20  C   UNL     1       0.009 -10.842 -34.792  1.00  0.00     0.011 C 
ENDBRANCH  17  18
ENDBRANCH  16  17
ENDBRANCH  14  16
ENDBRANCH   6  14
TORSDOF 8
ENDMDL
MODEL 3
REMARK VINA RESULT:    -4.914      1.974      2.434
REMARK INTER + INTRA:          -8.187
REMARK INTER:                  -6.801
REMARK INTRA:                  -1.386
REMARK UNBOUND:                -0.975
REMARK SMILES CC(C)COC(=O)c1ccccc1C(=O)OCC(C)C
REMARK SMILES IDX 8 1 9 2 10 3 11 4 12 5 13 6 6 7 7 8 5 9 4 10 2 11 1 12 3 13
REMARK SMILES IDX 14 14 15 15 16 16 17 17 18 18 19 19 20 20
REMARK H PARENT
REMARK Flexibility Score: inf
ROOT
ATOM      1  C   UNL     1      -2.289 -11.711 -39.959  1.00  0.00     0.074 A 
ATOM      2  C   UNL     1      -3.652 -11.929 -40.232  1.00  0.00     0.016 A 
ATOM      3  C   UNL     1      -4.101 -12.082 -41.544  1.00  0.00     0.001 A 
ATOM      4  C   UNL     1      -3.197 -12.019 -42.604  1.00  0.00     0.001 A 
ATOM      5  C   UNL     1      -1.838 -11.823 -42.353  1.00  0.00     0.016 A 
ATOM      6  C   UNL     1      -1.361 -11.687 -41.036  1.00  0.00     0.074 A 
ENDROOT
BRANCH   1   7
ATOM      7  C   UNL     1      -1.890 -11.443 -38.559  1.00  0.00     0.339 C 
ATOM      8  O   UNL     1      -1.560 -12.401 -37.807  1.00  0.00    -0.246 OA
BRANCH   7   9
ATOM      9  O   UNL     1      -1.920 -10.134 -38.062  1.00  0.00    -0.462 OA
BRANCH   9  10
ATOM     10  C   UNL     1      -0.750  -9.391 -37.721  1.00  0.00     0.236 C 
BRANCH  10  11
ATOM     11  C   UNL     1      -0.709  -8.046 -38.470  1.00  0.00     0.021 C 
ATOM     12  C   UNL     1      -1.033  -6.881 -37.525  1.00  0.00     0.011 C 
ATOM     13  C   UNL     1      -1.689  -8.064 -39.649  1.00  0.00     0.011 C 
ENDBRANCH  10  11
ENDBRANCH   9  10
ENDBRANCH   7   9
ENDBRANCH   1   7
BRANCH   6  14
ATOM     14  C   UNL     1       0.102 -11.599 -40.826  1.00  0.00     0.339 C 
ATOM     15  O   UNL     1       0.766 -12.650 -40.607  1.00  0.00    -0.246 OA
BRANCH  14  16
ATOM     16  O   UNL     1       0.733 -10.349 -40.826  1.00  0.00    -0.462 OA
BRANCH  16  17
ATOM     17  C   UNL     1       1.787  -9.986 -41.718  1.00  0.00     0.236 C 
BRANCH  17  18
ATOM     18  C   UNL     1       1.327 -10.032 -43.187  1.00  0.00     0.021 C 
ATOM     19  C   UNL     1       1.315  -8.631 -43.809  1.00  0.00     0.011 C 
ATOM     20  C   UNL     1       2.183 -10.989 -44.025  1.00  0.00     0.011 C 
ENDBRANCH  17  18
ENDBRANCH  16  17
ENDBRANCH  14  16
ENDBRANCH   6  14
TORSDOF 8
ENDMDL
MODEL 4
REMARK VINA RESULT:    -4.878      2.003      5.243
REMARK INTER + INTRA:          -8.135
REMARK INTER:                  -7.021
REMARK INTRA:                  -1.114
REMARK UNBOUND:                -0.975
REMARK SMILES CC(C)COC(=O)c1ccccc1C(=O)OCC(C)C
REMARK SMILES IDX 8 1 9 2 10 3 11 4 12 5 13 6 6 7 7 8 5 9 4 10 2 11 1 12 3 13
REMARK SMILES IDX 14 14 15 15 16 16 17 17 18 18 19 19 20 20
REMARK H PARENT
REMARK Flexibility Score: inf
ROOT
ATOM      1  C   UNL     1      -1.153  -9.002 -38.728  1.00  0.00     0.074 A 
ATOM      2  C   UNL     1      -0.556  -7.974 -37.976  1.00  0.00     0.016 A 
ATOM      3  C   UNL     1      -0.348  -8.122 -36.605  1.00  0.00     0.001 A 
ATOM      4  C   UNL     1      -0.732  -9.297 -35.962  1.00  0.00     0.001 A 
ATOM      5  C   UNL     1      -1.308 -10.338 -36.693  1.00  0.00     0.016 A 
ATOM      6  C   UNL     1      -1.509 -10.217 -38.081  1.00  0.00     0.074 A 
ENDROOT
BRANCH   1   7
ATOM      7  C   UNL     1      -1.452  -8.743 -40.154  1.00  0.00     0.339 C 
ATOM      8  O   UNL     1      -2.555  -8.221 -40.478  1.00  0.00    -0.246 OA
BRANCH   7   9
ATOM      9  O   UNL     1      -0.531  -9.117 -41.141  1.00  0.00    -0.462 OA
BRANCH   9  10
ATOM     10  C   UNL     1       0.632  -9.901 -40.880  1.00  0.00     0.236 C 
BRANCH  10  11
ATOM     11  C   UNL     1       1.365 -10.259 -42.185  1.00  0.00     0.021 C 
ATOM     12  C   UNL     1       2.817 -10.669 -41.906  1.00  0.00     0.011 C 
ATOM     13  C   UNL     1       1.324  -9.075 -43.159  1.00  0.00     0.011 C 
ENDBRANCH  10  11
ENDBRANCH   9  10
ENDBRANCH   7   9
ENDBRANCH   1   7
BRANCH   6  14
ATOM     14  C   UNL     1      -2.014 -11.396 -38.821  1.00  0.00     0.339 C 
ATOM     15  O   UNL     1      -1.263 -12.395 -38.995  1.00  0.00    -0.246 OA
BRANCH  14  16
ATOM     16  O   UNL     1      -3.306 -11.377 -39.363  1.00  0.00    -0.462 OA
BRANCH  16  17
ATOM     17  C   UNL     1      -3.723 -12.190 -40.461  1.00  0.00     0.236 C 
BRANCH  17  18
ATOM     18  C   UNL     1      -3.506 -11.476 -41.808  1.00  0.00     0.021 C 
ATOM     19  C   UNL     1      -2.165 -11.873 -42.437  1.00  0.00     0.011 C 
ATOM     20  C   UNL     1      -4.659 -11.733 -42.785  1.00  0.00     0.011 C 
ENDBRANCH  17  18
ENDBRANCH  16  17
ENDBRANCH  14  16
ENDBRANCH   6  14
TORSDOF 8
ENDMDL
MODEL 5
REMARK VINA RESULT:    -4.814      1.993      4.089
REMARK INTER + INTRA:          -8.041
REMARK INTER:                  -6.619
REMARK INTRA:                  -1.422
REMARK UNBOUND:                -0.975
REMARK SMILES CC(C)COC(=O)c1ccccc1C(=O)OCC(C)C
REMARK SMILES IDX 8 1 9 2 10 3 11 4 12 5 13 6 6 7 7 8 5 9 4 10 2 11 1 12 3 13
REMARK SMILES IDX 14 14 15 15 16 16 17 17 18 18 19 19 20 20
REMARK H PARENT
REMARK Flexibility Score: inf
ROOT
ATOM      1  C   UNL     1      -1.113 -10.755 -39.687  1.00  0.00     0.074 A 
ATOM      2  C   UNL     1      -1.206 -10.765 -38.283  1.00  0.00     0.016 A 
ATOM      3  C   UNL     1      -1.196  -9.573 -37.558  1.00  0.00     0.001 A 
ATOM      4  C   UNL     1      -1.093  -8.352 -38.223  1.00  0.00     0.001 A 
ATOM      5  C   UNL     1      -1.020  -8.318 -39.617  1.00  0.00     0.016 A 
ATOM      6  C   UNL     1      -1.049  -9.508 -40.368  1.00  0.00     0.074 A 
ENDROOT
BRANCH   1   7
ATOM      7  C   UNL     1      -1.013 -12.052 -40.391  1.00  0.00     0.339 C 
ATOM      8  O   UNL     1       0.036 -12.746 -40.282  1.00  0.00    -0.246 OA
BRANCH   7   9
ATOM      9  O   UNL     1      -2.063 -12.486 -41.210  1.00  0.00    -0.462 OA
BRANCH   9  10
ATOM     10  C   UNL     1      -3.335 -12.898 -40.712  1.00  0.00     0.236 C 
BRANCH  10  11
ATOM     11  C   UNL     1      -4.469 -12.055 -41.323  1.00  0.00     0.021 C 
ATOM     12  C   UNL     1      -4.227 -11.807 -42.817  1.00  0.00     0.011 C 
ATOM     13  C   UNL     1      -4.603 -10.722 -40.576  1.00  0.00     0.011 C 
ENDBRANCH  10  11
ENDBRANCH   9  10
ENDBRANCH   7   9
ENDBRANCH   1   7
BRANCH   6  14
ATOM     14  C   UNL     1      -1.086  -9.404 -41.844  1.00  0.00     0.339 C 
ATOM     15  O   UNL     1      -2.105  -8.923 -42.412  1.00  0.00    -0.246 OA
BRANCH  14  16
ATOM     16  O   UNL     1      -0.012  -9.882 -42.605  1.00  0.00    -0.462 OA
BRANCH  16  17
ATOM     17  C   UNL     1       1.341  -9.457 -42.431  1.00  0.00     0.236 C 
BRANCH  17  18
ATOM     18  C   UNL     1       2.337 -10.540 -42.887  1.00  0.00     0.021 C 
ATOM     19  C   UNL     1       3.204 -11.024 -41.719  1.00  0.00     0.011 C 
ATOM     20  C   UNL     1       1.630 -11.721 -43.563  1.00  0.00     0.011 C 
ENDBRANCH  17  18
ENDBRANCH  16  17
ENDBRANCH  14  16
ENDBRANCH   6  14
TORSDOF 8
ENDMDL
MODEL 6
REMARK VINA RESULT:    -4.777      3.542      6.259
REMARK INTER + INTRA:          -7.986
REMARK INTER:                  -7.037
REMARK INTRA:                  -0.949
REMARK UNBOUND:                -0.975
REMARK SMILES CC(C)COC(=O)c1ccccc1C(=O)OCC(C)C
REMARK SMILES IDX 8 1 9 2 10 3 11 4 12 5 13 6 6 7 7 8 5 9 4 10 2 11 1 12 3 13
REMARK SMILES IDX 14 14 15 15 16 16 17 17 18 18 19 19 20 20
REMARK H PARENT
REMARK Flexibility Score: inf
ROOT
ATOM      1  C   UNL     1      -4.435  -9.200 -43.800  1.00  0.00     0.074 A 
ATOM      2  C   UNL     1      -5.491  -9.993 -44.286  1.00  0.00     0.016 A 
ATOM      3  C   UNL     1      -5.658 -11.306 -43.846  1.00  0.00     0.001 A 
ATOM      4  C   UNL     1      -4.773 -11.850 -42.916  1.00  0.00     0.001 A 
ATOM      5  C   UNL     1      -3.730 -11.074 -42.407  1.00  0.00     0.016 A 
ATOM      6  C   UNL     1      -3.556  -9.741 -42.821  1.00  0.00     0.074 A 
ENDROOT
BRANCH   1   7
ATOM      7  C   UNL     1      -4.241  -7.855 -44.387  1.00  0.00     0.339 C 
ATOM      8  O   UNL     1      -4.897  -6.875 -43.939  1.00  0.00    -0.246 OA
BRANCH   7   9
ATOM      9  O   UNL     1      -3.364  -7.683 -45.466  1.00  0.00    -0.462 OA
BRANCH   9  10
ATOM     10  C   UNL     1      -3.797  -7.429 -46.802  1.00  0.00     0.236 C 
BRANCH  10  11
ATOM     11  C   UNL     1      -3.799  -8.721 -47.639  1.00  0.00     0.021 C 
ATOM     12  C   UNL     1      -2.873  -8.591 -48.855  1.00  0.00     0.011 C 
ATOM     13  C   UNL     1      -5.225  -9.059 -48.090  1.00  0.00     0.011 C 
ENDBRANCH  10  11
ENDBRANCH   9  10
ENDBRANCH   7   9
ENDBRANCH   1   7
BRANCH   6  14
ATOM     14  C   UNL     1      -2.506  -8.933 -42.160  1.00  0.00     0.339 C 
ATOM     15  O   UNL     1      -2.824  -8.111 -41.257  1.00  0.00    -0.246 OA
BRANCH  14  16
ATOM     16  O   UNL     1      -1.173  -9.050 -42.573  1.00  0.00    -0.462 OA
BRANCH  16  17
ATOM     17  C   UNL     1      -0.246  -9.986 -42.023  1.00  0.00     0.236 C 
BRANCH  17  18
ATOM     18  C   UNL     1       1.204  -9.477 -42.128  1.00  0.00     0.021 C 
ATOM     19  C   UNL     1       2.208 -10.589 -41.807  1.00  0.00     0.011 C 
ATOM     20  C   UNL     1       1.497  -8.862 -43.502  1.00  0.00     0.011 C 
ENDBRANCH  17  18
ENDBRANCH  16  17
ENDBRANCH  14  16
ENDBRANCH   6  14
TORSDOF 8
ENDMDL
MODEL 7
REMARK VINA RESULT:    -4.756      1.470      5.097
REMARK INTER + INTRA:          -7.956
REMARK INTER:                  -6.595
REMARK INTRA:                  -1.361
REMARK UNBOUND:                -0.975
REMARK SMILES CC(C)COC(=O)c1ccccc1C(=O)OCC(C)C
REMARK SMILES IDX 8 1 9 2 10 3 11 4 12 5 13 6 6 7 7 8 5 9 4 10 2 11 1 12 3 13
REMARK SMILES IDX 14 14 15 15 16 16 17 17 18 18 19 19 20 20
REMARK H PARENT
REMARK Flexibility Score: inf
ROOT
ATOM      1  C   UNL     1      -1.866  -9.203 -42.025  1.00  0.00     0.074 A 
ATOM      2  C   UNL     1      -2.588  -8.736 -43.140  1.00  0.00     0.016 A 
ATOM      3  C   UNL     1      -3.721  -7.939 -42.973  1.00  0.00     0.001 A 
ATOM      4  C   UNL     1      -4.153  -7.597 -41.693  1.00  0.00     0.001 A 
ATOM      5  C   UNL     1      -3.440  -8.033 -40.575  1.00  0.00     0.016 A 
ATOM      6  C   UNL     1      -2.283  -8.820 -40.721  1.00  0.00     0.074 A 
ENDROOT
BRANCH   1   7
ATOM      7  C   UNL     1      -0.742 -10.136 -42.261  1.00  0.00     0.339 C 
ATOM      8  O   UNL     1      -0.979 -11.340 -42.558  1.00  0.00    -0.246 OA
BRANCH   7   9
ATOM      9  O   UNL     1       0.578  -9.693 -42.111  1.00  0.00    -0.462 OA
BRANCH   9  10
ATOM     10  C   UNL     1       1.496  -9.563 -43.196  1.00  0.00     0.236 C 
BRANCH  10  11
ATOM     11  C   UNL     1       2.582 -10.653 -43.137  1.00  0.00     0.021 C 
ATOM     12  C   UNL     1       2.176 -11.879 -43.965  1.00  0.00     0.011 C 
ATOM     13  C   UNL     1       2.852 -11.057 -41.683  1.00  0.00     0.011 C 
ENDBRANCH  10  11
ENDBRANCH   9  10
ENDBRANCH   7   9
ENDBRANCH   1   7
BRANCH   6  14
ATOM     14  C   UNL     1      -1.504  -9.154 -39.506  1.00  0.00     0.339 C 
ATOM     15  O   UNL     1      -0.732  -8.293 -39.002  1.00  0.00    -0.246 OA
BRANCH  14  16
ATOM     16  O   UNL     1      -1.593 -10.437 -38.952  1.00  0.00    -0.462 OA
BRANCH  16  17
ATOM     17  C   UNL     1      -2.812 -11.170 -38.826  1.00  0.00     0.236 C 
BRANCH  17  18
ATOM     18  C   UNL     1      -2.890 -12.319 -39.850  1.00  0.00     0.021 C 
ATOM     19  C   UNL     1      -3.052 -13.674 -39.151  1.00  0.00     0.011 C 
ATOM     20  C   UNL     1      -4.010 -12.099 -40.873  1.00  0.00     0.011 C 
ENDBRANCH  17  18
ENDBRANCH  16  17
ENDBRANCH  14  16
ENDBRANCH   6  14
TORSDOF 8
ENDMDL
MODEL 8
REMARK VINA RESULT:    -4.755      0.922      5.197
REMARK INTER + INTRA:          -7.954
REMARK INTER:                  -7.113
REMARK INTRA:                  -0.841
REMARK UNBOUND:                -0.975
REMARK SMILES CC(C)COC(=O)c1ccccc1C(=O)OCC(C)C
REMARK SMILES IDX 8 1 9 2 10 3 11 4 12 5 13 6 6 7 7 8 5 9 4 10 2 11 1 12 3 13
REMARK SMILES IDX 14 14 15 15 16 16 17 17 18 18 19 19 20 20
REMARK H PARENT
REMARK Flexibility Score: inf
ROOT
ATOM      1  C   UNL     1      -2.200  -9.186 -42.235  1.00  0.00     0.074 A 
ATOM      2  C   UNL     1      -2.765  -8.627 -43.396  1.00  0.00     0.016 A 
ATOM      3  C   UNL     1      -3.892  -7.808 -43.318  1.00  0.00     0.001 A 
ATOM      4  C   UNL     1      -4.473  -7.535 -42.081  1.00  0.00     0.001 A 
ATOM      5  C   UNL     1      -3.917  -8.063 -40.915  1.00  0.00     0.016 A 
ATOM      6  C   UNL     1      -2.768  -8.875 -40.969  1.00  0.00     0.074 A 
ENDROOT
BRANCH   1   7
ATOM      7  C   UNL     1      -1.077 -10.137 -42.391  1.00  0.00     0.339 C 
ATOM      8  O   UNL     1      -1.296 -11.379 -42.343  1.00  0.00    -0.246 OA
BRANCH   7   9
ATOM      9  O   UNL     1       0.229  -9.657 -42.549  1.00  0.00    -0.462 OA
BRANCH   9  10
ATOM     10  C   UNL     1       1.287  -9.928 -41.629  1.00  0.00     0.236 C 
BRANCH  10  11
ATOM     11  C   UNL     1       2.361 -10.826 -42.268  1.00  0.00     0.021 C 
ATOM     12  C   UNL     1       2.222 -10.848 -43.796  1.00  0.00     0.011 C 
ATOM     13  C   UNL     1       2.269 -12.249 -41.704  1.00  0.00     0.011 C 
ENDBRANCH  10  11
ENDBRANCH   9  10
ENDBRANCH   7   9
ENDBRANCH   1   7
BRANCH   6  14
ATOM     14  C   UNL     1      -2.157  -9.310 -39.693  1.00  0.00     0.339 C 
ATOM     15  O   UNL     1      -2.456 -10.435 -39.207  1.00  0.00    -0.246 OA
BRANCH  14  16
ATOM     16  O   UNL     1      -1.286  -8.451 -39.009  1.00  0.00    -0.462 OA
BRANCH  16  17
ATOM     17  C   UNL     1      -0.362  -8.882 -38.009  1.00  0.00     0.236 C 
BRANCH  17  18
ATOM     18  C   UNL     1      -0.960  -8.762 -36.595  1.00  0.00     0.021 C 
ATOM     19  C   UNL     1      -0.346  -9.794 -35.643  1.00  0.00     0.011 C 
ATOM     20  C   UNL     1      -0.811  -7.345 -36.028  1.00  0.00     0.011 C 
ENDBRANCH  17  18
ENDBRANCH  16  17
ENDBRANCH  14  16
ENDBRANCH   6  14
TORSDOF 8
ENDMDL
MODEL 9
REMARK VINA RESULT:    -4.702      2.007      4.676
REMARK INTER + INTRA:          -7.877
REMARK INTER:                  -6.637
REMARK INTRA:                  -1.239
REMARK UNBOUND:                -0.975
REMARK SMILES CC(C)COC(=O)c1ccccc1C(=O)OCC(C)C
REMARK SMILES IDX 8 1 9 2 10 3 11 4 12 5 13 6 6 7 7 8 5 9 4 10 2 11 1 12 3 13
REMARK SMILES IDX 14 14 15 15 16 16 17 17 18 18 19 19 20 20
REMARK H PARENT
REMARK Flexibility Score: inf
ROOT
ATOM      1  C   UNL     1      -0.059 -10.136 -41.403  1.00  0.00     0.074 A 
ATOM      2  C   UNL     1       1.044  -9.510 -42.014  1.00  0.00     0.016 A 
ATOM      3  C   UNL     1       2.243 -10.199 -42.199  1.00  0.00     0.001 A 
ATOM      4  C   UNL     1       2.361 -11.522 -41.778  1.00  0.00     0.001 A 
ATOM      5  C   UNL     1       1.273 -12.168 -41.188  1.00  0.00     0.016 A 
ATOM      6  C   UNL     1       0.049 -11.498 -41.009  1.00  0.00     0.074 A 
ENDROOT
BRANCH   1   7
ATOM      7  C   UNL     1      -1.263  -9.320 -41.130  1.00  0.00     0.339 C 
ATOM      8  O   UNL     1      -1.935  -8.853 -42.091  1.00  0.00    -0.246 OA
BRANCH   7   9
ATOM      9  O   UNL     1      -1.629  -9.035 -39.808  1.00  0.00    -0.462 OA
BRANCH   9  10
ATOM     10  C   UNL     1      -1.018  -8.011 -39.023  1.00  0.00     0.236 C 
BRANCH  10  11
ATOM     11  C   UNL     1      -0.413  -8.590 -37.731  1.00  0.00     0.021 C 
ATOM     12  C   UNL     1      -1.120  -9.890 -37.327  1.00  0.00     0.011 C 
ATOM     13  C   UNL     1      -0.500  -7.562 -36.597  1.00  0.00     0.011 C 
ENDBRANCH  10  11
ENDBRANCH   9  10
ENDBRANCH   7   9
ENDBRANCH   1   7
BRANCH   6  14
ATOM     14  C   UNL     1      -1.102 -12.268 -40.486  1.00  0.00     0.339 C 
ATOM     15  O   UNL     1      -1.094 -12.670 -39.289  1.00  0.00    -0.246 OA
BRANCH  14  16
ATOM     16  O   UNL     1      -2.171 -12.587 -41.332  1.00  0.00    -0.462 OA
BRANCH  16  17
ATOM     17  C   UNL     1      -3.464 -12.983 -40.872  1.00  0.00     0.236 C 
BRANCH  17  18
ATOM     18  C   UNL     1      -4.546 -11.966 -41.281  1.00  0.00     0.021 C 
ATOM     19  C   UNL     1      -4.628 -10.810 -40.278  1.00  0.00     0.011 C 
ATOM     20  C   UNL     1      -4.327 -11.436 -42.703  1.00  0.00     0.011 C 
ENDBRANCH  17  18
ENDBRANCH  16  17
ENDBRANCH  14  16
ENDBRANCH   6  14
TORSDOF 8
ENDMDL
