MODEL 1
REMARK VINA RESULT:    -2.923      0.000      0.000
REMARK INTER + INTRA:          -4.317
REMARK INTER:                  -4.119
REMARK INTRA:                  -0.198
REMARK UNBOUND:                -0.198
REMARK SMILES CCCCCCCCC(=O)[O-]
REMARK SMILES IDX 6 1 7 2 8 3 9 4 10 5 11 6 5 7 4 8 3 9 2 10 1 11
REMARK H PARENT
REMARK Flexibility Score: inf
ROOT
ATOM      1  C   UNL     1      85.986  82.194  18.721  1.00  0.00     0.000 C 
ENDROOT
BRANCH   1   2
ATOM      2  C   UNL     1      85.243  81.863  20.032  1.00  0.00     0.006 C 
BRANCH   2   3
ATOM      3  C   UNL     1      83.769  81.469  19.848  1.00  0.00     0.053 C 
BRANCH   3   4
ATOM      4  C   UNL     1      83.167  82.105  18.634  1.00  0.00     0.041 C 
ATOM      5  O   UNL     1      82.888  83.334  18.634  1.00  0.00    -0.550 OA
ATOM      6  O   UNL     1      82.942  81.349  17.491  1.00  0.00    -0.550 OA
ENDBRANCH   3   4
ENDBRANCH   2   3
ENDBRANCH   1   2
BRANCH   1   7
ATOM      7  C   UNL     1      86.993  81.127  18.255  1.00  0.00     0.000 C 
BRANCH   7   8
ATOM      8  C   UNL     1      88.114  80.875  19.274  1.00  0.00    -0.000 C 
BRANCH   8   9
ATOM      9  C   UNL     1      88.987  82.126  19.452  1.00  0.00    -0.000 C 
BRANCH   9  10
ATOM     10  C   UNL     1      90.364  81.985  18.787  1.00  0.00    -0.003 C 
ATOM     11  C   UNL     1      90.403  80.875  17.737  1.00  0.00     0.004 C 
ENDBRANCH   9  10
ENDBRANCH   8   9
ENDBRANCH   7   8
ENDBRANCH   1   7
TORSDOF 7
ENDMDL
MODEL 2
REMARK VINA RESULT:    -2.334      0.637      1.531
REMARK INTER + INTRA:          -3.488
REMARK INTER:                  -3.157
REMARK INTRA:                  -0.331
REMARK UNBOUND:                -0.198
REMARK SMILES CCCCCCCCC(=O)[O-]
REMARK SMILES IDX 6 1 7 2 8 3 9 4 10 5 11 6 5 7 4 8 3 9 2 10 1 11
REMARK H PARENT
REMARK Flexibility Score: inf
ROOT
ATOM      1  C   UNL     1      86.714  81.101  19.182  1.00  0.00     0.000 C 
ENDROOT
BRANCH   1   2
ATOM      2  C   UNL     1      85.728  82.158  19.722  1.00  0.00     0.006 C 
BRANCH   2   3
ATOM      3  C   UNL     1      84.308  81.633  19.980  1.00  0.00     0.053 C 
BRANCH   3   4
ATOM      4  C   UNL     1      83.333  82.131  18.959  1.00  0.00     0.041 C 
ATOM      5  O   UNL     1      82.901  81.356  18.064  1.00  0.00    -0.550 OA
ATOM      6  O   UNL     1      82.877  83.442  19.013  1.00  0.00    -0.550 OA
ENDBRANCH   3   4
ENDBRANCH   2   3
ENDBRANCH   1   2
BRANCH   1   7
ATOM      7  C   UNL     1      88.153  81.218  19.714  1.00  0.00     0.000 C 
BRANCH   7   8
ATOM      8  C   UNL     1      88.836  82.534  19.315  1.00  0.00    -0.000 C 
BRANCH   8   9
ATOM      9  C   UNL     1      90.220  82.272  18.703  1.00  0.00    -0.000 C 
BRANCH   9  10
ATOM     10  C   UNL     1      90.332  80.875  18.074  1.00  0.00    -0.003 C 
ATOM     11  C   UNL     1      90.548  80.923  16.561  1.00  0.00     0.004 C 
ENDBRANCH   9  10
ENDBRANCH   8   9
ENDBRANCH   7   8
ENDBRANCH   1   7
TORSDOF 7
ENDMDL
MODEL 3
REMARK VINA RESULT:    -2.274      1.124      1.806
REMARK INTER + INTRA:          -3.403
REMARK INTER:                  -3.105
REMARK INTRA:                  -0.298
REMARK UNBOUND:                -0.198
REMARK SMILES CCCCCCCCC(=O)[O-]
REMARK SMILES IDX 6 1 7 2 8 3 9 4 10 5 11 6 5 7 4 8 3 9 2 10 1 11
REMARK H PARENT
REMARK Flexibility Score: inf
ROOT
ATOM      1  C   UNL     1      86.442  81.699  18.610  1.00  0.00     0.000 C 
ENDROOT
BRANCH   1   2
ATOM      2  C   UNL     1      85.149  80.875  18.429  1.00  0.00     0.006 C 
BRANCH   2   3
ATOM      3  C   UNL     1      84.036  81.208  19.434  1.00  0.00     0.053 C 
BRANCH   3   4
ATOM      4  C   UNL     1      83.277  82.437  19.042  1.00  0.00     0.041 C 
ATOM      5  O   UNL     1      82.966  82.633  17.838  1.00  0.00    -0.550 OA
ATOM      6  O   UNL     1      82.885  83.351  20.012  1.00  0.00    -0.550 OA
ENDBRANCH   3   4
ENDBRANCH   2   3
ENDBRANCH   1   2
BRANCH   1   7
ATOM      7  C   UNL     1      87.701  80.875  18.933  1.00  0.00     0.000 C 
BRANCH   7   8
ATOM      8  C   UNL     1      88.795  81.007  17.863  1.00  0.00    -0.000 C 
BRANCH   8   9
ATOM      9  C   UNL     1      90.103  81.529  18.476  1.00  0.00    -0.000 C 
BRANCH   9  10
ATOM     10  C   UNL     1      89.872  82.327  19.768  1.00  0.00    -0.003 C 
ATOM     11  C   UNL     1      89.603  83.810  19.508  1.00  0.00     0.004 C 
ENDBRANCH   9  10
ENDBRANCH   8   9
ENDBRANCH   7   8
ENDBRANCH   1   7
TORSDOF 7
ENDMDL
MODEL 4
REMARK VINA RESULT:    -1.692      3.532      6.040
REMARK INTER + INTRA:          -2.582
REMARK INTER:                  -2.306
REMARK INTRA:                  -0.276
REMARK UNBOUND:                -0.198
REMARK SMILES CCCCCCCCC(=O)[O-]
REMARK SMILES IDX 6 1 7 2 8 3 9 4 10 5 11 6 5 7 4 8 3 9 2 10 1 11
REMARK H PARENT
REMARK Flexibility Score: inf
ROOT
ATOM      1  C   UNL     1      86.584  81.670  18.981  1.00  0.00     0.000 C 
ENDROOT
BRANCH   1   2
ATOM      2  C   UNL     1      88.007  81.346  19.480  1.00  0.00     0.006 C 
BRANCH   2   3
ATOM      3  C   UNL     1      89.082  82.352  19.039  1.00  0.00     0.053 C 
BRANCH   3   4
ATOM      4  C   UNL     1      90.319  81.669  18.546  1.00  0.00     0.041 C 
ATOM      5  O   UNL     1      91.362  81.657  19.252  1.00  0.00    -0.550 OA
ATOM      6  O   UNL     1      90.312  81.017  17.319  1.00  0.00    -0.550 OA
ENDBRANCH   3   4
ENDBRANCH   2   3
ENDBRANCH   1   2
BRANCH   1   7
ATOM      7  C   UNL     1      85.454  81.349  19.976  1.00  0.00     0.000 C 
BRANCH   7   8
ATOM      8  C   UNL     1      84.139  80.960  19.285  1.00  0.00    -0.000 C 
BRANCH   8   9
ATOM      9  C   UNL     1      82.931  81.538  20.037  1.00  0.00    -0.000 C 
BRANCH   9  10
ATOM     10  C   UNL     1      82.925  83.074  20.052  1.00  0.00    -0.003 C 
ATOM     11  C   UNL     1      82.881  83.679  18.649  1.00  0.00     0.004 C 
ENDBRANCH   9  10
ENDBRANCH   8   9
ENDBRANCH   7   8
ENDBRANCH   1   7
TORSDOF 7
ENDMDL
MODEL 5
REMARK VINA RESULT:    -1.451      3.060      5.565
REMARK INTER + INTRA:          -2.243
REMARK INTER:                  -2.355
REMARK INTRA:                   0.112
REMARK UNBOUND:                -0.198
REMARK SMILES CCCCCCCCC(=O)[O-]
REMARK SMILES IDX 6 1 7 2 8 3 9 4 10 5 11 6 5 7 4 8 3 9 2 10 1 11
REMARK H PARENT
REMARK Flexibility Score: inf
ROOT
ATOM      1  C   UNL     1      88.081  82.880  19.672  1.00  0.00     0.000 C 
ENDROOT
BRANCH   1   2
ATOM      2  C   UNL     1      89.508  82.965  19.093  1.00  0.00     0.006 C 
BRANCH   2   3
ATOM      3  C   UNL     1      90.158  81.605  18.795  1.00  0.00     0.053 C 
BRANCH   3   4
ATOM      4  C   UNL     1      89.798  81.098  17.433  1.00  0.00     0.041 C 
ATOM      5  O   UNL     1      88.592  80.900  17.128  1.00  0.00    -0.550 OA
ATOM      6  O   UNL     1      90.792  80.875  16.489  1.00  0.00    -0.550 OA
ENDBRANCH   3   4
ENDBRANCH   2   3
ENDBRANCH   1   2
BRANCH   1   7
ATOM      7  C   UNL     1      87.583  81.455  19.974  1.00  0.00     0.000 C 
BRANCH   7   8
ATOM      8  C   UNL     1      86.057  81.372  20.124  1.00  0.00    -0.000 C 
BRANCH   8   9
ATOM      9  C   UNL     1      85.357  81.660  18.788  1.00  0.00    -0.000 C 
BRANCH   9  10
ATOM     10  C   UNL     1      83.827  81.715  18.923  1.00  0.00    -0.003 C 
ATOM     11  C   UNL     1      83.293  83.144  19.027  1.00  0.00     0.004 C 
ENDBRANCH   9  10
ENDBRANCH   8   9
ENDBRANCH   7   8
ENDBRANCH   1   7
TORSDOF 7
ENDMDL
MODEL 6
REMARK VINA RESULT:    -0.773     20.635     22.565
REMARK INTER + INTRA:          -1.287
REMARK INTER:                  -1.116
REMARK INTRA:                  -0.171
REMARK UNBOUND:                -0.198
REMARK SMILES CCCCCCCCC(=O)[O-]
REMARK SMILES IDX 6 1 7 2 8 3 9 4 10 5 11 6 5 7 4 8 3 9 2 10 1 11
REMARK H PARENT
REMARK Flexibility Score: inf
ROOT
ATOM      1  C   UNL     1     101.445  95.998  10.427  1.00  0.00     0.000 C 
ENDROOT
BRANCH   1   2
ATOM      2  C   UNL     1     100.600  94.738  10.708  1.00  0.00     0.006 C 
BRANCH   2   3
ATOM      3  C   UNL     1      99.086  94.989  10.781  1.00  0.00     0.053 C 
BRANCH   3   4
ATOM      4  C   UNL     1      98.612  95.146  12.192  1.00  0.00     0.041 C 
ATOM      5  O   UNL     1      98.183  96.259  12.597  1.00  0.00    -0.550 OA
ATOM      6  O   UNL     1      98.615  94.056  13.053  1.00  0.00    -0.550 OA
ENDBRANCH   3   4
ENDBRANCH   2   3
ENDBRANCH   1   2
BRANCH   1   7
ATOM      7  C   UNL     1     100.655  97.318  10.391  1.00  0.00     0.000 C 
BRANCH   7   8
ATOM      8  C   UNL     1     101.560  98.559  10.385  1.00  0.00    -0.000 C 
BRANCH   8   9
ATOM      9  C   UNL     1     100.748  99.833  10.660  1.00  0.00    -0.000 C 
BRANCH   9  10
ATOM     10  C   UNL     1     101.264 101.044   9.868  1.00  0.00    -0.003 C 
ATOM     11  C   UNL     1     102.790 101.125   9.838  1.00  0.00     0.004 C 
ENDBRANCH   9  10
ENDBRANCH   8   9
ENDBRANCH   7   8
ENDBRANCH   1   7
TORSDOF 7
ENDMDL
MODEL 7
REMARK VINA RESULT:    -0.475     21.196     23.216
REMARK INTER + INTRA:          -0.868
REMARK INTER:                  -0.667
REMARK INTRA:                  -0.201
REMARK UNBOUND:                -0.198
REMARK SMILES CCCCCCCCC(=O)[O-]
REMARK SMILES IDX 6 1 7 2 8 3 9 4 10 5 11 6 5 7 4 8 3 9 2 10 1 11
REMARK H PARENT
REMARK Flexibility Score: inf
ROOT
ATOM      1  C   UNL     1     100.651  96.986  10.343  1.00  0.00     0.000 C 
ENDROOT
BRANCH   1   2
ATOM      2  C   UNL     1     101.684  98.133  10.386  1.00  0.00     0.006 C 
BRANCH   2   3
ATOM      3  C   UNL     1     101.109  99.492  10.812  1.00  0.00     0.053 C 
BRANCH   3   4
ATOM      4  C   UNL     1     101.669 100.617   9.999  1.00  0.00     0.041 C 
ATOM      5  O   UNL     1     102.799 101.099  10.277  1.00  0.00    -0.550 OA
ATOM      6  O   UNL     1     100.957 101.113   8.914  1.00  0.00    -0.550 OA
ENDBRANCH   3   4
ENDBRANCH   2   3
ENDBRANCH   1   2
BRANCH   1   7
ATOM      7  C   UNL     1     101.249  95.569  10.378  1.00  0.00     0.000 C 
BRANCH   7   8
ATOM      8  C   UNL     1     100.226  94.496  10.779  1.00  0.00    -0.000 C 
BRANCH   8   9
ATOM      9  C   UNL     1      98.840  95.116  11.008  1.00  0.00    -0.000 C 
BRANCH   9  10
ATOM     10  C   UNL     1      98.537  95.353  12.495  1.00  0.00    -0.003 C 
ATOM     11  C   UNL     1      98.506  94.057  13.306  1.00  0.00     0.004 C 
ENDBRANCH   9  10
ENDBRANCH   8   9
ENDBRANCH   7   8
ENDBRANCH   1   7
TORSDOF 7
ENDMDL
