MODEL 1
REMARK VINA RESULT:    -3.050      0.000      0.000
REMARK INTER + INTRA:          -4.475
REMARK INTER:                  -4.119
REMARK INTRA:                  -0.356
REMARK UNBOUND:                -0.356
REMARK SMILES CCCCCCCC(=O)[O-]
REMARK SMILES IDX 5 1 6 2 7 3 8 4 9 5 10 6 4 7 3 8 2 9 1 10
REMARK H PARENT
REMARK Flexibility Score: inf
ROOT
ATOM      1  C   UNL     1       0.566  -0.441   8.941  1.00  0.00     0.000 C 
ENDROOT
BRANCH   1   2
ATOM      2  C   UNL     1       1.242   0.774   8.276  1.00  0.00     0.006 C 
BRANCH   2   3
ATOM      3  C   UNL     1       0.265   1.899   7.893  1.00  0.00     0.053 C 
BRANCH   3   4
ATOM      4  C   UNL     1      -0.231   1.781   6.484  1.00  0.00     0.041 C 
ATOM      5  O   UNL     1       0.508   1.291   5.588  1.00  0.00    -0.550 OA
ATOM      6  O   UNL     1      -1.521   2.183   6.164  1.00  0.00    -0.550 OA
ENDBRANCH   3   4
ENDBRANCH   2   3
ENDBRANCH   1   2
BRANCH   1   7
ATOM      7  C   UNL     1       0.734  -1.737   8.136  1.00  0.00     0.000 C 
BRANCH   7   8
ATOM      8  C   UNL     1      -0.432  -1.932   7.158  1.00  0.00    -0.000 C 
BRANCH   8   9
ATOM      9  C   UNL     1      -0.680  -3.421   6.888  1.00  0.00    -0.003 C 
ATOM     10  C   UNL     1       0.364  -4.289   7.582  1.00  0.00     0.004 C 
ENDBRANCH   8   9
ENDBRANCH   7   8
ENDBRANCH   1   7
TORSDOF 6
ENDMDL
MODEL 2
REMARK VINA RESULT:    -3.046      0.911      1.751
REMARK INTER + INTRA:          -4.470
REMARK INTER:                  -3.928
REMARK INTRA:                  -0.542
REMARK UNBOUND:                -0.356
REMARK SMILES CCCCCCCC(=O)[O-]
REMARK SMILES IDX 5 1 6 2 7 3 8 4 9 5 10 6 4 7 3 8 2 9 1 10
REMARK H PARENT
REMARK Flexibility Score: inf
ROOT
ATOM      1  C   UNL     1       0.459  -0.378   8.988  1.00  0.00     0.000 C 
ENDROOT
BRANCH   1   2
ATOM      2  C   UNL     1       1.174   0.774   8.256  1.00  0.00     0.006 C 
BRANCH   2   3
ATOM      3  C   UNL     1       0.239   1.921   7.834  1.00  0.00     0.053 C 
BRANCH   3   4
ATOM      4  C   UNL     1      -0.276   1.765   6.436  1.00  0.00     0.041 C 
ATOM      5  O   UNL     1      -1.441   2.146   6.141  1.00  0.00    -0.550 OA
ATOM      6  O   UNL     1       0.540   1.229   5.449  1.00  0.00    -0.550 OA
ENDBRANCH   3   4
ENDBRANCH   2   3
ENDBRANCH   1   2
BRANCH   1   7
ATOM      7  C   UNL     1       0.751  -1.754   8.375  1.00  0.00     0.000 C 
BRANCH   7   8
ATOM      8  C   UNL     1      -0.015  -1.944   7.060  1.00  0.00    -0.000 C 
BRANCH   8   9
ATOM      9  C   UNL     1      -1.481  -2.308   7.324  1.00  0.00    -0.003 C 
ATOM     10  C   UNL     1      -2.417  -1.192   6.872  1.00  0.00     0.004 C 
ENDBRANCH   8   9
ENDBRANCH   7   8
ENDBRANCH   1   7
TORSDOF 6
ENDMDL
MODEL 3
REMARK VINA RESULT:    -3.041      1.088      1.646
REMARK INTER + INTRA:          -4.463
REMARK INTER:                  -4.157
REMARK INTRA:                  -0.306
REMARK UNBOUND:                -0.356
REMARK SMILES CCCCCCCC(=O)[O-]
REMARK SMILES IDX 5 1 6 2 7 3 8 4 9 5 10 6 4 7 3 8 2 9 1 10
REMARK H PARENT
REMARK Flexibility Score: inf
ROOT
ATOM      1  C   UNL     1       0.719  -1.498   8.145  1.00  0.00     0.000 C 
ENDROOT
BRANCH   1   2
ATOM      2  C   UNL     1       0.107  -0.088   8.246  1.00  0.00     0.006 C 
BRANCH   2   3
ATOM      3  C   UNL     1      -0.944   0.215   7.164  1.00  0.00     0.053 C 
BRANCH   3   4
ATOM      4  C   UNL     1      -0.560   1.368   6.288  1.00  0.00     0.041 C 
ATOM      5  O   UNL     1       0.461   1.295   5.552  1.00  0.00    -0.550 OA
ATOM      6  O   UNL     1      -1.346   2.512   6.259  1.00  0.00    -0.550 OA
ENDBRANCH   3   4
ENDBRANCH   2   3
ENDBRANCH   1   2
BRANCH   1   7
ATOM      7  C   UNL     1      -0.002  -2.396   7.130  1.00  0.00     0.000 C 
BRANCH   7   8
ATOM      8  C   UNL     1       0.190  -3.878   7.473  1.00  0.00    -0.000 C 
BRANCH   8   9
ATOM      9  C   UNL     1       1.515  -4.106   8.210  1.00  0.00    -0.003 C 
ATOM     10  C   UNL     1       2.305  -5.251   7.585  1.00  0.00     0.004 C 
ENDBRANCH   8   9
ENDBRANCH   7   8
ENDBRANCH   1   7
TORSDOF 6
ENDMDL
MODEL 4
REMARK VINA RESULT:    -2.983      1.160      1.579
REMARK INTER + INTRA:          -4.385
REMARK INTER:                  -3.966
REMARK INTRA:                  -0.419
REMARK UNBOUND:                -0.356
REMARK SMILES CCCCCCCC(=O)[O-]
REMARK SMILES IDX 5 1 6 2 7 3 8 4 9 5 10 6 4 7 3 8 2 9 1 10
REMARK H PARENT
REMARK Flexibility Score: inf
ROOT
ATOM      1  C   UNL     1       0.792  -1.211   8.435  1.00  0.00     0.000 C 
ENDROOT
BRANCH   1   2
ATOM      2  C   UNL     1       0.268  -0.885   7.024  1.00  0.00     0.006 C 
BRANCH   2   3
ATOM      3  C   UNL     1      -0.889   0.129   7.006  1.00  0.00     0.053 C 
BRANCH   3   4
ATOM      4  C   UNL     1      -0.566   1.363   6.221  1.00  0.00     0.041 C 
ATOM      5  O   UNL     1       0.472   1.410   5.506  1.00  0.00    -0.550 OA
ATOM      6  O   UNL     1      -1.426   2.453   6.251  1.00  0.00    -0.550 OA
ENDBRANCH   3   4
ENDBRANCH   2   3
ENDBRANCH   1   2
BRANCH   1   7
ATOM      7  C   UNL     1       1.055  -2.708   8.649  1.00  0.00     0.000 C 
BRANCH   7   8
ATOM      8  C   UNL     1       0.396  -3.545   7.545  1.00  0.00    -0.000 C 
BRANCH   8   9
ATOM      9  C   UNL     1      -0.908  -4.182   8.042  1.00  0.00    -0.003 C 
ATOM     10  C   UNL     1      -2.071  -3.852   7.113  1.00  0.00     0.004 C 
ENDBRANCH   8   9
ENDBRANCH   7   8
ENDBRANCH   1   7
TORSDOF 6
ENDMDL
MODEL 5
REMARK VINA RESULT:    -2.746     13.047     14.317
REMARK INTER + INTRA:          -4.064
REMARK INTER:                  -3.734
REMARK INTRA:                  -0.330
REMARK UNBOUND:                -0.356
REMARK SMILES CCCCCCCC(=O)[O-]
REMARK SMILES IDX 5 1 6 2 7 3 8 4 9 5 10 6 4 7 3 8 2 9 1 10
REMARK H PARENT
REMARK Flexibility Score: inf
ROOT
ATOM      1  C   UNL     1      -7.496  -1.712  -2.970  1.00  0.00     0.000 C 
ENDROOT
BRANCH   1   2
ATOM      2  C   UNL     1      -6.824  -1.824  -4.352  1.00  0.00     0.006 C 
BRANCH   2   3
ATOM      3  C   UNL     1      -5.628  -2.791  -4.388  1.00  0.00     0.053 C 
BRANCH   3   4
ATOM      4  C   UNL     1      -5.778  -3.859  -5.429  1.00  0.00     0.041 C 
ATOM      5  O   UNL     1      -6.910  -4.114  -5.920  1.00  0.00    -0.550 OA
ATOM      6  O   UNL     1      -4.662  -4.551  -5.882  1.00  0.00    -0.550 OA
ENDBRANCH   3   4
ENDBRANCH   2   3
ENDBRANCH   1   2
BRANCH   1   7
ATOM      7  C   UNL     1      -7.351  -0.319  -2.342  1.00  0.00     0.000 C 
BRANCH   7   8
ATOM      8  C   UNL     1      -6.621   0.639  -3.290  1.00  0.00    -0.000 C 
BRANCH   8   9
ATOM      9  C   UNL     1      -7.524   1.812  -3.691  1.00  0.00    -0.003 C 
ATOM     10  C   UNL     1      -7.342   2.170  -5.162  1.00  0.00     0.004 C 
ENDBRANCH   8   9
ENDBRANCH   7   8
ENDBRANCH   1   7
TORSDOF 6
ENDMDL
MODEL 6
REMARK VINA RESULT:    -2.723     12.793     14.025
REMARK INTER + INTRA:          -4.034
REMARK INTER:                  -3.725
REMARK INTRA:                  -0.309
REMARK UNBOUND:                -0.356
REMARK SMILES CCCCCCCC(=O)[O-]
REMARK SMILES IDX 5 1 6 2 7 3 8 4 9 5 10 6 4 7 3 8 2 9 1 10
REMARK H PARENT
REMARK Flexibility Score: inf
ROOT
ATOM      1  C   UNL     1      -6.219  -0.450  -5.052  1.00  0.00     0.000 C 
ENDROOT
BRANCH   1   2
ATOM      2  C   UNL     1      -5.809  -1.828  -4.500  1.00  0.00     0.006 C 
BRANCH   2   3
ATOM      3  C   UNL     1      -6.806  -2.953  -4.826  1.00  0.00     0.053 C 
BRANCH   3   4
ATOM      4  C   UNL     1      -6.174  -4.095  -5.560  1.00  0.00     0.041 C 
ATOM      5  O   UNL     1      -6.891  -4.950  -6.146  1.00  0.00    -0.550 OA
ATOM      6  O   UNL     1      -4.790  -4.199  -5.627  1.00  0.00    -0.550 OA
ENDBRANCH   3   4
ENDBRANCH   2   3
ENDBRANCH   1   2
BRANCH   1   7
ATOM      7  C   UNL     1      -6.977   0.407  -4.028  1.00  0.00     0.000 C 
BRANCH   7   8
ATOM      8  C   UNL     1      -6.671  -0.049  -2.596  1.00  0.00    -0.000 C 
BRANCH   8   9
ATOM      9  C   UNL     1      -7.930  -0.001  -1.722  1.00  0.00    -0.003 C 
ATOM     10  C   UNL     1      -7.866  -1.040  -0.607  1.00  0.00     0.004 C 
ENDBRANCH   8   9
ENDBRANCH   7   8
ENDBRANCH   1   7
TORSDOF 6
ENDMDL
MODEL 7
REMARK VINA RESULT:    -2.677      1.742      2.525
REMARK INTER + INTRA:          -3.971
REMARK INTER:                  -3.296
REMARK INTRA:                  -0.675
REMARK UNBOUND:                -0.356
REMARK SMILES CCCCCCCC(=O)[O-]
REMARK SMILES IDX 5 1 6 2 7 3 8 4 9 5 10 6 4 7 3 8 2 9 1 10
REMARK H PARENT
REMARK Flexibility Score: inf
ROOT
ATOM      1  C   UNL     1      -2.712   0.182   8.148  1.00  0.00     0.000 C 
ENDROOT
BRANCH   1   2
ATOM      2  C   UNL     1      -2.478   0.743   6.733  1.00  0.00     0.006 C 
BRANCH   2   3
ATOM      3  C   UNL     1      -1.689   2.063   6.707  1.00  0.00     0.053 C 
BRANCH   3   4
ATOM      4  C   UNL     1      -0.206   1.852   6.687  1.00  0.00     0.041 C 
ATOM      5  O   UNL     1       0.490   2.127   7.702  1.00  0.00    -0.550 OA
ATOM      6  O   UNL     1       0.407   1.321   5.560  1.00  0.00    -0.550 OA
ENDBRANCH   3   4
ENDBRANCH   2   3
ENDBRANCH   1   2
BRANCH   1   7
ATOM      7  C   UNL     1      -1.922  -1.105   8.424  1.00  0.00     0.000 C 
BRANCH   7   8
ATOM      8  C   UNL     1      -1.467  -1.762   7.116  1.00  0.00    -0.000 C 
BRANCH   8   9
ATOM      9  C   UNL     1       0.051  -1.980   7.108  1.00  0.00    -0.003 C 
ATOM     10  C   UNL     1       0.702  -1.372   8.347  1.00  0.00     0.004 C 
ENDBRANCH   8   9
ENDBRANCH   7   8
ENDBRANCH   1   7
TORSDOF 6
ENDMDL
MODEL 8
REMARK VINA RESULT:    -2.666      1.575      1.882
REMARK INTER + INTRA:          -3.957
REMARK INTER:                  -3.646
REMARK INTRA:                  -0.310
REMARK UNBOUND:                -0.356
REMARK SMILES CCCCCCCC(=O)[O-]
REMARK SMILES IDX 5 1 6 2 7 3 8 4 9 5 10 6 4 7 3 8 2 9 1 10
REMARK H PARENT
REMARK Flexibility Score: inf
ROOT
ATOM      1  C   UNL     1       1.128   0.393   7.017  1.00  0.00     0.000 C 
ENDROOT
BRANCH   1   2
ATOM      2  C   UNL     1       0.037   1.151   6.237  1.00  0.00     0.006 C 
BRANCH   2   3
ATOM      3  C   UNL     1      -0.739   2.175   7.083  1.00  0.00     0.053 C 
BRANCH   3   4
ATOM      4  C   UNL     1      -2.174   2.300   6.670  1.00  0.00     0.041 C 
ATOM      5  O   UNL     1      -3.003   1.398   6.967  1.00  0.00    -0.550 OA
ATOM      6  O   UNL     1      -2.605   3.429   5.985  1.00  0.00    -0.550 OA
ENDBRANCH   3   4
ENDBRANCH   2   3
ENDBRANCH   1   2
BRANCH   1   7
ATOM      7  C   UNL     1       0.600  -0.864   7.721  1.00  0.00     0.000 C 
BRANCH   7   8
ATOM      8  C   UNL     1      -0.562  -1.487   6.937  1.00  0.00    -0.000 C 
BRANCH   8   9
ATOM      9  C   UNL     1      -0.645  -2.998   7.185  1.00  0.00    -0.003 C 
ATOM     10  C   UNL     1       0.695  -3.555   7.654  1.00  0.00     0.004 C 
ENDBRANCH   8   9
ENDBRANCH   7   8
ENDBRANCH   1   7
TORSDOF 6
ENDMDL
MODEL 9
REMARK VINA RESULT:    -2.647      2.688      4.561
REMARK INTER + INTRA:          -3.931
REMARK INTER:                  -3.575
REMARK INTRA:                  -0.357
REMARK UNBOUND:                -0.356
REMARK SMILES CCCCCCCC(=O)[O-]
REMARK SMILES IDX 5 1 6 2 7 3 8 4 9 5 10 6 4 7 3 8 2 9 1 10
REMARK H PARENT
REMARK Flexibility Score: inf
ROOT
ATOM      1  C   UNL     1      -1.369   2.156   8.588  1.00  0.00     0.000 C 
ENDROOT
BRANCH   1   2
ATOM      2  C   UNL     1       0.107   2.518   8.331  1.00  0.00     0.006 C 
BRANCH   2   3
ATOM      3  C   UNL     1       0.977   1.325   7.900  1.00  0.00     0.053 C 
BRANCH   3   4
ATOM      4  C   UNL     1       0.502   0.692   6.627  1.00  0.00     0.041 C 
ATOM      5  O   UNL     1       0.194  -0.530   6.601  1.00  0.00    -0.550 OA
ATOM      6  O   UNL     1       0.369   1.457   5.476  1.00  0.00    -0.550 OA
ENDBRANCH   3   4
ENDBRANCH   2   3
ENDBRANCH   1   2
BRANCH   1   7
ATOM      7  C   UNL     1      -2.260   3.385   8.812  1.00  0.00     0.000 C 
BRANCH   7   8
ATOM      8  C   UNL     1      -3.402   3.430   7.789  1.00  0.00    -0.000 C 
BRANCH   8   9
ATOM      9  C   UNL     1      -2.891   3.114   6.379  1.00  0.00    -0.003 C 
ATOM     10  C   UNL     1      -3.727   2.020   5.722  1.00  0.00     0.004 C 
ENDBRANCH   8   9
ENDBRANCH   7   8
ENDBRANCH   1   7
TORSDOF 6
ENDMDL
