MODEL 1
REMARK VINA RESULT:    -5.502      0.000      0.000
REMARK INTER + INTRA:          -6.783
REMARK INTER:                  -6.467
REMARK INTRA:                  -0.316
REMARK UNBOUND:                -0.316
REMARK SMILES O=c1cc(-c2ccc(O)c(O)c2)oc2cc(O)cc(O)c12
REMARK SMILES IDX 4 1 3 2 2 3 1 4 21 5 19 6 18 7 16 8 15 9 14 10 13 11 5 12
REMARK SMILES IDX 6 13 7 14 8 15 12 16 10 17 9 18 11 20 20 22 17 24
REMARK H PARENT 9 19 11 21 20 23 17 25
REMARK Flexibility Score: inf
ROOT
ATOM      1  C   UNL     1     -17.900  78.357  -2.767  1.00  0.00     0.138 A 
ATOM      2  C   UNL     1     -19.108  78.384  -2.058  1.00  0.00     0.100 A 
ATOM      3  C   UNL     1     -19.266  79.278  -0.998  1.00  0.00     0.197 A 
ATOM      4  O   UNL     1     -20.341  79.239  -0.345  1.00  0.00    -0.289 OA
ATOM      5  C   UNL     1     -18.220  80.174  -0.670  1.00  0.00     0.107 A 
ATOM      6  C   UNL     1     -18.280  81.152   0.368  1.00  0.00     0.134 A 
ATOM      7  C   UNL     1     -17.145  81.917   0.664  1.00  0.00     0.093 A 
ATOM      8  C   UNL     1     -15.972  81.781  -0.077  1.00  0.00     0.123 A 
ATOM      9  C   UNL     1     -15.917  80.863  -1.127  1.00  0.00     0.094 A 
ATOM     10  C   UNL     1     -17.022  80.061  -1.424  1.00  0.00     0.146 A 
ATOM     11  O   UNL     1     -16.922  79.187  -2.421  1.00  0.00    -0.456 OA
ENDROOT
BRANCH   1  12
ATOM     12  C   UNL     1     -17.679  77.430  -3.906  1.00  0.00     0.021 A 
ATOM     13  C   UNL     1     -18.537  76.344  -4.153  1.00  0.00     0.016 A 
ATOM     14  C   UNL     1     -18.297  75.483  -5.226  1.00  0.00     0.051 A 
ATOM     15  C   UNL     1     -17.199  75.678  -6.069  1.00  0.00     0.157 A 
ATOM     16  C   UNL     1     -16.566  77.617  -4.745  1.00  0.00     0.062 A 
ATOM     17  C   UNL     1     -16.319  76.758  -5.822  1.00  0.00     0.158 A 
BRANCH  15  18
ATOM     18  O   UNL     1     -17.019  74.782  -7.125  1.00  0.00    -0.504 OA
ATOM     19  H   UNL     1     -17.680  74.059  -7.370  1.00  0.00     0.293 HD
ENDBRANCH  15  18
BRANCH  17  20
ATOM     20  O   UNL     1     -15.199  77.014  -6.616  1.00  0.00    -0.504 OA
ATOM     21  H   UNL     1     -15.176  77.700  -7.357  1.00  0.00     0.293 HD
ENDBRANCH  17  20
ENDBRANCH   1  12
BRANCH   6  22
ATOM     22  O   UNL     1     -19.427  81.427   1.119  1.00  0.00    -0.507 OA
ATOM     23  H   UNL     1     -20.364  81.475   0.751  1.00  0.00     0.293 HD
ENDBRANCH   6  22
BRANCH   8  24
ATOM     24  O   UNL     1     -14.866  82.569   0.235  1.00  0.00    -0.508 OA
ATOM     25  H   UNL     1     -13.963  82.409  -0.196  1.00  0.00     0.293 HD
ENDBRANCH   8  24
TORSDOF 5
ENDMDL
MODEL 2
REMARK VINA RESULT:    -5.386      2.832      7.578
REMARK INTER + INTRA:          -6.647
REMARK INTER:                  -6.329
REMARK INTRA:                  -0.318
REMARK UNBOUND:                -0.316
REMARK SMILES O=c1cc(-c2ccc(O)c(O)c2)oc2cc(O)cc(O)c12
REMARK SMILES IDX 4 1 3 2 2 3 1 4 21 5 19 6 18 7 16 8 15 9 14 10 13 11 5 12
REMARK SMILES IDX 6 13 7 14 8 15 12 16 10 17 9 18 11 20 20 22 17 24
REMARK H PARENT 9 19 11 21 20 23 17 25
REMARK Flexibility Score: inf
ROOT
ATOM      1  C   UNL     1     -20.202  80.625  -1.348  1.00  0.00     0.138 A 
ATOM      2  C   UNL     1     -20.767  81.103  -2.538  1.00  0.00     0.100 A 
ATOM      3  C   UNL     1     -20.648  80.354  -3.709  1.00  0.00     0.197 A 
ATOM      4  O   UNL     1     -21.116  80.837  -4.772  1.00  0.00    -0.289 OA
ATOM      5  C   UNL     1     -19.989  79.101  -3.679  1.00  0.00     0.107 A 
ATOM      6  C   UNL     1     -19.836  78.235  -4.803  1.00  0.00     0.134 A 
ATOM      7  C   UNL     1     -19.079  77.064  -4.675  1.00  0.00     0.093 A 
ATOM      8  C   UNL     1     -18.518  76.699  -3.451  1.00  0.00     0.123 A 
ATOM      9  C   UNL     1     -18.703  77.514  -2.333  1.00  0.00     0.094 A 
ATOM     10  C   UNL     1     -19.424  78.705  -2.438  1.00  0.00     0.146 A 
ATOM     11  O   UNL     1     -19.562  79.461  -1.353  1.00  0.00    -0.456 OA
ENDROOT
BRANCH   1  12
ATOM     12  C   UNL     1     -20.303  81.379  -0.072  1.00  0.00     0.021 A 
ATOM     13  C   UNL     1     -21.039  82.573   0.025  1.00  0.00     0.016 A 
ATOM     14  C   UNL     1     -21.107  83.265   1.236  1.00  0.00     0.051 A 
ATOM     15  C   UNL     1     -20.440  82.791   2.370  1.00  0.00     0.157 A 
ATOM     16  C   UNL     1     -19.620  80.911   1.064  1.00  0.00     0.062 A 
ATOM     17  C   UNL     1     -19.683  81.599   2.281  1.00  0.00     0.158 A 
BRANCH  15  18
ATOM     18  O   UNL     1     -20.551  83.530   3.549  1.00  0.00    -0.504 OA
ATOM     19  H   UNL     1     -19.767  83.951   4.027  1.00  0.00     0.293 HD
ENDBRANCH  15  18
BRANCH  17  20
ATOM     20  O   UNL     1     -18.986  81.067   3.367  1.00  0.00    -0.504 OA
ATOM     21  H   UNL     1     -19.325  81.082   4.319  1.00  0.00     0.293 HD
ENDBRANCH  17  20
ENDBRANCH   1  12
BRANCH   6  22
ATOM     22  O   UNL     1     -20.421  78.461  -6.053  1.00  0.00    -0.507 OA
ATOM     23  H   UNL     1     -21.280  78.046  -6.375  1.00  0.00     0.293 HD
ENDBRANCH   6  22
BRANCH   8  24
ATOM     24  O   UNL     1     -17.783  75.519  -3.356  1.00  0.00    -0.508 OA
ATOM     25  H   UNL     1     -16.875  75.424  -3.794  1.00  0.00     0.293 HD
ENDBRANCH   8  24
TORSDOF 5
ENDMDL
MODEL 3
REMARK VINA RESULT:    -5.351      2.271      7.215
REMARK INTER + INTRA:          -6.605
REMARK INTER:                  -6.338
REMARK INTRA:                  -0.267
REMARK UNBOUND:                -0.316
REMARK SMILES O=c1cc(-c2ccc(O)c(O)c2)oc2cc(O)cc(O)c12
REMARK SMILES IDX 4 1 3 2 2 3 1 4 21 5 19 6 18 7 16 8 15 9 14 10 13 11 5 12
REMARK SMILES IDX 6 13 7 14 8 15 12 16 10 17 9 18 11 20 20 22 17 24
REMARK H PARENT 9 19 11 21 20 23 17 25
REMARK Flexibility Score: inf
ROOT
ATOM      1  C   UNL     1     -18.848  79.186  -1.618  1.00  0.00     0.138 A 
ATOM      2  C   UNL     1     -18.161  77.971  -1.495  1.00  0.00     0.100 A 
ATOM      3  C   UNL     1     -18.174  77.061  -2.553  1.00  0.00     0.197 A 
ATOM      4  O   UNL     1     -17.596  75.955  -2.391  1.00  0.00    -0.289 OA
ATOM      5  C   UNL     1     -18.849  77.386  -3.754  1.00  0.00     0.107 A 
ATOM      6  C   UNL     1     -18.902  76.552  -4.911  1.00  0.00     0.134 A 
ATOM      7  C   UNL     1     -19.684  76.938  -6.007  1.00  0.00     0.093 A 
ATOM      8  C   UNL     1     -20.368  78.154  -6.011  1.00  0.00     0.123 A 
ATOM      9  C   UNL     1     -20.283  79.001  -4.905  1.00  0.00     0.094 A 
ATOM     10  C   UNL     1     -19.539  78.627  -3.783  1.00  0.00     0.146 A 
ATOM     11  O   UNL     1     -19.500  79.455  -2.744  1.00  0.00    -0.456 OA
ENDROOT
BRANCH   1  12
ATOM     12  C   UNL     1     -18.864  80.192  -0.525  1.00  0.00     0.021 A 
ATOM     13  C   UNL     1     -20.066  80.661   0.031  1.00  0.00     0.016 A 
ATOM     14  C   UNL     1     -20.050  81.615   1.050  1.00  0.00     0.051 A 
ATOM     15  C   UNL     1     -18.842  82.128   1.531  1.00  0.00     0.157 A 
ATOM     16  C   UNL     1     -17.649  80.719  -0.053  1.00  0.00     0.062 A 
ATOM     17  C   UNL     1     -17.625  81.676   0.969  1.00  0.00     0.158 A 
BRANCH  15  18
ATOM     18  O   UNL     1     -18.896  83.078   2.553  1.00  0.00    -0.504 OA
ATOM     19  H   UNL     1     -19.419  83.940   2.495  1.00  0.00     0.293 HD
ENDBRANCH  15  18
BRANCH  17  20
ATOM     20  O   UNL     1     -16.379  82.145   1.392  1.00  0.00    -0.504 OA
ATOM     21  H   UNL     1     -16.193  83.106   1.644  1.00  0.00     0.293 HD
ENDBRANCH  17  20
ENDBRANCH   1  12
BRANCH   6  22
ATOM     22  O   UNL     1     -18.193  75.354  -5.046  1.00  0.00    -0.507 OA
ATOM     23  H   UNL     1     -17.240  75.277  -5.365  1.00  0.00     0.293 HD
ENDBRANCH   6  22
BRANCH   8  24
ATOM     24  O   UNL     1     -21.124  78.513  -7.124  1.00  0.00    -0.508 OA
ATOM     25  H   UNL     1     -22.069  78.174  -7.254  1.00  0.00     0.293 HD
ENDBRANCH   8  24
TORSDOF 5
ENDMDL
MODEL 4
REMARK VINA RESULT:    -5.273      2.001      6.880
REMARK INTER + INTRA:          -6.513
REMARK INTER:                  -6.231
REMARK INTRA:                  -0.283
REMARK UNBOUND:                -0.316
REMARK SMILES O=c1cc(-c2ccc(O)c(O)c2)oc2cc(O)cc(O)c12
REMARK SMILES IDX 4 1 3 2 2 3 1 4 21 5 19 6 18 7 16 8 15 9 14 10 13 11 5 12
REMARK SMILES IDX 6 13 7 14 8 15 12 16 10 17 9 18 11 20 20 22 17 24
REMARK H PARENT 9 19 11 21 20 23 17 25
REMARK Flexibility Score: inf
ROOT
ATOM      1  C   UNL     1     -18.182  79.385  -3.011  1.00  0.00     0.138 A 
ATOM      2  C   UNL     1     -19.504  79.279  -3.461  1.00  0.00     0.100 A 
ATOM      3  C   UNL     1     -19.797  78.470  -4.560  1.00  0.00     0.197 A 
ATOM      4  O   UNL     1     -20.985  78.440  -4.974  1.00  0.00    -0.289 OA
ATOM      5  C   UNL     1     -18.763  77.736  -5.189  1.00  0.00     0.107 A 
ATOM      6  C   UNL     1     -18.948  76.853  -6.296  1.00  0.00     0.134 A 
ATOM      7  C   UNL     1     -17.833  76.257  -6.897  1.00  0.00     0.093 A 
ATOM      8  C   UNL     1     -16.547  76.464  -6.398  1.00  0.00     0.123 A 
ATOM      9  C   UNL     1     -16.360  77.285  -5.285  1.00  0.00     0.094 A 
ATOM     10  C   UNL     1     -17.449  77.922  -4.685  1.00  0.00     0.146 A 
ATOM     11  O   UNL     1     -17.224  78.710  -3.638  1.00  0.00    -0.456 OA
ENDROOT
BRANCH   1  12
ATOM     12  C   UNL     1     -17.815  80.228  -1.845  1.00  0.00     0.021 A 
ATOM     13  C   UNL     1     -18.116  81.600  -1.799  1.00  0.00     0.016 A 
ATOM     14  C   UNL     1     -17.749  82.368  -0.692  1.00  0.00     0.051 A 
ATOM     15  C   UNL     1     -17.069  81.793   0.385  1.00  0.00     0.157 A 
ATOM     16  C   UNL     1     -17.118  79.653  -0.768  1.00  0.00     0.062 A 
ATOM     17  C   UNL     1     -16.747  80.416   0.345  1.00  0.00     0.158 A 
BRANCH  15  18
ATOM     18  O   UNL     1     -16.734  82.617   1.461  1.00  0.00    -0.504 OA
ATOM     19  H   UNL     1     -16.493  83.594   1.370  1.00  0.00     0.293 HD
ENDBRANCH  15  18
BRANCH  17  20
ATOM     20  O   UNL     1     -16.065  79.772   1.379  1.00  0.00    -0.504 OA
ATOM     21  H   UNL     1     -15.937  78.771   1.435  1.00  0.00     0.293 HD
ENDBRANCH  17  20
ENDBRANCH   1  12
BRANCH   6  22
ATOM     22  O   UNL     1     -20.196  76.512  -6.826  1.00  0.00    -0.507 OA
ATOM     23  H   UNL     1     -20.689  77.035  -7.532  1.00  0.00     0.293 HD
ENDBRANCH   6  22
BRANCH   8  24
ATOM     24  O   UNL     1     -15.463  75.842  -7.012  1.00  0.00    -0.508 OA
ATOM     25  H   UNL     1     -14.517  75.969  -6.672  1.00  0.00     0.293 HD
ENDBRANCH   8  24
TORSDOF 5
ENDMDL
MODEL 5
REMARK VINA RESULT:    -5.244     11.388     12.774
REMARK INTER + INTRA:          -6.480
REMARK INTER:                  -6.190
REMARK INTRA:                  -0.290
REMARK UNBOUND:                -0.316
REMARK SMILES O=c1cc(-c2ccc(O)c(O)c2)oc2cc(O)cc(O)c12
REMARK SMILES IDX 4 1 3 2 2 3 1 4 21 5 19 6 18 7 16 8 15 9 14 10 13 11 5 12
REMARK SMILES IDX 6 13 7 14 8 15 12 16 10 17 9 18 11 20 20 22 17 24
REMARK H PARENT 9 19 11 21 20 23 17 25
REMARK Flexibility Score: inf
ROOT
ATOM      1  C   UNL     1      -5.801  79.025  -4.648  1.00  0.00     0.138 A 
ATOM      2  C   UNL     1      -6.885  79.524  -5.381  1.00  0.00     0.100 A 
ATOM      3  C   UNL     1      -6.956  80.888  -5.666  1.00  0.00     0.197 A 
ATOM      4  O   UNL     1      -7.970  81.314  -6.277  1.00  0.00    -0.289 OA
ATOM      5  C   UNL     1      -5.916  81.751  -5.245  1.00  0.00     0.107 A 
ATOM      6  C   UNL     1      -5.864  83.153  -5.507  1.00  0.00     0.134 A 
ATOM      7  C   UNL     1      -4.832  83.922  -4.954  1.00  0.00     0.093 A 
ATOM      8  C   UNL     1      -3.820  83.332  -4.198  1.00  0.00     0.123 A 
ATOM      9  C   UNL     1      -3.833  81.954  -3.977  1.00  0.00     0.094 A 
ATOM     10  C   UNL     1      -4.868  81.166  -4.486  1.00  0.00     0.146 A 
ATOM     11  O   UNL     1      -4.852  79.860  -4.237  1.00  0.00    -0.456 OA
ENDROOT
BRANCH   1  12
ATOM     12  C   UNL     1      -5.672  77.582  -4.320  1.00  0.00     0.021 A 
ATOM     13  C   UNL     1      -6.735  76.854  -3.759  1.00  0.00     0.016 A 
ATOM     14  C   UNL     1      -6.582  75.500  -3.452  1.00  0.00     0.051 A 
ATOM     15  C   UNL     1      -5.369  74.847  -3.687  1.00  0.00     0.157 A 
ATOM     16  C   UNL     1      -4.448  76.928  -4.542  1.00  0.00     0.062 A 
ATOM     17  C   UNL     1      -4.286  75.572  -4.237  1.00  0.00     0.158 A 
BRANCH  15  18
ATOM     18  O   UNL     1      -5.282  73.492  -3.359  1.00  0.00    -0.504 OA
ATOM     19  H   UNL     1      -5.847  72.771  -3.786  1.00  0.00     0.293 HD
ENDBRANCH  15  18
BRANCH  17  20
ATOM     20  O   UNL     1      -3.043  74.990  -4.495  1.00  0.00    -0.504 OA
ATOM     21  H   UNL     1      -2.633  74.258  -3.931  1.00  0.00     0.293 HD
ENDBRANCH  17  20
ENDBRANCH   1  12
BRANCH   6  22
ATOM     22  O   UNL     1      -6.779  83.833  -6.317  1.00  0.00    -0.507 OA
ATOM     23  H   UNL     1      -6.575  84.662  -6.853  1.00  0.00     0.293 HD
ENDBRANCH   6  22
BRANCH   8  24
ATOM     24  O   UNL     1      -2.800  84.125  -3.676  1.00  0.00    -0.508 OA
ATOM     25  H   UNL     1      -1.829  83.965  -3.916  1.00  0.00     0.293 HD
ENDBRANCH   8  24
TORSDOF 5
ENDMDL
MODEL 6
REMARK VINA RESULT:    -5.241     11.952     13.632
REMARK INTER + INTRA:          -6.476
REMARK INTER:                  -6.208
REMARK INTRA:                  -0.268
REMARK UNBOUND:                -0.316
REMARK SMILES O=c1cc(-c2ccc(O)c(O)c2)oc2cc(O)cc(O)c12
REMARK SMILES IDX 4 1 3 2 2 3 1 4 21 5 19 6 18 7 16 8 15 9 14 10 13 11 5 12
REMARK SMILES IDX 6 13 7 14 8 15 12 16 10 17 9 18 11 20 20 22 17 24
REMARK H PARENT 9 19 11 21 20 23 17 25
REMARK Flexibility Score: inf
ROOT
ATOM      1  C   UNL     1      -4.161  79.650  -3.749  1.00  0.00     0.138 A 
ATOM      2  C   UNL     1      -2.765  79.713  -3.649  1.00  0.00     0.100 A 
ATOM      3  C   UNL     1      -2.174  80.647  -2.798  1.00  0.00     0.197 A 
ATOM      4  O   UNL     1      -0.918  80.716  -2.774  1.00  0.00    -0.289 OA
ATOM      5  C   UNL     1      -2.989  81.500  -2.014  1.00  0.00     0.107 A 
ATOM      6  C   UNL     1      -2.499  82.468  -1.087  1.00  0.00     0.134 A 
ATOM      7  C   UNL     1      -3.401  83.323  -0.441  1.00  0.00     0.093 A 
ATOM      8  C   UNL     1      -4.776  83.208  -0.644  1.00  0.00     0.123 A 
ATOM      9  C   UNL     1      -5.269  82.231  -1.510  1.00  0.00     0.094 A 
ATOM     10  C   UNL     1      -4.393  81.387  -2.196  1.00  0.00     0.146 A 
ATOM     11  O   UNL     1      -4.903  80.482  -3.026  1.00  0.00    -0.456 OA
ENDROOT
BRANCH   1  12
ATOM     12  C   UNL     1      -4.842  78.672  -4.635  1.00  0.00     0.021 A 
ATOM     13  C   UNL     1      -5.757  79.080  -5.621  1.00  0.00     0.016 A 
ATOM     14  C   UNL     1      -6.389  78.137  -6.433  1.00  0.00     0.051 A 
ATOM     15  C   UNL     1      -6.133  76.772  -6.277  1.00  0.00     0.157 A 
ATOM     16  C   UNL     1      -4.595  77.299  -4.469  1.00  0.00     0.062 A 
ATOM     17  C   UNL     1      -5.225  76.347  -5.279  1.00  0.00     0.158 A 
BRANCH  15  18
ATOM     18  O   UNL     1      -6.797  75.881  -7.124  1.00  0.00    -0.504 OA
ATOM     19  H   UNL     1      -7.671  76.088  -7.586  1.00  0.00     0.293 HD
ENDBRANCH  15  18
BRANCH  17  20
ATOM     20  O   UNL     1      -4.922  75.001  -5.060  1.00  0.00    -0.504 OA
ATOM     21  H   UNL     1      -4.904  74.300  -5.787  1.00  0.00     0.293 HD
ENDBRANCH  17  20
ENDBRANCH   1  12
BRANCH   6  22
ATOM     22  O   UNL     1      -1.151  82.617  -0.748  1.00  0.00    -0.507 OA
ATOM     23  H   UNL     1      -0.748  83.432  -0.314  1.00  0.00     0.293 HD
ENDBRANCH   6  22
BRANCH   8  24
ATOM     24  O   UNL     1      -5.644  84.065   0.028  1.00  0.00    -0.508 OA
ATOM     25  H   UNL     1      -6.228  84.726  -0.472  1.00  0.00     0.293 HD
ENDBRANCH   8  24
TORSDOF 5
ENDMDL
MODEL 7
REMARK VINA RESULT:    -5.188      1.689      3.452
REMARK INTER + INTRA:          -6.414
REMARK INTER:                  -6.137
REMARK INTRA:                  -0.277
REMARK UNBOUND:                -0.316
REMARK SMILES O=c1cc(-c2ccc(O)c(O)c2)oc2cc(O)cc(O)c12
REMARK SMILES IDX 4 1 3 2 2 3 1 4 21 5 19 6 18 7 16 8 15 9 14 10 13 11 5 12
REMARK SMILES IDX 6 13 7 14 8 15 12 16 10 17 9 18 11 20 20 22 17 24
REMARK H PARENT 9 19 11 21 20 23 17 25
REMARK Flexibility Score: inf
ROOT
ATOM      1  C   UNL     1     -17.681  79.679  -1.034  1.00  0.00     0.138 A 
ATOM      2  C   UNL     1     -16.472  80.376  -0.903  1.00  0.00     0.100 A 
ATOM      3  C   UNL     1     -16.400  81.478  -0.049  1.00  0.00     0.197 A 
ATOM      4  O   UNL     1     -15.317  82.116   0.004  1.00  0.00    -0.289 OA
ATOM      5  C   UNL     1     -17.535  81.861   0.705  1.00  0.00     0.107 A 
ATOM      6  C   UNL     1     -17.569  82.946   1.632  1.00  0.00     0.134 A 
ATOM      7  C   UNL     1     -18.779  83.291   2.247  1.00  0.00     0.093 A 
ATOM      8  C   UNL     1     -19.942  82.556   2.013  1.00  0.00     0.123 A 
ATOM      9  C   UNL     1     -19.908  81.463   1.147  1.00  0.00     0.094 A 
ATOM     10  C   UNL     1     -18.725  81.115   0.492  1.00  0.00     0.146 A 
ATOM     11  O   UNL     1     -18.741  80.077  -0.339  1.00  0.00    -0.456 OA
ENDROOT
BRANCH   1  12
ATOM     12  C   UNL     1     -17.813  78.498  -1.924  1.00  0.00     0.021 A 
ATOM     13  C   UNL     1     -18.483  77.333  -1.513  1.00  0.00     0.016 A 
ATOM     14  C   UNL     1     -18.583  76.235  -2.369  1.00  0.00     0.051 A 
ATOM     15  C   UNL     1     -18.013  76.268  -3.645  1.00  0.00     0.157 A 
ATOM     16  C   UNL     1     -17.228  78.526  -3.202  1.00  0.00     0.062 A 
ATOM     17  C   UNL     1     -17.324  77.430  -4.066  1.00  0.00     0.158 A 
BRANCH  15  18
ATOM     18  O   UNL     1     -18.151  75.137  -4.452  1.00  0.00    -0.504 OA
ATOM     19  H   UNL     1     -18.829  74.406  -4.288  1.00  0.00     0.293 HD
ENDBRANCH  15  18
BRANCH  17  20
ATOM     20  O   UNL     1     -16.725  77.536  -5.323  1.00  0.00    -0.504 OA
ATOM     21  H   UNL     1     -17.177  77.939  -6.133  1.00  0.00     0.293 HD
ENDBRANCH  17  20
ENDBRANCH   1  12
BRANCH   6  22
ATOM     22  O   UNL     1     -16.449  83.697   2.001  1.00  0.00    -0.507 OA
ATOM     23  H   UNL     1     -15.491  83.410   1.876  1.00  0.00     0.293 HD
ENDBRANCH   6  22
BRANCH   8  24
ATOM     24  O   UNL     1     -21.124  82.919   2.654  1.00  0.00    -0.508 OA
ATOM     25  H   UNL     1     -21.128  83.567   3.433  1.00  0.00     0.293 HD
ENDBRANCH   8  24
TORSDOF 5
ENDMDL
MODEL 8
REMARK VINA RESULT:    -5.115      1.937      7.413
REMARK INTER + INTRA:          -6.328
REMARK INTER:                  -6.059
REMARK INTRA:                  -0.269
REMARK UNBOUND:                -0.316
REMARK SMILES O=c1cc(-c2ccc(O)c(O)c2)oc2cc(O)cc(O)c12
REMARK SMILES IDX 4 1 3 2 2 3 1 4 21 5 19 6 18 7 16 8 15 9 14 10 13 11 5 12
REMARK SMILES IDX 6 13 7 14 8 15 12 16 10 17 9 18 11 20 20 22 17 24
REMARK H PARENT 9 19 11 21 20 23 17 25
REMARK Flexibility Score: inf
ROOT
ATOM      1  C   UNL     1     -17.866  80.356  -0.940  1.00  0.00     0.138 A 
ATOM      2  C   UNL     1     -16.971  80.980  -1.819  1.00  0.00     0.100 A 
ATOM      3  C   UNL     1     -16.529  80.299  -2.954  1.00  0.00     0.197 A 
ATOM      4  O   UNL     1     -15.683  80.865  -3.693  1.00  0.00    -0.289 OA
ATOM      5  C   UNL     1     -17.015  78.998  -3.229  1.00  0.00     0.107 A 
ATOM      6  C   UNL     1     -16.662  78.221  -4.372  1.00  0.00     0.134 A 
ATOM      7  C   UNL     1     -17.131  76.906  -4.486  1.00  0.00     0.093 A 
ATOM      8  C   UNL     1     -17.986  76.361  -3.529  1.00  0.00     0.123 A 
ATOM      9  C   UNL     1     -18.379  77.129  -2.432  1.00  0.00     0.094 A 
ATOM     10  C   UNL     1     -17.900  78.431  -2.273  1.00  0.00     0.146 A 
ATOM     11  O   UNL     1     -18.284  79.122  -1.204  1.00  0.00    -0.456 OA
ENDROOT
BRANCH   1  12
ATOM     12  C   UNL     1     -18.371  81.036   0.280  1.00  0.00     0.021 A 
ATOM     13  C   UNL     1     -19.747  81.191   0.523  1.00  0.00     0.016 A 
ATOM     14  C   UNL     1     -20.192  81.844   1.675  1.00  0.00     0.051 A 
ATOM     15  C   UNL     1     -19.282  82.361   2.601  1.00  0.00     0.157 A 
ATOM     16  C   UNL     1     -17.456  81.569   1.204  1.00  0.00     0.062 A 
ATOM     17  C   UNL     1     -17.894  82.224   2.360  1.00  0.00     0.158 A 
BRANCH  15  18
ATOM     18  O   UNL     1     -19.793  83.000   3.732  1.00  0.00    -0.504 OA
ATOM     19  H   UNL     1     -20.180  82.515   4.529  1.00  0.00     0.293 HD
ENDBRANCH  15  18
BRANCH  17  20
ATOM     20  O   UNL     1     -16.926  82.719   3.235  1.00  0.00    -0.504 OA
ATOM     21  H   UNL     1     -16.474  82.166   3.950  1.00  0.00     0.293 HD
ENDBRANCH  17  20
ENDBRANCH   1  12
BRANCH   6  22
ATOM     22  O   UNL     1     -15.878  78.694  -5.430  1.00  0.00    -0.507 OA
ATOM     23  H   UNL     1     -14.991  78.309  -5.712  1.00  0.00     0.293 HD
ENDBRANCH   6  22
BRANCH   8  24
ATOM     24  O   UNL     1     -18.446  75.055  -3.682  1.00  0.00    -0.508 OA
ATOM     25  H   UNL     1     -18.074  74.443  -4.399  1.00  0.00     0.293 HD
ENDBRANCH   8  24
TORSDOF 5
ENDMDL
MODEL 9
REMARK VINA RESULT:    -5.031      2.311      7.220
REMARK INTER + INTRA:          -6.230
REMARK INTER:                  -5.955
REMARK INTRA:                  -0.275
REMARK UNBOUND:                -0.316
REMARK SMILES O=c1cc(-c2ccc(O)c(O)c2)oc2cc(O)cc(O)c12
REMARK SMILES IDX 4 1 3 2 2 3 1 4 21 5 19 6 18 7 16 8 15 9 14 10 13 11 5 12
REMARK SMILES IDX 6 13 7 14 8 15 12 16 10 17 9 18 11 20 20 22 17 24
REMARK H PARENT 9 19 11 21 20 23 17 25
REMARK Flexibility Score: inf
ROOT
ATOM      1  C   UNL     1     -18.874  80.128  -1.682  1.00  0.00     0.138 A 
ATOM      2  C   UNL     1     -19.796  80.780  -2.511  1.00  0.00     0.100 A 
ATOM      3  C   UNL     1     -20.220  80.164  -3.690  1.00  0.00     0.197 A 
ATOM      4  O   UNL     1     -21.004  80.799  -4.441  1.00  0.00    -0.289 OA
ATOM      5  C   UNL     1     -19.745  78.872  -4.020  1.00  0.00     0.107 A 
ATOM      6  C   UNL     1     -20.133  78.132  -5.178  1.00  0.00     0.134 A 
ATOM      7  C   UNL     1     -19.520  76.903  -5.450  1.00  0.00     0.093 A 
ATOM      8  C   UNL     1     -18.576  76.360  -4.578  1.00  0.00     0.123 A 
ATOM      9  C   UNL     1     -18.225  77.051  -3.418  1.00  0.00     0.094 A 
ATOM     10  C   UNL     1     -18.794  78.296  -3.136  1.00  0.00     0.146 A 
ATOM     11  O   UNL     1     -18.418  78.929  -2.029  1.00  0.00    -0.456 OA
ENDROOT
BRANCH   1  12
ATOM     12  C   UNL     1     -18.391  80.735  -0.415  1.00  0.00     0.021 A 
ATOM     13  C   UNL     1     -17.029  80.741  -0.069  1.00  0.00     0.016 A 
ATOM     14  C   UNL     1     -16.607  81.310   1.134  1.00  0.00     0.051 A 
ATOM     15  C   UNL     1     -17.528  81.876   2.020  1.00  0.00     0.157 A 
ATOM     16  C   UNL     1     -19.319  81.290   0.483  1.00  0.00     0.062 A 
ATOM     17  C   UNL     1     -18.904  81.863   1.691  1.00  0.00     0.158 A 
BRANCH  15  18
ATOM     18  O   UNL     1     -17.039  82.430   3.205  1.00  0.00    -0.504 OA
ATOM     19  H   UNL     1     -17.338  82.145   4.126  1.00  0.00     0.293 HD
ENDBRANCH  15  18
BRANCH  17  20
ATOM     20  O   UNL     1     -19.884  82.404   2.526  1.00  0.00    -0.504 OA
ATOM     21  H   UNL     1     -19.695  83.076   3.257  1.00  0.00     0.293 HD
ENDBRANCH  17  20
ENDBRANCH   1  12
BRANCH   6  22
ATOM     22  O   UNL     1     -21.124  78.543  -6.074  1.00  0.00    -0.507 OA
ATOM     23  H   UNL     1     -21.298  78.129  -6.976  1.00  0.00     0.293 HD
ENDBRANCH   6  22
BRANCH   8  24
ATOM     24  O   UNL     1     -17.998  75.127  -4.873  1.00  0.00    -0.508 OA
ATOM     25  H   UNL     1     -18.206  74.300  -4.326  1.00  0.00     0.293 HD
ENDBRANCH   8  24
TORSDOF 5
ENDMDL
