MODEL 1
REMARK VINA RESULT:    -3.171      0.000      0.000
REMARK INTER + INTRA:          -4.034
REMARK INTER:                  -3.820
REMARK INTRA:                  -0.214
REMARK UNBOUND:                -0.214
REMARK SMILES OCC(O)CO
REMARK SMILES IDX 3 1 5 2 6 3 2 5 1 6 4 8
REMARK H PARENT 6 4 1 7 4 9
REMARK Flexibility Score: inf
ROOT
ATOM      1  C   UNL     1     128.134 129.093 123.151  1.00  0.00     0.165 C 
ENDROOT
BRANCH   1   2
ATOM      2  C   UNL     1     129.583 128.683 122.837  1.00  0.00     0.190 C 
BRANCH   2   3
ATOM      3  O   UNL     1     130.362 128.706 124.003  1.00  0.00    -0.394 OA
ATOM      4  H   UNL     1     130.673 127.776 124.157  1.00  0.00     0.210 HD
ENDBRANCH   2   3
ENDBRANCH   1   2
BRANCH   1   5
ATOM      5  C   UNL     1     128.038 130.596 123.465  1.00  0.00     0.190 C 
BRANCH   5   6
ATOM      6  O   UNL     1     128.346 130.835 124.812  1.00  0.00    -0.394 OA
ATOM      7  H   UNL     1     127.613 131.400 125.174  1.00  0.00     0.210 HD
ENDBRANCH   5   6
ENDBRANCH   1   5
BRANCH   1   8
ATOM      8  O   UNL     1     127.619 128.331 124.215  1.00  0.00    -0.388 OA
ATOM      9  H   UNL     1     127.127 128.949 124.816  1.00  0.00     0.211 HD
ENDBRANCH   1   8
TORSDOF 5
ENDMDL
MODEL 2
REMARK VINA RESULT:    -3.129     17.926     18.746
REMARK INTER + INTRA:          -3.983
REMARK INTER:                  -3.981
REMARK INTRA:                  -0.003
REMARK UNBOUND:                -0.214
REMARK SMILES OCC(O)CO
REMARK SMILES IDX 3 1 5 2 6 3 2 5 1 6 4 8
REMARK H PARENT 6 4 1 7 4 9
REMARK Flexibility Score: inf
ROOT
ATOM      1  C   UNL     1     131.373 115.666 111.399  1.00  0.00     0.165 C 
ENDROOT
BRANCH   1   2
ATOM      2  C   UNL     1     131.332 114.150 111.648  1.00  0.00     0.190 C 
BRANCH   2   3
ATOM      3  O   UNL     1     131.310 113.453 110.431  1.00  0.00    -0.394 OA
ATOM      4  H   UNL     1     130.822 112.605 110.596  1.00  0.00     0.210 HD
ENDBRANCH   2   3
ENDBRANCH   1   2
BRANCH   1   5
ATOM      5  C   UNL     1     130.407 116.409 112.338  1.00  0.00     0.190 C 
BRANCH   5   6
ATOM      6  O   UNL     1     131.068 117.460 112.989  1.00  0.00    -0.394 OA
ATOM      7  H   UNL     1     132.035 117.353 112.791  1.00  0.00     0.210 HD
ENDBRANCH   5   6
ENDBRANCH   1   5
BRANCH   1   8
ATOM      8  O   UNL     1     131.080 115.960 110.055  1.00  0.00    -0.388 OA
ATOM      9  H   UNL     1     130.213 115.527 109.835  1.00  0.00     0.211 HD
ENDBRANCH   1   8
TORSDOF 5
ENDMDL
MODEL 3
REMARK VINA RESULT:    -3.041     18.789     19.632
REMARK INTER + INTRA:          -3.877
REMARK INTER:                  -3.677
REMARK INTRA:                  -0.200
REMARK UNBOUND:                -0.214
REMARK SMILES OCC(O)CO
REMARK SMILES IDX 3 1 5 2 6 3 2 5 1 6 4 8
REMARK H PARENT 6 4 1 7 4 9
REMARK Flexibility Score: inf
ROOT
ATOM      1  C   UNL     1     131.031 114.194 112.025  1.00  0.00     0.165 C 
ENDROOT
BRANCH   1   2
ATOM      2  C   UNL     1     130.579 113.225 110.919  1.00  0.00     0.190 C 
BRANCH   2   3
ATOM      3  O   UNL     1     130.890 113.745 109.655  1.00  0.00    -0.394 OA
ATOM      4  H   UNL     1     130.129 113.520 109.058  1.00  0.00     0.210 HD
ENDBRANCH   2   3
ENDBRANCH   1   2
BRANCH   1   5
ATOM      5  C   UNL     1     131.376 115.576 111.444  1.00  0.00     0.190 C 
BRANCH   5   6
ATOM      6  O   UNL     1     130.210 116.328 111.243  1.00  0.00    -0.394 OA
ATOM      7  H   UNL     1     129.923 116.163 110.306  1.00  0.00     0.210 HD
ENDBRANCH   5   6
ENDBRANCH   1   5
BRANCH   1   8
ATOM      8  O   UNL     1     132.125 113.668 112.734  1.00  0.00    -0.388 OA
ATOM      9  H   UNL     1     132.952 114.049 112.337  1.00  0.00     0.211 HD
ENDBRANCH   1   8
TORSDOF 5
ENDMDL
MODEL 4
REMARK VINA RESULT:    -3.033     18.249     19.138
REMARK INTER + INTRA:          -3.867
REMARK INTER:                  -3.643
REMARK INTRA:                  -0.224
REMARK UNBOUND:                -0.214
REMARK SMILES OCC(O)CO
REMARK SMILES IDX 3 1 5 2 6 3 2 5 1 6 4 8
REMARK H PARENT 6 4 1 7 4 9
REMARK Flexibility Score: inf
ROOT
ATOM      1  C   UNL     1     131.256 114.349 111.807  1.00  0.00     0.165 C 
ENDROOT
BRANCH   1   2
ATOM      2  C   UNL     1     129.839 114.234 112.393  1.00  0.00     0.190 C 
BRANCH   2   3
ATOM      3  O   UNL     1     129.315 115.506 112.663  1.00  0.00    -0.394 OA
ATOM      4  H   UNL     1     129.490 116.064 111.861  1.00  0.00     0.210 HD
ENDBRANCH   2   3
ENDBRANCH   1   2
BRANCH   1   5
ATOM      5  C   UNL     1     131.610 115.814 111.497  1.00  0.00     0.190 C 
BRANCH   5   6
ATOM      6  O   UNL     1     130.945 116.244 110.341  1.00  0.00    -0.394 OA
ATOM      7  H   UNL     1     130.690 115.426 109.838  1.00  0.00     0.210 HD
ENDBRANCH   5   6
ENDBRANCH   1   5
BRANCH   1   8
ATOM      8  O   UNL     1     131.387 113.554 110.655  1.00  0.00    -0.388 OA
ATOM      9  H   UNL     1     131.180 112.617 110.912  1.00  0.00     0.211 HD
ENDBRANCH   1   8
TORSDOF 5
ENDMDL
MODEL 5
REMARK VINA RESULT:    -3.030     17.809     18.759
REMARK INTER + INTRA:          -3.864
REMARK INTER:                  -3.862
REMARK INTRA:                  -0.003
REMARK UNBOUND:                -0.214
REMARK SMILES OCC(O)CO
REMARK SMILES IDX 3 1 5 2 6 3 2 5 1 6 4 8
REMARK H PARENT 6 4 1 7 4 9
REMARK Flexibility Score: inf
ROOT
ATOM      1  C   UNL     1     130.934 115.724 111.677  1.00  0.00     0.165 C 
ENDROOT
BRANCH   1   2
ATOM      2  C   UNL     1     132.125 116.300 112.460  1.00  0.00     0.190 C 
BRANCH   2   3
ATOM      3  O   UNL     1     131.903 117.650 112.767  1.00  0.00    -0.394 OA
ATOM      4  H   UNL     1     132.402 117.839 113.604  1.00  0.00     0.210 HD
ENDBRANCH   2   3
ENDBRANCH   1   2
BRANCH   1   5
ATOM      5  C   UNL     1     131.081 114.205 111.481  1.00  0.00     0.190 C 
BRANCH   5   6
ATOM      6  O   UNL     1     130.996 113.877 110.121  1.00  0.00    -0.394 OA
ATOM      7  H   UNL     1     131.814 113.357 109.902  1.00  0.00     0.210 HD
ENDBRANCH   5   6
ENDBRANCH   1   5
BRANCH   1   8
ATOM      8  O   UNL     1     130.791 116.372 110.437  1.00  0.00    -0.388 OA
ATOM      9  H   UNL     1     131.651 116.280 109.949  1.00  0.00     0.211 HD
ENDBRANCH   1   8
TORSDOF 5
ENDMDL
MODEL 6
REMARK VINA RESULT:    -2.975     18.708     19.607
REMARK INTER + INTRA:          -3.798
REMARK INTER:                  -3.575
REMARK INTRA:                  -0.222
REMARK UNBOUND:                -0.214
REMARK SMILES OCC(O)CO
REMARK SMILES IDX 3 1 5 2 6 3 2 5 1 6 4 8
REMARK H PARENT 6 4 1 7 4 9
REMARK Flexibility Score: inf
ROOT
ATOM      1  C   UNL     1     130.764 114.250 112.023  1.00  0.00     0.165 C 
ENDROOT
BRANCH   1   2
ATOM      2  C   UNL     1     131.374 115.533 111.436  1.00  0.00     0.190 C 
BRANCH   2   3
ATOM      3  O   UNL     1     130.370 116.356 110.907  1.00  0.00    -0.394 OA
ATOM      4  H   UNL     1     129.557 116.204 111.456  1.00  0.00     0.210 HD
ENDBRANCH   2   3
ENDBRANCH   1   2
BRANCH   1   5
ATOM      5  C   UNL     1     130.622 113.160 110.947  1.00  0.00     0.190 C 
BRANCH   5   6
ATOM      6  O   UNL     1     130.867 113.694 109.674  1.00  0.00    -0.394 OA
ATOM      7  H   UNL     1     130.564 113.014 109.017  1.00  0.00     0.210 HD
ENDBRANCH   5   6
ENDBRANCH   1   5
BRANCH   1   8
ATOM      8  O   UNL     1     129.521 114.517 112.624  1.00  0.00    -0.388 OA
ATOM      9  H   UNL     1     128.892 113.802 112.344  1.00  0.00     0.211 HD
ENDBRANCH   1   8
TORSDOF 5
ENDMDL
MODEL 7
REMARK VINA RESULT:    -2.917      1.398      3.092
REMARK INTER + INTRA:          -3.728
REMARK INTER:                  -3.512
REMARK INTRA:                  -0.215
REMARK UNBOUND:                -0.214
REMARK SMILES OCC(O)CO
REMARK SMILES IDX 3 1 5 2 6 3 2 5 1 6 4 8
REMARK H PARENT 6 4 1 7 4 9
REMARK Flexibility Score: inf
ROOT
ATOM      1  C   UNL     1     128.218 131.030 123.324  1.00  0.00     0.165 C 
ENDROOT
BRANCH   1   2
ATOM      2  C   UNL     1     127.357 131.750 124.375  1.00  0.00     0.190 C 
BRANCH   2   3
ATOM      3  O   UNL     1     128.002 131.750 125.620  1.00  0.00    -0.394 OA
ATOM      4  H   UNL     1     128.163 132.700 125.859  1.00  0.00     0.210 HD
ENDBRANCH   2   3
ENDBRANCH   1   2
BRANCH   1   5
ATOM      5  C   UNL     1     128.316 129.524 123.625  1.00  0.00     0.190 C 
BRANCH   5   6
ATOM      6  O   UNL     1     129.121 129.300 124.750  1.00  0.00    -0.394 OA
ATOM      7  H   UNL     1     128.841 129.962 125.436  1.00  0.00     0.210 HD
ENDBRANCH   5   6
ENDBRANCH   1   5
BRANCH   1   8
ATOM      8  O   UNL     1     129.500 131.604 123.250  1.00  0.00    -0.388 OA
ATOM      9  H   UNL     1     129.715 131.734 122.289  1.00  0.00     0.211 HD
ENDBRANCH   1   8
TORSDOF 5
ENDMDL
MODEL 8
REMARK VINA RESULT:    -2.889     19.178     20.106
REMARK INTER + INTRA:          -3.694
REMARK INTER:                  -3.692
REMARK INTRA:                  -0.002
REMARK UNBOUND:                -0.214
REMARK SMILES OCC(O)CO
REMARK SMILES IDX 3 1 5 2 6 3 2 5 1 6 4 8
REMARK H PARENT 6 4 1 7 4 9
REMARK Flexibility Score: inf
ROOT
ATOM      1  C   UNL     1     130.894 113.968 111.392  1.00  0.00     0.165 C 
ENDROOT
BRANCH   1   2
ATOM      2  C   UNL     1     131.365 115.430 111.317  1.00  0.00     0.190 C 
BRANCH   2   3
ATOM      3  O   UNL     1     131.094 115.967 110.051  1.00  0.00    -0.394 OA
ATOM      4  H   UNL     1     131.936 116.384 109.730  1.00  0.00     0.210 HD
ENDBRANCH   2   3
ENDBRANCH   1   2
BRANCH   1   5
ATOM      5  C   UNL     1     131.382 113.294 112.686  1.00  0.00     0.190 C 
BRANCH   5   6
ATOM      6  O   UNL     1     132.039 112.091 112.393  1.00  0.00    -0.394 OA
ATOM      7  H   UNL     1     131.768 111.835 111.473  1.00  0.00     0.210 HD
ENDBRANCH   5   6
ENDBRANCH   1   5
BRANCH   1   8
ATOM      8  O   UNL     1     131.323 113.246 110.265  1.00  0.00    -0.388 OA
ATOM      9  H   UNL     1     130.527 113.073 109.697  1.00  0.00     0.211 HD
ENDBRANCH   1   8
TORSDOF 5
ENDMDL
MODEL 9
REMARK VINA RESULT:    -2.806     18.410     19.078
REMARK INTER + INTRA:          -3.594
REMARK INTER:                  -3.377
REMARK INTRA:                  -0.217
REMARK UNBOUND:                -0.214
REMARK SMILES OCC(O)CO
REMARK SMILES IDX 3 1 5 2 6 3 2 5 1 6 4 8
REMARK H PARENT 6 4 1 7 4 9
REMARK Flexibility Score: inf
ROOT
ATOM      1  C   UNL     1     112.264 120.727 117.662  1.00  0.00     0.165 C 
ENDROOT
BRANCH   1   2
ATOM      2  C   UNL     1     112.767 122.105 117.202  1.00  0.00     0.190 C 
BRANCH   2   3
ATOM      3  O   UNL     1     113.970 121.976 116.494  1.00  0.00    -0.394 OA
ATOM      4  H   UNL     1     114.703 122.141 117.142  1.00  0.00     0.210 HD
ENDBRANCH   2   3
ENDBRANCH   1   2
BRANCH   1   5
ATOM      5  C   UNL     1     113.247 120.080 118.653  1.00  0.00     0.190 C 
BRANCH   5   6
ATOM      6  O   UNL     1     114.219 119.340 117.967  1.00  0.00    -0.394 OA
ATOM      7  H   UNL     1     113.735 118.781 117.303  1.00  0.00     0.210 HD
ENDBRANCH   5   6
ENDBRANCH   1   5
BRANCH   1   8
ATOM      8  O   UNL     1     112.044 119.882 116.560  1.00  0.00    -0.388 OA
ATOM      9  H   UNL     1     111.819 120.456 115.781  1.00  0.00     0.211 HD
ENDBRANCH   1   8
TORSDOF 5
ENDMDL
