MODEL 1
REMARK VINA RESULT:    -3.596      0.000      0.000
REMARK INTER + INTRA:          -4.495
REMARK INTER:                  -4.437
REMARK INTRA:                  -0.058
REMARK UNBOUND:                -0.058
REMARK SMILES CCCCCC(=O)[O-]
REMARK SMILES IDX 4 1 5 2 6 3 7 4 8 5 3 6 2 7 1 8
REMARK H PARENT
REMARK Flexibility Score: inf
ROOT
ATOM      1  C   UNL     1      35.449  24.091  16.083  1.00  0.00     0.006 C 
ENDROOT
BRANCH   1   2
ATOM      2  C   UNL     1      34.138  24.139  16.878  1.00  0.00     0.053 C 
BRANCH   2   3
ATOM      3  C   UNL     1      33.595  25.533  16.904  1.00  0.00     0.041 C 
ATOM      4  O   UNL     1      33.860  26.298  17.869  1.00  0.00    -0.550 OA
ATOM      5  O   UNL     1      32.756  25.972  15.888  1.00  0.00    -0.550 OA
ENDBRANCH   2   3
ENDBRANCH   1   2
BRANCH   1   6
ATOM      6  C   UNL     1      35.767  22.686  15.550  1.00  0.00     0.000 C 
BRANCH   6   7
ATOM      7  C   UNL     1      35.929  22.654  14.024  1.00  0.00    -0.003 C 
ATOM      8  C   UNL     1      35.404  21.345  13.442  1.00  0.00     0.004 C 
ENDBRANCH   6   7
ENDBRANCH   1   6
TORSDOF 4
ENDMDL
MODEL 2
REMARK VINA RESULT:    -3.441     17.159     17.863
REMARK INTER + INTRA:          -4.304
REMARK INTER:                  -4.184
REMARK INTRA:                  -0.120
REMARK UNBOUND:                -0.058
REMARK SMILES CCCCCC(=O)[O-]
REMARK SMILES IDX 4 1 5 2 6 3 7 4 8 5 3 6 2 7 1 8
REMARK H PARENT
REMARK Flexibility Score: inf
ROOT
ATOM      1  C   UNL     1      26.999  33.294   3.337  1.00  0.00     0.006 C 
ENDROOT
BRANCH   1   2
ATOM      2  C   UNL     1      28.272  33.938   3.900  1.00  0.00     0.053 C 
BRANCH   2   3
ATOM      3  C   UNL     1      29.482  33.173   3.461  1.00  0.00     0.041 C 
ATOM      4  O   UNL     1      30.434  32.978   4.262  1.00  0.00    -0.550 OA
ATOM      5  O   UNL     1      29.579  32.717   2.152  1.00  0.00    -0.550 OA
ENDBRANCH   2   3
ENDBRANCH   1   2
BRANCH   1   6
ATOM      6  C   UNL     1      26.291  34.187   2.307  1.00  0.00     0.000 C 
BRANCH   6   7
ATOM      7  C   UNL     1      26.054  33.474   0.968  1.00  0.00    -0.003 C 
ATOM      8  C   UNL     1      24.609  33.001   0.846  1.00  0.00     0.004 C 
ENDBRANCH   6   7
ENDBRANCH   1   6
TORSDOF 4
ENDMDL
MODEL 3
REMARK VINA RESULT:    -3.403     16.293     16.908
REMARK INTER + INTRA:          -4.256
REMARK INTER:                  -4.151
REMARK INTRA:                  -0.105
REMARK UNBOUND:                -0.058
REMARK SMILES CCCCCC(=O)[O-]
REMARK SMILES IDX 4 1 5 2 6 3 7 4 8 5 3 6 2 7 1 8
REMARK H PARENT
REMARK Flexibility Score: inf
ROOT
ATOM      1  C   UNL     1      29.571  33.205   3.762  1.00  0.00     0.006 C 
ENDROOT
BRANCH   1   2
ATOM      2  C   UNL     1      28.820  32.801   2.487  1.00  0.00     0.053 C 
BRANCH   2   3
ATOM      3  C   UNL     1      27.372  33.166   2.596  1.00  0.00     0.041 C 
ATOM      4  O   UNL     1      26.634  33.141   1.577  1.00  0.00    -0.550 OA
ATOM      5  O   UNL     1      26.851  33.582   3.815  1.00  0.00    -0.550 OA
ENDBRANCH   2   3
ENDBRANCH   1   2
BRANCH   1   6
ATOM      6  C   UNL     1      31.096  33.176   3.584  1.00  0.00     0.000 C 
BRANCH   6   7
ATOM      7  C   UNL     1      31.517  32.927   2.128  1.00  0.00    -0.003 C 
ATOM      8  C   UNL     1      32.989  32.536   2.041  1.00  0.00     0.004 C 
ENDBRANCH   6   7
ENDBRANCH   1   6
TORSDOF 4
ENDMDL
MODEL 4
REMARK VINA RESULT:    -3.395     17.249     17.942
REMARK INTER + INTRA:          -4.247
REMARK INTER:                  -4.163
REMARK INTRA:                  -0.084
REMARK UNBOUND:                -0.058
REMARK SMILES CCCCCC(=O)[O-]
REMARK SMILES IDX 4 1 5 2 6 3 7 4 8 5 3 6 2 7 1 8
REMARK H PARENT
REMARK Flexibility Score: inf
ROOT
ATOM      1  C   UNL     1      27.223  32.833   2.439  1.00  0.00     0.006 C 
ENDROOT
BRANCH   1   2
ATOM      2  C   UNL     1      28.757  32.787   2.456  1.00  0.00     0.053 C 
BRANCH   2   3
ATOM      3  C   UNL     1      29.278  33.256   3.779  1.00  0.00     0.041 C 
ATOM      4  O   UNL     1      28.591  34.034   4.491  1.00  0.00    -0.550 OA
ATOM      5  O   UNL     1      30.543  32.870   4.203  1.00  0.00    -0.550 OA
ENDBRANCH   2   3
ENDBRANCH   1   2
BRANCH   1   6
ATOM      6  C   UNL     1      26.672  33.765   1.349  1.00  0.00     0.000 C 
BRANCH   6   7
ATOM      7  C   UNL     1      25.157  33.988   1.473  1.00  0.00    -0.003 C 
ATOM      8  C   UNL     1      24.381  32.927   0.699  1.00  0.00     0.004 C 
ENDBRANCH   6   7
ENDBRANCH   1   6
TORSDOF 4
ENDMDL
MODEL 5
REMARK VINA RESULT:    -3.383     17.254     18.003
REMARK INTER + INTRA:          -4.232
REMARK INTER:                  -4.104
REMARK INTRA:                  -0.129
REMARK UNBOUND:                -0.058
REMARK SMILES CCCCCC(=O)[O-]
REMARK SMILES IDX 4 1 5 2 6 3 7 4 8 5 3 6 2 7 1 8
REMARK H PARENT
REMARK Flexibility Score: inf
ROOT
ATOM      1  C   UNL     1      27.209  33.645   3.707  1.00  0.00     0.006 C 
ENDROOT
BRANCH   1   2
ATOM      2  C   UNL     1      27.030  32.954   2.349  1.00  0.00     0.053 C 
BRANCH   2   3
ATOM      3  C   UNL     1      25.898  33.576   1.593  1.00  0.00     0.041 C 
ATOM      4  O   UNL     1      25.087  32.852   0.957  1.00  0.00    -0.550 OA
ATOM      5  O   UNL     1      25.768  34.958   1.549  1.00  0.00    -0.550 OA
ENDBRANCH   2   3
ENDBRANCH   1   2
BRANCH   1   6
ATOM      6  C   UNL     1      28.615  34.236   3.889  1.00  0.00     0.000 C 
BRANCH   6   7
ATOM      7  C   UNL     1      29.693  33.156   4.062  1.00  0.00    -0.003 C 
ATOM      8  C   UNL     1      30.837  33.359   3.074  1.00  0.00     0.004 C 
ENDBRANCH   6   7
ENDBRANCH   1   6
TORSDOF 4
ENDMDL
MODEL 6
REMARK VINA RESULT:    -3.365     16.622     17.337
REMARK INTER + INTRA:          -4.209
REMARK INTER:                  -4.086
REMARK INTRA:                  -0.123
REMARK UNBOUND:                -0.058
REMARK SMILES CCCCCC(=O)[O-]
REMARK SMILES IDX 4 1 5 2 6 3 7 4 8 5 3 6 2 7 1 8
REMARK H PARENT
REMARK Flexibility Score: inf
ROOT
ATOM      1  C   UNL     1      28.304  33.982   4.107  1.00  0.00     0.006 C 
ENDROOT
BRANCH   1   2
ATOM      2  C   UNL     1      29.343  34.220   3.004  1.00  0.00     0.053 C 
BRANCH   2   3
ATOM      3  C   UNL     1      30.495  33.277   3.160  1.00  0.00     0.041 C 
ATOM      4  O   UNL     1      30.843  32.885   4.305  1.00  0.00    -0.550 OA
ATOM      5  O   UNL     1      31.215  32.869   2.044  1.00  0.00    -0.550 OA
ENDBRANCH   2   3
ENDBRANCH   1   2
BRANCH   1   6
ATOM      6  C   UNL     1      26.936  33.562   3.549  1.00  0.00     0.000 C 
BRANCH   6   7
ATOM      7  C   UNL     1      27.017  33.059   2.100  1.00  0.00    -0.003 C 
ATOM      8  C   UNL     1      25.819  33.537   1.285  1.00  0.00     0.004 C 
ENDBRANCH   6   7
ENDBRANCH   1   6
TORSDOF 4
ENDMDL
MODEL 7
REMARK VINA RESULT:    -3.338     16.232     17.026
REMARK INTER + INTRA:          -4.176
REMARK INTER:                  -4.015
REMARK INTRA:                  -0.161
REMARK UNBOUND:                -0.058
REMARK SMILES CCCCCC(=O)[O-]
REMARK SMILES IDX 4 1 5 2 6 3 7 4 8 5 3 6 2 7 1 8
REMARK H PARENT
REMARK Flexibility Score: inf
ROOT
ATOM      1  C   UNL     1      29.559  32.872   3.789  1.00  0.00     0.006 C 
ENDROOT
BRANCH   1   2
ATOM      2  C   UNL     1      30.989  33.352   3.507  1.00  0.00     0.053 C 
BRANCH   2   3
ATOM      3  C   UNL     1      31.469  32.818   2.194  1.00  0.00     0.041 C 
ATOM      4  O   UNL     1      30.672  32.707   1.226  1.00  0.00    -0.550 OA
ATOM      5  O   UNL     1      32.785  32.397   2.054  1.00  0.00    -0.550 OA
ENDBRANCH   2   3
ENDBRANCH   1   2
BRANCH   1   6
ATOM      6  C   UNL     1      28.587  34.033   4.049  1.00  0.00     0.000 C 
BRANCH   6   7
ATOM      7  C   UNL     1      27.147  33.703   3.631  1.00  0.00    -0.003 C 
ATOM      8  C   UNL     1      27.117  32.964   2.296  1.00  0.00     0.004 C 
ENDBRANCH   6   7
ENDBRANCH   1   6
TORSDOF 4
ENDMDL
MODEL 8
REMARK VINA RESULT:    -3.213     17.400     18.130
REMARK INTER + INTRA:          -4.022
REMARK INTER:                  -3.917
REMARK INTRA:                  -0.105
REMARK UNBOUND:                -0.058
REMARK SMILES CCCCCC(=O)[O-]
REMARK SMILES IDX 4 1 5 2 6 3 7 4 8 5 3 6 2 7 1 8
REMARK H PARENT
REMARK Flexibility Score: inf
ROOT
ATOM      1  C   UNL     1      26.941  33.624   3.538  1.00  0.00     0.006 C 
ENDROOT
BRANCH   1   2
ATOM      2  C   UNL     1      26.840  33.133   2.088  1.00  0.00     0.053 C 
BRANCH   2   3
ATOM      3  C   UNL     1      25.570  33.615   1.461  1.00  0.00     0.041 C 
ATOM      4  O   UNL     1      25.278  34.840   1.481  1.00  0.00    -0.550 OA
ATOM      5  O   UNL     1      24.684  32.705   0.898  1.00  0.00    -0.550 OA
ENDBRANCH   2   3
ENDBRANCH   1   2
BRANCH   1   6
ATOM      6  C   UNL     1      28.383  33.952   3.952  1.00  0.00     0.000 C 
BRANCH   6   7
ATOM      7  C   UNL     1      29.364  32.814   3.633  1.00  0.00    -0.003 C 
ATOM      8  C   UNL     1      30.766  33.354   3.369  1.00  0.00     0.004 C 
ENDBRANCH   6   7
ENDBRANCH   1   6
TORSDOF 4
ENDMDL
MODEL 9
REMARK VINA RESULT:    -3.039      2.924      4.605
REMARK INTER + INTRA:          -3.807
REMARK INTER:                  -3.717
REMARK INTRA:                  -0.090
REMARK UNBOUND:                -0.058
REMARK SMILES CCCCCC(=O)[O-]
REMARK SMILES IDX 4 1 5 2 6 3 7 4 8 5 3 6 2 7 1 8
REMARK H PARENT
REMARK Flexibility Score: inf
ROOT
ATOM      1  C   UNL     1      34.975  23.759  15.919  1.00  0.00     0.006 C 
ENDROOT
BRANCH   1   2
ATOM      2  C   UNL     1      36.079  22.743  15.599  1.00  0.00     0.053 C 
BRANCH   2   3
ATOM      3  C   UNL     1      35.811  22.079  14.284  1.00  0.00     0.041 C 
ATOM      4  O   UNL     1      35.631  22.772  13.249  1.00  0.00    -0.550 OA
ATOM      5  O   UNL     1      35.713  20.695  14.213  1.00  0.00    -0.550 OA
ENDBRANCH   2   3
ENDBRANCH   1   2
BRANCH   1   6
ATOM      6  C   UNL     1      35.509  25.003  16.645  1.00  0.00     0.000 C 
BRANCH   6   7
ATOM      7  C   UNL     1      34.388  25.947  17.103  1.00  0.00    -0.003 C 
ATOM      8  C   UNL     1      33.124  25.741  16.275  1.00  0.00     0.004 C 
ENDBRANCH   6   7
ENDBRANCH   1   6
TORSDOF 4
ENDMDL
