MODEL 1
REMARK VINA RESULT:    -3.586      0.000      0.000
REMARK INTER + INTRA:          -7.944
REMARK INTER:                  -6.521
REMARK INTRA:                  -1.423
REMARK UNBOUND:                -1.423
REMARK SMILES CCCCCCCCCCCCCCCC(=O)[O-]
REMARK SMILES IDX 9 1 10 2 11 3 12 4 13 5 14 6 15 7 16 8 17 9 18 10 8 11 7 12
REMARK SMILES IDX 6 13 5 14 4 15 3 16 2 17 1 18
REMARK H PARENT
REMARK Flexibility Score: inf
ROOT
ATOM      1  C   UNL     1       4.498  24.001   9.279  1.00  0.00     0.000 C 
ENDROOT
BRANCH   1   2
ATOM      2  C   UNL     1       4.838  23.951  10.785  1.00  0.00     0.000 C 
BRANCH   2   3
ATOM      3  C   UNL     1       3.631  24.307  11.669  1.00  0.00     0.000 C 
BRANCH   3   4
ATOM      4  C   UNL     1       4.029  25.095  12.927  1.00  0.00     0.000 C 
BRANCH   4   5
ATOM      5  C   UNL     1       2.925  26.049  13.405  1.00  0.00     0.000 C 
BRANCH   5   6
ATOM      6  C   UNL     1       2.403  25.635  14.789  1.00  0.00     0.006 C 
BRANCH   6   7
ATOM      7  C   UNL     1       1.617  24.317  14.743  1.00  0.00     0.053 C 
BRANCH   7   8
ATOM      8  C   UNL     1       0.175  24.519  15.095  1.00  0.00     0.041 C 
ATOM      9  O   UNL     1      -0.700  24.555  14.189  1.00  0.00    -0.550 OA
ATOM     10  O   UNL     1      -0.207  24.635  16.425  1.00  0.00    -0.550 OA
ENDBRANCH   7   8
ENDBRANCH   6   7
ENDBRANCH   5   6
ENDBRANCH   4   5
ENDBRANCH   3   4
ENDBRANCH   2   3
ENDBRANCH   1   2
BRANCH   1  11
ATOM     11  C   UNL     1       5.246  25.107   8.510  1.00  0.00     0.000 C 
BRANCH  11  12
ATOM     12  C   UNL     1       4.804  25.299   7.047  1.00  0.00    -0.000 C 
BRANCH  12  13
ATOM     13  C   UNL     1       4.310  24.022   6.341  1.00  0.00    -0.000 C 
BRANCH  13  14
ATOM     14  C   UNL     1       2.811  24.072   5.997  1.00  0.00    -0.000 C 
BRANCH  14  15
ATOM     15  C   UNL     1       2.278  25.509   5.851  1.00  0.00    -0.000 C 
BRANCH  15  16
ATOM     16  C   UNL     1       0.996  25.821   6.648  1.00  0.00    -0.000 C 
BRANCH  16  17
ATOM     17  C   UNL     1       0.859  25.069   7.983  1.00  0.00    -0.003 C 
ATOM     18  C   UNL     1       1.341  25.889   9.180  1.00  0.00     0.004 C 
ENDBRANCH  16  17
ENDBRANCH  15  16
ENDBRANCH  14  15
ENDBRANCH  13  14
ENDBRANCH  12  13
ENDBRANCH  11  12
ENDBRANCH   1  11
TORSDOF 14
ENDMDL
MODEL 2
REMARK VINA RESULT:    -3.475      2.199      2.928
REMARK INTER + INTRA:          -7.742
REMARK INTER:                  -5.988
REMARK INTRA:                  -1.755
REMARK UNBOUND:                -1.423
REMARK SMILES CCCCCCCCCCCCCCCC(=O)[O-]
REMARK SMILES IDX 9 1 10 2 11 3 12 4 13 5 14 6 15 7 16 8 17 9 18 10 8 11 7 12
REMARK SMILES IDX 6 13 5 14 4 15 3 16 2 17 1 18
REMARK H PARENT
REMARK Flexibility Score: inf
ROOT
ATOM      1  C   UNL     1       2.706  25.205  10.178  1.00  0.00     0.000 C 
ENDROOT
BRANCH   1   2
ATOM      2  C   UNL     1       1.591  24.153  10.371  1.00  0.00     0.000 C 
BRANCH   2   3
ATOM      3  C   UNL     1       0.437  24.678  11.241  1.00  0.00     0.000 C 
BRANCH   3   4
ATOM      4  C   UNL     1       0.425  24.059  12.648  1.00  0.00     0.000 C 
BRANCH   4   5
ATOM      5  C   UNL     1       0.107  25.085  13.746  1.00  0.00     0.000 C 
BRANCH   5   6
ATOM      6  C   UNL     1       1.351  25.378  14.599  1.00  0.00     0.006 C 
BRANCH   6   7
ATOM      7  C   UNL     1       2.582  24.599  14.118  1.00  0.00     0.053 C 
BRANCH   7   8
ATOM      8  C   UNL     1       3.686  25.516  13.688  1.00  0.00     0.041 C 
ATOM      9  O   UNL     1       4.884  25.126  13.720  1.00  0.00    -0.550 OA
ATOM     10  O   UNL     1       3.390  26.790  13.221  1.00  0.00    -0.550 OA
ENDBRANCH   7   8
ENDBRANCH   6   7
ENDBRANCH   5   6
ENDBRANCH   4   5
ENDBRANCH   3   4
ENDBRANCH   2   3
ENDBRANCH   1   2
BRANCH   1  11
ATOM     11  C   UNL     1       4.119  24.600  10.076  1.00  0.00     0.000 C 
BRANCH  11  12
ATOM     12  C   UNL     1       4.470  23.987   8.708  1.00  0.00    -0.000 C 
BRANCH  12  13
ATOM     13  C   UNL     1       4.735  25.007   7.584  1.00  0.00    -0.000 C 
BRANCH  13  14
ATOM     14  C   UNL     1       4.166  24.561   6.226  1.00  0.00    -0.000 C 
BRANCH  14  15
ATOM     15  C   UNL     1       2.628  24.487   6.217  1.00  0.00    -0.000 C 
BRANCH  15  16
ATOM     16  C   UNL     1       1.904  25.785   6.630  1.00  0.00    -0.000 C 
BRANCH  16  17
ATOM     17  C   UNL     1       0.481  25.591   7.180  1.00  0.00    -0.003 C 
ATOM     18  C   UNL     1      -0.507  26.632   6.653  1.00  0.00     0.004 C 
ENDBRANCH  16  17
ENDBRANCH  15  16
ENDBRANCH  14  15
ENDBRANCH  13  14
ENDBRANCH  12  13
ENDBRANCH  11  12
ENDBRANCH   1  11
TORSDOF 14
ENDMDL
MODEL 3
REMARK VINA RESULT:    -3.417      2.121      4.016
REMARK INTER + INTRA:          -7.637
REMARK INTER:                  -6.279
REMARK INTRA:                  -1.358
REMARK UNBOUND:                -1.423
REMARK SMILES CCCCCCCCCCCCCCCC(=O)[O-]
REMARK SMILES IDX 9 1 10 2 11 3 12 4 13 5 14 6 15 7 16 8 17 9 18 10 8 11 7 12
REMARK SMILES IDX 6 13 5 14 4 15 3 16 2 17 1 18
REMARK H PARENT
REMARK Flexibility Score: inf
ROOT
ATOM      1  C   UNL     1       0.689  24.252  11.538  1.00  0.00     0.000 C 
ENDROOT
BRANCH   1   2
ATOM      2  C   UNL     1      -0.696  24.832  11.901  1.00  0.00     0.000 C 
BRANCH   2   3
ATOM      3  C   UNL     1      -0.754  25.345  13.349  1.00  0.00     0.000 C 
BRANCH   3   4
ATOM      4  C   UNL     1      -0.623  24.216  14.384  1.00  0.00     0.000 C 
BRANCH   4   5
ATOM      5  C   UNL     1       0.406  24.530  15.480  1.00  0.00     0.000 C 
BRANCH   5   6
ATOM      6  C   UNL     1       1.839  24.373  14.948  1.00  0.00     0.006 C 
BRANCH   6   7
ATOM      7  C   UNL     1       2.577  25.715  14.861  1.00  0.00     0.053 C 
BRANCH   7   8
ATOM      8  C   UNL     1       3.522  25.754  13.699  1.00  0.00     0.041 C 
ATOM      9  O   UNL     1       4.470  24.928  13.625  1.00  0.00    -0.550 OA
ATOM     10  O   UNL     1       3.337  26.682  12.683  1.00  0.00    -0.550 OA
ENDBRANCH   7   8
ENDBRANCH   6   7
ENDBRANCH   5   6
ENDBRANCH   4   5
ENDBRANCH   3   4
ENDBRANCH   2   3
ENDBRANCH   1   2
BRANCH   1  11
ATOM     11  C   UNL     1       1.395  25.002  10.392  1.00  0.00     0.000 C 
BRANCH  11  12
ATOM     12  C   UNL     1       0.471  25.475   9.255  1.00  0.00    -0.000 C 
BRANCH  12  13
ATOM     13  C   UNL     1       0.788  24.885   7.867  1.00  0.00    -0.000 C 
BRANCH  13  14
ATOM     14  C   UNL     1       1.112  25.963   6.819  1.00  0.00    -0.000 C 
BRANCH  14  15
ATOM     15  C   UNL     1       2.250  25.549   5.868  1.00  0.00    -0.000 C 
BRANCH  15  16
ATOM     16  C   UNL     1       3.245  24.519   6.439  1.00  0.00    -0.000 C 
BRANCH  16  17
ATOM     17  C   UNL     1       4.578  25.105   6.935  1.00  0.00    -0.003 C 
ATOM     18  C   UNL     1       4.796  24.901   8.434  1.00  0.00     0.004 C 
ENDBRANCH  16  17
ENDBRANCH  15  16
ENDBRANCH  14  15
ENDBRANCH  13  14
ENDBRANCH  12  13
ENDBRANCH  11  12
ENDBRANCH   1  11
TORSDOF 14
ENDMDL
MODEL 4
REMARK VINA RESULT:    -3.368      2.686      6.751
REMARK INTER + INTRA:          -7.547
REMARK INTER:                  -6.006
REMARK INTRA:                  -1.541
REMARK UNBOUND:                -1.423
REMARK SMILES CCCCCCCCCCCCCCCC(=O)[O-]
REMARK SMILES IDX 9 1 10 2 11 3 12 4 13 5 14 6 15 7 16 8 17 9 18 10 8 11 7 12
REMARK SMILES IDX 6 13 5 14 4 15 3 16 2 17 1 18
REMARK H PARENT
REMARK Flexibility Score: inf
ROOT
ATOM      1  C   UNL     1       4.468  24.263  12.135  1.00  0.00     0.000 C 
ENDROOT
BRANCH   1   2
ATOM      2  C   UNL     1       3.496  24.668  11.005  1.00  0.00     0.000 C 
BRANCH   2   3
ATOM      3  C   UNL     1       3.901  24.075   9.645  1.00  0.00     0.000 C 
BRANCH   3   4
ATOM      4  C   UNL     1       4.944  24.932   8.912  1.00  0.00     0.000 C 
BRANCH   4   5
ATOM      5  C   UNL     1       4.739  24.945   7.389  1.00  0.00     0.000 C 
BRANCH   5   6
ATOM      6  C   UNL     1       3.325  24.468   7.022  1.00  0.00     0.006 C 
BRANCH   6   7
ATOM      7  C   UNL     1       2.544  25.525   6.230  1.00  0.00     0.053 C 
BRANCH   7   8
ATOM      8  C   UNL     1       1.264  25.897   6.914  1.00  0.00     0.041 C 
ATOM      9  O   UNL     1       0.216  26.085   6.240  1.00  0.00    -0.550 OA
ATOM     10  O   UNL     1       1.221  26.005   8.298  1.00  0.00    -0.550 OA
ENDBRANCH   7   8
ENDBRANCH   6   7
ENDBRANCH   5   6
ENDBRANCH   4   5
ENDBRANCH   3   4
ENDBRANCH   2   3
ENDBRANCH   1   2
BRANCH   1  11
ATOM     11  C   UNL     1       4.501  25.259  13.311  1.00  0.00     0.000 C 
BRANCH  11  12
ATOM     12  C   UNL     1       3.199  26.050  13.533  1.00  0.00    -0.000 C 
BRANCH  12  13
ATOM     13  C   UNL     1       2.466  25.743  14.853  1.00  0.00    -0.000 C 
BRANCH  13  14
ATOM     14  C   UNL     1       1.800  24.356  14.857  1.00  0.00    -0.000 C 
BRANCH  14  15
ATOM     15  C   UNL     1       0.274  24.426  15.049  1.00  0.00    -0.000 C 
BRANCH  15  16
ATOM     16  C   UNL     1      -0.563  24.129  13.787  1.00  0.00    -0.000 C 
BRANCH  16  17
ATOM     17  C   UNL     1       0.254  23.876  12.509  1.00  0.00    -0.003 C 
ATOM     18  C   UNL     1      -0.266  24.663  11.305  1.00  0.00     0.004 C 
ENDBRANCH  16  17
ENDBRANCH  15  16
ENDBRANCH  14  15
ENDBRANCH  13  14
ENDBRANCH  12  13
ENDBRANCH  11  12
ENDBRANCH   1  11
TORSDOF 14
ENDMDL
MODEL 5
REMARK VINA RESULT:    -3.339      3.041      7.485
REMARK INTER + INTRA:          -7.496
REMARK INTER:                  -5.996
REMARK INTRA:                  -1.500
REMARK UNBOUND:                -1.423
REMARK SMILES CCCCCCCCCCCCCCCC(=O)[O-]
REMARK SMILES IDX 9 1 10 2 11 3 12 4 13 5 14 6 15 7 16 8 17 9 18 10 8 11 7 12
REMARK SMILES IDX 6 13 5 14 4 15 3 16 2 17 1 18
REMARK H PARENT
REMARK Flexibility Score: inf
ROOT
ATOM      1  C   UNL     1       0.718  24.321  11.317  1.00  0.00     0.000 C 
ENDROOT
BRANCH   1   2
ATOM      2  C   UNL     1       0.843  24.346   9.778  1.00  0.00     0.000 C 
BRANCH   2   3
ATOM      3  C   UNL     1       1.183  25.747   9.242  1.00  0.00     0.000 C 
BRANCH   3   4
ATOM      4  C   UNL     1       1.091  25.835   7.710  1.00  0.00     0.000 C 
BRANCH   4   5
ATOM      5  C   UNL     1       1.884  24.726   7.003  1.00  0.00     0.000 C 
BRANCH   5   6
ATOM      6  C   UNL     1       3.215  25.266   6.458  1.00  0.00     0.006 C 
BRANCH   6   7
ATOM      7  C   UNL     1       4.419  24.454   6.955  1.00  0.00     0.053 C 
BRANCH   7   8
ATOM      8  C   UNL     1       4.969  25.004   8.235  1.00  0.00     0.041 C 
ATOM      9  O   UNL     1       4.496  24.630   9.342  1.00  0.00    -0.550 OA
ATOM     10  O   UNL     1       6.025  25.904   8.208  1.00  0.00    -0.550 OA
ENDBRANCH   7   8
ENDBRANCH   6   7
ENDBRANCH   5   6
ENDBRANCH   4   5
ENDBRANCH   3   4
ENDBRANCH   2   3
ENDBRANCH   1   2
BRANCH   1  11
ATOM     11  C   UNL     1      -0.691  24.669  11.831  1.00  0.00     0.000 C 
BRANCH  11  12
ATOM     12  C   UNL     1      -0.741  25.256  13.255  1.00  0.00    -0.000 C 
BRANCH  12  13
ATOM     13  C   UNL     1      -0.718  24.215  14.391  1.00  0.00    -0.000 C 
BRANCH  13  14
ATOM     14  C   UNL     1       0.339  24.528  15.465  1.00  0.00    -0.000 C 
BRANCH  14  15
ATOM     15  C   UNL     1       1.781  24.386  14.945  1.00  0.00    -0.000 C 
BRANCH  15  16
ATOM     16  C   UNL     1       2.574  25.704  14.834  1.00  0.00    -0.000 C 
BRANCH  16  17
ATOM     17  C   UNL     1       2.986  26.098  13.405  1.00  0.00    -0.003 C 
ATOM     18  C   UNL     1       3.974  25.113  12.779  1.00  0.00     0.004 C 
ENDBRANCH  16  17
ENDBRANCH  15  16
ENDBRANCH  14  15
ENDBRANCH  13  14
ENDBRANCH  12  13
ENDBRANCH  11  12
ENDBRANCH   1  11
TORSDOF 14
ENDMDL
MODEL 6
REMARK VINA RESULT:    -3.140      0.903      2.913
REMARK INTER + INTRA:          -7.133
REMARK INTER:                  -5.877
REMARK INTRA:                  -1.256
REMARK UNBOUND:                -1.423
REMARK SMILES CCCCCCCCCCCCCCCC(=O)[O-]
REMARK SMILES IDX 9 1 10 2 11 3 12 4 13 5 14 6 15 7 16 8 17 9 18 10 8 11 7 12
REMARK SMILES IDX 6 13 5 14 4 15 3 16 2 17 1 18
REMARK H PARENT
REMARK Flexibility Score: inf
ROOT
ATOM      1  C   UNL     1       1.107  25.025  10.244  1.00  0.00     0.000 C 
ENDROOT
BRANCH   1   2
ATOM      2  C   UNL     1       1.571  23.938  11.238  1.00  0.00     0.000 C 
BRANCH   2   3
ATOM      3  C   UNL     1       3.001  24.183  11.747  1.00  0.00     0.000 C 
BRANCH   3   4
ATOM      4  C   UNL     1       3.200  25.605  12.296  1.00  0.00     0.000 C 
BRANCH   4   5
ATOM      5  C   UNL     1       3.506  25.624  13.801  1.00  0.00     0.000 C 
BRANCH   5   6
ATOM      6  C   UNL     1       2.214  25.743  14.623  1.00  0.00     0.006 C 
BRANCH   6   7
ATOM      7  C   UNL     1       1.740  24.386  15.160  1.00  0.00     0.053 C 
BRANCH   7   8
ATOM      8  C   UNL     1       0.246  24.318  15.256  1.00  0.00     0.041 C 
ATOM      9  O   UNL     1      -0.328  24.502  16.362  1.00  0.00    -0.550 OA
ATOM     10  O   UNL     1      -0.513  24.084  14.117  1.00  0.00    -0.550 OA
ENDBRANCH   7   8
ENDBRANCH   6   7
ENDBRANCH   5   6
ENDBRANCH   4   5
ENDBRANCH   3   4
ENDBRANCH   2   3
ENDBRANCH   1   2
BRANCH   1  11
ATOM     11  C   UNL     1       0.471  24.462   8.960  1.00  0.00     0.000 C 
BRANCH  11  12
ATOM     12  C   UNL     1      -0.244  25.500   8.075  1.00  0.00    -0.000 C 
BRANCH  12  13
ATOM     13  C   UNL     1       0.380  25.712   6.682  1.00  0.00    -0.000 C 
BRANCH  13  14
ATOM     14  C   UNL     1       1.915  25.811   6.725  1.00  0.00    -0.000 C 
BRANCH  14  15
ATOM     15  C   UNL     1       2.605  24.792   5.800  1.00  0.00    -0.000 C 
BRANCH  15  16
ATOM     16  C   UNL     1       3.896  24.162   6.361  1.00  0.00    -0.000 C 
BRANCH  16  17
ATOM     17  C   UNL     1       4.858  25.147   7.047  1.00  0.00    -0.003 C 
ATOM     18  C   UNL     1       4.864  25.010   8.570  1.00  0.00     0.004 C 
ENDBRANCH  16  17
ENDBRANCH  15  16
ENDBRANCH  14  15
ENDBRANCH  13  14
ENDBRANCH  12  13
ENDBRANCH  11  12
ENDBRANCH   1  11
TORSDOF 14
ENDMDL
MODEL 7
REMARK VINA RESULT:    -3.081      2.161      3.040
REMARK INTER + INTRA:          -7.025
REMARK INTER:                  -5.641
REMARK INTRA:                  -1.384
REMARK UNBOUND:                -1.423
REMARK SMILES CCCCCCCCCCCCCCCC(=O)[O-]
REMARK SMILES IDX 9 1 10 2 11 3 12 4 13 5 14 6 15 7 16 8 17 9 18 10 8 11 7 12
REMARK SMILES IDX 6 13 5 14 4 15 3 16 2 17 1 18
REMARK H PARENT
REMARK Flexibility Score: inf
ROOT
ATOM      1  C   UNL     1       4.583  24.639   9.478  1.00  0.00     0.000 C 
ENDROOT
BRANCH   1   2
ATOM      2  C   UNL     1       3.269  25.201  10.063  1.00  0.00     0.000 C 
BRANCH   2   3
ATOM      3  C   UNL     1       2.157  24.141  10.130  1.00  0.00     0.000 C 
BRANCH   3   4
ATOM      4  C   UNL     1       0.768  24.716   9.809  1.00  0.00     0.000 C 
BRANCH   4   5
ATOM      5  C   UNL     1      -0.153  24.764  11.037  1.00  0.00     0.000 C 
BRANCH   5   6
ATOM      6  C   UNL     1       0.598  24.329  12.305  1.00  0.00     0.006 C 
BRANCH   6   7
ATOM      7  C   UNL     1       0.443  25.341  13.448  1.00  0.00     0.053 C 
BRANCH   7   8
ATOM      8  C   UNL     1       1.762  25.681  14.071  1.00  0.00     0.041 C 
ATOM      9  O   UNL     1       2.631  26.312  13.413  1.00  0.00    -0.550 OA
ATOM     10  O   UNL     1       2.019  25.329  15.390  1.00  0.00    -0.550 OA
ENDBRANCH   7   8
ENDBRANCH   6   7
ENDBRANCH   5   6
ENDBRANCH   4   5
ENDBRANCH   3   4
ENDBRANCH   2   3
ENDBRANCH   1   2
BRANCH   1  11
ATOM     11  C   UNL     1       4.419  24.002   8.085  1.00  0.00     0.000 C 
BRANCH  11  12
ATOM     12  C   UNL     1       4.483  24.989   6.904  1.00  0.00    -0.000 C 
BRANCH  12  13
ATOM     13  C   UNL     1       3.253  24.978   5.976  1.00  0.00    -0.000 C 
BRANCH  13  14
ATOM     14  C   UNL     1       2.047  25.723   6.575  1.00  0.00    -0.000 C 
BRANCH  14  15
ATOM     15  C   UNL     1       0.746  25.487   5.785  1.00  0.00    -0.000 C 
BRANCH  15  16
ATOM     16  C   UNL     1       0.730  24.220   4.905  1.00  0.00    -0.000 C 
BRANCH  16  17
ATOM     17  C   UNL     1       0.618  24.478   3.393  1.00  0.00    -0.003 C 
ATOM     18  C   UNL     1      -0.358  25.605   3.053  1.00  0.00     0.004 C 
ENDBRANCH  16  17
ENDBRANCH  15  16
ENDBRANCH  14  15
ENDBRANCH  13  14
ENDBRANCH  12  13
ENDBRANCH  11  12
ENDBRANCH   1  11
TORSDOF 14
ENDMDL
MODEL 8
REMARK VINA RESULT:    -3.054      1.597      2.924
REMARK INTER + INTRA:          -6.977
REMARK INTER:                  -5.161
REMARK INTRA:                  -1.815
REMARK UNBOUND:                -1.423
REMARK SMILES CCCCCCCCCCCCCCCC(=O)[O-]
REMARK SMILES IDX 9 1 10 2 11 3 12 4 13 5 14 6 15 7 16 8 17 9 18 10 8 11 7 12
REMARK SMILES IDX 6 13 5 14 4 15 3 16 2 17 1 18
REMARK H PARENT
REMARK Flexibility Score: inf
ROOT
ATOM      1  C   UNL     1       3.515  25.120   6.705  1.00  0.00     0.000 C 
ENDROOT
BRANCH   1   2
ATOM      2  C   UNL     1       4.820  24.692   7.412  1.00  0.00     0.000 C 
BRANCH   2   3
ATOM      3  C   UNL     1       4.559  24.055   8.787  1.00  0.00     0.000 C 
BRANCH   3   4
ATOM      4  C   UNL     1       3.784  24.985   9.734  1.00  0.00     0.000 C 
BRANCH   4   5
ATOM      5  C   UNL     1       3.794  24.495  11.189  1.00  0.00     0.000 C 
BRANCH   5   6
ATOM      6  C   UNL     1       3.121  25.518  12.117  1.00  0.00     0.006 C 
BRANCH   6   7
ATOM      7  C   UNL     1       1.790  25.002  12.681  1.00  0.00     0.053 C 
BRANCH   7   8
ATOM      8  C   UNL     1       1.636  25.334  14.133  1.00  0.00     0.041 C 
ATOM      9  O   UNL     1       0.615  24.954  14.767  1.00  0.00    -0.550 OA
ATOM     10  O   UNL     1       2.635  26.035  14.796  1.00  0.00    -0.550 OA
ENDBRANCH   7   8
ENDBRANCH   6   7
ENDBRANCH   5   6
ENDBRANCH   4   5
ENDBRANCH   3   4
ENDBRANCH   2   3
ENDBRANCH   1   2
BRANCH   1  11
ATOM     11  C   UNL     1       2.624  23.939   6.279  1.00  0.00     0.000 C 
BRANCH  11  12
ATOM     12  C   UNL     1       1.898  24.121   4.933  1.00  0.00    -0.000 C 
BRANCH  12  13
ATOM     13  C   UNL     1       0.789  25.191   4.929  1.00  0.00    -0.000 C 
BRANCH  13  14
ATOM     14  C   UNL     1      -0.580  24.633   5.356  1.00  0.00    -0.000 C 
BRANCH  14  15
ATOM     15  C   UNL     1      -0.980  25.058   6.781  1.00  0.00    -0.000 C 
BRANCH  15  16
ATOM     16  C   UNL     1      -0.029  26.064   7.460  1.00  0.00    -0.000 C 
BRANCH  16  17
ATOM     17  C   UNL     1       0.382  25.704   8.898  1.00  0.00    -0.003 C 
ATOM     18  C   UNL     1       0.225  24.215   9.206  1.00  0.00     0.004 C 
ENDBRANCH  16  17
ENDBRANCH  15  16
ENDBRANCH  14  15
ENDBRANCH  13  14
ENDBRANCH  12  13
ENDBRANCH  11  12
ENDBRANCH   1  11
TORSDOF 14
ENDMDL
MODEL 9
REMARK VINA RESULT:    -2.971      1.958      3.735
REMARK INTER + INTRA:          -6.825
REMARK INTER:                  -5.415
REMARK INTRA:                  -1.410
REMARK UNBOUND:                -1.423
REMARK SMILES CCCCCCCCCCCCCCCC(=O)[O-]
REMARK SMILES IDX 9 1 10 2 11 3 12 4 13 5 14 6 15 7 16 8 17 9 18 10 8 11 7 12
REMARK SMILES IDX 6 13 5 14 4 15 3 16 2 17 1 18
REMARK H PARENT
REMARK Flexibility Score: inf
ROOT
ATOM      1  C   UNL     1       0.844  25.209   8.766  1.00  0.00     0.000 C 
ENDROOT
BRANCH   1   2
ATOM      2  C   UNL     1       0.142  25.282  10.139  1.00  0.00     0.000 C 
BRANCH   2   3
ATOM      3  C   UNL     1       0.688  24.243  11.132  1.00  0.00     0.000 C 
BRANCH   3   4
ATOM      4  C   UNL     1      -0.283  23.959  12.289  1.00  0.00     0.000 C 
BRANCH   4   5
ATOM      5  C   UNL     1      -0.132  24.953  13.450  1.00  0.00     0.000 C 
BRANCH   5   6
ATOM      6  C   UNL     1       0.767  24.374  14.553  1.00  0.00     0.006 C 
BRANCH   6   7
ATOM      7  C   UNL     1       1.893  25.338  14.950  1.00  0.00     0.053 C 
BRANCH   7   8
ATOM      8  C   UNL     1       2.959  25.409  13.900  1.00  0.00     0.041 C 
ATOM      9  O   UNL     1       3.813  24.488  13.799  1.00  0.00    -0.550 OA
ATOM     10  O   UNL     1       2.990  26.475  13.011  1.00  0.00    -0.550 OA
ENDBRANCH   7   8
ENDBRANCH   6   7
ENDBRANCH   5   6
ENDBRANCH   4   5
ENDBRANCH   3   4
ENDBRANCH   2   3
ENDBRANCH   1   2
BRANCH   1  11
ATOM     11  C   UNL     1      -0.047  24.648   7.642  1.00  0.00     0.000 C 
BRANCH  11  12
ATOM     12  C   UNL     1       0.503  24.838   6.216  1.00  0.00    -0.000 C 
BRANCH  12  13
ATOM     13  C   UNL     1       1.809  25.650   6.123  1.00  0.00    -0.000 C 
BRANCH  13  14
ATOM     14  C   UNL     1       3.036  24.773   5.821  1.00  0.00    -0.000 C 
BRANCH  14  15
ATOM     15  C   UNL     1       4.219  25.054   6.766  1.00  0.00    -0.000 C 
BRANCH  15  16
ATOM     16  C   UNL     1       4.318  24.123   7.992  1.00  0.00    -0.000 C 
BRANCH  16  17
ATOM     17  C   UNL     1       4.476  24.840   9.343  1.00  0.00    -0.003 C 
ATOM     18  C   UNL     1       4.734  23.875  10.502  1.00  0.00     0.004 C 
ENDBRANCH  16  17
ENDBRANCH  15  16
ENDBRANCH  14  15
ENDBRANCH  13  14
ENDBRANCH  12  13
ENDBRANCH  11  12
ENDBRANCH   1  11
TORSDOF 14
ENDMDL
