MODEL 1
REMARK VINA RESULT:    -4.218      0.000      0.000
REMARK INTER + INTRA:          -7.241
REMARK INTER:                  -6.438
REMARK INTRA:                  -0.803
REMARK UNBOUND:                -0.803
REMARK SMILES CCCCCCCCCCC(=O)[O-]
REMARK SMILES IDX 7 1 8 2 9 3 10 4 11 5 12 6 13 7 6 8 5 9 4 10 3 11 2 12 1 13
REMARK H PARENT
REMARK Flexibility Score: inf
ROOT
ATOM      1  C   UNL     1      -9.114  -3.432   5.425  1.00  0.00     0.000 C 
ENDROOT
BRANCH   1   2
ATOM      2  C   UNL     1      -8.419  -4.418   6.385  1.00  0.00     0.000 C 
BRANCH   2   3
ATOM      3  C   UNL     1      -9.266  -5.635   6.799  1.00  0.00     0.006 C 
BRANCH   3   4
ATOM      4  C   UNL     1      -8.739  -6.952   6.217  1.00  0.00     0.053 C 
BRANCH   4   5
ATOM      5  C   UNL     1      -9.602  -7.402   5.081  1.00  0.00     0.041 C 
ATOM      6  O   UNL     1      -9.219  -8.334   4.325  1.00  0.00    -0.550 OA
ATOM      7  O   UNL     1     -10.807  -6.760   4.826  1.00  0.00    -0.550 OA
ENDBRANCH   4   5
ENDBRANCH   3   4
ENDBRANCH   2   3
ENDBRANCH   1   2
BRANCH   1   8
ATOM      8  C   UNL     1      -9.109  -3.844   3.943  1.00  0.00     0.000 C 
BRANCH   8   9
ATOM      9  C   UNL     1     -10.366  -3.374   3.189  1.00  0.00    -0.000 C 
BRANCH   9  10
ATOM     10  C   UNL     1     -10.081  -2.190   2.249  1.00  0.00    -0.000 C 
BRANCH  10  11
ATOM     11  C   UNL     1     -10.425  -0.833   2.889  1.00  0.00    -0.000 C 
BRANCH  11  12
ATOM     12  C   UNL     1      -9.212   0.108   2.959  1.00  0.00    -0.003 C 
ATOM     13  C   UNL     1      -7.946  -0.510   2.368  1.00  0.00     0.004 C 
ENDBRANCH  11  12
ENDBRANCH  10  11
ENDBRANCH   9  10
ENDBRANCH   8   9
ENDBRANCH   1   8
TORSDOF 9
ENDMDL
MODEL 2
REMARK VINA RESULT:    -4.161      3.134      6.219
REMARK INTER + INTRA:          -7.154
REMARK INTER:                  -6.386
REMARK INTRA:                  -0.768
REMARK UNBOUND:                -0.803
REMARK SMILES CCCCCCCCCCC(=O)[O-]
REMARK SMILES IDX 7 1 8 2 9 3 10 4 11 5 12 6 13 7 6 8 5 9 4 10 3 11 2 12 1 13
REMARK H PARENT
REMARK Flexibility Score: inf
ROOT
ATOM      1  C   UNL     1      -8.765  -3.571   5.798  1.00  0.00     0.000 C 
ENDROOT
BRANCH   1   2
ATOM      2  C   UNL     1      -8.588  -3.377   4.278  1.00  0.00     0.000 C 
BRANCH   2   3
ATOM      3  C   UNL     1      -9.868  -2.996   3.514  1.00  0.00     0.006 C 
BRANCH   3   4
ATOM      4  C   UNL     1      -9.606  -2.011   2.369  1.00  0.00     0.053 C 
BRANCH   4   5
ATOM      5  C   UNL     1      -8.995  -0.750   2.895  1.00  0.00     0.041 C 
ATOM      6  O   UNL     1      -9.654   0.001   3.662  1.00  0.00    -0.550 OA
ATOM      7  O   UNL     1      -7.716  -0.379   2.499  1.00  0.00    -0.550 OA
ENDBRANCH   4   5
ENDBRANCH   3   4
ENDBRANCH   2   3
ENDBRANCH   1   2
BRANCH   1   8
ATOM      8  C   UNL     1      -8.698  -5.028   6.286  1.00  0.00     0.000 C 
BRANCH   8   9
ATOM      9  C   UNL     1     -10.089  -5.661   6.466  1.00  0.00    -0.000 C 
BRANCH   9  10
ATOM     10  C   UNL     1     -10.545  -6.444   5.224  1.00  0.00    -0.000 C 
BRANCH  10  11
ATOM     11  C   UNL     1      -9.449  -7.376   4.678  1.00  0.00    -0.000 C 
BRANCH  11  12
ATOM     12  C   UNL     1      -9.244  -8.620   5.556  1.00  0.00    -0.003 C 
ATOM     13  C   UNL     1      -7.776  -9.027   5.677  1.00  0.00     0.004 C 
ENDBRANCH  11  12
ENDBRANCH  10  11
ENDBRANCH   9  10
ENDBRANCH   8   9
ENDBRANCH   1   8
TORSDOF 9
ENDMDL
MODEL 3
REMARK VINA RESULT:    -4.067      4.014      6.870
REMARK INTER + INTRA:          -7.011
REMARK INTER:                  -6.472
REMARK INTRA:                  -0.538
REMARK UNBOUND:                -0.803
REMARK SMILES CCCCCCCCCCC(=O)[O-]
REMARK SMILES IDX 7 1 8 2 9 3 10 4 11 5 12 6 13 7 6 8 5 9 4 10 3 11 2 12 1 13
REMARK H PARENT
REMARK Flexibility Score: inf
ROOT
ATOM      1  C   UNL     1     -10.128  -2.211   2.439  1.00  0.00     0.000 C 
ENDROOT
BRANCH   1   2
ATOM      2  C   UNL     1      -9.029  -1.264   1.918  1.00  0.00     0.000 C 
BRANCH   2   3
ATOM      3  C   UNL     1      -8.921   0.081   2.658  1.00  0.00     0.006 C 
BRANCH   3   4
ATOM      4  C   UNL     1     -10.139   0.373   3.542  1.00  0.00     0.053 C 
BRANCH   4   5
ATOM      5  C   UNL     1     -10.655   1.753   3.279  1.00  0.00     0.041 C 
ATOM      6  O   UNL     1     -11.294   2.001   2.223  1.00  0.00    -0.550 OA
ATOM      7  O   UNL     1     -10.387   2.778   4.178  1.00  0.00    -0.550 OA
ENDBRANCH   4   5
ENDBRANCH   3   4
ENDBRANCH   2   3
ENDBRANCH   1   2
BRANCH   1   8
ATOM      8  C   UNL     1      -9.621  -3.482   3.143  1.00  0.00     0.000 C 
BRANCH   8   9
ATOM      9  C   UNL     1      -8.630  -3.178   4.280  1.00  0.00    -0.000 C 
BRANCH   9  10
ATOM     10  C   UNL     1      -9.206  -3.507   5.668  1.00  0.00    -0.000 C 
BRANCH  10  11
ATOM     11  C   UNL     1      -8.400  -4.596   6.398  1.00  0.00    -0.000 C 
BRANCH  11  12
ATOM     12  C   UNL     1      -9.020  -5.993   6.238  1.00  0.00    -0.003 C 
ATOM     13  C   UNL     1      -9.596  -6.541   7.543  1.00  0.00     0.004 C 
ENDBRANCH  11  12
ENDBRANCH  10  11
ENDBRANCH   9  10
ENDBRANCH   8   9
ENDBRANCH   1   8
TORSDOF 9
ENDMDL
MODEL 4
REMARK VINA RESULT:    -4.024      2.016      2.387
REMARK INTER + INTRA:          -6.944
REMARK INTER:                  -6.070
REMARK INTRA:                  -0.874
REMARK UNBOUND:                -0.803
REMARK SMILES CCCCCCCCCCC(=O)[O-]
REMARK SMILES IDX 7 1 8 2 9 3 10 4 11 5 12 6 13 7 6 8 5 9 4 10 3 11 2 12 1 13
REMARK H PARENT
REMARK Flexibility Score: inf
ROOT
ATOM      1  C   UNL     1      -8.893  -3.826   5.936  1.00  0.00     0.000 C 
ENDROOT
BRANCH   1   2
ATOM      2  C   UNL     1      -9.039  -5.356   6.059  1.00  0.00     0.000 C 
BRANCH   2   3
ATOM      3  C   UNL     1     -10.484  -5.866   6.197  1.00  0.00     0.006 C 
BRANCH   3   4
ATOM      4  C   UNL     1     -11.190  -6.027   4.845  1.00  0.00     0.053 C 
BRANCH   4   5
ATOM      5  C   UNL     1     -12.186  -4.928   4.644  1.00  0.00     0.041 C 
ATOM      6  O   UNL     1     -12.485  -4.161   5.597  1.00  0.00    -0.550 OA
ATOM      7  O   UNL     1     -12.823  -4.783   3.418  1.00  0.00    -0.550 OA
ENDBRANCH   4   5
ENDBRANCH   3   4
ENDBRANCH   2   3
ENDBRANCH   1   2
BRANCH   1   8
ATOM      8  C   UNL     1      -8.308  -3.327   4.603  1.00  0.00     0.000 C 
BRANCH   8   9
ATOM      9  C   UNL     1      -9.388  -3.075   3.536  1.00  0.00    -0.000 C 
BRANCH   9  10
ATOM     10  C   UNL     1     -10.167  -1.772   3.781  1.00  0.00    -0.000 C 
BRANCH  10  11
ATOM     11  C   UNL     1      -9.343  -0.518   3.438  1.00  0.00    -0.000 C 
BRANCH  11  12
ATOM     12  C   UNL     1      -8.732  -0.584   2.030  1.00  0.00    -0.003 C 
ATOM     13  C   UNL     1      -7.266  -0.154   1.998  1.00  0.00     0.004 C 
ENDBRANCH  11  12
ENDBRANCH  10  11
ENDBRANCH   9  10
ENDBRANCH   8   9
ENDBRANCH   1   8
TORSDOF 9
ENDMDL
MODEL 5
REMARK VINA RESULT:    -4.009      1.661      3.152
REMARK INTER + INTRA:          -6.922
REMARK INTER:                  -5.891
REMARK INTRA:                  -1.031
REMARK UNBOUND:                -0.803
REMARK SMILES CCCCCCCCCCC(=O)[O-]
REMARK SMILES IDX 7 1 8 2 9 3 10 4 11 5 12 6 13 7 6 8 5 9 4 10 3 11 2 12 1 13
REMARK H PARENT
REMARK Flexibility Score: inf
ROOT
ATOM      1  C   UNL     1      -9.704  -2.683   2.747  1.00  0.00     0.000 C 
ENDROOT
BRANCH   1   2
ATOM      2  C   UNL     1      -8.774  -2.809   3.971  1.00  0.00     0.000 C 
BRANCH   2   3
ATOM      3  C   UNL     1      -9.469  -3.228   5.279  1.00  0.00     0.006 C 
BRANCH   3   4
ATOM      4  C   UNL     1      -8.567  -4.073   6.187  1.00  0.00     0.053 C 
BRANCH   4   5
ATOM      5  C   UNL     1      -9.085  -5.474   6.277  1.00  0.00     0.041 C 
ATOM      6  O   UNL     1      -9.462  -6.079   5.238  1.00  0.00    -0.550 OA
ATOM      7  O   UNL     1      -9.199  -6.095   7.515  1.00  0.00    -0.550 OA
ENDBRANCH   4   5
ENDBRANCH   3   4
ENDBRANCH   2   3
ENDBRANCH   1   2
BRANCH   1   8
ATOM      8  C   UNL     1      -9.531  -1.395   1.922  1.00  0.00     0.000 C 
BRANCH   8   9
ATOM      9  C   UNL     1      -8.940  -0.236   2.744  1.00  0.00    -0.000 C 
BRANCH   9  10
ATOM     10  C   UNL     1      -9.997   0.815   3.125  1.00  0.00    -0.000 C 
BRANCH  10  11
ATOM     11  C   UNL     1     -10.728   0.468   4.434  1.00  0.00    -0.000 C 
BRANCH  11  12
ATOM     12  C   UNL     1     -12.167  -0.015   4.194  1.00  0.00    -0.003 C 
ATOM     13  C   UNL     1     -12.488  -1.313   4.932  1.00  0.00     0.004 C 
ENDBRANCH  11  12
ENDBRANCH  10  11
ENDBRANCH   9  10
ENDBRANCH   8   9
ENDBRANCH   1   8
TORSDOF 9
ENDMDL
MODEL 6
REMARK VINA RESULT:    -3.968      3.333      6.658
REMARK INTER + INTRA:          -6.858
REMARK INTER:                  -6.428
REMARK INTRA:                  -0.430
REMARK UNBOUND:                -0.803
REMARK SMILES CCCCCCCCCCC(=O)[O-]
REMARK SMILES IDX 7 1 8 2 9 3 10 4 11 5 12 6 13 7 6 8 5 9 4 10 3 11 2 12 1 13
REMARK H PARENT
REMARK Flexibility Score: inf
ROOT
ATOM      1  C   UNL     1      -8.580  -3.271   4.243  1.00  0.00     0.000 C 
ENDROOT
BRANCH   1   2
ATOM      2  C   UNL     1      -9.390  -2.388   3.272  1.00  0.00     0.000 C 
BRANCH   2   3
ATOM      3  C   UNL     1     -10.179  -1.244   3.932  1.00  0.00     0.006 C 
BRANCH   3   4
ATOM      4  C   UNL     1      -9.813   0.134   3.367  1.00  0.00     0.053 C 
BRANCH   4   5
ATOM      5  C   UNL     1     -10.927   0.663   2.520  1.00  0.00     0.041 C 
ATOM      6  O   UNL     1     -10.963   1.883   2.208  1.00  0.00    -0.550 OA
ATOM      7  O   UNL     1     -11.955  -0.181   2.116  1.00  0.00    -0.550 OA
ENDBRANCH   4   5
ENDBRANCH   3   4
ENDBRANCH   2   3
ENDBRANCH   1   2
BRANCH   1   8
ATOM      8  C   UNL     1      -9.288  -3.609   5.567  1.00  0.00     0.000 C 
BRANCH   8   9
ATOM      9  C   UNL     1      -8.580  -4.727   6.353  1.00  0.00    -0.000 C 
BRANCH   9  10
ATOM     10  C   UNL     1      -9.428  -6.006   6.452  1.00  0.00    -0.000 C 
BRANCH  10  11
ATOM     11  C   UNL     1      -9.738  -6.617   5.073  1.00  0.00    -0.000 C 
BRANCH  11  12
ATOM     12  C   UNL     1      -9.179  -8.041   4.923  1.00  0.00    -0.003 C 
ATOM     13  C   UNL     1      -8.156  -8.394   6.001  1.00  0.00     0.004 C 
ENDBRANCH  11  12
ENDBRANCH  10  11
ENDBRANCH   9  10
ENDBRANCH   8   9
ENDBRANCH   1   8
TORSDOF 9
ENDMDL
MODEL 7
REMARK VINA RESULT:    -3.905      3.363      5.812
REMARK INTER + INTRA:          -6.763
REMARK INTER:                  -5.754
REMARK INTRA:                  -1.009
REMARK UNBOUND:                -0.803
REMARK SMILES CCCCCCCCCCC(=O)[O-]
REMARK SMILES IDX 7 1 8 2 9 3 10 4 11 5 12 6 13 7 6 8 5 9 4 10 3 11 2 12 1 13
REMARK H PARENT
REMARK Flexibility Score: inf
ROOT
ATOM      1  C   UNL     1      -8.607  -3.513   5.201  1.00  0.00     0.000 C 
ENDROOT
BRANCH   1   2
ATOM      2  C   UNL     1      -9.225  -3.934   3.853  1.00  0.00     0.000 C 
BRANCH   2   3
ATOM      3  C   UNL     1      -9.741  -2.775   2.980  1.00  0.00     0.006 C 
BRANCH   3   4
ATOM      4  C   UNL     1      -9.752  -1.433   3.721  1.00  0.00     0.053 C 
BRANCH   4   5
ATOM      5  C   UNL     1      -9.092  -0.376   2.893  1.00  0.00     0.041 C 
ATOM      6  O   UNL     1      -9.753   0.616   2.486  1.00  0.00    -0.550 OA
ATOM      7  O   UNL     1      -7.758  -0.510   2.528  1.00  0.00    -0.550 OA
ENDBRANCH   4   5
ENDBRANCH   3   4
ENDBRANCH   2   3
ENDBRANCH   1   2
BRANCH   1   8
ATOM      8  C   UNL     1      -8.810  -4.510   6.355  1.00  0.00     0.000 C 
BRANCH   8   9
ATOM      9  C   UNL     1      -9.246  -5.904   5.870  1.00  0.00    -0.000 C 
BRANCH   9  10
ATOM     10  C   UNL     1     -10.605  -6.331   6.449  1.00  0.00    -0.000 C 
BRANCH  10  11
ATOM     11  C   UNL     1     -11.726  -5.328   6.125  1.00  0.00    -0.000 C 
BRANCH  11  12
ATOM     12  C   UNL     1     -12.479  -5.685   4.834  1.00  0.00    -0.003 C 
ATOM     13  C   UNL     1     -12.872  -4.456   4.016  1.00  0.00     0.004 C 
ENDBRANCH  11  12
ENDBRANCH  10  11
ENDBRANCH   9  10
ENDBRANCH   8   9
ENDBRANCH   1   8
TORSDOF 9
ENDMDL
MODEL 8
REMARK VINA RESULT:    -3.900      1.703      2.913
REMARK INTER + INTRA:          -6.755
REMARK INTER:                  -5.465
REMARK INTRA:                  -1.290
REMARK UNBOUND:                -0.803
REMARK SMILES CCCCCCCCCCC(=O)[O-]
REMARK SMILES IDX 7 1 8 2 9 3 10 4 11 5 12 6 13 7 6 8 5 9 4 10 3 11 2 12 1 13
REMARK H PARENT
REMARK Flexibility Score: inf
ROOT
ATOM      1  C   UNL     1      -8.649  -3.400   4.129  1.00  0.00     0.000 C 
ENDROOT
BRANCH   1   2
ATOM      2  C   UNL     1      -8.710  -3.653   5.649  1.00  0.00     0.000 C 
BRANCH   2   3
ATOM      3  C   UNL     1      -9.016  -5.104   6.059  1.00  0.00     0.006 C 
BRANCH   3   4
ATOM      4  C   UNL     1      -9.696  -5.906   4.943  1.00  0.00     0.053 C 
BRANCH   4   5
ATOM      5  C   UNL     1      -9.746  -7.358   5.301  1.00  0.00     0.041 C 
ATOM      6  O   UNL     1     -10.279  -7.727   6.381  1.00  0.00    -0.550 OA
ATOM      7  O   UNL     1      -9.161  -8.301   4.465  1.00  0.00    -0.550 OA
ENDBRANCH   4   5
ENDBRANCH   3   4
ENDBRANCH   2   3
ENDBRANCH   1   2
BRANCH   1   8
ATOM      8  C   UNL     1      -9.011  -1.972   3.686  1.00  0.00     0.000 C 
BRANCH   8   9
ATOM      9  C   UNL     1     -10.488  -1.830   3.278  1.00  0.00    -0.000 C 
BRANCH   9  10
ATOM     10  C   UNL     1     -11.101  -3.162   2.814  1.00  0.00    -0.000 C 
BRANCH  10  11
ATOM     11  C   UNL     1     -12.334  -3.564   3.643  1.00  0.00    -0.000 C 
BRANCH  11  12
ATOM     12  C   UNL     1     -12.327  -2.940   5.048  1.00  0.00    -0.003 C 
ATOM     13  C   UNL     1     -12.665  -3.947   6.146  1.00  0.00     0.004 C 
ENDBRANCH  11  12
ENDBRANCH  10  11
ENDBRANCH   9  10
ENDBRANCH   8   9
ENDBRANCH   1   8
TORSDOF 9
ENDMDL
MODEL 9
REMARK VINA RESULT:    -3.873      3.336      6.161
REMARK INTER + INTRA:          -6.713
REMARK INTER:                  -5.952
REMARK INTRA:                  -0.762
REMARK UNBOUND:                -0.803
REMARK SMILES CCCCCCCCCCC(=O)[O-]
REMARK SMILES IDX 7 1 8 2 9 3 10 4 11 5 12 6 13 7 6 8 5 9 4 10 3 11 2 12 1 13
REMARK H PARENT
REMARK Flexibility Score: inf
ROOT
ATOM      1  C   UNL     1      -8.609  -2.257   3.730  1.00  0.00     0.000 C 
ENDROOT
BRANCH   1   2
ATOM      2  C   UNL     1      -8.439  -1.088   2.738  1.00  0.00     0.000 C 
BRANCH   2   3
ATOM      3  C   UNL     1      -9.675  -0.777   1.875  1.00  0.00     0.006 C 
BRANCH   3   4
ATOM      4  C   UNL     1     -10.369   0.529   2.279  1.00  0.00     0.053 C 
BRANCH   4   5
ATOM      5  C   UNL     1     -11.855   0.359   2.256  1.00  0.00     0.041 C 
ATOM      6  O   UNL     1     -12.362  -0.793   2.313  1.00  0.00    -0.550 OA
ATOM      7  O   UNL     1     -12.680   1.468   2.121  1.00  0.00    -0.550 OA
ENDBRANCH   4   5
ENDBRANCH   3   4
ENDBRANCH   2   3
ENDBRANCH   1   2
BRANCH   1   8
ATOM      8  C   UNL     1      -9.833  -3.155   3.481  1.00  0.00     0.000 C 
BRANCH   8   9
ATOM      9  C   UNL     1     -10.900  -3.027   4.583  1.00  0.00    -0.000 C 
BRANCH   9  10
ATOM     10  C   UNL     1     -11.004  -4.291   5.453  1.00  0.00    -0.000 C 
BRANCH  10  11
ATOM     11  C   UNL     1      -9.875  -5.298   5.167  1.00  0.00    -0.000 C 
BRANCH  11  12
ATOM     12  C   UNL     1      -8.921  -5.466   6.359  1.00  0.00    -0.003 C 
ATOM     13  C   UNL     1      -8.216  -4.165   6.743  1.00  0.00     0.004 C 
ENDBRANCH  11  12
ENDBRANCH  10  11
ENDBRANCH   9  10
ENDBRANCH   8   9
ENDBRANCH   1   8
TORSDOF 9
ENDMDL
