MODEL 1
REMARK VINA RESULT:    -3.835      0.000      0.000
REMARK INTER + INTRA:          -6.163
REMARK INTER:                  -4.732
REMARK INTRA:                  -1.431
REMARK UNBOUND:                -1.431
REMARK SMILES CC(C)=CCC[C@@H](C)c1ccc(C)cc1
REMARK SMILES IDX 6 1 7 2 8 3 9 4 13 5 12 6 11 7 14 8 10 9 15 10 5 11 4 12
REMARK SMILES IDX 2 13 1 14 3 15
REMARK H PARENT
REMARK Flexibility Score: inf
ROOT
ATOM      1  C   UNL     1     -13.996  10.127  -5.721  1.00  0.00     0.012 C 
ENDROOT
BRANCH   1   2
ATOM      2  C   UNL     1     -13.854  11.644  -5.458  1.00  0.00     0.016 C 
ATOM      3  C   UNL     1     -14.541  12.074  -4.150  1.00  0.00     0.013 C 
BRANCH   2   4
ATOM      4  C   UNL     1     -12.389  12.042  -5.438  1.00  0.00    -0.045 A 
ATOM      5  C   UNL     1      -8.208  13.125  -5.391  1.00  0.00     0.044 C 
ATOM      6  C   UNL     1      -9.667  12.775  -5.422  1.00  0.00    -0.051 A 
ATOM      7  C   UNL     1     -10.195  12.037  -6.490  1.00  0.00     0.004 A 
ATOM      8  C   UNL     1     -10.499  13.125  -4.348  1.00  0.00     0.004 A 
ATOM      9  C   UNL     1     -11.545  11.678  -6.502  1.00  0.00     0.004 A 
ATOM     10  C   UNL     1     -11.850  12.767  -4.359  1.00  0.00     0.004 A 
ENDBRANCH   2   4
ENDBRANCH   1   2
BRANCH   1  11
ATOM     11  C   UNL     1     -13.538   9.274  -4.529  1.00  0.00     0.028 C 
BRANCH  11  12
ATOM     12  C   UNL     1     -12.664   8.135  -4.994  1.00  0.00    -0.028 C 
ATOM     13  C   UNL     1     -11.331   8.061  -4.787  1.00  0.00    -0.080 C 
ATOM     14  C   UNL     1     -10.582   6.879  -5.346  1.00  0.00     0.039 C 
ATOM     15  C   UNL     1     -10.581   9.112  -4.003  1.00  0.00     0.039 C 
ENDBRANCH  11  12
ENDBRANCH   1  11
TORSDOF 4
ENDMDL
MODEL 2
REMARK VINA RESULT:    -3.761      1.245      4.415
REMARK INTER + INTRA:          -6.071
REMARK INTER:                  -4.825
REMARK INTRA:                  -1.246
REMARK UNBOUND:                -1.431
REMARK SMILES CC(C)=CCC[C@@H](C)c1ccc(C)cc1
REMARK SMILES IDX 6 1 7 2 8 3 9 4 13 5 12 6 11 7 14 8 10 9 15 10 5 11 4 12
REMARK SMILES IDX 2 13 1 14 3 15
REMARK H PARENT
REMARK Flexibility Score: inf
ROOT
ATOM      1  C   UNL     1     -13.076  12.264  -4.631  1.00  0.00     0.012 C 
ENDROOT
BRANCH   1   2
ATOM      2  C   UNL     1     -13.473  11.385  -5.840  1.00  0.00     0.016 C 
ATOM      3  C   UNL     1     -12.979  11.973  -7.172  1.00  0.00     0.013 C 
BRANCH   2   4
ATOM      4  C   UNL     1     -12.949   9.972  -5.661  1.00  0.00    -0.045 A 
ATOM      5  C   UNL     1     -11.458   5.943  -5.205  1.00  0.00     0.044 C 
ATOM      6  C   UNL     1     -11.958   7.351  -5.341  1.00  0.00    -0.051 A 
ATOM      7  C   UNL     1     -11.330   8.243  -6.221  1.00  0.00     0.004 A 
ATOM      8  C   UNL     1     -13.099   7.766  -4.638  1.00  0.00     0.004 A 
ATOM      9  C   UNL     1     -11.817   9.544  -6.376  1.00  0.00     0.004 A 
ATOM     10  C   UNL     1     -13.587   9.066  -4.792  1.00  0.00     0.004 A 
ENDBRANCH   2   4
ENDBRANCH   1   2
BRANCH   1  11
ATOM     11  C   UNL     1     -11.772  13.041  -4.867  1.00  0.00     0.028 C 
BRANCH  11  12
ATOM     12  C   UNL     1     -10.585  12.250  -4.374  1.00  0.00    -0.028 C 
ATOM     13  C   UNL     1      -9.511  11.933  -5.130  1.00  0.00    -0.080 C 
ATOM     14  C   UNL     1      -8.417  11.102  -4.510  1.00  0.00     0.039 C 
ATOM     15  C   UNL     1      -9.370  12.400  -6.560  1.00  0.00     0.039 C 
ENDBRANCH  11  12
ENDBRANCH   1  11
TORSDOF 4
ENDMDL
MODEL 3
REMARK VINA RESULT:    -3.741      1.406      2.111
REMARK INTER + INTRA:          -6.047
REMARK INTER:                  -4.946
REMARK INTRA:                  -1.101
REMARK UNBOUND:                -1.431
REMARK SMILES CC(C)=CCC[C@@H](C)c1ccc(C)cc1
REMARK SMILES IDX 6 1 7 2 8 3 9 4 13 5 12 6 11 7 14 8 10 9 15 10 5 11 4 12
REMARK SMILES IDX 2 13 1 14 3 15
REMARK H PARENT
REMARK Flexibility Score: inf
ROOT
ATOM      1  C   UNL     1     -13.181   8.684  -3.980  1.00  0.00     0.012 C 
ENDROOT
BRANCH   1   2
ATOM      2  C   UNL     1     -13.055   9.362  -5.364  1.00  0.00     0.016 C 
ATOM      3  C   UNL     1     -14.328  10.132  -5.752  1.00  0.00     0.013 C 
BRANCH   2   4
ATOM      4  C   UNL     1     -11.852  10.287  -5.391  1.00  0.00    -0.045 A 
ATOM      5  C   UNL     1      -8.444  12.942  -5.424  1.00  0.00     0.044 C 
ATOM      6  C   UNL     1      -9.610  11.998  -5.424  1.00  0.00    -0.051 A 
ATOM      7  C   UNL     1      -9.900  11.232  -4.286  1.00  0.00     0.004 A 
ATOM      8  C   UNL     1     -10.460  11.925  -6.537  1.00  0.00     0.004 A 
ATOM      9  C   UNL     1     -11.007  10.380  -4.271  1.00  0.00     0.004 A 
ATOM     10  C   UNL     1     -11.567  11.073  -6.524  1.00  0.00     0.004 A 
ENDBRANCH   2   4
ENDBRANCH   1   2
BRANCH   1  11
ATOM     11  C   UNL     1     -12.997   7.160  -4.049  1.00  0.00     0.028 C 
BRANCH  11  12
ATOM     12  C   UNL     1     -12.345   6.762  -5.351  1.00  0.00    -0.028 C 
ATOM     13  C   UNL     1     -11.012   6.628  -5.527  1.00  0.00    -0.080 C 
ATOM     14  C   UNL     1     -10.503   6.261  -6.897  1.00  0.00     0.039 C 
ATOM     15  C   UNL     1     -10.030   6.816  -4.394  1.00  0.00     0.039 C 
ENDBRANCH  11  12
ENDBRANCH   1  11
TORSDOF 4
ENDMDL
MODEL 4
REMARK VINA RESULT:    -3.700      1.354      5.049
REMARK INTER + INTRA:          -5.996
REMARK INTER:                  -4.884
REMARK INTRA:                  -1.112
REMARK UNBOUND:                -1.431
REMARK SMILES CC(C)=CCC[C@@H](C)c1ccc(C)cc1
REMARK SMILES IDX 6 1 7 2 8 3 9 4 13 5 12 6 11 7 14 8 10 9 15 10 5 11 4 12
REMARK SMILES IDX 2 13 1 14 3 15
REMARK H PARENT
REMARK Flexibility Score: inf
ROOT
ATOM      1  C   UNL     1     -10.748   9.211  -3.935  1.00  0.00     0.012 C 
ENDROOT
BRANCH   1   2
ATOM      2  C   UNL     1     -11.311   9.032  -5.364  1.00  0.00     0.016 C 
ATOM      3  C   UNL     1     -11.205   7.578  -5.853  1.00  0.00     0.013 C 
BRANCH   2   4
ATOM      4  C   UNL     1     -12.753   9.505  -5.426  1.00  0.00    -0.045 A 
ATOM      5  C   UNL     1     -16.870  10.799  -5.618  1.00  0.00     0.044 C 
ATOM      6  C   UNL     1     -15.435  10.368  -5.528  1.00  0.00    -0.051 A 
ATOM      7  C   UNL     1     -15.081   9.248  -4.763  1.00  0.00     0.004 A 
ATOM      8  C   UNL     1     -14.448  11.041  -6.262  1.00  0.00     0.004 A 
ATOM      9  C   UNL     1     -13.750   8.823  -4.708  1.00  0.00     0.004 A 
ATOM     10  C   UNL     1     -13.118  10.618  -6.208  1.00  0.00     0.004 A 
ENDBRANCH   2   4
ENDBRANCH   1   2
BRANCH   1  11
ATOM     11  C   UNL     1      -9.578  10.205  -3.880  1.00  0.00     0.028 C 
BRANCH  11  12
ATOM     12  C   UNL     1      -9.602  11.120  -5.081  1.00  0.00    -0.028 C 
ATOM     13  C   UNL     1     -10.185  12.339  -5.100  1.00  0.00    -0.080 C 
ATOM     14  C   UNL     1     -10.162  13.124  -6.386  1.00  0.00     0.039 C 
ATOM     15  C   UNL     1     -10.836  12.937  -3.875  1.00  0.00     0.039 C 
ENDBRANCH  11  12
ENDBRANCH   1  11
TORSDOF 4
ENDMDL
MODEL 5
REMARK VINA RESULT:    -3.607      1.257      4.719
REMARK INTER + INTRA:          -5.882
REMARK INTER:                  -4.863
REMARK INTRA:                  -1.019
REMARK UNBOUND:                -1.431
REMARK SMILES CC(C)=CCC[C@@H](C)c1ccc(C)cc1
REMARK SMILES IDX 6 1 7 2 8 3 9 4 13 5 12 6 11 7 14 8 10 9 15 10 5 11 4 12
REMARK SMILES IDX 2 13 1 14 3 15
REMARK H PARENT
REMARK Flexibility Score: inf
ROOT
ATOM      1  C   UNL     1     -13.501  11.649  -6.398  1.00  0.00     0.012 C 
ENDROOT
BRANCH   1   2
ATOM      2  C   UNL     1     -13.588  10.862  -5.070  1.00  0.00     0.016 C 
ATOM      3  C   UNL     1     -15.029  10.775  -4.539  1.00  0.00     0.013 C 
BRANCH   2   4
ATOM      4  C   UNL     1     -13.007   9.470  -5.242  1.00  0.00    -0.045 A 
ATOM      5  C   UNL     1     -11.351   5.517  -5.784  1.00  0.00     0.044 C 
ATOM      6  C   UNL     1     -11.909   6.893  -5.571  1.00  0.00    -0.051 A 
ATOM      7  C   UNL     1     -11.308   8.002  -6.182  1.00  0.00     0.004 A 
ATOM      8  C   UNL     1     -13.077   7.073  -4.815  1.00  0.00     0.004 A 
ATOM      9  C   UNL     1     -11.848   9.281  -6.015  1.00  0.00     0.004 A 
ATOM     10  C   UNL     1     -13.618   8.350  -4.646  1.00  0.00     0.004 A 
ENDBRANCH   2   4
ENDBRANCH   1   2
BRANCH   1  11
ATOM     11  C   UNL     1     -12.839  13.025  -6.226  1.00  0.00     0.028 C 
BRANCH  11  12
ATOM     12  C   UNL     1     -11.343  12.920  -6.399  1.00  0.00    -0.028 C 
ATOM     13  C   UNL     1     -10.453  12.961  -5.383  1.00  0.00    -0.080 C 
ATOM     14  C   UNL     1      -8.984  12.883  -5.713  1.00  0.00     0.039 C 
ATOM     15  C   UNL     1     -10.886  13.062  -3.939  1.00  0.00     0.039 C 
ENDBRANCH  11  12
ENDBRANCH   1  11
TORSDOF 4
ENDMDL
MODEL 6
REMARK VINA RESULT:    -3.526      1.515      5.714
REMARK INTER + INTRA:          -5.782
REMARK INTER:                  -5.092
REMARK INTRA:                  -0.690
REMARK UNBOUND:                -1.431
REMARK SMILES CC(C)=CCC[C@@H](C)c1ccc(C)cc1
REMARK SMILES IDX 6 1 7 2 8 3 9 4 13 5 12 6 11 7 14 8 10 9 15 10 5 11 4 12
REMARK SMILES IDX 2 13 1 14 3 15
REMARK H PARENT
REMARK Flexibility Score: inf
ROOT
ATOM      1  C   UNL     1     -11.586   9.942  -6.583  1.00  0.00     0.012 C 
ENDROOT
BRANCH   1   2
ATOM      2  C   UNL     1     -12.401   9.562  -5.324  1.00  0.00     0.016 C 
ATOM      3  C   UNL     1     -13.854  10.060  -5.400  1.00  0.00     0.013 C 
BRANCH   2   4
ATOM      4  C   UNL     1     -12.370   8.060  -5.109  1.00  0.00    -0.045 A 
ATOM      5  C   UNL     1     -12.283   3.792  -4.443  1.00  0.00     0.044 C 
ATOM      6  C   UNL     1     -12.332   5.270  -4.698  1.00  0.00    -0.051 A 
ATOM      7  C   UNL     1     -13.284   6.068  -4.050  1.00  0.00     0.004 A 
ATOM      8  C   UNL     1     -11.382   5.875  -5.534  1.00  0.00     0.004 A 
ATOM      9  C   UNL     1     -13.308   7.450  -4.257  1.00  0.00     0.004 A 
ATOM     10  C   UNL     1     -11.404   7.256  -5.743  1.00  0.00     0.004 A 
ENDBRANCH   2   4
ENDBRANCH   1   2
BRANCH   1  11
ATOM     11  C   UNL     1     -11.497  11.461  -6.793  1.00  0.00     0.028 C 
BRANCH  11  12
ATOM     12  C   UNL     1     -10.091  11.950  -6.546  1.00  0.00    -0.028 C 
ATOM     13  C   UNL     1      -9.711  12.671  -5.468  1.00  0.00    -0.080 C 
ATOM     14  C   UNL     1      -8.276  13.123  -5.377  1.00  0.00     0.039 C 
ATOM     15  C   UNL     1     -10.672  13.016  -4.354  1.00  0.00     0.039 C 
ENDBRANCH  11  12
ENDBRANCH   1  11
TORSDOF 4
ENDMDL
MODEL 7
REMARK VINA RESULT:    -3.434      1.162      3.866
REMARK INTER + INTRA:          -5.668
REMARK INTER:                  -4.461
REMARK INTRA:                  -1.207
REMARK UNBOUND:                -1.431
REMARK SMILES CC(C)=CCC[C@@H](C)c1ccc(C)cc1
REMARK SMILES IDX 6 1 7 2 8 3 9 4 13 5 12 6 11 7 14 8 10 9 15 10 5 11 4 12
REMARK SMILES IDX 2 13 1 14 3 15
REMARK H PARENT
REMARK Flexibility Score: inf
ROOT
ATOM      1  C   UNL     1      -9.133  11.215  -4.774  1.00  0.00     0.012 C 
ENDROOT
BRANCH   1   2
ATOM      2  C   UNL     1      -9.691  12.598  -5.182  1.00  0.00     0.016 C 
ATOM      3  C   UNL     1      -9.052  13.124  -6.478  1.00  0.00     0.013 C 
BRANCH   2   4
ATOM      4  C   UNL     1     -11.201  12.537  -5.328  1.00  0.00    -0.045 A 
ATOM      5  C   UNL     1     -15.501  12.337  -5.697  1.00  0.00     0.044 C 
ATOM      6  C   UNL     1     -14.008  12.434  -5.582  1.00  0.00    -0.051 A 
ATOM      7  C   UNL     1     -13.421  12.961  -4.424  1.00  0.00     0.004 A 
ATOM      8  C   UNL     1     -13.187  11.934  -6.604  1.00  0.00     0.004 A 
ATOM      9  C   UNL     1     -12.030  13.018  -4.300  1.00  0.00     0.004 A 
ATOM     10  C   UNL     1     -11.796  11.990  -6.482  1.00  0.00     0.004 A 
ENDBRANCH   2   4
ENDBRANCH   1   2
BRANCH   1  11
ATOM     11  C   UNL     1     -10.112  10.418  -3.898  1.00  0.00     0.028 C 
BRANCH  11  12
ATOM     12  C   UNL     1     -10.528   9.143  -4.591  1.00  0.00    -0.028 C 
ATOM     13  C   UNL     1     -11.780   8.636  -4.568  1.00  0.00    -0.080 C 
ATOM     14  C   UNL     1     -12.037   7.330  -5.275  1.00  0.00     0.039 C 
ATOM     15  C   UNL     1     -12.921   9.344  -3.875  1.00  0.00     0.039 C 
ENDBRANCH  11  12
ENDBRANCH   1  11
TORSDOF 4
ENDMDL
MODEL 8
REMARK VINA RESULT:    -3.379      1.343      3.962
REMARK INTER + INTRA:          -5.600
REMARK INTER:                  -4.063
REMARK INTRA:                  -1.538
REMARK UNBOUND:                -1.431
REMARK SMILES CC(C)=CCC[C@@H](C)c1ccc(C)cc1
REMARK SMILES IDX 6 1 7 2 8 3 9 4 13 5 12 6 11 7 14 8 10 9 15 10 5 11 4 12
REMARK SMILES IDX 2 13 1 14 3 15
REMARK H PARENT
REMARK Flexibility Score: inf
ROOT
ATOM      1  C   UNL     1     -10.315  11.938  -4.002  1.00  0.00     0.012 C 
ENDROOT
BRANCH   1   2
ATOM      2  C   UNL     1     -11.136  12.639  -5.108  1.00  0.00     0.016 C 
ATOM      3  C   UNL     1     -10.386  12.684  -6.450  1.00  0.00     0.013 C 
BRANCH   2   4
ATOM      4  C   UNL     1     -12.481  11.957  -5.280  1.00  0.00    -0.045 A 
ATOM      5  C   UNL     1     -16.322  10.049  -5.807  1.00  0.00     0.044 C 
ATOM      6  C   UNL     1     -14.975  10.685  -5.619  1.00  0.00    -0.051 A 
ATOM      7  C   UNL     1     -14.144  10.919  -6.723  1.00  0.00     0.004 A 
ATOM      8  C   UNL     1     -14.566  11.111  -4.347  1.00  0.00     0.004 A 
ATOM      9  C   UNL     1     -12.905  11.544  -6.555  1.00  0.00     0.004 A 
ATOM     10  C   UNL     1     -13.328  11.736  -4.177  1.00  0.00     0.004 A 
ENDBRANCH   2   4
ENDBRANCH   1   2
BRANCH   1  11
ATOM     11  C   UNL     1      -9.774  10.570  -4.444  1.00  0.00     0.028 C 
BRANCH  11  12
ATOM     12  C   UNL     1     -10.622   9.456  -3.879  1.00  0.00    -0.028 C 
ATOM     13  C   UNL     1     -11.310   8.566  -4.628  1.00  0.00    -0.080 C 
ATOM     14  C   UNL     1     -12.147   7.530  -3.922  1.00  0.00     0.039 C 
ATOM     15  C   UNL     1     -11.250   8.570  -6.137  1.00  0.00     0.039 C 
ENDBRANCH  11  12
ENDBRANCH   1  11
TORSDOF 4
ENDMDL
MODEL 9
REMARK VINA RESULT:    -3.077      1.242      4.544
REMARK INTER + INTRA:          -5.227
REMARK INTER:                  -3.817
REMARK INTRA:                  -1.411
REMARK UNBOUND:                -1.431
REMARK SMILES CC(C)=CCC[C@@H](C)c1ccc(C)cc1
REMARK SMILES IDX 6 1 7 2 8 3 9 4 13 5 12 6 11 7 14 8 10 9 15 10 5 11 4 12
REMARK SMILES IDX 2 13 1 14 3 15
REMARK H PARENT
REMARK Flexibility Score: inf
ROOT
ATOM      1  C   UNL     1     -11.812  12.946  -6.328  1.00  0.00     0.012 C 
ENDROOT
BRANCH   1   2
ATOM      2  C   UNL     1     -10.426  12.308  -6.080  1.00  0.00     0.016 C 
ATOM      3  C   UNL     1      -9.585  13.115  -5.076  1.00  0.00     0.013 C 
BRANCH   2   4
ATOM      4  C   UNL     1     -10.581  10.875  -5.603  1.00  0.00    -0.045 A 
ATOM      5  C   UNL     1     -10.972   6.796  -4.235  1.00  0.00     0.044 C 
ATOM      6  C   UNL     1     -10.864   8.219  -4.699  1.00  0.00    -0.051 A 
ATOM      7  C   UNL     1     -10.276   9.189  -3.875  1.00  0.00     0.004 A 
ATOM      8  C   UNL     1     -11.288   8.576  -5.987  1.00  0.00     0.004 A 
ATOM      9  C   UNL     1     -10.141  10.507  -4.320  1.00  0.00     0.004 A 
ATOM     10  C   UNL     1     -11.154   9.893  -6.434  1.00  0.00     0.004 A 
ENDBRANCH   2   4
ENDBRANCH   1   2
BRANCH   1  11
ATOM     11  C   UNL     1     -12.667  13.017  -5.054  1.00  0.00     0.028 C 
BRANCH  11  12
ATOM     12  C   UNL     1     -14.086  12.588  -5.341  1.00  0.00    -0.028 C 
ATOM     13  C   UNL     1     -14.654  11.460  -4.860  1.00  0.00    -0.080 C 
ATOM     14  C   UNL     1     -16.071  11.143  -5.265  1.00  0.00     0.039 C 
ATOM     15  C   UNL     1     -13.922  10.528  -3.924  1.00  0.00     0.039 C 
ENDBRANCH  11  12
ENDBRANCH   1  11
TORSDOF 4
ENDMDL
