MODEL 1
REMARK VINA RESULT:    -4.058      0.000      0.000
REMARK INTER + INTRA:          -5.446
REMARK INTER:                  -5.244
REMARK INTRA:                  -0.202
REMARK UNBOUND:                -0.202
REMARK SMILES C=CC(=O)CCCCC
REMARK SMILES IDX 6 1 7 2 8 3 9 4 5 5 3 6 4 7 2 8 1 9
REMARK H PARENT
REMARK Flexibility Score: inf
ROOT
ATOM      1  C   UNL     1     -12.658   0.596  29.771  1.00  0.00     0.008 C 
ENDROOT
BRANCH   1   2
ATOM      2  C   UNL     1     -13.036  -0.068  31.106  1.00  0.00     0.000 C 
BRANCH   2   3
ATOM      3  C   UNL     1     -12.086   0.324  32.248  1.00  0.00    -0.003 C 
ATOM      4  C   UNL     1     -11.883   1.835  32.357  1.00  0.00     0.004 C 
ENDBRANCH   2   3
ENDBRANCH   1   2
BRANCH   1   5
ATOM      5  C   UNL     1     -13.876   0.798  28.858  1.00  0.00     0.080 C 
BRANCH   5   6
ATOM      6  C   UNL     1     -14.142   2.254  28.593  1.00  0.00     0.155 C 
ATOM      7  O   UNL     1     -13.561   3.123  29.297  1.00  0.00    -0.295 OA
BRANCH   6   8
ATOM      8  C   UNL     1     -15.094   2.656  27.539  1.00  0.00     0.039 C 
ATOM      9  C   UNL     1     -16.371   2.932  27.797  1.00  0.00     0.012 C 
ENDBRANCH   6   8
ENDBRANCH   5   6
ENDBRANCH   1   5
TORSDOF 5
ENDMDL
MODEL 2
REMARK VINA RESULT:    -3.952      0.889      1.401
REMARK INTER + INTRA:          -5.309
REMARK INTER:                  -5.141
REMARK INTRA:                  -0.168
REMARK UNBOUND:                -0.202
REMARK SMILES C=CC(=O)CCCCC
REMARK SMILES IDX 6 1 7 2 8 3 9 4 5 5 3 6 4 7 2 8 1 9
REMARK H PARENT
REMARK Flexibility Score: inf
ROOT
ATOM      1  C   UNL     1     -13.825   0.820  28.892  1.00  0.00     0.008 C 
ENDROOT
BRANCH   1   2
ATOM      2  C   UNL     1     -13.077   1.193  30.182  1.00  0.00     0.000 C 
BRANCH   2   3
ATOM      3  C   UNL     1     -12.994   0.023  31.175  1.00  0.00    -0.003 C 
ATOM      4  C   UNL     1     -12.016   0.285  32.320  1.00  0.00     0.004 C 
ENDBRANCH   2   3
ENDBRANCH   1   2
BRANCH   1   5
ATOM      5  C   UNL     1     -13.721   1.917  27.823  1.00  0.00     0.080 C 
BRANCH   5   6
ATOM      6  C   UNL     1     -14.761   2.985  28.012  1.00  0.00     0.155 C 
ATOM      7  O   UNL     1     -14.402   4.133  28.394  1.00  0.00    -0.295 OA
BRANCH   6   8
ATOM      8  C   UNL     1     -16.187   2.685  27.782  1.00  0.00     0.039 C 
ATOM      9  C   UNL     1     -17.014   3.548  27.194  1.00  0.00     0.012 C 
ENDBRANCH   6   8
ENDBRANCH   5   6
ENDBRANCH   1   5
TORSDOF 5
ENDMDL
MODEL 3
REMARK VINA RESULT:    -3.946      1.668      4.858
REMARK INTER + INTRA:          -5.302
REMARK INTER:                  -5.119
REMARK INTRA:                  -0.183
REMARK UNBOUND:                -0.202
REMARK SMILES C=CC(=O)CCCCC
REMARK SMILES IDX 6 1 7 2 8 3 9 4 5 5 3 6 4 7 2 8 1 9
REMARK H PARENT
REMARK Flexibility Score: inf
ROOT
ATOM      1  C   UNL     1     -13.564   2.034  29.103  1.00  0.00     0.008 C 
ENDROOT
BRANCH   1   2
ATOM      2  C   UNL     1     -14.344   2.310  27.807  1.00  0.00     0.000 C 
BRANCH   2   3
ATOM      3  C   UNL     1     -15.348   3.464  27.958  1.00  0.00    -0.003 C 
ATOM      4  C   UNL     1     -16.793   3.026  27.722  1.00  0.00     0.004 C 
ENDBRANCH   2   3
ENDBRANCH   1   2
BRANCH   1   5
ATOM      5  C   UNL     1     -13.573   0.546  29.481  1.00  0.00     0.080 C 
BRANCH   5   6
ATOM      6  C   UNL     1     -13.021   0.314  30.859  1.00  0.00     0.155 C 
ATOM      7  O   UNL     1     -13.217  -0.799  31.421  1.00  0.00    -0.295 OA
BRANCH   6   8
ATOM      8  C   UNL     1     -12.283   1.385  31.555  1.00  0.00     0.039 C 
ATOM      9  C   UNL     1     -11.815   1.242  32.794  1.00  0.00     0.012 C 
ENDBRANCH   6   8
ENDBRANCH   5   6
ENDBRANCH   1   5
TORSDOF 5
ENDMDL
MODEL 4
REMARK VINA RESULT:    -3.928     10.808     12.037
REMARK INTER + INTRA:          -5.278
REMARK INTER:                  -4.868
REMARK INTRA:                  -0.410
REMARK UNBOUND:                -0.202
REMARK SMILES C=CC(=O)CCCCC
REMARK SMILES IDX 6 1 7 2 8 3 9 4 5 5 3 6 4 7 2 8 1 9
REMARK H PARENT
REMARK Flexibility Score: inf
ROOT
ATOM      1  C   UNL     1      -1.704   0.551  30.084  1.00  0.00     0.008 C 
ENDROOT
BRANCH   1   2
ATOM      2  C   UNL     1      -2.617  -0.686  30.063  1.00  0.00     0.000 C 
BRANCH   2   3
ATOM      3  C   UNL     1      -3.978  -0.403  29.409  1.00  0.00    -0.003 C 
ATOM      4  C   UNL     1      -5.156  -0.732  30.327  1.00  0.00     0.004 C 
ENDBRANCH   2   3
ENDBRANCH   1   2
BRANCH   1   5
ATOM      5  C   UNL     1      -0.503   0.403  29.139  1.00  0.00     0.080 C 
BRANCH   5   6
ATOM      6  C   UNL     1      -0.847   0.798  27.730  1.00  0.00     0.155 C 
ATOM      7  O   UNL     1      -1.004   2.018  27.454  1.00  0.00    -0.295 OA
BRANCH   6   8
ATOM      8  C   UNL     1      -1.026  -0.235  26.691  1.00  0.00     0.039 C 
ATOM      9  C   UNL     1      -2.175  -0.399  26.036  1.00  0.00     0.012 C 
ENDBRANCH   6   8
ENDBRANCH   5   6
ENDBRANCH   1   5
TORSDOF 5
ENDMDL
MODEL 5
REMARK VINA RESULT:    -3.880      1.005      4.751
REMARK INTER + INTRA:          -5.216
REMARK INTER:                  -5.008
REMARK INTRA:                  -0.208
REMARK UNBOUND:                -0.202
REMARK SMILES C=CC(=O)CCCCC
REMARK SMILES IDX 6 1 7 2 8 3 9 4 5 5 3 6 4 7 2 8 1 9
REMARK H PARENT
REMARK Flexibility Score: inf
ROOT
ATOM      1  C   UNL     1     -13.393   2.129  27.625  1.00  0.00     0.008 C 
ENDROOT
BRANCH   1   2
ATOM      2  C   UNL     1     -14.515   2.987  27.017  1.00  0.00     0.000 C 
BRANCH   2   3
ATOM      3  C   UNL     1     -15.844   2.842  27.775  1.00  0.00    -0.003 C 
ATOM      4  C   UNL     1     -17.019   3.484  27.038  1.00  0.00     0.004 C 
ENDBRANCH   2   3
ENDBRANCH   1   2
BRANCH   1   5
ATOM      5  C   UNL     1     -13.922   1.131  28.664  1.00  0.00     0.080 C 
BRANCH   5   6
ATOM      6  C   UNL     1     -13.241   1.293  29.995  1.00  0.00     0.155 C 
ATOM      7  O   UNL     1     -12.737   2.409  30.296  1.00  0.00    -0.295 OA
BRANCH   6   8
ATOM      8  C   UNL     1     -13.141   0.151  30.923  1.00  0.00     0.039 C 
ATOM      9  C   UNL     1     -12.238   0.102  31.902  1.00  0.00     0.012 C 
ENDBRANCH   6   8
ENDBRANCH   5   6
ENDBRANCH   1   5
TORSDOF 5
ENDMDL
MODEL 6
REMARK VINA RESULT:    -3.859      1.802      2.666
REMARK INTER + INTRA:          -5.189
REMARK INTER:                  -4.962
REMARK INTRA:                  -0.228
REMARK UNBOUND:                -0.202
REMARK SMILES C=CC(=O)CCCCC
REMARK SMILES IDX 6 1 7 2 8 3 9 4 5 5 3 6 4 7 2 8 1 9
REMARK H PARENT
REMARK Flexibility Score: inf
ROOT
ATOM      1  C   UNL     1     -13.134   1.141  30.226  1.00  0.00     0.008 C 
ENDROOT
BRANCH   1   2
ATOM      2  C   UNL     1     -12.899  -0.053  31.166  1.00  0.00     0.000 C 
BRANCH   2   3
ATOM      3  C   UNL     1     -11.968   0.294  32.338  1.00  0.00    -0.003 C 
ATOM      4  C   UNL     1     -11.931   1.792  32.642  1.00  0.00     0.004 C 
ENDBRANCH   2   3
ENDBRANCH   1   2
BRANCH   1   5
ATOM      5  C   UNL     1     -13.830   0.726  28.922  1.00  0.00     0.080 C 
BRANCH   5   6
ATOM      6  C   UNL     1     -13.018   1.092  27.712  1.00  0.00     0.155 C 
ATOM      7  O   UNL     1     -13.382   2.067  26.999  1.00  0.00    -0.295 OA
BRANCH   6   8
ATOM      8  C   UNL     1     -11.827   0.301  27.348  1.00  0.00     0.039 C 
ATOM      9  C   UNL     1     -10.735   0.854  26.822  1.00  0.00     0.012 C 
ENDBRANCH   6   8
ENDBRANCH   5   6
ENDBRANCH   1   5
TORSDOF 5
ENDMDL
MODEL 7
REMARK VINA RESULT:    -3.859     10.880     12.318
REMARK INTER + INTRA:          -5.189
REMARK INTER:                  -4.627
REMARK INTRA:                  -0.562
REMARK UNBOUND:                -0.202
REMARK SMILES C=CC(=O)CCCCC
REMARK SMILES IDX 6 1 7 2 8 3 9 4 5 5 3 6 4 7 2 8 1 9
REMARK H PARENT
REMARK Flexibility Score: inf
ROOT
ATOM      1  C   UNL     1      -0.976   0.820  27.640  1.00  0.00     0.008 C 
ENDROOT
BRANCH   1   2
ATOM      2  C   UNL     1      -1.070  -0.351  26.648  1.00  0.00     0.000 C 
BRANCH   2   3
ATOM      3  C   UNL     1      -2.392  -0.355  25.864  1.00  0.00    -0.003 C 
ATOM      4  C   UNL     1      -3.294   0.827  26.217  1.00  0.00     0.004 C 
ENDBRANCH   2   3
ENDBRANCH   1   2
BRANCH   1   5
ATOM      5  C   UNL     1      -0.600   0.356  29.053  1.00  0.00     0.080 C 
BRANCH   5   6
ATOM      6  C   UNL     1      -1.776   0.393  29.988  1.00  0.00     0.155 C 
ATOM      7  O   UNL     1      -1.903   1.366  30.780  1.00  0.00    -0.295 OA
BRANCH   6   8
ATOM      8  C   UNL     1      -2.754  -0.712  29.997  1.00  0.00     0.039 C 
ATOM      9  C   UNL     1      -4.020  -0.549  29.616  1.00  0.00     0.012 C 
ENDBRANCH   6   8
ENDBRANCH   5   6
ENDBRANCH   1   5
TORSDOF 5
ENDMDL
MODEL 8
REMARK VINA RESULT:    -3.768     10.067     11.537
REMARK INTER + INTRA:          -5.071
REMARK INTER:                  -4.760
REMARK INTRA:                  -0.312
REMARK UNBOUND:                -0.202
REMARK SMILES C=CC(=O)CCCCC
REMARK SMILES IDX 6 1 7 2 8 3 9 4 5 5 3 6 4 7 2 8 1 9
REMARK H PARENT
REMARK Flexibility Score: inf
ROOT
ATOM      1  C   UNL     1      -1.664   0.620  29.950  1.00  0.00     0.008 C 
ENDROOT
BRANCH   1   2
ATOM      2  C   UNL     1      -0.513   0.351  28.967  1.00  0.00     0.000 C 
BRANCH   2   3
ATOM      3  C   UNL     1      -0.884   0.693  27.516  1.00  0.00    -0.003 C 
ATOM      4  C   UNL     1      -1.105  -0.550  26.652  1.00  0.00     0.004 C 
ENDBRANCH   2   3
ENDBRANCH   1   2
BRANCH   1   5
ATOM      5  C   UNL     1      -2.606  -0.585  30.085  1.00  0.00     0.080 C 
BRANCH   5   6
ATOM      6  C   UNL     1      -3.993  -0.271  29.600  1.00  0.00     0.155 C 
ATOM      7  O   UNL     1      -4.177  -0.030  28.376  1.00  0.00    -0.295 OA
BRANCH   6   8
ATOM      8  C   UNL     1      -5.119  -0.217  30.552  1.00  0.00     0.039 C 
ATOM      9  C   UNL     1      -5.114  -0.884  31.705  1.00  0.00     0.012 C 
ENDBRANCH   6   8
ENDBRANCH   5   6
ENDBRANCH   1   5
TORSDOF 5
ENDMDL
MODEL 9
REMARK VINA RESULT:    -3.608     10.817     12.022
REMARK INTER + INTRA:          -4.865
REMARK INTER:                  -4.320
REMARK INTRA:                  -0.545
REMARK UNBOUND:                -0.202
REMARK SMILES C=CC(=O)CCCCC
REMARK SMILES IDX 6 1 7 2 8 3 9 4 5 5 3 6 4 7 2 8 1 9
REMARK H PARENT
REMARK Flexibility Score: inf
ROOT
ATOM      1  C   UNL     1      -0.996   0.431  27.143  1.00  0.00     0.008 C 
ENDROOT
BRANCH   1   2
ATOM      2  C   UNL     1      -0.257   0.375  28.491  1.00  0.00     0.000 C 
BRANCH   2   3
ATOM      3  C   UNL     1      -0.318   1.709  29.252  1.00  0.00    -0.003 C 
ATOM      4  C   UNL     1      -0.619   2.898  28.340  1.00  0.00     0.004 C 
ENDBRANCH   2   3
ENDBRANCH   1   2
BRANCH   1   5
ATOM      5  C   UNL     1      -2.212  -0.505  27.108  1.00  0.00     0.080 C 
BRANCH   5   6
ATOM      6  C   UNL     1      -3.367   0.047  27.894  1.00  0.00     0.155 C 
ATOM      7  O   UNL     1      -3.870   1.153  27.554  1.00  0.00    -0.295 OA
BRANCH   6   8
ATOM      8  C   UNL     1      -3.886  -0.683  29.066  1.00  0.00     0.039 C 
ATOM      9  C   UNL     1      -3.236  -0.725  30.228  1.00  0.00     0.012 C 
ENDBRANCH   6   8
ENDBRANCH   5   6
ENDBRANCH   1   5
TORSDOF 5
ENDMDL
