MODEL 1
REMARK VINA RESULT:    -2.582      0.000      0.000
REMARK INTER + INTRA:          -2.808
REMARK INTER:                  -2.808
REMARK INTRA:                   0.000
REMARK UNBOUND:                 0.000
REMARK SMILES [NH3+]CC(=O)[O-]
REMARK SMILES IDX 2 1 1 2 3 6 4 7 5 8
REMARK H PARENT 1 3 1 4 1 5
REMARK Flexibility Score: inf
ROOT
ATOM      1  C   UNL     1      64.620   1.842  -1.978  1.00  0.00     0.312 C 
ENDROOT
BRANCH   1   2
ATOM      2  N   UNL     1      65.453   1.458  -0.840  1.00  0.00    -0.353 N 
ATOM      3  H   UNL     1      66.151   0.745  -1.152  1.00  0.00     0.344 HD
ATOM      4  H   UNL     1      64.859   1.043  -0.084  1.00  0.00     0.344 HD
ATOM      5  H   UNL     1      65.964   2.293  -0.471  1.00  0.00     0.344 HD
ENDBRANCH   1   2
BRANCH   1   6
ATOM      6  C   UNL     1      65.202   3.029  -2.683  1.00  0.00     0.096 C 
ATOM      7  O   UNL     1      66.015   2.868  -3.629  1.00  0.00    -0.544 OA
ATOM      8  O   UNL     1      64.804   4.311  -2.327  1.00  0.00    -0.544 OA
ENDBRANCH   1   6
TORSDOF 2
ENDMDL
MODEL 2
REMARK VINA RESULT:    -2.556      2.446      2.751
REMARK INTER + INTRA:          -2.780
REMARK INTER:                  -2.780
REMARK INTRA:                   0.000
REMARK UNBOUND:                 0.000
REMARK SMILES [NH3+]CC(=O)[O-]
REMARK SMILES IDX 2 1 1 2 3 6 4 7 5 8
REMARK H PARENT 1 3 1 4 1 5
REMARK Flexibility Score: inf
ROOT
ATOM      1  C   UNL     1      65.221   2.880  -2.489  1.00  0.00     0.312 C 
ENDROOT
BRANCH   1   2
ATOM      2  N   UNL     1      66.323   2.464  -3.355  1.00  0.00    -0.353 N 
ATOM      3  H   UNL     1      66.375   1.421  -3.365  1.00  0.00     0.344 HD
ATOM      4  H   UNL     1      67.228   2.845  -2.991  1.00  0.00     0.344 HD
ATOM      5  H   UNL     1      66.162   2.806  -4.330  1.00  0.00     0.344 HD
ENDBRANCH   1   2
BRANCH   1   6
ATOM      6  C   UNL     1      64.510   1.686  -1.928  1.00  0.00     0.096 C 
ATOM      7  O   UNL     1      63.313   1.457  -2.240  1.00  0.00    -0.544 OA
ATOM      8  O   UNL     1      65.188   0.800  -1.101  1.00  0.00    -0.544 OA
ENDBRANCH   1   6
TORSDOF 2
ENDMDL
MODEL 3
REMARK VINA RESULT:    -2.540      2.089      2.280
REMARK INTER + INTRA:          -2.763
REMARK INTER:                  -2.763
REMARK INTRA:                   0.000
REMARK UNBOUND:                 0.000
REMARK SMILES [NH3+]CC(=O)[O-]
REMARK SMILES IDX 2 1 1 2 3 6 4 7 5 8
REMARK H PARENT 1 3 1 4 1 5
REMARK Flexibility Score: inf
ROOT
ATOM      1  C   UNL     1      64.558   1.267  -1.894  1.00  0.00     0.312 C 
ENDROOT
BRANCH   1   2
ATOM      2  N   UNL     1      65.299   2.164  -1.009  1.00  0.00    -0.353 N 
ATOM      3  H   UNL     1      64.624   2.796  -0.521  1.00  0.00     0.344 HD
ATOM      4  H   UNL     1      65.967   2.746  -1.566  1.00  0.00     0.344 HD
ATOM      5  H   UNL     1      65.823   1.610  -0.293  1.00  0.00     0.344 HD
ENDBRANCH   1   2
BRANCH   1   6
ATOM      6  C   UNL     1      63.407   1.984  -2.532  1.00  0.00     0.096 C 
ATOM      7  O   UNL     1      63.617   2.952  -3.307  1.00  0.00    -0.544 OA
ATOM      8  O   UNL     1      62.108   1.548  -2.309  1.00  0.00    -0.544 OA
ENDBRANCH   1   6
TORSDOF 2
ENDMDL
MODEL 4
REMARK VINA RESULT:    -2.452      2.373      2.579
REMARK INTER + INTRA:          -2.668
REMARK INTER:                  -2.668
REMARK INTRA:                   0.000
REMARK UNBOUND:                 0.000
REMARK SMILES [NH3+]CC(=O)[O-]
REMARK SMILES IDX 2 1 1 2 3 6 4 7 5 8
REMARK H PARENT 1 3 1 4 1 5
REMARK Flexibility Score: inf
ROOT
ATOM      1  C   UNL     1      63.349   1.759  -2.305  1.00  0.00     0.312 C 
ENDROOT
BRANCH   1   2
ATOM      2  N   UNL     1      63.085   2.699  -3.393  1.00  0.00    -0.353 N 
ATOM      3  H   UNL     1      62.730   3.596  -2.991  1.00  0.00     0.344 HD
ATOM      4  H   UNL     1      62.362   2.306  -4.038  1.00  0.00     0.344 HD
ATOM      5  H   UNL     1      63.966   2.891  -3.923  1.00  0.00     0.344 HD
ENDBRANCH   1   2
BRANCH   1   6
ATOM      6  C   UNL     1      64.822   1.633  -2.060  1.00  0.00     0.096 C 
ATOM      7  O   UNL     1      65.637   2.309  -2.741  1.00  0.00    -0.544 OA
ATOM      8  O   UNL     1      65.290   0.808  -1.046  1.00  0.00    -0.544 OA
ENDBRANCH   1   6
TORSDOF 2
ENDMDL
MODEL 5
REMARK VINA RESULT:    -2.370      7.033      7.469
REMARK INTER + INTRA:          -2.578
REMARK INTER:                  -2.578
REMARK INTRA:                   0.000
REMARK UNBOUND:                 0.000
REMARK SMILES [NH3+]CC(=O)[O-]
REMARK SMILES IDX 2 1 1 2 3 6 4 7 5 8
REMARK H PARENT 1 3 1 4 1 5
REMARK Flexibility Score: inf
ROOT
ATOM      1  C   UNL     1      58.639   0.054  -0.259  1.00  0.00     0.312 C 
ENDROOT
BRANCH   1   2
ATOM      2  N   UNL     1      58.873  -0.815  -1.410  1.00  0.00    -0.353 N 
ATOM      3  H   UNL     1      58.583  -0.315  -2.281  1.00  0.00     0.344 HD
ATOM      4  H   UNL     1      58.309  -1.692  -1.318  1.00  0.00     0.344 HD
ATOM      5  H   UNL     1      59.890  -1.053  -1.479  1.00  0.00     0.344 HD
ENDBRANCH   1   2
BRANCH   1   6
ATOM      6  C   UNL     1      59.628  -0.232   0.830  1.00  0.00     0.096 C 
ATOM      7  O   UNL     1      60.400   0.673   1.238  1.00  0.00    -0.544 OA
ATOM      8  O   UNL     1      59.659  -1.485   1.428  1.00  0.00    -0.544 OA
ENDBRANCH   1   6
TORSDOF 2
ENDMDL
MODEL 6
REMARK VINA RESULT:    -2.320      8.233      8.524
REMARK INTER + INTRA:          -2.524
REMARK INTER:                  -2.524
REMARK INTRA:                   0.000
REMARK UNBOUND:                 0.000
REMARK SMILES [NH3+]CC(=O)[O-]
REMARK SMILES IDX 2 1 1 2 3 6 4 7 5 8
REMARK H PARENT 1 3 1 4 1 5
REMARK Flexibility Score: inf
ROOT
ATOM      1  C   UNL     1      58.471  -0.107  -0.303  1.00  0.00     0.312 C 
ENDROOT
BRANCH   1   2
ATOM      2  N   UNL     1      59.102   0.457  -1.496  1.00  0.00    -0.353 N 
ATOM      3  H   UNL     1      58.486   0.283  -2.322  1.00  0.00     0.344 HD
ATOM      4  H   UNL     1      60.029  -0.000  -1.661  1.00  0.00     0.344 HD
ATOM      5  H   UNL     1      59.231   1.488  -1.380  1.00  0.00     0.344 HD
ENDBRANCH   1   2
BRANCH   1   6
ATOM      6  C   UNL     1      57.828  -1.423  -0.617  1.00  0.00     0.096 C 
ATOM      7  O   UNL     1      58.529  -2.392  -1.011  1.00  0.00    -0.544 OA
ATOM      8  O   UNL     1      56.463  -1.593  -0.425  1.00  0.00    -0.544 OA
ENDBRANCH   1   6
TORSDOF 2
ENDMDL
MODEL 7
REMARK VINA RESULT:    -2.255      8.847      9.266
REMARK INTER + INTRA:          -2.452
REMARK INTER:                  -2.452
REMARK INTRA:                   0.000
REMARK UNBOUND:                 0.000
REMARK SMILES [NH3+]CC(=O)[O-]
REMARK SMILES IDX 2 1 1 2 3 6 4 7 5 8
REMARK H PARENT 1 3 1 4 1 5
REMARK Flexibility Score: inf
ROOT
ATOM      1  C   UNL     1      58.163  -0.290  -0.513  1.00  0.00     0.312 C 
ENDROOT
BRANCH   1   2
ATOM      2  N   UNL     1      58.829  -1.274  -1.364  1.00  0.00    -0.353 N 
ATOM      3  H   UNL     1      58.145  -2.021  -1.623  1.00  0.00     0.344 HD
ATOM      4  H   UNL     1      59.629  -1.710  -0.850  1.00  0.00     0.344 HD
ATOM      5  H   UNL     1      59.177  -0.817  -2.238  1.00  0.00     0.344 HD
ENDBRANCH   1   2
BRANCH   1   6
ATOM      6  C   UNL     1      56.988  -0.903   0.185  1.00  0.00     0.096 C 
ATOM      7  O   UNL     1      56.810  -0.708   1.415  1.00  0.00    -0.544 OA
ATOM      8  O   UNL     1      56.063  -1.648  -0.535  1.00  0.00    -0.544 OA
ENDBRANCH   1   6
TORSDOF 2
ENDMDL
MODEL 8
REMARK VINA RESULT:    -2.213      8.453      8.826
REMARK INTER + INTRA:          -2.407
REMARK INTER:                  -2.407
REMARK INTRA:                   0.000
REMARK UNBOUND:                 0.000
REMARK SMILES [NH3+]CC(=O)[O-]
REMARK SMILES IDX 2 1 1 2 3 6 4 7 5 8
REMARK H PARENT 1 3 1 4 1 5
REMARK Flexibility Score: inf
ROOT
ATOM      1  C   UNL     1      59.263  -1.880   0.910  1.00  0.00     0.312 C 
ENDROOT
BRANCH   1   2
ATOM      2  N   UNL     1      59.770  -3.120   1.496  1.00  0.00    -0.353 N 
ATOM      3  H   UNL     1      60.799  -3.030   1.649  1.00  0.00     0.344 HD
ATOM      4  H   UNL     1      59.592  -3.922   0.847  1.00  0.00     0.344 HD
ATOM      5  H   UNL     1      59.304  -3.299   2.415  1.00  0.00     0.344 HD
ENDBRANCH   1   2
BRANCH   1   6
ATOM      6  C   UNL     1      58.316  -2.174  -0.213  1.00  0.00     0.096 C 
ATOM      7  O   UNL     1      57.108  -2.432   0.029  1.00  0.00    -0.544 OA
ATOM      8  O   UNL     1      58.757  -2.112  -1.528  1.00  0.00    -0.544 OA
ENDBRANCH   1   6
TORSDOF 2
ENDMDL
MODEL 9
REMARK VINA RESULT:    -2.178      4.134      4.346
REMARK INTER + INTRA:          -2.369
REMARK INTER:                  -2.369
REMARK INTRA:                   0.000
REMARK UNBOUND:                 0.000
REMARK SMILES [NH3+]CC(=O)[O-]
REMARK SMILES IDX 2 1 1 2 3 6 4 7 5 8
REMARK H PARENT 1 3 1 4 1 5
REMARK Flexibility Score: inf
ROOT
ATOM      1  C   UNL     1      60.611   1.368  -1.896  1.00  0.00     0.312 C 
ENDROOT
BRANCH   1   2
ATOM      2  N   UNL     1      59.907   0.337  -2.656  1.00  0.00    -0.353 N 
ATOM      3  H   UNL     1      60.414   0.167  -3.553  1.00  0.00     0.344 HD
ATOM      4  H   UNL     1      58.932   0.653  -2.872  1.00  0.00     0.344 HD
ATOM      5  H   UNL     1      59.877  -0.554  -2.109  1.00  0.00     0.344 HD
ENDBRANCH   1   2
BRANCH   1   6
ATOM      6  C   UNL     1      61.778   1.894  -2.675  1.00  0.00     0.096 C 
ATOM      7  O   UNL     1      61.589   2.610  -3.693  1.00  0.00    -0.544 OA
ATOM      8  O   UNL     1      63.073   1.636  -2.246  1.00  0.00    -0.544 OA
ENDBRANCH   1   6
TORSDOF 2
ENDMDL
