MODEL 1
REMARK VINA RESULT:    -4.780      0.000      0.000
REMARK INTER + INTRA:          -5.295
REMARK INTER:                  -5.199
REMARK INTRA:                  -0.096
REMARK UNBOUND:                -0.096
REMARK SMILES C=C(C)[C@@H]1CC=C(C)[C@H](O)C1
REMARK SMILES IDX 8 1 7 2 6 3 5 4 4 5 11 6 9 7 10 8 2 10 1 11 3 12
REMARK H PARENT 10 9
REMARK Flexibility Score: inf
ROOT
ATOM      1  C   UNL     1      11.267  28.593  37.552  1.00  0.00     0.042 C 
ATOM      2  C   UNL     1      12.766  28.532  37.408  1.00  0.00    -0.049 C 
ATOM      3  C   UNL     1      13.280  28.007  36.274  1.00  0.00    -0.025 C 
ATOM      4  C   UNL     1      14.761  27.892  36.015  1.00  0.00     0.035 C 
ATOM      5  C   UNL     1      15.571  27.877  37.321  1.00  0.00     0.021 C 
ATOM      6  C   UNL     1      15.131  29.048  38.211  1.00  0.00     0.044 C 
ATOM      7  C   UNL     1      13.648  28.910  38.592  1.00  0.00     0.140 C 
ENDROOT
BRANCH   7   8
ATOM      8  O   UNL     1      13.214  30.131  39.138  1.00  0.00    -0.389 OA
ATOM      9  H   UNL     1      12.289  29.999  39.470  1.00  0.00     0.211 HD
ENDBRANCH   7   8
BRANCH   5  10
ATOM     10  C   UNL     1      17.067  27.912  37.046  1.00  0.00    -0.077 C 
ATOM     11  C   UNL     1      17.940  27.885  38.066  1.00  0.00     0.008 C 
ATOM     12  C   UNL     1      17.607  27.971  35.637  1.00  0.00     0.039 C 
ENDBRANCH   5  10
TORSDOF 2
ENDMDL
MODEL 2
REMARK VINA RESULT:    -4.658     23.935     25.138
REMARK INTER + INTRA:          -5.162
REMARK INTER:                  -5.070
REMARK INTRA:                  -0.092
REMARK UNBOUND:                -0.096
REMARK SMILES C=C(C)[C@@H]1CC=C(C)[C@H](O)C1
REMARK SMILES IDX 8 1 7 2 6 3 5 4 4 5 11 6 9 7 10 8 2 10 1 11 3 12
REMARK H PARENT 10 9
REMARK Flexibility Score: inf
ROOT
ATOM      1  C   UNL     1       3.581  47.787  47.673  1.00  0.00     0.042 C 
ATOM      2  C   UNL     1       2.649  46.795  48.319  1.00  0.00    -0.049 C 
ATOM      3  C   UNL     1       2.255  45.723  47.597  1.00  0.00    -0.025 C 
ATOM      4  C   UNL     1       1.325  44.664  48.133  1.00  0.00     0.035 C 
ATOM      5  C   UNL     1       0.456  45.195  49.284  1.00  0.00     0.021 C 
ATOM      6  C   UNL     1       1.347  45.896  50.319  1.00  0.00     0.044 C 
ATOM      7  C   UNL     1       2.058  47.105  49.689  1.00  0.00     0.140 C 
ENDROOT
BRANCH   7   8
ATOM      8  O   UNL     1       3.077  47.526  50.562  1.00  0.00    -0.389 OA
ATOM      9  H   UNL     1       2.677  47.617  51.466  1.00  0.00     0.211 HD
ENDBRANCH   7   8
BRANCH   5  10
ATOM     10  C   UNL     1      -0.369  44.082  49.915  1.00  0.00    -0.077 C 
ATOM     11  C   UNL     1      -1.125  43.285  49.145  1.00  0.00     0.008 C 
ATOM     12  C   UNL     1      -0.355  43.840  51.406  1.00  0.00     0.039 C 
ENDBRANCH   5  10
TORSDOF 2
ENDMDL
MODEL 3
REMARK VINA RESULT:    -4.380     24.226     25.115
REMARK INTER + INTRA:          -4.860
REMARK INTER:                  -4.765
REMARK INTRA:                  -0.095
REMARK UNBOUND:                -0.096
REMARK SMILES C=C(C)[C@@H]1CC=C(C)[C@H](O)C1
REMARK SMILES IDX 8 1 7 2 6 3 5 4 4 5 11 6 9 7 10 8 2 10 1 11 3 12
REMARK H PARENT 10 9
REMARK Flexibility Score: inf
ROOT
ATOM      1  C   UNL     1       0.157  43.252  51.185  1.00  0.00     0.042 C 
ATOM      2  C   UNL     1       0.702  44.373  50.337  1.00  0.00    -0.049 C 
ATOM      3  C   UNL     1       1.026  44.104  49.053  1.00  0.00    -0.025 C 
ATOM      4  C   UNL     1       1.580  45.141  48.108  1.00  0.00     0.035 C 
ATOM      5  C   UNL     1       2.255  46.299  48.861  1.00  0.00     0.021 C 
ATOM      6  C   UNL     1       1.312  46.819  49.954  1.00  0.00     0.044 C 
ATOM      7  C   UNL     1       1.018  45.716  50.984  1.00  0.00     0.140 C 
ENDROOT
BRANCH   7   8
ATOM      8  O   UNL     1      -0.066  46.128  51.779  1.00  0.00    -0.389 OA
ATOM      9  H   UNL     1      -0.884  46.078  51.219  1.00  0.00     0.211 HD
ENDBRANCH   7   8
BRANCH   5  10
ATOM     10  C   UNL     1       2.676  47.408  47.908  1.00  0.00    -0.077 C 
ATOM     11  C   UNL     1       1.746  48.125  47.257  1.00  0.00     0.008 C 
ATOM     12  C   UNL     1       4.131  47.736  47.675  1.00  0.00     0.039 C 
ENDBRANCH   5  10
TORSDOF 2
ENDMDL
MODEL 4
REMARK VINA RESULT:    -4.372     23.754     25.579
REMARK INTER + INTRA:          -4.851
REMARK INTER:                  -4.753
REMARK INTRA:                  -0.098
REMARK UNBOUND:                -0.096
REMARK SMILES C=C(C)[C@@H]1CC=C(C)[C@H](O)C1
REMARK SMILES IDX 8 1 7 2 6 3 5 4 4 5 11 6 9 7 10 8 2 10 1 11 3 12
REMARK H PARENT 10 9
REMARK Flexibility Score: inf
ROOT
ATOM      1  C   UNL     1       3.274  47.379  47.484  1.00  0.00     0.042 C 
ATOM      2  C   UNL     1       2.304  46.730  48.437  1.00  0.00    -0.049 C 
ATOM      3  C   UNL     1       1.604  47.524  49.277  1.00  0.00    -0.025 C 
ATOM      4  C   UNL     1       0.606  46.992  50.275  1.00  0.00     0.035 C 
ATOM      5  C   UNL     1       0.883  45.524  50.634  1.00  0.00     0.021 C 
ATOM      6  C   UNL     1       1.052  44.704  49.347  1.00  0.00     0.044 C 
ATOM      7  C   UNL     1       2.257  45.210  48.538  1.00  0.00     0.140 C 
ENDROOT
BRANCH   7   8
ATOM      8  O   UNL     1       2.194  44.649  47.250  1.00  0.00    -0.389 OA
ATOM      9  H   UNL     1       2.221  45.395  46.597  1.00  0.00     0.211 HD
ENDBRANCH   7   8
BRANCH   5  10
ATOM     10  C   UNL     1      -0.213  44.954  51.523  1.00  0.00    -0.077 C 
ATOM     11  C   UNL     1      -1.088  45.777  52.124  1.00  0.00     0.008 C 
ATOM     12  C   UNL     1      -0.353  43.468  51.747  1.00  0.00     0.039 C 
ENDBRANCH   5  10
TORSDOF 2
ENDMDL
MODEL 5
REMARK VINA RESULT:    -4.345      1.851      4.488
REMARK INTER + INTRA:          -4.822
REMARK INTER:                  -4.723
REMARK INTRA:                  -0.099
REMARK UNBOUND:                -0.096
REMARK SMILES C=C(C)[C@@H]1CC=C(C)[C@H](O)C1
REMARK SMILES IDX 8 1 7 2 6 3 5 4 4 5 11 6 9 7 10 8 2 10 1 11 3 12
REMARK H PARENT 10 9
REMARK Flexibility Score: inf
ROOT
ATOM      1  C   UNL     1      18.919  27.910  35.833  1.00  0.00     0.042 C 
ATOM      2  C   UNL     1      17.485  28.079  36.263  1.00  0.00    -0.049 C 
ATOM      3  C   UNL     1      16.514  27.878  35.344  1.00  0.00    -0.025 C 
ATOM      4  C   UNL     1      15.045  28.017  35.654  1.00  0.00     0.035 C 
ATOM      5  C   UNL     1      14.799  28.930  36.866  1.00  0.00     0.021 C 
ATOM      6  C   UNL     1      15.694  28.486  38.032  1.00  0.00     0.044 C 
ATOM      7  C   UNL     1      17.178  28.619  37.654  1.00  0.00     0.140 C 
ENDROOT
BRANCH   7   8
ATOM      8  O   UNL     1      17.943  27.930  38.612  1.00  0.00    -0.389 OA
ATOM      9  H   UNL     1      17.368  27.786  39.407  1.00  0.00     0.211 HD
ENDBRANCH   7   8
BRANCH   5  10
ATOM     10  C   UNL     1      13.329  28.943  37.260  1.00  0.00    -0.077 C 
ATOM     11  C   UNL     1      12.476  28.068  36.706  1.00  0.00     0.008 C 
ATOM     12  C   UNL     1      12.796  29.923  38.277  1.00  0.00     0.039 C 
ENDBRANCH   5  10
TORSDOF 2
ENDMDL
MODEL 6
REMARK VINA RESULT:    -4.047      1.945      4.635
REMARK INTER + INTRA:          -4.498
REMARK INTER:                  -4.399
REMARK INTRA:                  -0.098
REMARK UNBOUND:                -0.096
REMARK SMILES C=C(C)[C@@H]1CC=C(C)[C@H](O)C1
REMARK SMILES IDX 8 1 7 2 6 3 5 4 4 5 11 6 9 7 10 8 2 10 1 11 3 12
REMARK H PARENT 10 9
REMARK Flexibility Score: inf
ROOT
ATOM      1  C   UNL     1      18.412  27.876  37.545  1.00  0.00     0.042 C 
ATOM      2  C   UNL     1      16.938  28.189  37.509  1.00  0.00    -0.049 C 
ATOM      3  C   UNL     1      16.270  28.261  38.681  1.00  0.00    -0.025 C 
ATOM      4  C   UNL     1      14.796  28.565  38.773  1.00  0.00     0.035 C 
ATOM      5  C   UNL     1      14.057  28.216  37.471  1.00  0.00     0.021 C 
ATOM      6  C   UNL     1      14.800  28.834  36.278  1.00  0.00     0.044 C 
ATOM      7  C   UNL     1      16.219  28.255  36.167  1.00  0.00     0.140 C 
ENDROOT
BRANCH   7   8
ATOM      8  O   UNL     1      16.955  29.052  35.271  1.00  0.00    -0.389 OA
ATOM      9  H   UNL     1      17.873  28.678  35.223  1.00  0.00     0.211 HD
ENDBRANCH   7   8
BRANCH   5  10
ATOM     10  C   UNL     1      12.603  28.664  37.521  1.00  0.00    -0.077 C 
ATOM     11  C   UNL     1      12.265  29.777  38.192  1.00  0.00     0.008 C 
ATOM     12  C   UNL     1      11.514  27.887  36.822  1.00  0.00     0.039 C 
ENDBRANCH   5  10
TORSDOF 2
ENDMDL
MODEL 7
REMARK VINA RESULT:    -3.735      1.503      2.110
REMARK INTER + INTRA:          -4.159
REMARK INTER:                  -4.061
REMARK INTRA:                  -0.097
REMARK UNBOUND:                -0.096
REMARK SMILES C=C(C)[C@@H]1CC=C(C)[C@H](O)C1
REMARK SMILES IDX 8 1 7 2 6 3 5 4 4 5 11 6 9 7 10 8 2 10 1 11 3 12
REMARK H PARENT 10 9
REMARK Flexibility Score: inf
ROOT
ATOM      1  C   UNL     1      12.142  29.077  38.260  1.00  0.00     0.042 C 
ATOM      2  C   UNL     1      13.564  28.721  37.912  1.00  0.00    -0.049 C 
ATOM      3  C   UNL     1      14.463  28.619  38.916  1.00  0.00    -0.025 C 
ATOM      4  C   UNL     1      15.913  28.270  38.694  1.00  0.00     0.035 C 
ATOM      5  C   UNL     1      16.370  28.607  37.266  1.00  0.00     0.021 C 
ATOM      6  C   UNL     1      15.373  28.021  36.256  1.00  0.00     0.044 C 
ATOM      7  C   UNL     1      13.981  28.644  36.448  1.00  0.00     0.140 C 
ENDROOT
BRANCH   7   8
ATOM      8  O   UNL     1      13.048  27.877  35.727  1.00  0.00    -0.389 OA
ATOM      9  H   UNL     1      13.554  27.327  35.074  1.00  0.00     0.211 HD
ENDBRANCH   7   8
BRANCH   5  10
ATOM     10  C   UNL     1      17.787  28.114  37.007  1.00  0.00    -0.077 C 
ATOM     11  C   UNL     1      18.615  27.876  38.036  1.00  0.00     0.008 C 
ATOM     12  C   UNL     1      18.293  27.875  35.605  1.00  0.00     0.039 C 
ENDBRANCH   5  10
TORSDOF 2
ENDMDL
MODEL 8
REMARK VINA RESULT:    -3.437     24.550     25.636
REMARK INTER + INTRA:          -3.834
REMARK INTER:                  -3.737
REMARK INTRA:                  -0.097
REMARK UNBOUND:                -0.096
REMARK SMILES C=C(C)[C@@H]1CC=C(C)[C@H](O)C1
REMARK SMILES IDX 8 1 7 2 6 3 5 4 4 5 11 6 9 7 10 8 2 10 1 11 3 12
REMARK H PARENT 10 9
REMARK Flexibility Score: inf
ROOT
ATOM      1  C   UNL     1       0.019  43.020  51.366  1.00  0.00     0.042 C 
ATOM      2  C   UNL     1       0.147  44.236  50.486  1.00  0.00    -0.049 C 
ATOM      3  C   UNL     1      -0.985  44.840  50.060  1.00  0.00    -0.025 C 
ATOM      4  C   UNL     1      -0.986  46.062  49.176  1.00  0.00     0.035 C 
ATOM      5  C   UNL     1       0.318  46.189  48.373  1.00  0.00     0.021 C 
ATOM      6  C   UNL     1       1.519  46.041  49.319  1.00  0.00     0.044 C 
ATOM      7  C   UNL     1       1.522  44.652  49.977  1.00  0.00     0.140 C 
ENDROOT
BRANCH   7   8
ATOM      8  O   UNL     1       2.439  44.667  51.042  1.00  0.00    -0.389 OA
ATOM      9  H   UNL     1       3.340  44.835  50.659  1.00  0.00     0.211 HD
ENDBRANCH   7   8
BRANCH   5  10
ATOM     10  C   UNL     1       0.369  47.500  47.602  1.00  0.00    -0.077 C 
ATOM     11  C   UNL     1       1.541  48.125  47.414  1.00  0.00     0.008 C 
ATOM     12  C   UNL     1      -0.880  48.123  47.027  1.00  0.00     0.039 C 
ENDBRANCH   5  10
TORSDOF 2
ENDMDL
MODEL 9
REMARK VINA RESULT:    -3.236     24.544     25.130
REMARK INTER + INTRA:          -3.616
REMARK INTER:                  -3.521
REMARK INTRA:                  -0.095
REMARK UNBOUND:                -0.096
REMARK SMILES C=C(C)[C@@H]1CC=C(C)[C@H](O)C1
REMARK SMILES IDX 8 1 7 2 6 3 5 4 4 5 11 6 9 7 10 8 2 10 1 11 3 12
REMARK H PARENT 10 9
REMARK Flexibility Score: inf
ROOT
ATOM      1  C   UNL     1      -0.002  43.175  51.708  1.00  0.00     0.042 C 
ATOM      2  C   UNL     1       0.512  44.160  50.690  1.00  0.00    -0.049 C 
ATOM      3  C   UNL     1       1.643  44.842  50.974  1.00  0.00    -0.025 C 
ATOM      4  C   UNL     1       2.254  45.853  50.037  1.00  0.00     0.035 C 
ATOM      5  C   UNL     1       1.215  46.432  49.064  1.00  0.00     0.021 C 
ATOM      6  C   UNL     1       0.436  45.285  48.403  1.00  0.00     0.044 C 
ATOM      7  C   UNL     1      -0.331  44.474  49.460  1.00  0.00     0.140 C 
ENDROOT
BRANCH   7   8
ATOM      8  O   UNL     1      -0.772  43.278  48.867  1.00  0.00    -0.389 OA
ATOM      9  H   UNL     1      -1.259  43.517  48.036  1.00  0.00     0.211 HD
ENDBRANCH   7   8
BRANCH   5  10
ATOM     10  C   UNL     1       1.869  47.336  48.028  1.00  0.00    -0.077 C 
ATOM     11  C   UNL     1       1.112  48.125  47.250  1.00  0.00     0.008 C 
ATOM     12  C   UNL     1       3.368  47.377  47.853  1.00  0.00     0.039 C 
ENDBRANCH   5  10
TORSDOF 2
ENDMDL
