MODEL 1
REMARK VINA RESULT:    -3.740      0.000      0.000
REMARK INTER + INTRA:          -5.241
REMARK INTER:                  -4.833
REMARK INTRA:                  -0.407
REMARK UNBOUND:                -0.407
REMARK SMILES CCO[C@H]1O[C@H](CO)[C@@H](O)[C@@H](O)[C@@H]1O
REMARK SMILES IDX 4 1 13 2 11 3 9 4 6 5 5 6 3 7 2 8 1 9 14 10 12 12 7 14 8 15
REMARK SMILES IDX 10 17
REMARK H PARENT 14 11 12 13 8 16 10 18
REMARK Flexibility Score: inf
ROOT
ATOM      1  C   UNL     1       8.934   3.202   2.465  1.00  0.00     0.281 C 
ATOM      2  C   UNL     1       8.408   4.313   1.533  1.00  0.00     0.202 C 
ATOM      3  C   UNL     1       7.003   4.798   1.951  1.00  0.00     0.179 C 
ATOM      4  C   UNL     1       6.069   3.610   2.280  1.00  0.00     0.177 C 
ATOM      5  C   UNL     1       6.783   2.575   3.179  1.00  0.00     0.178 C 
ATOM      6  O   UNL     1       7.994   2.143   2.576  1.00  0.00    -0.341 OA
ENDROOT
BRANCH   1   7
ATOM      7  O   UNL     1       9.278   3.739   3.732  1.00  0.00    -0.350 OA
BRANCH   7   8
ATOM      8  C   UNL     1      10.438   4.538   3.628  1.00  0.00     0.160 C 
ATOM      9  C   UNL     1      11.664   3.661   3.821  1.00  0.00     0.035 C 
ENDBRANCH   7   8
ENDBRANCH   1   7
BRANCH   2  10
ATOM     10  O   UNL     1       8.363   3.813   0.220  1.00  0.00    -0.385 OA
ATOM     11  H   UNL     1       8.414   2.823   0.286  1.00  0.00     0.211 HD
ENDBRANCH   2  10
BRANCH   3  12
ATOM     12  O   UNL     1       7.076   5.730   3.004  1.00  0.00    -0.387 OA
ATOM     13  H   UNL     1       6.598   6.554   2.733  1.00  0.00     0.211 HD
ENDBRANCH   3  12
BRANCH   5  14
ATOM     14  C   UNL     1       5.891   1.344   3.398  1.00  0.00     0.191 C 
BRANCH  14  15
ATOM     15  O   UNL     1       4.773   1.392   2.553  1.00  0.00    -0.394 OA
ATOM     16  H   UNL     1       4.150   2.059   2.943  1.00  0.00     0.210 HD
ENDBRANCH  14  15
ENDBRANCH   5  14
BRANCH   4  17
ATOM     17  O   UNL     1       4.904   4.073   2.915  1.00  0.00    -0.387 OA
ATOM     18  H   UNL     1       4.195   3.401   2.735  1.00  0.00     0.211 HD
ENDBRANCH   4  17
TORSDOF 7
ENDMDL
MODEL 2
REMARK VINA RESULT:    -3.719     10.805     12.533
REMARK INTER + INTRA:          -5.214
REMARK INTER:                  -4.786
REMARK INTRA:                  -0.428
REMARK UNBOUND:                -0.407
REMARK SMILES CCO[C@H]1O[C@H](CO)[C@@H](O)[C@@H](O)[C@@H]1O
REMARK SMILES IDX 4 1 13 2 11 3 9 4 6 5 5 6 3 7 2 8 1 9 14 10 12 12 7 14 8 15
REMARK SMILES IDX 10 17
REMARK H PARENT 14 11 12 13 8 16 10 18
REMARK Flexibility Score: inf
ROOT
ATOM      1  C   UNL     1      17.168   7.643   1.276  1.00  0.00     0.281 C 
ATOM      2  C   UNL     1      17.792   8.558   2.350  1.00  0.00     0.202 C 
ATOM      3  C   UNL     1      19.299   8.790   2.104  1.00  0.00     0.179 C 
ATOM      4  C   UNL     1      20.024   7.471   1.748  1.00  0.00     0.177 C 
ATOM      5  C   UNL     1      19.227   6.664   0.698  1.00  0.00     0.178 C 
ATOM      6  O   UNL     1      17.901   6.433   1.149  1.00  0.00    -0.341 OA
ENDROOT
BRANCH   1   7
ATOM      7  O   UNL     1      17.063   8.330   0.039  1.00  0.00    -0.350 OA
BRANCH   7   8
ATOM      8  C   UNL     1      16.113   9.370   0.134  1.00  0.00     0.160 C 
ATOM      9  C   UNL     1      16.070  10.125  -1.185  1.00  0.00     0.035 C 
ENDBRANCH   7   8
ENDBRANCH   1   7
BRANCH   2  10
ATOM     10  O   UNL     1      17.607   7.961   3.609  1.00  0.00    -0.385 OA
ATOM     11  H   UNL     1      18.346   8.279   4.191  1.00  0.00     0.211 HD
ENDBRANCH   2  10
BRANCH   3  12
ATOM     12  O   UNL     1      19.510   9.795   1.139  1.00  0.00    -0.387 OA
ATOM     13  H   UNL     1      18.841  10.511   1.275  1.00  0.00     0.211 HD
ENDBRANCH   3  12
BRANCH   5  14
ATOM     14  C   UNL     1      19.892   5.304   0.443  1.00  0.00     0.191 C 
BRANCH  14  15
ATOM     15  O   UNL     1      20.910   5.427  -0.512  1.00  0.00    -0.394 OA
ATOM     16  H   UNL     1      20.472   5.705  -1.360  1.00  0.00     0.210 HD
ENDBRANCH  14  15
ENDBRANCH   5  14
BRANCH   4  17
ATOM     17  O   UNL     1      21.315   7.744   1.264  1.00  0.00    -0.387 OA
ATOM     18  H   UNL     1      21.551   7.003   0.647  1.00  0.00     0.211 HD
ENDBRANCH   4  17
TORSDOF 7
ENDMDL
MODEL 3
REMARK VINA RESULT:    -3.681      2.302      3.091
REMARK INTER + INTRA:          -5.164
REMARK INTER:                  -4.718
REMARK INTRA:                  -0.446
REMARK UNBOUND:                -0.407
REMARK SMILES CCO[C@H]1O[C@H](CO)[C@@H](O)[C@@H](O)[C@@H]1O
REMARK SMILES IDX 4 1 13 2 11 3 9 4 6 5 5 6 3 7 2 8 1 9 14 10 12 12 7 14 8 15
REMARK SMILES IDX 10 17
REMARK H PARENT 14 11 12 13 8 16 10 18
REMARK Flexibility Score: inf
ROOT
ATOM      1  C   UNL     1       6.590   3.716   2.163  1.00  0.00     0.281 C 
ATOM      2  C   UNL     1       5.112   3.759   1.724  1.00  0.00     0.202 C 
ATOM      3  C   UNL     1       4.209   2.926   2.659  1.00  0.00     0.179 C 
ATOM      4  C   UNL     1       4.841   1.551   2.979  1.00  0.00     0.177 C 
ATOM      5  C   UNL     1       6.336   1.699   3.346  1.00  0.00     0.178 C 
ATOM      6  O   UNL     1       7.038   2.376   2.314  1.00  0.00    -0.341 OA
ENDROOT
BRANCH   1   7
ATOM      7  O   UNL     1       6.779   4.472   3.349  1.00  0.00    -0.350 OA
BRANCH   7   8
ATOM      8  C   UNL     1       6.577   5.846   3.091  1.00  0.00     0.160 C 
ATOM      9  C   UNL     1       7.699   6.354   2.200  1.00  0.00     0.035 C 
ENDBRANCH   7   8
ENDBRANCH   1   7
BRANCH   2  10
ATOM     10  O   UNL     1       5.019   3.263   0.413  1.00  0.00    -0.385 OA
ATOM     11  H   UNL     1       4.283   3.759  -0.032  1.00  0.00     0.211 HD
ENDBRANCH   2  10
BRANCH   3  12
ATOM     12  O   UNL     1       3.875   3.645   3.823  1.00  0.00    -0.387 OA
ATOM     13  H   UNL     1       4.597   4.296   4.012  1.00  0.00     0.211 HD
ENDBRANCH   3  12
BRANCH   5  14
ATOM     14  C   UNL     1       6.983   0.320   3.542  1.00  0.00     0.191 C 
BRANCH  14  15
ATOM     15  O   UNL     1       6.231  -0.671   2.895  1.00  0.00    -0.394 OA
ATOM     16  H   UNL     1       6.875  -1.230   2.386  1.00  0.00     0.210 HD
ENDBRANCH  14  15
ENDBRANCH   5  14
BRANCH   4  17
ATOM     17  O   UNL     1       4.148   0.933   4.033  1.00  0.00    -0.387 OA
ATOM     18  H   UNL     1       3.883   0.032   3.712  1.00  0.00     0.211 HD
ENDBRANCH   4  17
TORSDOF 7
ENDMDL
MODEL 4
REMARK VINA RESULT:    -3.668      1.300      4.249
REMARK INTER + INTRA:          -5.147
REMARK INTER:                  -4.824
REMARK INTRA:                  -0.323
REMARK UNBOUND:                -0.407
REMARK SMILES CCO[C@H]1O[C@H](CO)[C@@H](O)[C@@H](O)[C@@H]1O
REMARK SMILES IDX 4 1 13 2 11 3 9 4 6 5 5 6 3 7 2 8 1 9 14 10 12 12 7 14 8 15
REMARK SMILES IDX 10 17
REMARK H PARENT 14 11 12 13 8 16 10 18
REMARK Flexibility Score: inf
ROOT
ATOM      1  C   UNL     1       7.107   3.242   3.630  1.00  0.00     0.281 C 
ATOM      2  C   UNL     1       6.398   4.219   2.670  1.00  0.00     0.202 C 
ATOM      3  C   UNL     1       7.339   4.708   1.547  1.00  0.00     0.179 C 
ATOM      4  C   UNL     1       8.727   5.101   2.103  1.00  0.00     0.177 C 
ATOM      5  C   UNL     1       9.255   4.030   3.085  1.00  0.00     0.178 C 
ATOM      6  O   UNL     1       8.316   3.801   4.125  1.00  0.00    -0.341 OA
ENDROOT
BRANCH   1   7
ATOM      7  O   UNL     1       7.324   1.992   2.994  1.00  0.00    -0.350 OA
BRANCH   7   8
ATOM      8  C   UNL     1       6.308   1.078   3.350  1.00  0.00     0.160 C 
ATOM      9  C   UNL     1       6.897  -0.322   3.402  1.00  0.00     0.035 C 
ENDBRANCH   7   8
ENDBRANCH   1   7
BRANCH   2  10
ATOM     10  O   UNL     1       5.937   5.321   3.412  1.00  0.00    -0.385 OA
ATOM     11  H   UNL     1       4.951   5.352   3.300  1.00  0.00     0.211 HD
ENDBRANCH   2  10
BRANCH   3  12
ATOM     12  O   UNL     1       7.425   3.764   0.506  1.00  0.00    -0.387 OA
ATOM     13  H   UNL     1       6.996   4.142  -0.302  1.00  0.00     0.211 HD
ENDBRANCH   3  12
BRANCH   5  14
ATOM     14  C   UNL     1      10.576   4.487   3.723  1.00  0.00     0.191 C 
BRANCH  14  15
ATOM     15  O   UNL     1      11.595   4.529   2.762  1.00  0.00    -0.394 OA
ATOM     16  H   UNL     1      11.346   3.879   2.054  1.00  0.00     0.210 HD
ENDBRANCH  14  15
ENDBRANCH   5  14
BRANCH   4  17
ATOM     17  O   UNL     1       9.639   5.274   1.048  1.00  0.00    -0.387 OA
ATOM     18  H   UNL     1      10.099   4.403   0.921  1.00  0.00     0.211 HD
ENDBRANCH   4  17
TORSDOF 7
ENDMDL
MODEL 5
REMARK VINA RESULT:    -3.602      2.703      5.489
REMARK INTER + INTRA:          -5.062
REMARK INTER:                  -4.680
REMARK INTRA:                  -0.382
REMARK UNBOUND:                -0.407
REMARK SMILES CCO[C@H]1O[C@H](CO)[C@@H](O)[C@@H](O)[C@@H]1O
REMARK SMILES IDX 4 1 13 2 11 3 9 4 6 5 5 6 3 7 2 8 1 9 14 10 12 12 7 14 8 15
REMARK SMILES IDX 10 17
REMARK H PARENT 14 11 12 13 8 16 10 18
REMARK Flexibility Score: inf
ROOT
ATOM      1  C   UNL     1       9.348   5.824   3.182  1.00  0.00     0.281 C 
ATOM      2  C   UNL     1       9.840   7.015   2.335  1.00  0.00     0.202 C 
ATOM      3  C   UNL     1      11.095   6.655   1.510  1.00  0.00     0.179 C 
ATOM      4  C   UNL     1      12.128   5.880   2.361  1.00  0.00     0.177 C 
ATOM      5  C   UNL     1      11.445   4.761   3.180  1.00  0.00     0.178 C 
ATOM      6  O   UNL     1      10.399   5.295   3.978  1.00  0.00    -0.341 OA
ENDROOT
BRANCH   1   7
ATOM      7  O   UNL     1       8.762   4.833   2.353  1.00  0.00    -0.350 OA
BRANCH   7   8
ATOM      8  C   UNL     1       7.495   5.260   1.898  1.00  0.00     0.160 C 
ATOM      9  C   UNL     1       6.842   4.130   1.119  1.00  0.00     0.035 C 
ENDBRANCH   7   8
ENDBRANCH   1   7
BRANCH   2  10
ATOM     10  O   UNL     1      10.133   8.087   3.196  1.00  0.00    -0.385 OA
ATOM     11  H   UNL     1       9.863   8.919   2.725  1.00  0.00     0.211 HD
ENDBRANCH   2  10
BRANCH   3  12
ATOM     12  O   UNL     1      10.752   5.970   0.329  1.00  0.00    -0.387 OA
ATOM     13  H   UNL     1      10.869   6.583  -0.440  1.00  0.00     0.211 HD
ENDBRANCH   3  12
BRANCH   5  14
ATOM     14  C   UNL     1      12.458   4.079   4.112  1.00  0.00     0.191 C 
BRANCH  14  15
ATOM     15  O   UNL     1      13.373   3.320   3.369  1.00  0.00    -0.394 OA
ATOM     16  H   UNL     1      12.847   2.625   2.893  1.00  0.00     0.210 HD
ENDBRANCH  14  15
ENDBRANCH   5  14
BRANCH   4  17
ATOM     17  O   UNL     1      13.121   5.330   1.533  1.00  0.00    -0.387 OA
ATOM     18  H   UNL     1      13.237   5.957   0.771  1.00  0.00     0.211 HD
ENDBRANCH   4  17
TORSDOF 7
ENDMDL
MODEL 6
REMARK VINA RESULT:    -3.447      1.744      4.541
REMARK INTER + INTRA:          -4.862
REMARK INTER:                  -4.457
REMARK INTRA:                  -0.405
REMARK UNBOUND:                -0.407
REMARK SMILES CCO[C@H]1O[C@H](CO)[C@@H](O)[C@@H](O)[C@@H]1O
REMARK SMILES IDX 4 1 13 2 11 3 9 4 6 5 5 6 3 7 2 8 1 9 14 10 12 12 7 14 8 15
REMARK SMILES IDX 10 17
REMARK H PARENT 14 11 12 13 8 16 10 18
REMARK Flexibility Score: inf
ROOT
ATOM      1  C   UNL     1       6.735   3.941   1.603  1.00  0.00     0.281 C 
ATOM      2  C   UNL     1       8.183   3.463   1.368  1.00  0.00     0.202 C 
ATOM      3  C   UNL     1       9.188   4.203   2.278  1.00  0.00     0.179 C 
ATOM      4  C   UNL     1       8.911   5.724   2.308  1.00  0.00     0.177 C 
ATOM      5  C   UNL     1       7.403   6.010   2.498  1.00  0.00     0.178 C 
ATOM      6  O   UNL     1       6.641   5.355   1.496  1.00  0.00    -0.341 OA
ENDROOT
BRANCH   1   7
ATOM      7  O   UNL     1       6.254   3.472   2.853  1.00  0.00    -0.350 OA
BRANCH   7   8
ATOM      8  C   UNL     1       5.366   2.391   2.662  1.00  0.00     0.160 C 
ATOM      9  C   UNL     1       4.013   2.932   2.227  1.00  0.00     0.035 C 
ENDBRANCH   7   8
ENDBRANCH   1   7
BRANCH   2  10
ATOM     10  O   UNL     1       8.515   3.684   0.020  1.00  0.00    -0.385 OA
ATOM     11  H   UNL     1       9.276   4.322   0.012  1.00  0.00     0.211 HD
ENDBRANCH   2  10
BRANCH   3  12
ATOM     12  O   UNL     1       9.221   3.638   3.568  1.00  0.00    -0.387 OA
ATOM     13  H   UNL     1       8.315   3.308   3.793  1.00  0.00     0.211 HD
ENDBRANCH   3  12
BRANCH   5  14
ATOM     14  C   UNL     1       7.124   7.517   2.404  1.00  0.00     0.191 C 
BRANCH  14  15
ATOM     15  O   UNL     1       8.075   8.142   1.586  1.00  0.00    -0.394 OA
ATOM     16  H   UNL     1       8.920   7.629   1.688  1.00  0.00     0.210 HD
ENDBRANCH  14  15
ENDBRANCH   5  14
BRANCH   4  17
ATOM     17  O   UNL     1       9.648   6.329   3.340  1.00  0.00    -0.387 OA
ATOM     18  H   UNL     1       9.700   7.297   3.124  1.00  0.00     0.211 HD
ENDBRANCH   4  17
TORSDOF 7
ENDMDL
MODEL 7
REMARK VINA RESULT:    -3.240      2.135      4.084
REMARK INTER + INTRA:          -4.594
REMARK INTER:                  -4.247
REMARK INTRA:                  -0.347
REMARK UNBOUND:                -0.407
REMARK SMILES CCO[C@H]1O[C@H](CO)[C@@H](O)[C@@H](O)[C@@H]1O
REMARK SMILES IDX 4 1 13 2 11 3 9 4 6 5 5 6 3 7 2 8 1 9 14 10 12 12 7 14 8 15
REMARK SMILES IDX 10 17
REMARK H PARENT 14 11 12 13 8 16 10 18
REMARK Flexibility Score: inf
ROOT
ATOM      1  C   UNL     1       8.020   6.376   3.104  1.00  0.00     0.281 C 
ATOM      2  C   UNL     1       9.438   5.779   3.007  1.00  0.00     0.202 C 
ATOM      3  C   UNL     1       9.632   4.961   1.711  1.00  0.00     0.179 C 
ATOM      4  C   UNL     1       8.423   4.035   1.441  1.00  0.00     0.177 C 
ATOM      5  C   UNL     1       7.089   4.791   1.636  1.00  0.00     0.178 C 
ATOM      6  O   UNL     1       7.030   5.371   2.931  1.00  0.00    -0.341 OA
ENDROOT
BRANCH   1   7
ATOM      7  O   UNL     1       7.863   7.437   2.174  1.00  0.00    -0.350 OA
BRANCH   7   8
ATOM      8  C   UNL     1       6.890   8.352   2.633  1.00  0.00     0.160 C 
ATOM      9  C   UNL     1       6.358   9.145   1.450  1.00  0.00     0.035 C 
ENDBRANCH   7   8
ENDBRANCH   1   7
BRANCH   2  10
ATOM     10  O   UNL     1       9.653   4.952   4.124  1.00  0.00    -0.385 OA
ATOM     11  H   UNL     1      10.626   4.758   4.156  1.00  0.00     0.211 HD
ENDBRANCH   2  10
BRANCH   3  12
ATOM     12  O   UNL     1       9.921   5.799   0.617  1.00  0.00    -0.387 OA
ATOM     13  H   UNL     1      10.342   5.256  -0.096  1.00  0.00     0.211 HD
ENDBRANCH   3  12
BRANCH   5  14
ATOM     14  C   UNL     1       5.898   3.833   1.485  1.00  0.00     0.191 C 
BRANCH  14  15
ATOM     15  O   UNL     1       5.584   3.652   0.131  1.00  0.00    -0.394 OA
ATOM     16  H   UNL     1       6.147   2.902  -0.194  1.00  0.00     0.210 HD
ENDBRANCH  14  15
ENDBRANCH   5  14
BRANCH   4  17
ATOM     17  O   UNL     1       8.494   3.517   0.137  1.00  0.00    -0.387 OA
ATOM     18  H   UNL     1       7.683   3.834  -0.341  1.00  0.00     0.211 HD
ENDBRANCH   4  17
TORSDOF 7
ENDMDL
MODEL 8
REMARK VINA RESULT:    -3.177      1.983      4.710
REMARK INTER + INTRA:          -4.512
REMARK INTER:                  -4.171
REMARK INTRA:                  -0.342
REMARK UNBOUND:                -0.407
REMARK SMILES CCO[C@H]1O[C@H](CO)[C@@H](O)[C@@H](O)[C@@H]1O
REMARK SMILES IDX 4 1 13 2 11 3 9 4 6 5 5 6 3 7 2 8 1 9 14 10 12 12 7 14 8 15
REMARK SMILES IDX 10 17
REMARK H PARENT 14 11 12 13 8 16 10 18
REMARK Flexibility Score: inf
ROOT
ATOM      1  C   UNL     1       8.631   4.357   3.983  1.00  0.00     0.281 C 
ATOM      2  C   UNL     1       7.826   5.414   3.200  1.00  0.00     0.202 C 
ATOM      3  C   UNL     1       8.494   5.767   1.853  1.00  0.00     0.179 C 
ATOM      4  C   UNL     1      10.018   5.973   2.014  1.00  0.00     0.177 C 
ATOM      5  C   UNL     1      10.644   4.848   2.869  1.00  0.00     0.178 C 
ATOM      6  O   UNL     1       9.989   4.753   4.125  1.00  0.00    -0.341 OA
ENDROOT
BRANCH   1   7
ATOM      7  O   UNL     1       8.514   3.086   3.364  1.00  0.00    -0.350 OA
BRANCH   7   8
ATOM      8  C   UNL     1       7.159   2.691   3.308  1.00  0.00     0.160 C 
ATOM      9  C   UNL     1       7.048   1.238   3.741  1.00  0.00     0.035 C 
ENDBRANCH   7   8
ENDBRANCH   1   7
BRANCH   2  10
ATOM     10  O   UNL     1       7.719   6.572   3.991  1.00  0.00    -0.385 OA
ATOM     11  H   UNL     1       7.430   7.307   3.389  1.00  0.00     0.211 HD
ENDBRANCH   2  10
BRANCH   3  12
ATOM     12  O   UNL     1       8.184   4.813   0.864  1.00  0.00    -0.387 OA
ATOM     13  H   UNL     1       7.985   3.950   1.307  1.00  0.00     0.211 HD
ENDBRANCH   3  12
BRANCH   5  14
ATOM     14  C   UNL     1      12.132   5.128   3.124  1.00  0.00     0.191 C 
BRANCH  14  15
ATOM     15  O   UNL     1      12.876   4.933   1.952  1.00  0.00    -0.394 OA
ATOM     16  H   UNL     1      13.683   5.506   2.029  1.00  0.00     0.210 HD
ENDBRANCH  14  15
ENDBRANCH   5  14
BRANCH   4  17
ATOM     17  O   UNL     1      10.635   6.018   0.753  1.00  0.00    -0.387 OA
ATOM     18  H   UNL     1      10.807   6.975   0.552  1.00  0.00     0.211 HD
ENDBRANCH   4  17
TORSDOF 7
ENDMDL
