MODEL 1
REMARK VINA RESULT:     7.516      0.000      0.000
REMARK INTER + INTRA:           9.808
REMARK INTER:                   9.493
REMARK INTRA:                   0.314
REMARK UNBOUND:                 0.314
REMARK SMILES Oc1cc(O)cc(CCc2ccccc2O)c1
REMARK SMILES IDX 9 1 10 2 12 3 13 4 11 5 14 6 15 7 16 8 8 10 7 11 6 12 17 13
REMARK SMILES IDX 4 14 2 15 3 16 5 17 1 19
REMARK H PARENT 16 9 5 18 1 20
REMARK Flexibility Score: inf
ROOT
ATOM      1  C   UNL     1     136.755 129.193 130.417  1.00  0.00     0.044 C 
ENDROOT
BRANCH   1   2
ATOM      2  C   UNL     1     136.849 129.997 131.690  1.00  0.00    -0.006 A 
ATOM      3  C   UNL     1     135.783 130.884 133.688  1.00  0.00     0.001 A 
ATOM      4  C   UNL     1     137.001 131.426 134.102  1.00  0.00     0.004 A 
ATOM      5  C   UNL     1     135.706 130.168 132.490  1.00  0.00     0.007 A 
ATOM      6  C   UNL     1     138.147 131.250 133.323  1.00  0.00     0.046 A 
ATOM      7  C   UNL     1     138.081 130.532 132.119  1.00  0.00     0.118 A 
BRANCH   7   8
ATOM      8  O   UNL     1     139.231 130.347 131.354  1.00  0.00    -0.508 OA
ATOM      9  H   UNL     1     139.992 131.017 131.368  1.00  0.00     0.293 HD
ENDBRANCH   7   8
ENDBRANCH   1   2
BRANCH   1  10
ATOM     10  C   UNL     1     136.726 130.118 129.197  1.00  0.00     0.040 C 
BRANCH  10  11
ATOM     11  C   UNL     1     138.049 130.091 128.481  1.00  0.00    -0.040 A 
ATOM     12  C   UNL     1     139.000 131.098 128.710  1.00  0.00     0.050 A 
ATOM     13  C   UNL     1     138.366 129.027 127.620  1.00  0.00     0.050 A 
ATOM     14  C   UNL     1     140.243 131.057 128.071  1.00  0.00     0.119 A 
ATOM     15  C   UNL     1     139.611 128.983 126.978  1.00  0.00     0.119 A 
ATOM     16  C   UNL     1     140.546 129.999 127.203  1.00  0.00     0.092 A 
BRANCH  14  17
ATOM     17  O   UNL     1     141.171 132.068 128.307  1.00  0.00    -0.508 OA
ATOM     18  H   UNL     1     140.975 132.827 128.950  1.00  0.00     0.293 HD
ENDBRANCH  14  17
BRANCH  15  19
ATOM     19  O   UNL     1     139.929 127.935 126.118  1.00  0.00    -0.508 OA
ATOM     20  H   UNL     1     139.342 127.701 125.326  1.00  0.00     0.293 HD
ENDBRANCH  15  19
ENDBRANCH  10  11
ENDBRANCH   1  10
TORSDOF 6
ENDMDL
MODEL 2
REMARK VINA RESULT:     7.546      0.054      2.035
REMARK INTER + INTRA:           9.845
REMARK INTER:                   9.427
REMARK INTRA:                   0.418
REMARK UNBOUND:                 0.314
REMARK SMILES Oc1cc(O)cc(CCc2ccccc2O)c1
REMARK SMILES IDX 9 1 10 2 12 3 13 4 11 5 14 6 15 7 16 8 8 10 7 11 6 12 17 13
REMARK SMILES IDX 4 14 2 15 3 16 5 17 1 19
REMARK H PARENT 16 9 5 18 1 20
REMARK Flexibility Score: inf
ROOT
ATOM      1  C   UNL     1     136.725 129.198 130.430  1.00  0.00     0.044 C 
ENDROOT
BRANCH   1   2
ATOM      2  C   UNL     1     136.818 130.000 131.705  1.00  0.00    -0.006 A 
ATOM      3  C   UNL     1     135.749 130.892 133.698  1.00  0.00     0.001 A 
ATOM      4  C   UNL     1     136.969 131.427 134.119  1.00  0.00     0.004 A 
ATOM      5  C   UNL     1     135.673 130.178 132.500  1.00  0.00     0.007 A 
ATOM      6  C   UNL     1     138.117 131.244 133.344  1.00  0.00     0.046 A 
ATOM      7  C   UNL     1     138.051 130.527 132.139  1.00  0.00     0.118 A 
BRANCH   7   8
ATOM      8  O   UNL     1     139.204 130.336 131.379  1.00  0.00    -0.508 OA
ATOM      9  H   UNL     1     139.865 129.597 131.591  1.00  0.00     0.293 HD
ENDBRANCH   7   8
ENDBRANCH   1   2
BRANCH   1  10
ATOM     10  C   UNL     1     136.763 130.120 129.209  1.00  0.00     0.040 C 
BRANCH  10  11
ATOM     11  C   UNL     1     138.111 130.060 128.542  1.00  0.00    -0.040 A 
ATOM     12  C   UNL     1     138.425 129.004 127.673  1.00  0.00     0.050 A 
ATOM     13  C   UNL     1     139.044 131.091 128.740  1.00  0.00     0.050 A 
ATOM     14  C   UNL     1     139.665 128.963 127.027  1.00  0.00     0.119 A 
ATOM     15  C   UNL     1     140.287 131.053 128.093  1.00  0.00     0.119 A 
ATOM     16  C   UNL     1     140.595 129.989 127.240  1.00  0.00     0.092 A 
BRANCH  14  17
ATOM     17  O   UNL     1     139.960 127.903 126.172  1.00  0.00    -0.508 OA
ATOM     18  H   UNL     1     139.366 127.084 126.120  1.00  0.00     0.293 HD
ENDBRANCH  14  17
BRANCH  15  19
ATOM     19  O   UNL     1     141.220 132.069 128.290  1.00  0.00    -0.508 OA
ATOM     20  H   UNL     1     140.952 133.046 128.275  1.00  0.00     0.293 HD
ENDBRANCH  15  19
ENDBRANCH  10  11
ENDBRANCH   1  10
TORSDOF 6
ENDMDL
MODEL 3
REMARK VINA RESULT:    10.265      1.151      1.688
REMARK INTER + INTRA:          13.280
REMARK INTER:                  12.743
REMARK INTRA:                   0.537
REMARK UNBOUND:                 0.314
REMARK SMILES Oc1cc(O)cc(CCc2ccccc2O)c1
REMARK SMILES IDX 9 1 10 2 12 3 13 4 11 5 14 6 15 7 16 8 8 10 7 11 6 12 17 13
REMARK SMILES IDX 4 14 2 15 3 16 5 17 1 19
REMARK H PARENT 16 9 5 18 1 20
REMARK Flexibility Score: inf
ROOT
ATOM      1  C   UNL     1     138.578 130.123 131.204  1.00  0.00     0.044 C 
ENDROOT
BRANCH   1   2
ATOM      2  C   UNL     1     137.657 130.489 132.341  1.00  0.00    -0.006 A 
ATOM      3  C   UNL     1     137.309 131.595 134.478  1.00  0.00     0.001 A 
ATOM      4  C   UNL     1     135.957 131.249 134.443  1.00  0.00     0.004 A 
ATOM      5  C   UNL     1     138.156 131.222 133.432  1.00  0.00     0.007 A 
ATOM      6  C   UNL     1     135.446 130.533 133.357  1.00  0.00     0.046 A 
ATOM      7  C   UNL     1     136.288 130.155 132.300  1.00  0.00     0.118 A 
BRANCH   7   8
ATOM      8  O   UNL     1     135.769 129.453 131.213  1.00  0.00    -0.508 OA
ATOM      9  H   UNL     1     135.737 129.859 130.284  1.00  0.00     0.293 HD
ENDBRANCH   7   8
ENDBRANCH   1   2
BRANCH   1  10
ATOM     10  C   UNL     1     137.821 130.135 129.872  1.00  0.00     0.040 C 
BRANCH  10  11
ATOM     11  C   UNL     1     138.781 130.033 128.718  1.00  0.00    -0.040 A 
ATOM     12  C   UNL     1     139.793 130.992 128.551  1.00  0.00     0.050 A 
ATOM     13  C   UNL     1     138.706 128.948 127.830  1.00  0.00     0.050 A 
ATOM     14  C   UNL     1     140.707 130.881 127.498  1.00  0.00     0.119 A 
ATOM     15  C   UNL     1     139.620 128.834 126.773  1.00  0.00     0.119 A 
ATOM     16  C   UNL     1     140.617 129.802 126.608  1.00  0.00     0.092 A 
BRANCH  14  17
ATOM     17  O   UNL     1     141.701 131.845 127.346  1.00  0.00    -0.508 OA
ATOM     18  H   UNL     1     141.558 132.667 126.771  1.00  0.00     0.293 HD
ENDBRANCH  14  17
BRANCH  15  19
ATOM     19  O   UNL     1     139.548 127.764 125.885  1.00  0.00    -0.508 OA
ATOM     20  H   UNL     1     140.105 127.738 125.039  1.00  0.00     0.293 HD
ENDBRANCH  15  19
ENDBRANCH  10  11
ENDBRANCH   1  10
TORSDOF 6
ENDMDL
MODEL 4
REMARK VINA RESULT:    10.377      1.898      6.270
REMARK INTER + INTRA:          13.422
REMARK INTER:                  13.846
REMARK INTRA:                  -0.424
REMARK UNBOUND:                 0.314
REMARK SMILES Oc1cc(O)cc(CCc2ccccc2O)c1
REMARK SMILES IDX 9 1 10 2 12 3 13 4 11 5 14 6 15 7 16 8 8 10 7 11 6 12 17 13
REMARK SMILES IDX 4 14 2 15 3 16 5 17 1 19
REMARK H PARENT 16 9 5 18 1 20
REMARK Flexibility Score: inf
ROOT
ATOM      1  C   UNL     1     138.363 130.847 129.975  1.00  0.00     0.044 C 
ENDROOT
BRANCH   1   2
ATOM      2  C   UNL     1     138.954 130.177 128.760  1.00  0.00    -0.006 A 
ATOM      3  C   UNL     1     138.863 128.407 127.094  1.00  0.00     0.001 A 
ATOM      4  C   UNL     1     139.983 128.943 126.457  1.00  0.00     0.004 A 
ATOM      5  C   UNL     1     138.346 129.022 128.238  1.00  0.00     0.007 A 
ATOM      6  C   UNL     1     140.588 130.098 126.957  1.00  0.00     0.046 A 
ATOM      7  C   UNL     1     140.076 130.725 128.104  1.00  0.00     0.118 A 
BRANCH   7   8
ATOM      8  O   UNL     1     140.675 131.886 128.590  1.00  0.00    -0.508 OA
ATOM      9  H   UNL     1     141.404 132.365 128.073  1.00  0.00     0.293 HD
ENDBRANCH   7   8
ENDBRANCH   1   2
BRANCH   1  10
ATOM     10  C   UNL     1     138.686 130.048 131.241  1.00  0.00     0.040 C 
BRANCH  10  11
ATOM     11  C   UNL     1     137.774 130.451 132.368  1.00  0.00    -0.040 A 
ATOM     12  C   UNL     1     138.288 131.114 133.494  1.00  0.00     0.050 A 
ATOM     13  C   UNL     1     136.392 130.217 132.277  1.00  0.00     0.050 A 
ATOM     14  C   UNL     1     137.437 131.518 134.527  1.00  0.00     0.119 A 
ATOM     15  C   UNL     1     135.536 130.622 133.311  1.00  0.00     0.119 A 
ATOM     16  C   UNL     1     136.061 131.269 134.434  1.00  0.00     0.092 A 
BRANCH  14  17
ATOM     17  O   UNL     1     137.966 132.170 135.639  1.00  0.00    -0.508 OA
ATOM     18  H   UNL     1     138.562 131.687 136.301  1.00  0.00     0.293 HD
ENDBRANCH  14  17
BRANCH  15  19
ATOM     19  O   UNL     1     134.166 130.387 133.230  1.00  0.00    -0.508 OA
ATOM     20  H   UNL     1     133.796 129.532 132.832  1.00  0.00     0.293 HD
ENDBRANCH  15  19
ENDBRANCH  10  11
ENDBRANCH   1  10
TORSDOF 6
ENDMDL
MODEL 5
REMARK VINA RESULT:    10.430      1.892      6.511
REMARK INTER + INTRA:          13.488
REMARK INTER:                  13.904
REMARK INTRA:                  -0.416
REMARK UNBOUND:                 0.314
REMARK SMILES Oc1cc(O)cc(CCc2ccccc2O)c1
REMARK SMILES IDX 9 1 10 2 12 3 13 4 11 5 14 6 15 7 16 8 8 10 7 11 6 12 17 13
REMARK SMILES IDX 4 14 2 15 3 16 5 17 1 19
REMARK H PARENT 16 9 5 18 1 20
REMARK Flexibility Score: inf
ROOT
ATOM      1  C   UNL     1     138.352 130.821 129.901  1.00  0.00     0.044 C 
ENDROOT
BRANCH   1   2
ATOM      2  C   UNL     1     138.944 130.121 128.703  1.00  0.00    -0.006 A 
ATOM      3  C   UNL     1     138.850 128.316 127.077  1.00  0.00     0.001 A 
ATOM      4  C   UNL     1     139.977 128.831 126.433  1.00  0.00     0.004 A 
ATOM      5  C   UNL     1     138.332 128.959 128.204  1.00  0.00     0.007 A 
ATOM      6  C   UNL     1     140.586 129.993 126.911  1.00  0.00     0.046 A 
ATOM      7  C   UNL     1     140.072 130.648 128.042  1.00  0.00     0.118 A 
BRANCH   7   8
ATOM      8  O   UNL     1     140.676 131.815 128.505  1.00  0.00    -0.508 OA
ATOM      9  H   UNL     1     140.171 132.486 129.074  1.00  0.00     0.293 HD
ENDBRANCH   7   8
ENDBRANCH   1   2
BRANCH   1  10
ATOM     10  C   UNL     1     138.652 130.041 131.184  1.00  0.00     0.040 C 
BRANCH  10  11
ATOM     11  C   UNL     1     137.750 130.492 132.301  1.00  0.00    -0.040 A 
ATOM     12  C   UNL     1     136.372 130.229 132.249  1.00  0.00     0.050 A 
ATOM     13  C   UNL     1     138.288 131.129 133.431  1.00  0.00     0.050 A 
ATOM     14  C   UNL     1     135.536 130.618 133.301  1.00  0.00     0.119 A 
ATOM     15  C   UNL     1     137.453 131.520 134.487  1.00  0.00     0.119 A 
ATOM     16  C   UNL     1     136.080 131.266 134.419  1.00  0.00     0.092 A 
BRANCH  14  17
ATOM     17  O   UNL     1     134.171 130.354 133.229  1.00  0.00    -0.508 OA
ATOM     18  H   UNL     1     133.800 129.654 132.596  1.00  0.00     0.293 HD
ENDBRANCH  14  17
BRANCH  15  19
ATOM     19  O   UNL     1     137.980 132.158 135.608  1.00  0.00    -0.508 OA
ATOM     20  H   UNL     1     138.666 131.708 136.201  1.00  0.00     0.293 HD
ENDBRANCH  15  19
ENDBRANCH  10  11
ENDBRANCH   1  10
TORSDOF 6
ENDMDL
MODEL 6
REMARK VINA RESULT:    10.508      2.078      6.353
REMARK INTER + INTRA:          13.587
REMARK INTER:                  13.814
REMARK INTRA:                  -0.227
REMARK UNBOUND:                 0.314
REMARK SMILES Oc1cc(O)cc(CCc2ccccc2O)c1
REMARK SMILES IDX 9 1 10 2 12 3 13 4 11 5 14 6 15 7 16 8 8 10 7 11 6 12 17 13
REMARK SMILES IDX 4 14 2 15 3 16 5 17 1 19
REMARK H PARENT 16 9 5 18 1 20
REMARK Flexibility Score: inf
ROOT
ATOM      1  C   UNL     1     138.305 130.892 129.912  1.00  0.00     0.044 C 
ENDROOT
BRANCH   1   2
ATOM      2  C   UNL     1     138.905 130.258 128.683  1.00  0.00    -0.006 A 
ATOM      3  C   UNL     1     140.561 130.301 126.902  1.00  0.00     0.001 A 
ATOM      4  C   UNL     1     140.095 129.071 126.433  1.00  0.00     0.004 A 
ATOM      5  C   UNL     1     139.973 130.891 128.024  1.00  0.00     0.007 A 
ATOM      6  C   UNL     1     139.044 128.425 127.087  1.00  0.00     0.046 A 
ATOM      7  C   UNL     1     138.448 129.008 128.216  1.00  0.00     0.118 A 
BRANCH   7   8
ATOM      8  O   UNL     1     137.409 128.351 128.873  1.00  0.00    -0.508 OA
ATOM      9  H   UNL     1     137.311 127.342 128.837  1.00  0.00     0.293 HD
ENDBRANCH   7   8
ENDBRANCH   1   2
BRANCH   1  10
ATOM     10  C   UNL     1     138.670 130.091 131.165  1.00  0.00     0.040 C 
BRANCH  10  11
ATOM     11  C   UNL     1     137.772 130.466 132.313  1.00  0.00    -0.040 A 
ATOM     12  C   UNL     1     138.298 131.121 133.439  1.00  0.00     0.050 A 
ATOM     13  C   UNL     1     136.393 130.216 132.243  1.00  0.00     0.050 A 
ATOM     14  C   UNL     1     137.460 131.500 134.493  1.00  0.00     0.119 A 
ATOM     15  C   UNL     1     135.550 130.595 133.298  1.00  0.00     0.119 A 
ATOM     16  C   UNL     1     136.086 131.234 134.420  1.00  0.00     0.092 A 
BRANCH  14  17
ATOM     17  O   UNL     1     138.001 132.143 135.604  1.00  0.00    -0.508 OA
ATOM     18  H   UNL     1     138.046 131.689 136.508  1.00  0.00     0.293 HD
ENDBRANCH  14  17
BRANCH  15  19
ATOM     19  O   UNL     1     134.181 130.345 133.237  1.00  0.00    -0.508 OA
ATOM     20  H   UNL     1     133.740 129.660 133.840  1.00  0.00     0.293 HD
ENDBRANCH  15  19
ENDBRANCH  10  11
ENDBRANCH   1  10
TORSDOF 6
ENDMDL
