MODEL 1
REMARK VINA RESULT:     7.037      0.000      0.000
REMARK INTER + INTRA:           7.345
REMARK INTER:                   7.654
REMARK INTRA:                  -0.309
REMARK UNBOUND:                -0.309
REMARK SMILES C=C(C)[C@H]1CC[C@@]2(C)CC[C@@]3(C)[C@H](CC[C@@H]4[C@@]5(C)CC[C@@H](O)C(C)(C)[C@H]5CC[C@@]43C)[C@@H]12
REMARK SMILES IDX 4 1 5 2 6 3 7 4 31 5 13 6 14 7 15 8 16 9 17 10 19 11 20 12
REMARK SMILES IDX 21 13 23 14 26 15 27 16 28 17 29 18 11 19 10 20 9 21 12 22
REMARK SMILES IDX 30 23 24 24 25 25 18 26 8 27 2 28 3 29 1 30 22 31
REMARK H PARENT 22 32
REMARK Flexibility Score: inf
ROOT
ATOM      1  C   UNL     1      19.031  32.990  35.205  1.00  0.00     0.018 C 
ATOM      2  C   UNL     1      17.967  33.594  36.124  1.00  0.00     0.009 C 
ATOM      3  C   UNL     1      16.670  32.936  35.690  1.00  0.00     0.008 C 
ATOM      4  C   UNL     1      16.748  32.836  34.149  1.00  0.00    -0.029 C 
ATOM      5  C   UNL     1      18.275  32.617  33.878  1.00  0.00     0.006 C 
ATOM      6  C   UNL     1      18.800  33.134  32.471  1.00  0.00    -0.000 C 
ATOM      7  C   UNL     1      18.507  32.047  31.424  1.00  0.00     0.005 C 
ATOM      8  C   UNL     1      19.109  32.369  30.080  1.00  0.00     0.005 C 
ATOM      9  C   UNL     1      18.495  33.654  29.448  1.00  0.00     0.002 C 
ATOM     10  C   UNL     1      19.033  33.856  27.941  1.00  0.00    -0.026 C 
ATOM     11  C   UNL     1      18.052  34.755  27.091  1.00  0.00     0.010 C 
ATOM     12  C   UNL     1      18.743  35.804  26.211  1.00  0.00     0.033 C 
ATOM     13  C   UNL     1      19.944  35.201  25.479  1.00  0.00     0.120 C 
ATOM     14  C   UNL     1      21.094  34.789  26.475  1.00  0.00    -0.006 C 
ATOM     15  C   UNL     1      20.524  34.411  27.936  1.00  0.00     0.003 C 
ATOM     16  C   UNL     1      20.730  35.554  28.971  1.00  0.00     0.005 C 
ATOM     17  C   UNL     1      20.196  35.282  30.380  1.00  0.00     0.008 C 
ATOM     18  C   UNL     1      18.693  34.880  30.447  1.00  0.00    -0.024 C 
ATOM     19  C   UNL     1      18.253  34.527  31.989  1.00  0.00    -0.024 C 
ATOM     20  C   UNL     1      16.696  34.501  32.141  1.00  0.00     0.008 C 
ATOM     21  C   UNL     1      16.203  34.171  33.556  1.00  0.00     0.007 C 
ATOM     22  C   UNL     1      18.823  35.613  32.958  1.00  0.00     0.012 C 
ATOM     23  C   UNL     1      17.853  36.112  29.972  1.00  0.00     0.012 C 
ATOM     24  C   UNL     1      21.855  33.572  25.881  1.00  0.00     0.014 C 
ATOM     25  C   UNL     1      22.163  35.927  26.535  1.00  0.00     0.014 C 
ATOM     26  C   UNL     1      19.015  32.466  27.217  1.00  0.00     0.012 C 
ATOM     27  C   UNL     1      15.876  31.633  33.654  1.00  0.00     0.011 C 
ENDROOT
BRANCH   1  28
ATOM     28  C   UNL     1      20.370  33.728  35.125  1.00  0.00    -0.077 C 
ATOM     29  C   UNL     1      20.654  35.017  35.873  1.00  0.00     0.039 C 
ATOM     30  C   UNL     1      21.413  33.114  34.538  1.00  0.00     0.008 C 
ENDBRANCH   1  28
BRANCH  13  31
ATOM     31  O   UNL     1      20.385  36.124  24.514  1.00  0.00    -0.393 OA
ATOM     32  H   UNL     1      19.635  36.261  23.877  1.00  0.00     0.210 HD
ENDBRANCH  13  31
TORSDOF 2
ENDMDL
MODEL 2
REMARK VINA RESULT:     8.769      1.819      3.509
REMARK INTER + INTRA:           9.229
REMARK INTER:                   7.349
REMARK INTRA:                   1.880
REMARK UNBOUND:                -0.309
REMARK SMILES C=C(C)[C@H]1CC[C@@]2(C)CC[C@@]3(C)[C@H](CC[C@@H]4[C@@]5(C)CC[C@@H](O)C(C)(C)[C@H]5CC[C@@]43C)[C@@H]12
REMARK SMILES IDX 4 1 5 2 6 3 7 4 31 5 13 6 14 7 15 8 16 9 17 10 19 11 20 12
REMARK SMILES IDX 21 13 23 14 26 15 27 16 28 17 29 18 11 19 10 20 9 21 12 22
REMARK SMILES IDX 30 23 24 24 25 25 18 26 8 27 2 28 3 29 1 30 22 31
REMARK H PARENT 22 32
REMARK Flexibility Score: inf
ROOT
ATOM      1  C   UNL     1      16.070  32.152  34.363  1.00  0.00     0.018 C 
ATOM      2  C   UNL     1      16.163  32.351  35.878  1.00  0.00     0.009 C 
ATOM      3  C   UNL     1      15.931  33.837  36.081  1.00  0.00     0.008 C 
ATOM      4  C   UNL     1      16.663  34.538  34.914  1.00  0.00    -0.029 C 
ATOM      5  C   UNL     1      16.516  33.521  33.732  1.00  0.00     0.006 C 
ATOM      6  C   UNL     1      17.667  33.575  32.638  1.00  0.00    -0.000 C 
ATOM      7  C   UNL     1      17.330  34.701  31.647  1.00  0.00     0.005 C 
ATOM      8  C   UNL     1      18.276  34.734  30.475  1.00  0.00     0.005 C 
ATOM      9  C   UNL     1      19.739  35.056  30.903  1.00  0.00     0.002 C 
ATOM     10  C   UNL     1      20.676  35.261  29.607  1.00  0.00    -0.026 C 
ATOM     11  C   UNL     1      21.956  36.121  29.947  1.00  0.00     0.010 C 
ATOM     12  C   UNL     1      23.262  35.598  29.334  1.00  0.00     0.033 C 
ATOM     13  C   UNL     1      23.060  35.200  27.870  1.00  0.00     0.120 C 
ATOM     14  C   UNL     1      22.101  33.958  27.725  1.00  0.00    -0.006 C 
ATOM     15  C   UNL     1      21.042  33.865  28.939  1.00  0.00     0.003 C 
ATOM     16  C   UNL     1      21.439  32.793  29.994  1.00  0.00     0.005 C 
ATOM     17  C   UNL     1      20.495  32.656  31.192  1.00  0.00     0.008 C 
ATOM     18  C   UNL     1      20.226  33.977  31.971  1.00  0.00    -0.024 C 
ATOM     19  C   UNL     1      19.136  33.732  33.175  1.00  0.00    -0.024 C 
ATOM     20  C   UNL     1      19.142  34.919  34.194  1.00  0.00     0.008 C 
ATOM     21  C   UNL     1      18.143  34.768  35.349  1.00  0.00     0.007 C 
ATOM     22  C   UNL     1      19.494  32.421  33.946  1.00  0.00     0.012 C 
ATOM     23  C   UNL     1      21.576  34.426  32.623  1.00  0.00     0.012 C 
ATOM     24  C   UNL     1      21.339  34.073  26.376  1.00  0.00     0.014 C 
ATOM     25  C   UNL     1      22.953  32.657  27.583  1.00  0.00     0.014 C 
ATOM     26  C   UNL     1      19.893  36.125  28.560  1.00  0.00     0.012 C 
ATOM     27  C   UNL     1      15.975  35.911  34.608  1.00  0.00     0.011 C 
ENDROOT
BRANCH   1  28
ATOM     28  C   UNL     1      16.641  30.845  33.805  1.00  0.00    -0.077 C 
ATOM     29  C   UNL     1      15.988  29.494  34.023  1.00  0.00     0.039 C 
ATOM     30  C   UNL     1      17.646  30.907  32.913  1.00  0.00     0.008 C 
ENDBRANCH   1  28
BRANCH  13  31
ATOM     31  O   UNL     1      24.323  34.965  27.296  1.00  0.00    -0.393 OA
ATOM     32  H   UNL     1      24.166  34.568  26.399  1.00  0.00     0.210 HD
ENDBRANCH  13  31
TORSDOF 2
ENDMDL
MODEL 3
REMARK VINA RESULT:     9.556     12.820     15.441
REMARK INTER + INTRA:          10.085
REMARK INTER:                   9.198
REMARK INTRA:                   0.887
REMARK UNBOUND:                -0.309
REMARK SMILES C=C(C)[C@H]1CC[C@@]2(C)CC[C@@]3(C)[C@H](CC[C@@H]4[C@@]5(C)CC[C@@H](O)C(C)(C)[C@H]5CC[C@@]43C)[C@@H]12
REMARK SMILES IDX 4 1 5 2 6 3 7 4 31 5 13 6 14 7 15 8 16 9 17 10 19 11 20 12
REMARK SMILES IDX 21 13 23 14 26 15 27 16 28 17 29 18 11 19 10 20 9 21 12 22
REMARK SMILES IDX 30 23 24 24 25 25 18 26 8 27 2 28 3 29 1 30 22 31
REMARK H PARENT 22 32
REMARK Flexibility Score: inf
ROOT
ATOM      1  C   UNL     1      18.872  33.213  16.263  1.00  0.00     0.018 C 
ATOM      2  C   UNL     1      18.323  34.239  17.257  1.00  0.00     0.009 C 
ATOM      3  C   UNL     1      19.393  35.314  17.324  1.00  0.00     0.008 C 
ATOM      4  C   UNL     1      20.743  34.564  17.275  1.00  0.00    -0.029 C 
ATOM      5  C   UNL     1      20.436  33.326  16.364  1.00  0.00     0.006 C 
ATOM      6  C   UNL     1      21.329  32.041  16.635  1.00  0.00    -0.000 C 
ATOM      7  C   UNL     1      22.654  32.211  15.875  1.00  0.00     0.005 C 
ATOM      8  C   UNL     1      23.511  30.973  15.936  1.00  0.00     0.005 C 
ATOM      9  C   UNL     1      23.969  30.639  17.387  1.00  0.00     0.002 C 
ATOM     10  C   UNL     1      25.027  29.422  17.381  1.00  0.00    -0.026 C 
ATOM     11  C   UNL     1      25.923  29.426  18.681  1.00  0.00     0.010 C 
ATOM     12  C   UNL     1      26.145  28.046  19.312  1.00  0.00     0.033 C 
ATOM     13  C   UNL     1      26.474  27.001  18.244  1.00  0.00     0.120 C 
ATOM     14  C   UNL     1      25.253  26.737  17.282  1.00  0.00    -0.006 C 
ATOM     15  C   UNL     1      24.295  28.028  17.152  1.00  0.00     0.003 C 
ATOM     16  C   UNL     1      22.999  27.897  18.004  1.00  0.00     0.005 C 
ATOM     17  C   UNL     1      22.044  29.093  17.951  1.00  0.00     0.008 C 
ATOM     18  C   UNL     1      22.686  30.463  18.317  1.00  0.00    -0.024 C 
ATOM     19  C   UNL     1      21.597  31.681  18.142  1.00  0.00    -0.024 C 
ATOM     20  C   UNL     1      22.087  32.984  18.858  1.00  0.00     0.008 C 
ATOM     21  C   UNL     1      21.125  34.173  18.735  1.00  0.00     0.007 C 
ATOM     22  C   UNL     1      20.232  31.256  18.772  1.00  0.00     0.012 C 
ATOM     23  C   UNL     1      23.108  30.402  19.822  1.00  0.00     0.012 C 
ATOM     24  C   UNL     1      25.799  26.349  15.881  1.00  0.00     0.014 C 
ATOM     25  C   UNL     1      24.476  25.470  17.764  1.00  0.00     0.014 C 
ATOM     26  C   UNL     1      26.040  29.651  16.207  1.00  0.00     0.012 C 
ATOM     27  C   UNL     1      21.843  35.495  16.664  1.00  0.00     0.011 C 
ENDROOT
BRANCH   1  28
ATOM     28  C   UNL     1      18.216  31.828  16.272  1.00  0.00    -0.077 C 
ATOM     29  C   UNL     1      16.714  31.621  16.274  1.00  0.00     0.039 C 
ATOM     30  C   UNL     1      18.986  30.747  16.060  1.00  0.00     0.008 C 
ENDBRANCH   1  28
BRANCH  13  31
ATOM     31  O   UNL     1      26.903  25.827  18.889  1.00  0.00    -0.393 OA
ATOM     32  H   UNL     1      27.769  26.036  19.329  1.00  0.00     0.210 HD
ENDBRANCH  13  31
TORSDOF 2
ENDMDL
