MODEL 1
REMARK VINA RESULT:    -3.933      0.000      0.000
REMARK INTER + INTRA:          -4.318
REMARK INTER:                  -4.163
REMARK INTRA:                  -0.154
REMARK UNBOUND:                -0.154
REMARK SMILES CC(C)[C@@H]1CC[C@H](C)CC1=O
REMARK SMILES IDX 8 1 7 2 6 3 5 4 4 5 10 6 11 7 9 8 2 9 1 10 3 11
REMARK H PARENT
REMARK Flexibility Score: inf
ROOT
ATOM      1  C   UNL     1      14.684 -11.006 -25.171  1.00  0.00     0.008 C 
ATOM      2  C   UNL     1      14.762 -11.171 -26.701  1.00  0.00    -0.007 C 
ATOM      3  C   UNL     1      14.635 -12.665 -27.119  1.00  0.00     0.004 C 
ATOM      4  C   UNL     1      13.178 -13.185 -27.083  1.00  0.00     0.012 C 
ATOM      5  C   UNL     1      12.272 -12.288 -27.956  1.00  0.00     0.058 C 
ATOM      6  C   UNL     1      12.370 -10.875 -27.407  1.00  0.00     0.136 C 
ATOM      7  O   UNL     1      11.506 -10.392 -26.691  1.00  0.00    -0.299 OA
ATOM      8  C   UNL     1      13.740 -10.258 -27.430  1.00  0.00     0.079 C 
ENDROOT
BRANCH   5   9
ATOM      9  C   UNL     1      10.839 -12.877 -28.151  1.00  0.00    -0.007 C 
ATOM     10  C   UNL     1      10.173 -12.533 -29.495  1.00  0.00     0.008 C 
ATOM     11  C   UNL     1      10.816 -14.397 -27.889  1.00  0.00     0.008 C 
ENDBRANCH   5   9
TORSDOF 1
ENDMDL
MODEL 2
REMARK VINA RESULT:    -3.923      1.042      3.992
REMARK INTER + INTRA:          -4.306
REMARK INTER:                  -4.153
REMARK INTRA:                  -0.153
REMARK UNBOUND:                -0.154
REMARK SMILES CC(C)[C@@H]1CC[C@H](C)CC1=O
REMARK SMILES IDX 8 1 7 2 6 3 5 4 4 5 10 6 11 7 9 8 2 9 1 10 3 11
REMARK H PARENT
REMARK Flexibility Score: inf
ROOT
ATOM      1  C   UNL     1      10.282 -12.495 -29.247  1.00  0.00     0.008 C 
ATOM      2  C   UNL     1      10.539 -12.668 -27.737  1.00  0.00    -0.007 C 
ATOM      3  C   UNL     1      11.552 -13.816 -27.460  1.00  0.00     0.004 C 
ATOM      4  C   UNL     1      13.022 -13.407 -27.718  1.00  0.00     0.012 C 
ATOM      5  C   UNL     1      13.374 -12.148 -26.894  1.00  0.00     0.058 C 
ATOM      6  C   UNL     1      12.412 -11.049 -27.311  1.00  0.00     0.136 C 
ATOM      7  O   UNL     1      12.731 -10.161 -28.087  1.00  0.00    -0.299 OA
ATOM      8  C   UNL     1      10.955 -11.330 -27.069  1.00  0.00     0.079 C 
ENDROOT
BRANCH   5   9
ATOM      9  C   UNL     1      14.898 -11.807 -26.926  1.00  0.00    -0.007 C 
ATOM     10  C   UNL     1      15.382 -10.889 -25.790  1.00  0.00     0.008 C 
ATOM     11  C   UNL     1      15.758 -13.085 -27.017  1.00  0.00     0.008 C 
ENDBRANCH   5   9
TORSDOF 1
ENDMDL
MODEL 3
REMARK VINA RESULT:    -3.728      1.507      2.090
REMARK INTER + INTRA:          -4.100
REMARK INTER:                  -4.988
REMARK INTRA:                   0.888
REMARK UNBOUND:                -0.154
REMARK SMILES CC(C)[C@@H]1CC[C@H](C)CC1=O
REMARK SMILES IDX 8 1 7 2 6 3 5 4 4 5 10 6 11 7 9 8 2 9 1 10 3 11
REMARK H PARENT
REMARK Flexibility Score: inf
ROOT
ATOM      1  C   UNL     1      15.154 -11.746 -26.736  1.00  0.00     0.008 C 
ATOM      2  C   UNL     1      13.853 -11.116 -26.201  1.00  0.00    -0.007 C 
ATOM      3  C   UNL     1      13.079 -10.370 -27.325  1.00  0.00     0.004 C 
ATOM      4  C   UNL     1      12.296 -11.322 -28.260  1.00  0.00     0.012 C 
ATOM      5  C   UNL     1      11.344 -12.215 -27.432  1.00  0.00     0.058 C 
ATOM      6  C   UNL     1      12.197 -12.988 -26.441  1.00  0.00     0.136 C 
ATOM      7  O   UNL     1      12.513 -14.155 -26.622  1.00  0.00    -0.299 OA
ATOM      8  C   UNL     1      12.973 -12.157 -25.458  1.00  0.00     0.079 C 
ENDROOT
BRANCH   5   9
ATOM      9  C   UNL     1      10.360 -13.041 -28.320  1.00  0.00    -0.007 C 
ATOM     10  C   UNL     1      10.222 -12.546 -29.770  1.00  0.00     0.008 C 
ATOM     11  C   UNL     1      10.690 -14.548 -28.273  1.00  0.00     0.008 C 
ENDBRANCH   5   9
TORSDOF 1
ENDMDL
MODEL 4
REMARK VINA RESULT:    -3.463      1.753      3.562
REMARK INTER + INTRA:          -3.819
REMARK INTER:                  -4.665
REMARK INTRA:                   0.846
REMARK UNBOUND:                -0.154
REMARK SMILES CC(C)[C@@H]1CC[C@H](C)CC1=O
REMARK SMILES IDX 8 1 7 2 6 3 5 4 4 5 10 6 11 7 9 8 2 9 1 10 3 11
REMARK H PARENT
REMARK Flexibility Score: inf
ROOT
ATOM      1  C   UNL     1      10.818 -10.362 -25.242  1.00  0.00     0.008 C 
ATOM      2  C   UNL     1      11.104 -10.555 -26.744  1.00  0.00    -0.007 C 
ATOM      3  C   UNL     1      12.564 -10.150 -27.101  1.00  0.00     0.004 C 
ATOM      4  C   UNL     1      13.607 -11.223 -26.709  1.00  0.00     0.012 C 
ATOM      5  C   UNL     1      13.238 -12.581 -27.350  1.00  0.00     0.058 C 
ATOM      6  C   UNL     1      11.849 -12.951 -26.857  1.00  0.00     0.136 C 
ATOM      7  O   UNL     1      11.669 -13.761 -25.960  1.00  0.00    -0.299 OA
ATOM      8  C   UNL     1      10.750 -11.991 -27.217  1.00  0.00     0.079 C 
ENDROOT
BRANCH   5   9
ATOM      9  C   UNL     1      14.359 -13.655 -27.187  1.00  0.00    -0.007 C 
ATOM     10  C   UNL     1      15.781 -13.089 -27.020  1.00  0.00     0.008 C 
ATOM     11  C   UNL     1      14.021 -14.656 -26.063  1.00  0.00     0.008 C 
ENDBRANCH   5   9
TORSDOF 1
ENDMDL
MODEL 5
REMARK VINA RESULT:    -3.324      1.857      2.535
REMARK INTER + INTRA:          -3.673
REMARK INTER:                  -3.771
REMARK INTRA:                   0.098
REMARK UNBOUND:                -0.154
REMARK SMILES CC(C)[C@@H]1CC[C@H](C)CC1=O
REMARK SMILES IDX 8 1 7 2 6 3 5 4 4 5 10 6 11 7 9 8 2 9 1 10 3 11
REMARK H PARENT
REMARK Flexibility Score: inf
ROOT
ATOM      1  C   UNL     1      13.604  -9.477 -27.540  1.00  0.00     0.008 C 
ATOM      2  C   UNL     1      12.094  -9.731 -27.707  1.00  0.00    -0.007 C 
ATOM      3  C   UNL     1      11.805 -10.674 -28.910  1.00  0.00     0.004 C 
ATOM      4  C   UNL     1      12.075 -12.165 -28.595  1.00  0.00     0.012 C 
ATOM      5  C   UNL     1      11.270 -12.597 -27.348  1.00  0.00     0.058 C 
ATOM      6  C   UNL     1      11.699 -11.700 -26.199  1.00  0.00     0.136 C 
ATOM      7  O   UNL     1      12.489 -12.068 -25.342  1.00  0.00    -0.299 OA
ATOM      8  C   UNL     1      11.446 -10.231 -26.387  1.00  0.00     0.079 C 
ENDROOT
BRANCH   5   9
ATOM      9  C   UNL     1      11.314 -14.138 -27.100  1.00  0.00    -0.007 C 
ATOM     10  C   UNL     1      10.508 -14.980 -28.105  1.00  0.00     0.008 C 
ATOM     11  C   UNL     1      12.765 -14.648 -26.981  1.00  0.00     0.008 C 
ENDBRANCH   5   9
TORSDOF 1
ENDMDL
MODEL 6
REMARK VINA RESULT:    -3.295      1.831      3.053
REMARK INTER + INTRA:          -3.641
REMARK INTER:                  -3.829
REMARK INTRA:                   0.188
REMARK UNBOUND:                -0.154
REMARK SMILES CC(C)[C@@H]1CC[C@H](C)CC1=O
REMARK SMILES IDX 8 1 7 2 6 3 5 4 4 5 10 6 11 7 9 8 2 9 1 10 3 11
REMARK H PARENT
REMARK Flexibility Score: inf
ROOT
ATOM      1  C   UNL     1      10.617 -13.994 -24.813  1.00  0.00     0.008 C 
ATOM      2  C   UNL     1      12.071 -13.487 -24.878  1.00  0.00    -0.007 C 
ATOM      3  C   UNL     1      12.801 -14.013 -26.148  1.00  0.00     0.004 C 
ATOM      4  C   UNL     1      12.418 -13.242 -27.434  1.00  0.00     0.012 C 
ATOM      5  C   UNL     1      12.668 -11.729 -27.239  1.00  0.00     0.058 C 
ATOM      6  C   UNL     1      11.831 -11.281 -26.054  1.00  0.00     0.136 C 
ATOM      7  O   UNL     1      10.767 -10.696 -26.190  1.00  0.00    -0.299 OA
ATOM      8  C   UNL     1      12.148 -11.942 -24.742  1.00  0.00     0.079 C 
ENDROOT
BRANCH   5   9
ATOM      9  C   UNL     1      12.520 -10.914 -28.563  1.00  0.00    -0.007 C 
ATOM     10  C   UNL     1      11.377 -11.374 -29.485  1.00  0.00     0.008 C 
ATOM     11  C   UNL     1      12.437  -9.398 -28.284  1.00  0.00     0.008 C 
ENDBRANCH   5   9
TORSDOF 1
ENDMDL
MODEL 7
REMARK VINA RESULT:    -3.264      2.355      3.786
REMARK INTER + INTRA:          -3.609
REMARK INTER:                  -4.477
REMARK INTRA:                   0.867
REMARK UNBOUND:                -0.154
REMARK SMILES CC(C)[C@@H]1CC[C@H](C)CC1=O
REMARK SMILES IDX 8 1 7 2 6 3 5 4 4 5 10 6 11 7 9 8 2 9 1 10 3 11
REMARK H PARENT
REMARK Flexibility Score: inf
ROOT
ATOM      1  C   UNL     1      11.030 -11.768 -29.641  1.00  0.00     0.008 C 
ATOM      2  C   UNL     1      12.334 -11.496 -28.867  1.00  0.00    -0.007 C 
ATOM      3  C   UNL     1      12.156 -10.341 -27.840  1.00  0.00     0.004 C 
ATOM      4  C   UNL     1      11.421 -10.780 -26.551  1.00  0.00     0.012 C 
ATOM      5  C   UNL     1      12.147 -11.984 -25.909  1.00  0.00     0.058 C 
ATOM      6  C   UNL     1      12.174 -13.099 -26.940  1.00  0.00     0.136 C 
ATOM      7  O   UNL     1      11.396 -14.041 -26.903  1.00  0.00    -0.299 OA
ATOM      8  C   UNL     1      12.899 -12.790 -28.220  1.00  0.00     0.079 C 
ENDROOT
BRANCH   5   9
ATOM      9  C   UNL     1      11.599 -12.339 -24.491  1.00  0.00    -0.007 C 
ATOM     10  C   UNL     1      10.875 -11.190 -23.768  1.00  0.00     0.008 C 
ATOM     11  C   UNL     1      10.728 -13.613 -24.528  1.00  0.00     0.008 C 
ENDBRANCH   5   9
TORSDOF 1
ENDMDL
MODEL 8
REMARK VINA RESULT:    -3.251      1.689      3.335
REMARK INTER + INTRA:          -3.595
REMARK INTER:                  -3.718
REMARK INTRA:                   0.123
REMARK UNBOUND:                -0.154
REMARK SMILES CC(C)[C@@H]1CC[C@H](C)CC1=O
REMARK SMILES IDX 8 1 7 2 6 3 5 4 4 5 10 6 11 7 9 8 2 9 1 10 3 11
REMARK H PARENT
REMARK Flexibility Score: inf
ROOT
ATOM      1  C   UNL     1      13.553 -14.769 -25.613  1.00  0.00     0.008 C 
ATOM      2  C   UNL     1      13.439 -14.371 -27.097  1.00  0.00    -0.007 C 
ATOM      3  C   UNL     1      11.958 -14.124 -27.508  1.00  0.00     0.004 C 
ATOM      4  C   UNL     1      11.419 -12.751 -27.043  1.00  0.00     0.012 C 
ATOM      5  C   UNL     1      12.333 -11.618 -27.563  1.00  0.00     0.058 C 
ATOM      6  C   UNL     1      13.728 -11.878 -27.021  1.00  0.00     0.136 C 
ATOM      7  O   UNL     1      14.177 -11.276 -26.057  1.00  0.00    -0.299 OA
ATOM      8  C   UNL     1      14.363 -13.173 -27.444  1.00  0.00     0.079 C 
ENDROOT
BRANCH   5   9
ATOM      9  C   UNL     1      11.733 -10.196 -27.327  1.00  0.00    -0.007 C 
ATOM     10  C   UNL     1      11.173  -9.953 -25.915  1.00  0.00     0.008 C 
ATOM     11  C   UNL     1      12.730  -9.090 -27.731  1.00  0.00     0.008 C 
ENDBRANCH   5   9
TORSDOF 1
ENDMDL
MODEL 9
REMARK VINA RESULT:    -3.237      1.580      2.939
REMARK INTER + INTRA:          -3.580
REMARK INTER:                  -3.625
REMARK INTRA:                   0.045
REMARK UNBOUND:                -0.154
REMARK SMILES CC(C)[C@@H]1CC[C@H](C)CC1=O
REMARK SMILES IDX 8 1 7 2 6 3 5 4 4 5 10 6 11 7 9 8 2 9 1 10 3 11
REMARK H PARENT
REMARK Flexibility Score: inf
ROOT
ATOM      1  C   UNL     1      11.913  -9.151 -27.235  1.00  0.00     0.008 C 
ATOM      2  C   UNL     1      12.874 -10.020 -28.069  1.00  0.00    -0.007 C 
ATOM      3  C   UNL     1      14.038 -10.576 -27.200  1.00  0.00     0.004 C 
ATOM      4  C   UNL     1      13.622 -11.782 -26.324  1.00  0.00     0.012 C 
ATOM      5  C   UNL     1      13.012 -12.894 -27.208  1.00  0.00     0.058 C 
ATOM      6  C   UNL     1      11.817 -12.294 -27.929  1.00  0.00     0.136 C 
ATOM      7  O   UNL     1      10.668 -12.487 -27.562  1.00  0.00    -0.299 OA
ATOM      8  C   UNL     1      12.117 -11.136 -28.839  1.00  0.00     0.079 C 
ENDROOT
BRANCH   5   9
ATOM      9  C   UNL     1      12.776 -14.227 -26.430  1.00  0.00    -0.007 C 
ATOM     10  C   UNL     1      14.047 -15.048 -26.147  1.00  0.00     0.008 C 
ATOM     11  C   UNL     1      11.965 -13.990 -25.139  1.00  0.00     0.008 C 
ENDBRANCH   5   9
TORSDOF 1
ENDMDL
