MODEL 1
REMARK VINA RESULT:    -6.896      0.000      0.000
REMARK INTER + INTRA:          -7.393
REMARK INTER:                  -7.299
REMARK INTRA:                  -0.094
REMARK UNBOUND:                -0.094
REMARK SMILES C=C(C)[C@H]1CC=C(C)C(=O)C1
REMARK SMILES IDX 8 1 7 2 6 3 5 4 4 5 11 6 9 7 10 8 2 9 1 10 3 11
REMARK H PARENT
REMARK Flexibility Score: inf
ROOT
ATOM      1  C   UNL     1      -6.125  29.869  29.471  1.00  0.00     0.048 C 
ATOM      2  C   UNL     1      -4.813  29.173  29.233  1.00  0.00    -0.012 C 
ATOM      3  C   UNL     1      -4.373  28.259  30.114  1.00  0.00    -0.019 C 
ATOM      4  C   UNL     1      -3.059  27.545  29.934  1.00  0.00     0.036 C 
ATOM      5  C   UNL     1      -2.737  27.340  28.442  1.00  0.00     0.025 C 
ATOM      6  C   UNL     1      -2.777  28.689  27.698  1.00  0.00     0.089 C 
ATOM      7  C   UNL     1      -4.071  29.405  27.969  1.00  0.00     0.158 C 
ATOM      8  O   UNL     1      -4.501  30.236  27.125  1.00  0.00    -0.295 OA
ENDROOT
BRANCH   5   9
ATOM      9  C   UNL     1      -1.406  26.629  28.245  1.00  0.00    -0.077 C 
ATOM     10  C   UNL     1      -0.355  26.877  29.046  1.00  0.00     0.008 C 
ATOM     11  C   UNL     1      -1.245  25.621  27.136  1.00  0.00     0.039 C 
ENDBRANCH   5   9
TORSDOF 1
ENDMDL
MODEL 2
REMARK VINA RESULT:    -6.289      1.347      1.995
REMARK INTER + INTRA:          -6.750
REMARK INTER:                  -6.661
REMARK INTRA:                  -0.089
REMARK UNBOUND:                -0.094
REMARK SMILES C=C(C)[C@H]1CC=C(C)C(=O)C1
REMARK SMILES IDX 8 1 7 2 6 3 5 4 4 5 11 6 9 7 10 8 2 9 1 10 3 11
REMARK H PARENT
REMARK Flexibility Score: inf
ROOT
ATOM      1  C   UNL     1      -5.712  30.503  28.699  1.00  0.00     0.048 C 
ATOM      2  C   UNL     1      -4.675  29.433  28.492  1.00  0.00    -0.012 C 
ATOM      3  C   UNL     1      -3.728  29.594  27.552  1.00  0.00    -0.019 C 
ATOM      4  C   UNL     1      -2.676  28.547  27.292  1.00  0.00     0.036 C 
ATOM      5  C   UNL     1      -2.307  27.797  28.585  1.00  0.00     0.025 C 
ATOM      6  C   UNL     1      -3.571  27.206  29.239  1.00  0.00     0.089 C 
ATOM      7  C   UNL     1      -4.625  28.265  29.406  1.00  0.00     0.158 C 
ATOM      8  O   UNL     1      -5.491  28.131  30.312  1.00  0.00    -0.295 OA
ENDROOT
BRANCH   5   9
ATOM      9  C   UNL     1      -1.252  26.728  28.335  1.00  0.00    -0.077 C 
ATOM     10  C   UNL     1      -0.109  26.695  29.042  1.00  0.00     0.008 C 
ATOM     11  C   UNL     1      -1.476  25.677  27.278  1.00  0.00     0.039 C 
ENDBRANCH   5   9
TORSDOF 1
ENDMDL
MODEL 3
REMARK VINA RESULT:    -5.830      2.263      4.472
REMARK INTER + INTRA:          -6.265
REMARK INTER:                  -6.173
REMARK INTRA:                  -0.092
REMARK UNBOUND:                -0.094
REMARK SMILES C=C(C)[C@H]1CC=C(C)C(=O)C1
REMARK SMILES IDX 8 1 7 2 6 3 5 4 4 5 11 6 9 7 10 8 2 9 1 10 3 11
REMARK H PARENT
REMARK Flexibility Score: inf
ROOT
ATOM      1  C   UNL     1      -4.529  27.114  30.118  1.00  0.00     0.048 C 
ATOM      2  C   UNL     1      -4.601  28.315  29.216  1.00  0.00    -0.012 C 
ATOM      3  C   UNL     1      -5.612  29.190  29.349  1.00  0.00    -0.019 C 
ATOM      4  C   UNL     1      -5.741  30.401  28.461  1.00  0.00     0.036 C 
ATOM      5  C   UNL     1      -4.358  30.935  28.045  1.00  0.00     0.025 C 
ATOM      6  C   UNL     1      -3.529  29.814  27.388  1.00  0.00     0.089 C 
ATOM      7  C   UNL     1      -3.493  28.597  28.270  1.00  0.00     0.158 C 
ATOM      8  O   UNL     1      -2.525  27.795  28.170  1.00  0.00    -0.295 OA
ENDROOT
BRANCH   5   9
ATOM      9  C   UNL     1      -4.474  32.153  27.140  1.00  0.00    -0.077 C 
ATOM     10  C   UNL     1      -3.561  33.140  27.175  1.00  0.00     0.008 C 
ATOM     11  C   UNL     1      -5.626  32.272  26.175  1.00  0.00     0.039 C 
ENDBRANCH   5   9
TORSDOF 1
ENDMDL
MODEL 4
REMARK VINA RESULT:    -5.496      2.043      4.710
REMARK INTER + INTRA:          -5.912
REMARK INTER:                  -5.819
REMARK INTRA:                  -0.093
REMARK UNBOUND:                -0.094
REMARK SMILES C=C(C)[C@H]1CC=C(C)C(=O)C1
REMARK SMILES IDX 8 1 7 2 6 3 5 4 4 5 11 6 9 7 10 8 2 9 1 10 3 11
REMARK H PARENT
REMARK Flexibility Score: inf
ROOT
ATOM      1  C   UNL     1      -0.248  26.129  28.341  1.00  0.00     0.048 C 
ATOM      2  C   UNL     1      -1.348  27.141  28.500  1.00  0.00    -0.012 C 
ATOM      3  C   UNL     1      -1.989  27.607  27.414  1.00  0.00    -0.019 C 
ATOM      4  C   UNL     1      -3.087  28.634  27.514  1.00  0.00     0.036 C 
ATOM      5  C   UNL     1      -3.883  28.469  28.821  1.00  0.00     0.025 C 
ATOM      6  C   UNL     1      -2.933  28.509  30.034  1.00  0.00     0.089 C 
ATOM      7  C   UNL     1      -1.808  27.528  29.856  1.00  0.00     0.158 C 
ATOM      8  O   UNL     1      -1.232  27.064  30.877  1.00  0.00    -0.295 OA
ENDROOT
BRANCH   5   9
ATOM      9  C   UNL     1      -4.990  29.507  28.940  1.00  0.00    -0.077 C 
ATOM     10  C   UNL     1      -6.063  29.298  29.724  1.00  0.00     0.008 C 
ATOM     11  C   UNL     1      -4.899  30.802  28.174  1.00  0.00     0.039 C 
ENDBRANCH   5   9
TORSDOF 1
ENDMDL
MODEL 5
REMARK VINA RESULT:    -5.341      1.881      4.744
REMARK INTER + INTRA:          -5.747
REMARK INTER:                  -5.650
REMARK INTRA:                  -0.097
REMARK UNBOUND:                -0.094
REMARK SMILES C=C(C)[C@H]1CC=C(C)C(=O)C1
REMARK SMILES IDX 8 1 7 2 6 3 5 4 4 5 11 6 9 7 10 8 2 9 1 10 3 11
REMARK H PARENT
REMARK Flexibility Score: inf
ROOT
ATOM      1  C   UNL     1      -1.919  26.179  28.119  1.00  0.00     0.048 C 
ATOM      2  C   UNL     1      -2.700  27.453  28.285  1.00  0.00    -0.012 C 
ATOM      3  C   UNL     1      -2.464  28.492  27.466  1.00  0.00    -0.019 C 
ATOM      4  C   UNL     1      -3.205  29.797  27.599  1.00  0.00     0.036 C 
ATOM      5  C   UNL     1      -4.643  29.571  28.103  1.00  0.00     0.025 C 
ATOM      6  C   UNL     1      -4.627  28.771  29.420  1.00  0.00     0.089 C 
ATOM      7  C   UNL     1      -3.811  27.518  29.267  1.00  0.00     0.158 C 
ATOM      8  O   UNL     1      -4.057  26.530  30.012  1.00  0.00    -0.295 OA
ENDROOT
BRANCH   5   9
ATOM      9  C   UNL     1      -5.400  30.883  28.252  1.00  0.00    -0.077 C 
ATOM     10  C   UNL     1      -6.125  31.151  29.353  1.00  0.00     0.008 C 
ATOM     11  C   UNL     1      -5.348  31.915  27.155  1.00  0.00     0.039 C 
ENDBRANCH   5   9
TORSDOF 1
ENDMDL
MODEL 6
REMARK VINA RESULT:    -5.166      1.480      2.436
REMARK INTER + INTRA:          -5.562
REMARK INTER:                  -5.469
REMARK INTRA:                  -0.093
REMARK UNBOUND:                -0.094
REMARK SMILES C=C(C)[C@H]1CC=C(C)C(=O)C1
REMARK SMILES IDX 8 1 7 2 6 3 5 4 4 5 11 6 9 7 10 8 2 9 1 10 3 11
REMARK H PARENT
REMARK Flexibility Score: inf
ROOT
ATOM      1  C   UNL     1      -5.734  31.574  27.853  1.00  0.00     0.048 C 
ATOM      2  C   UNL     1      -4.852  30.366  28.004  1.00  0.00    -0.012 C 
ATOM      3  C   UNL     1      -3.758  30.237  27.233  1.00  0.00    -0.019 C 
ATOM      4  C   UNL     1      -2.849  29.040  27.331  1.00  0.00     0.036 C 
ATOM      5  C   UNL     1      -2.801  28.496  28.771  1.00  0.00     0.025 C 
ATOM      6  C   UNL     1      -4.225  28.191  29.276  1.00  0.00     0.089 C 
ATOM      7  C   UNL     1      -5.119  29.385  29.085  1.00  0.00     0.158 C 
ATOM      8  O   UNL     1      -6.125  29.524  29.832  1.00  0.00    -0.295 OA
ENDROOT
BRANCH   5   9
ATOM      9  C   UNL     1      -1.893  27.279  28.883  1.00  0.00    -0.077 C 
ATOM     10  C   UNL     1      -1.943  26.283  27.980  1.00  0.00     0.008 C 
ATOM     11  C   UNL     1      -0.911  27.170  30.021  1.00  0.00     0.039 C 
ENDBRANCH   5   9
TORSDOF 1
ENDMDL
MODEL 7
REMARK VINA RESULT:    -5.143      2.051      4.659
REMARK INTER + INTRA:          -5.538
REMARK INTER:                  -5.445
REMARK INTRA:                  -0.093
REMARK UNBOUND:                -0.094
REMARK SMILES C=C(C)[C@H]1CC=C(C)C(=O)C1
REMARK SMILES IDX 8 1 7 2 6 3 5 4 4 5 11 6 9 7 10 8 2 9 1 10 3 11
REMARK H PARENT
REMARK Flexibility Score: inf
ROOT
ATOM      1  C   UNL     1       0.605  25.589  27.903  1.00  0.00     0.048 C 
ATOM      2  C   UNL     1      -0.630  26.284  28.403  1.00  0.00    -0.012 C 
ATOM      3  C   UNL     1      -0.515  27.360  29.200  1.00  0.00    -0.019 C 
ATOM      4  C   UNL     1      -1.719  28.084  29.743  1.00  0.00     0.036 C 
ATOM      5  C   UNL     1      -2.894  28.030  28.749  1.00  0.00     0.025 C 
ATOM      6  C   UNL     1      -3.210  26.569  28.375  1.00  0.00     0.089 C 
ATOM      7  C   UNL     1      -1.966  25.860  27.916  1.00  0.00     0.158 C 
ATOM      8  O   UNL     1      -2.074  24.873  27.139  1.00  0.00    -0.295 OA
ENDROOT
BRANCH   5   9
ATOM      9  C   UNL     1      -4.122  28.749  29.289  1.00  0.00    -0.077 C 
ATOM     10  C   UNL     1      -4.895  28.196  30.241  1.00  0.00     0.008 C 
ATOM     11  C   UNL     1      -4.495  30.111  28.760  1.00  0.00     0.039 C 
ENDBRANCH   5   9
TORSDOF 1
ENDMDL
MODEL 8
REMARK VINA RESULT:    -4.238      2.899      4.375
REMARK INTER + INTRA:          -4.580
REMARK INTER:                  -4.485
REMARK INTRA:                  -0.095
REMARK UNBOUND:                -0.094
REMARK SMILES C=C(C)[C@H]1CC=C(C)C(=O)C1
REMARK SMILES IDX 8 1 7 2 6 3 5 4 4 5 11 6 9 7 10 8 2 9 1 10 3 11
REMARK H PARENT
REMARK Flexibility Score: inf
ROOT
ATOM      1  C   UNL     1      -5.297  34.073  25.664  1.00  0.00     0.048 C 
ATOM      2  C   UNL     1      -5.118  32.910  26.601  1.00  0.00    -0.012 C 
ATOM      3  C   UNL     1      -6.110  32.017  26.755  1.00  0.00    -0.019 C 
ATOM      4  C   UNL     1      -5.989  30.844  27.693  1.00  0.00     0.036 C 
ATOM      5  C   UNL     1      -4.535  30.347  27.776  1.00  0.00     0.025 C 
ATOM      6  C   UNL     1      -3.595  31.505  28.165  1.00  0.00     0.089 C 
ATOM      7  C   UNL     1      -3.805  32.684  27.256  1.00  0.00     0.158 C 
ATOM      8  O   UNL     1      -2.861  33.501  27.083  1.00  0.00    -0.295 OA
ENDROOT
BRANCH   5   9
ATOM      9  C   UNL     1      -4.396  29.167  28.729  1.00  0.00    -0.077 C 
ATOM     10  C   UNL     1      -5.299  28.943  29.700  1.00  0.00     0.008 C 
ATOM     11  C   UNL     1      -3.232  28.219  28.594  1.00  0.00     0.039 C 
ENDBRANCH   5   9
TORSDOF 1
ENDMDL
