MODEL 1
REMARK VINA RESULT:    -5.300      0.000      0.000
REMARK INTER + INTRA:          -6.194
REMARK INTER:                  -6.075
REMARK INTRA:                  -0.120
REMARK UNBOUND:                -0.120
REMARK SMILES C=C(C)[C@@H]1CC[C@@]2(C(=O)[O-])CC[C@]3(C)[C@@H](CC[C@@H]4[C@@]5(C)CC[C@H](O)C(C)(C)[C@@H]5CC[C@]43C)[C@@H]12
REMARK SMILES IDX 7 1 6 2 33 3 11 4 5 5 15 6 4 7 12 8 16 9 13 10 17 11 31 12
REMARK SMILES IDX 14 13 18 14 30 15 32 16 19 17 29 18 21 19 20 20 28 21 22 22
REMARK SMILES IDX 25 23 23 24 26 25 27 26 8 27 9 28 10 29 2 30 3 31 1 32 24 33
REMARK H PARENT 24 34
REMARK Flexibility Score: inf
ROOT
ATOM      1  C   UNL     1      16.893  29.777  30.627  1.00  0.00     0.014 C 
ATOM      2  C   UNL     1      16.691  28.473  31.422  1.00  0.00     0.014 C 
ATOM      3  C   UNL     1      18.153  29.470  29.746  1.00  0.00     0.012 C 
ATOM      4  C   UNL     1      16.991  31.011  31.574  1.00  0.00     0.014 C 
ATOM      5  C   UNL     1      17.030  27.357  30.444  1.00  0.00     0.009 C 
ATOM      6  C   UNL     1      19.530  30.055  30.276  1.00  0.00     0.000 C 
ATOM      7  C   UNL     1      18.148  27.913  29.552  1.00  0.00     0.018 C 
ATOM      8  C   UNL     1      18.399  31.503  31.948  1.00  0.00     0.008 C 
ATOM      9  C   UNL     1      20.253  29.145  31.338  1.00  0.00     0.005 C 
ATOM     10  C   UNL     1      19.435  31.551  30.765  1.00  0.00    -0.024 C 
ATOM     11  C   UNL     1      21.350  29.837  32.164  1.00  0.00     0.005 C 
ATOM     12  C   UNL     1      20.915  32.155  31.204  1.00  0.00    -0.024 C 
ATOM     13  C   UNL     1      18.824  32.441  29.637  1.00  0.00     0.012 C 
ATOM     14  C   UNL     1      21.963  30.979  31.344  1.00  0.00     0.002 C 
ATOM     15  C   UNL     1      21.540  33.124  30.137  1.00  0.00     0.008 C 
ATOM     16  C   UNL     1      20.754  32.996  32.513  1.00  0.00     0.012 C 
ATOM     17  C   UNL     1      23.480  31.333  31.659  1.00  0.00    -0.026 C 
ATOM     18  C   UNL     1      22.985  33.576  30.447  1.00  0.00     0.005 C 
ATOM     19  C   UNL     1      24.354  30.027  31.490  1.00  0.00     0.010 C 
ATOM     20  C   UNL     1      23.641  31.836  33.124  1.00  0.00     0.012 C 
ATOM     21  C   UNL     1      23.955  32.380  30.581  1.00  0.00     0.003 C 
ATOM     22  C   UNL     1      25.715  30.209  30.791  1.00  0.00     0.033 C 
ATOM     23  C   UNL     1      25.496  32.772  30.623  1.00  0.00    -0.006 C 
ATOM     24  C   UNL     1      26.382  31.561  31.093  1.00  0.00     0.120 C 
ATOM     25  C   UNL     1      25.775  34.018  31.507  1.00  0.00     0.014 C 
ATOM     26  C   UNL     1      25.946  33.151  29.183  1.00  0.00     0.014 C 
ENDROOT
BRANCH   1  27
ATOM     27  C   UNL     1      15.673  30.014  29.727  1.00  0.00     0.048 C 
ATOM     28  O   UNL     1      15.275  31.180  29.451  1.00  0.00    -0.550 OA
ATOM     29  O   UNL     1      15.016  28.938  29.141  1.00  0.00    -0.550 OA
ENDBRANCH   1  27
BRANCH   7  30
ATOM     30  C   UNL     1      18.035  27.456  28.099  1.00  0.00    -0.077 C 
ATOM     31  C   UNL     1      17.225  26.229  27.750  1.00  0.00     0.039 C 
ATOM     32  C   UNL     1      18.620  28.129  27.095  1.00  0.00     0.008 C 
ENDBRANCH   7  30
BRANCH  24  33
ATOM     33  O   UNL     1      26.701  31.643  32.462  1.00  0.00    -0.393 OA
ATOM     34  H   UNL     1      27.667  31.433  32.556  1.00  0.00     0.210 HD
ENDBRANCH  24  33
TORSDOF 3
ENDMDL
MODEL 2
REMARK VINA RESULT:    -5.140      2.283      7.848
REMARK INTER + INTRA:          -6.010
REMARK INTER:                  -5.642
REMARK INTRA:                  -0.369
REMARK UNBOUND:                -0.120
REMARK SMILES C=C(C)[C@@H]1CC[C@@]2(C(=O)[O-])CC[C@]3(C)[C@@H](CC[C@@H]4[C@@]5(C)CC[C@H](O)C(C)(C)[C@@H]5CC[C@]43C)[C@@H]12
REMARK SMILES IDX 7 1 6 2 33 3 11 4 5 5 15 6 4 7 12 8 16 9 13 10 17 11 31 12
REMARK SMILES IDX 14 13 18 14 30 15 32 16 19 17 29 18 21 19 20 20 28 21 22 22
REMARK SMILES IDX 25 23 23 24 26 25 27 26 8 27 9 28 10 29 2 30 3 31 1 32 24 33
REMARK H PARENT 24 34
REMARK Flexibility Score: inf
ROOT
ATOM      1  C   UNL     1      25.921  31.495  31.357  1.00  0.00     0.014 C 
ATOM      2  C   UNL     1      26.579  32.340  30.250  1.00  0.00     0.014 C 
ATOM      3  C   UNL     1      24.834  30.672  30.585  1.00  0.00     0.012 C 
ATOM      4  C   UNL     1      25.413  32.389  32.528  1.00  0.00     0.014 C 
ATOM      5  C   UNL     1      26.636  31.424  29.035  1.00  0.00     0.009 C 
ATOM      6  C   UNL     1      23.348  31.221  30.680  1.00  0.00     0.000 C 
ATOM      7  C   UNL     1      25.380  30.546  29.119  1.00  0.00     0.018 C 
ATOM      8  C   UNL     1      23.928  32.789  32.518  1.00  0.00     0.008 C 
ATOM      9  C   UNL     1      23.006  32.346  29.633  1.00  0.00     0.005 C 
ATOM     10  C   UNL     1      22.922  31.640  32.139  1.00  0.00    -0.024 C 
ATOM     11  C   UNL     1      21.750  33.177  29.941  1.00  0.00     0.005 C 
ATOM     12  C   UNL     1      21.331  32.101  32.212  1.00  0.00    -0.024 C 
ATOM     13  C   UNL     1      23.164  30.454  33.125  1.00  0.00     0.012 C 
ATOM     14  C   UNL     1      20.763  32.328  30.753  1.00  0.00     0.002 C 
ATOM     15  C   UNL     1      20.390  31.015  32.843  1.00  0.00     0.008 C 
ATOM     16  C   UNL     1      21.209  33.367  33.124  1.00  0.00     0.012 C 
ATOM     17  C   UNL     1      19.224  32.679  30.572  1.00  0.00    -0.026 C 
ATOM     18  C   UNL     1      18.883  31.353  32.780  1.00  0.00     0.005 C 
ATOM     19  C   UNL     1      18.859  32.597  29.036  1.00  0.00     0.010 C 
ATOM     20  C   UNL     1      18.920  34.125  31.065  1.00  0.00     0.012 C 
ATOM     21  C   UNL     1      18.395  31.572  31.330  1.00  0.00     0.003 C 
ATOM     22  C   UNL     1      17.509  31.937  28.696  1.00  0.00     0.033 C 
ATOM     23  C   UNL     1      16.815  31.649  31.161  1.00  0.00    -0.006 C 
ATOM     24  C   UNL     1      16.416  32.201  29.744  1.00  0.00     0.120 C 
ATOM     25  C   UNL     1      16.132  32.486  32.277  1.00  0.00     0.014 C 
ATOM     26  C   UNL     1      16.237  30.209  31.283  1.00  0.00     0.014 C 
ENDROOT
BRANCH   1  27
ATOM     27  C   UNL     1      26.967  30.545  31.956  1.00  0.00     0.048 C 
ATOM     28  O   UNL     1      28.165  30.547  31.556  1.00  0.00    -0.550 OA
ATOM     29  O   UNL     1      26.624  29.700  33.006  1.00  0.00    -0.550 OA
ENDBRANCH   1  27
BRANCH   7  30
ATOM     30  C   UNL     1      25.623  29.111  28.653  1.00  0.00    -0.077 C 
ATOM     31  C   UNL     1      26.736  28.808  27.678  1.00  0.00     0.039 C 
ATOM     32  C   UNL     1      24.885  28.084  29.104  1.00  0.00     0.008 C 
ENDBRANCH   7  30
BRANCH  24  33
ATOM     33  O   UNL     1      16.111  33.575  29.782  1.00  0.00    -0.393 OA
ATOM     34  H   UNL     1      16.456  33.980  28.944  1.00  0.00     0.210 HD
ENDBRANCH  24  33
TORSDOF 3
ENDMDL
MODEL 3
REMARK VINA RESULT:    -4.608      1.540      7.991
REMARK INTER + INTRA:          -5.401
REMARK INTER:                  -4.795
REMARK INTRA:                  -0.606
REMARK UNBOUND:                -0.120
REMARK SMILES C=C(C)[C@@H]1CC[C@@]2(C(=O)[O-])CC[C@]3(C)[C@@H](CC[C@@H]4[C@@]5(C)CC[C@H](O)C(C)(C)[C@@H]5CC[C@]43C)[C@@H]12
REMARK SMILES IDX 7 1 6 2 33 3 11 4 5 5 15 6 4 7 12 8 16 9 13 10 17 11 31 12
REMARK SMILES IDX 14 13 18 14 30 15 32 16 19 17 29 18 21 19 20 20 28 21 22 22
REMARK SMILES IDX 25 23 23 24 26 25 27 26 8 27 9 28 10 29 2 30 3 31 1 32 24 33
REMARK H PARENT 24 34
REMARK Flexibility Score: inf
ROOT
ATOM      1  C   UNL     1      24.674  33.000  30.593  1.00  0.00     0.014 C 
ATOM      2  C   UNL     1      25.421  32.266  29.464  1.00  0.00     0.014 C 
ATOM      3  C   UNL     1      23.961  31.839  31.368  1.00  0.00     0.012 C 
ATOM      4  C   UNL     1      23.754  34.125  30.029  1.00  0.00     0.014 C 
ATOM      5  C   UNL     1      25.924  30.975  30.097  1.00  0.00     0.009 C 
ATOM      6  C   UNL     1      22.424  31.623  31.039  1.00  0.00     0.000 C 
ATOM      7  C   UNL     1      24.855  30.573  31.121  1.00  0.00     0.018 C 
ATOM      8  C   UNL     1      22.268  33.785  29.823  1.00  0.00     0.008 C 
ATOM      9  C   UNL     1      22.153  30.726  29.774  1.00  0.00     0.005 C 
ATOM     10  C   UNL     1      21.596  32.964  30.985  1.00  0.00    -0.024 C 
ATOM     11  C   UNL     1      20.736  30.821  29.187  1.00  0.00     0.005 C 
ATOM     12  C   UNL     1      19.979  32.685  30.750  1.00  0.00    -0.024 C 
ATOM     13  C   UNL     1      21.797  33.767  32.309  1.00  0.00     0.012 C 
ATOM     14  C   UNL     1      19.745  31.187  30.300  1.00  0.00     0.002 C 
ATOM     15  C   UNL     1      19.116  32.851  32.051  1.00  0.00     0.008 C 
ATOM     16  C   UNL     1      19.426  33.729  29.724  1.00  0.00     0.012 C 
ATOM     17  C   UNL     1      18.257  30.662  30.113  1.00  0.00    -0.026 C 
ATOM     18  C   UNL     1      17.633  32.445  31.896  1.00  0.00     0.005 C 
ATOM     19  C   UNL     1      18.290  29.093  29.922  1.00  0.00     0.010 C 
ATOM     20  C   UNL     1      17.599  31.290  28.848  1.00  0.00     0.012 C 
ATOM     21  C   UNL     1      17.475  30.974  31.446  1.00  0.00     0.003 C 
ATOM     22  C   UNL     1      17.195  28.299  30.660  1.00  0.00     0.033 C 
ATOM     23  C   UNL     1      15.992  30.405  31.533  1.00  0.00    -0.006 C 
ATOM     24  C   UNL     1      15.854  29.046  30.755  1.00  0.00     0.120 C 
ATOM     25  C   UNL     1      14.929  31.421  31.034  1.00  0.00     0.014 C 
ATOM     26  C   UNL     1      15.660  30.126  33.027  1.00  0.00     0.014 C 
ENDROOT
BRANCH   1  27
ATOM     27  C   UNL     1      25.694  33.689  31.510  1.00  0.00     0.048 C 
ATOM     28  O   UNL     1      26.851  33.987  31.100  1.00  0.00    -0.550 OA
ATOM     29  O   UNL     1      25.336  34.059  32.801  1.00  0.00    -0.550 OA
ENDBRANCH   1  27
BRANCH   7  30
ATOM     30  C   UNL     1      25.446  29.956  32.388  1.00  0.00    -0.077 C 
ATOM     31  C   UNL     1      26.818  30.369  32.864  1.00  0.00     0.039 C 
ATOM     32  C   UNL     1      24.769  29.060  33.124  1.00  0.00     0.008 C 
ENDBRANCH   7  30
BRANCH  24  33
ATOM     33  O   UNL     1      15.316  29.229  29.467  1.00  0.00    -0.393 OA
ATOM     34  H   UNL     1      15.681  28.512  28.886  1.00  0.00     0.210 HD
ENDBRANCH  24  33
TORSDOF 3
ENDMDL
MODEL 4
REMARK VINA RESULT:    -4.106      1.885      3.915
REMARK INTER + INTRA:          -4.826
REMARK INTER:                  -4.197
REMARK INTRA:                  -0.629
REMARK UNBOUND:                -0.120
REMARK SMILES C=C(C)[C@@H]1CC[C@@]2(C(=O)[O-])CC[C@]3(C)[C@@H](CC[C@@H]4[C@@]5(C)CC[C@H](O)C(C)(C)[C@@H]5CC[C@]43C)[C@@H]12
REMARK SMILES IDX 7 1 6 2 33 3 11 4 5 5 15 6 4 7 12 8 16 9 13 10 17 11 31 12
REMARK SMILES IDX 14 13 18 14 30 15 32 16 19 17 29 18 21 19 20 20 28 21 22 22
REMARK SMILES IDX 25 23 23 24 26 25 27 26 8 27 9 28 10 29 2 30 3 31 1 32 24 33
REMARK H PARENT 24 34
REMARK Flexibility Score: inf
ROOT
ATOM      1  C   UNL     1      17.466  29.622  30.988  1.00  0.00     0.014 C 
ATOM      2  C   UNL     1      16.803  30.073  29.674  1.00  0.00     0.014 C 
ATOM      3  C   UNL     1      18.190  30.918  31.491  1.00  0.00     0.012 C 
ATOM      4  C   UNL     1      18.364  28.366  30.770  1.00  0.00     0.014 C 
ATOM      5  C   UNL     1      16.325  31.495  29.940  1.00  0.00     0.009 C 
ATOM      6  C   UNL     1      19.748  31.000  31.203  1.00  0.00     0.000 C 
ATOM      7  C   UNL     1      17.362  32.108  30.891  1.00  0.00     0.018 C 
ATOM      8  C   UNL     1      19.870  28.601  30.568  1.00  0.00     0.008 C 
ATOM      9  C   UNL     1      20.114  31.546  29.772  1.00  0.00     0.005 C 
ATOM     10  C   UNL     1      20.522  29.664  31.526  1.00  0.00    -0.024 C 
ATOM     11  C   UNL     1      21.552  31.267  29.304  1.00  0.00     0.005 C 
ATOM     12  C   UNL     1      22.158  29.830  31.317  1.00  0.00    -0.024 C 
ATOM     13  C   UNL     1      20.228  29.222  32.994  1.00  0.00     0.012 C 
ATOM     14  C   UNL     1      22.475  31.162  30.525  1.00  0.00     0.002 C 
ATOM     15  C   UNL     1      22.954  29.967  32.664  1.00  0.00     0.008 C 
ATOM     16  C   UNL     1      22.714  28.548  30.613  1.00  0.00     0.012 C 
ATOM     17  C   UNL     1      23.990  31.580  30.296  1.00  0.00    -0.026 C 
ATOM     18  C   UNL     1      24.458  30.279  32.495  1.00  0.00     0.005 C 
ATOM     19  C   UNL     1      24.031  33.053  29.723  1.00  0.00     0.010 C 
ATOM     20  C   UNL     1      24.678  30.639  29.263  1.00  0.00     0.012 C 
ATOM     21  C   UNL     1      24.696  31.586  31.706  1.00  0.00     0.003 C 
ATOM     22  C   UNL     1      25.123  33.973  30.301  1.00  0.00     0.033 C 
ATOM     23  C   UNL     1      26.196  32.117  31.730  1.00  0.00    -0.006 C 
ATOM     24  C   UNL     1      26.426  33.235  30.649  1.00  0.00     0.120 C 
ATOM     25  C   UNL     1      27.239  30.978  31.556  1.00  0.00     0.014 C 
ATOM     26  C   UNL     1      26.472  32.748  33.125  1.00  0.00     0.014 C 
ENDROOT
BRANCH   1  27
ATOM     27  C   UNL     1      16.378  29.211  31.989  1.00  0.00     0.048 C 
ATOM     28  O   UNL     1      16.285  29.760  33.123  1.00  0.00    -0.550 OA
ATOM     29  O   UNL     1      15.426  28.261  31.637  1.00  0.00    -0.550 OA
ENDBRANCH   1  27
BRANCH   7  30
ATOM     30  C   UNL     1      16.740  33.037  31.932  1.00  0.00    -0.077 C 
ATOM     31  C   UNL     1      17.582  34.097  32.602  1.00  0.00     0.039 C 
ATOM     32  C   UNL     1      15.442  32.962  32.265  1.00  0.00     0.008 C 
ENDBRANCH   7  30
BRANCH  24  33
ATOM     33  O   UNL     1      27.014  32.722  29.478  1.00  0.00    -0.393 OA
ATOM     34  H   UNL     1      27.562  31.936  29.738  1.00  0.00     0.210 HD
ENDBRANCH  24  33
TORSDOF 3
ENDMDL
MODEL 5
REMARK VINA RESULT:    -3.292      2.164      4.303
REMARK INTER + INTRA:          -3.893
REMARK INTER:                  -3.418
REMARK INTRA:                  -0.474
REMARK UNBOUND:                -0.120
REMARK SMILES C=C(C)[C@@H]1CC[C@@]2(C(=O)[O-])CC[C@]3(C)[C@@H](CC[C@@H]4[C@@]5(C)CC[C@H](O)C(C)(C)[C@@H]5CC[C@]43C)[C@@H]12
REMARK SMILES IDX 7 1 6 2 33 3 11 4 5 5 15 6 4 7 12 8 16 9 13 10 17 11 31 12
REMARK SMILES IDX 14 13 18 14 30 15 32 16 19 17 29 18 21 19 20 20 28 21 22 22
REMARK SMILES IDX 25 23 23 24 26 25 27 26 8 27 9 28 10 29 2 30 3 31 1 32 24 33
REMARK H PARENT 24 34
REMARK Flexibility Score: inf
ROOT
ATOM      1  C   UNL     1      16.904  26.649  28.456  1.00  0.00     0.014 C 
ATOM      2  C   UNL     1      15.590  27.423  28.245  1.00  0.00     0.014 C 
ATOM      3  C   UNL     1      17.328  27.046  29.911  1.00  0.00     0.012 C 
ATOM      4  C   UNL     1      17.933  26.956  27.325  1.00  0.00     0.014 C 
ATOM      5  C   UNL     1      14.876  27.363  29.589  1.00  0.00     0.009 C 
ATOM      6  C   UNL     1      18.442  28.170  30.029  1.00  0.00     0.000 C 
ATOM      7  C   UNL     1      15.986  27.391  30.648  1.00  0.00     0.018 C 
ATOM      8  C   UNL     1      18.996  28.029  27.611  1.00  0.00     0.008 C 
ATOM      9  C   UNL     1      17.886  29.641  29.963  1.00  0.00     0.005 C 
ATOM     10  C   UNL     1      19.653  27.966  29.039  1.00  0.00    -0.024 C 
ATOM     11  C   UNL     1      18.929  30.731  29.667  1.00  0.00     0.005 C 
ATOM     12  C   UNL     1      20.842  29.097  29.273  1.00  0.00    -0.024 C 
ATOM     13  C   UNL     1      20.252  26.536  29.222  1.00  0.00     0.012 C 
ATOM     14  C   UNL     1      20.302  30.276  30.178  1.00  0.00     0.002 C 
ATOM     15  C   UNL     1      22.094  28.543  30.042  1.00  0.00     0.008 C 
ATOM     16  C   UNL     1      21.366  29.580  27.880  1.00  0.00     0.012 C 
ATOM     17  C   UNL     1      21.303  31.428  30.620  1.00  0.00    -0.026 C 
ATOM     18  C   UNL     1      23.147  29.612  30.412  1.00  0.00     0.005 C 
ATOM     19  C   UNL     1      20.597  32.325  31.714  1.00  0.00     0.010 C 
ATOM     20  C   UNL     1      21.671  32.340  29.411  1.00  0.00     0.012 C 
ATOM     21  C   UNL     1      22.553  30.738  31.287  1.00  0.00     0.003 C 
ATOM     22  C   UNL     1      21.477  32.762  32.900  1.00  0.00     0.033 C 
ATOM     23  C   UNL     1      23.627  31.719  31.933  1.00  0.00    -0.006 C 
ATOM     24  C   UNL     1      22.945  33.010  32.516  1.00  0.00     0.120 C 
ATOM     25  C   UNL     1      24.758  32.108  30.942  1.00  0.00     0.014 C 
ATOM     26  C   UNL     1      24.319  30.980  33.114  1.00  0.00     0.014 C 
ENDROOT
BRANCH   1  27
ATOM     27  C   UNL     1      16.620  25.142  28.389  1.00  0.00     0.048 C 
ATOM     28  O   UNL     1      17.122  24.339  29.225  1.00  0.00    -0.550 OA
ATOM     29  O   UNL     1      15.746  24.637  27.433  1.00  0.00    -0.550 OA
ENDBRANCH   1  27
BRANCH   7  30
ATOM     30  C   UNL     1      15.680  26.507  31.856  1.00  0.00    -0.077 C 
ATOM     31  C   UNL     1      15.225  25.081  31.657  1.00  0.00     0.039 C 
ATOM     32  C   UNL     1      15.827  26.950  33.115  1.00  0.00     0.008 C 
ENDBRANCH   7  30
BRANCH  24  33
ATOM     33  O   UNL     1      23.030  34.097  31.626  1.00  0.00    -0.393 OA
ATOM     34  H   UNL     1      22.373  33.940  30.899  1.00  0.00     0.210 HD
ENDBRANCH  24  33
TORSDOF 3
ENDMDL
MODEL 6
REMARK VINA RESULT:    -2.905      1.421      7.936
REMARK INTER + INTRA:          -3.449
REMARK INTER:                  -2.837
REMARK INTRA:                  -0.612
REMARK UNBOUND:                -0.120
REMARK SMILES C=C(C)[C@@H]1CC[C@@]2(C(=O)[O-])CC[C@]3(C)[C@@H](CC[C@@H]4[C@@]5(C)CC[C@H](O)C(C)(C)[C@@H]5CC[C@]43C)[C@@H]12
REMARK SMILES IDX 7 1 6 2 33 3 11 4 5 5 15 6 4 7 12 8 16 9 13 10 17 11 31 12
REMARK SMILES IDX 14 13 18 14 30 15 32 16 19 17 29 18 21 19 20 20 28 21 22 22
REMARK SMILES IDX 25 23 23 24 26 25 27 26 8 27 9 28 10 29 2 30 3 31 1 32 24 33
REMARK H PARENT 24 34
REMARK Flexibility Score: inf
ROOT
ATOM      1  C   UNL     1      23.367  32.611  31.323  1.00  0.00     0.014 C 
ATOM      2  C   UNL     1      23.813  33.296  30.018  1.00  0.00     0.014 C 
ATOM      3  C   UNL     1      23.207  31.109  30.907  1.00  0.00     0.012 C 
ATOM      4  C   UNL     1      22.107  33.303  31.927  1.00  0.00     0.014 C 
ATOM      5  C   UNL     1      24.746  32.297  29.346  1.00  0.00     0.009 C 
ATOM      6  C   UNL     1      21.724  30.622  30.620  1.00  0.00     0.000 C 
ATOM      7  C   UNL     1      24.193  30.911  29.703  1.00  0.00     0.018 C 
ATOM      8  C   UNL     1      20.739  32.675  31.612  1.00  0.00     0.008 C 
ATOM      9  C   UNL     1      21.220  30.912  29.157  1.00  0.00     0.005 C 
ATOM     10  C   UNL     1      20.680  31.106  31.698  1.00  0.00    -0.024 C 
ATOM     11  C   UNL     1      19.697  30.836  28.954  1.00  0.00     0.005 C 
ATOM     12  C   UNL     1      19.169  30.483  31.421  1.00  0.00    -0.024 C 
ATOM     13  C   UNL     1      21.159  30.691  33.125  1.00  0.00     0.012 C 
ATOM     14  C   UNL     1      19.096  29.856  29.970  1.00  0.00     0.002 C 
ATOM     15  C   UNL     1      18.788  29.304  32.386  1.00  0.00     0.008 C 
ATOM     16  C   UNL     1      18.104  31.604  31.662  1.00  0.00     0.012 C 
ATOM     17  C   UNL     1      17.768  29.108  29.521  1.00  0.00    -0.026 C 
ATOM     18  C   UNL     1      17.453  28.602  32.049  1.00  0.00     0.005 C 
ATOM     19  C   UNL     1      18.042  28.359  28.156  1.00  0.00     0.010 C 
ATOM     20  C   UNL     1      16.608  30.122  29.292  1.00  0.00     0.012 C 
ATOM     21  C   UNL     1      17.444  28.022  30.617  1.00  0.00     0.003 C 
ATOM     22  C   UNL     1      17.445  26.944  28.030  1.00  0.00     0.033 C 
ATOM     23  C   UNL     1      16.223  27.053  30.296  1.00  0.00    -0.006 C 
ATOM     24  C   UNL     1      16.098  26.780  28.753  1.00  0.00     0.120 C 
ATOM     25  C   UNL     1      14.875  27.579  30.861  1.00  0.00     0.014 C 
ATOM     26  C   UNL     1      16.483  25.687  30.995  1.00  0.00     0.014 C 
ENDROOT
BRANCH   1  27
ATOM     27  C   UNL     1      24.481  32.746  32.370  1.00  0.00     0.048 C 
ATOM     28  O   UNL     1      25.028  33.859  32.611  1.00  0.00    -0.550 OA
ATOM     29  O   UNL     1      24.869  31.645  33.125  1.00  0.00    -0.550 OA
ENDBRANCH   1  27
BRANCH   7  30
ATOM     30  C   UNL     1      25.291  29.876  29.946  1.00  0.00    -0.077 C 
ATOM     31  C   UNL     1      26.573  30.278  30.634  1.00  0.00     0.039 C 
ATOM     32  C   UNL     1      25.147  28.591  29.585  1.00  0.00     0.008 C 
ENDBRANCH   7  30
BRANCH  24  33
ATOM     33  O   UNL     1      15.128  27.602  28.150  1.00  0.00    -0.393 OA
ATOM     34  H   UNL     1      15.576  28.112  27.426  1.00  0.00     0.210 HD
ENDBRANCH  24  33
TORSDOF 3
ENDMDL
