MODEL 1
REMARK VINA RESULT:    -5.221      0.000      0.000
REMARK INTER + INTRA:          -6.420
REMARK INTER:                  -6.137
REMARK INTRA:                  -0.284
REMARK UNBOUND:                -0.284
REMARK SMILES O=c1cc(-c2ccc(O)c(O)c2)oc2cc(O)cc(O)c12
REMARK SMILES IDX 4 1 3 2 2 3 1 4 21 5 19 6 18 7 16 8 15 9 14 10 13 11 5 12
REMARK SMILES IDX 6 13 7 14 8 15 12 16 10 17 9 18 11 20 20 22 17 24
REMARK H PARENT 9 19 11 21 20 23 17 25
REMARK Flexibility Score: inf
ROOT
ATOM      1  C   UNL     1      -4.703 -17.805  -7.028  1.00  0.00     0.138 A 
ATOM      2  C   UNL     1      -4.841 -16.503  -6.523  1.00  0.00     0.100 A 
ATOM      3  C   UNL     1      -4.159 -16.136  -5.363  1.00  0.00     0.197 A 
ATOM      4  O   UNL     1      -4.346 -14.980  -4.906  1.00  0.00    -0.289 OA
ATOM      5  C   UNL     1      -3.306 -17.068  -4.724  1.00  0.00     0.107 A 
ATOM      6  C   UNL     1      -2.533 -16.796  -3.554  1.00  0.00     0.134 A 
ATOM      7  C   UNL     1      -1.800 -17.828  -2.956  1.00  0.00     0.093 A 
ATOM      8  C   UNL     1      -1.767 -19.108  -3.516  1.00  0.00     0.123 A 
ATOM      9  C   UNL     1      -2.477 -19.370  -4.684  1.00  0.00     0.094 A 
ATOM     10  C   UNL     1      -3.244 -18.371  -5.287  1.00  0.00     0.146 A 
ATOM     11  O   UNL     1      -3.921 -18.669  -6.391  1.00  0.00    -0.456 OA
ENDROOT
BRANCH   1  12
ATOM     12  C   UNL     1      -5.404 -18.247  -8.259  1.00  0.00     0.021 A 
ATOM     13  C   UNL     1      -4.763 -19.143  -9.133  1.00  0.00     0.016 A 
ATOM     14  C   UNL     1      -5.402 -19.581 -10.296  1.00  0.00     0.051 A 
ATOM     15  C   UNL     1      -6.693 -19.141 -10.601  1.00  0.00     0.157 A 
ATOM     16  C   UNL     1      -6.710 -17.818  -8.564  1.00  0.00     0.062 A 
ATOM     17  C   UNL     1      -7.353 -18.259  -9.732  1.00  0.00     0.158 A 
BRANCH  15  18
ATOM     18  O   UNL     1      -7.304 -19.595 -11.770  1.00  0.00    -0.504 OA
ATOM     19  H   UNL     1      -8.121 -19.141 -12.161  1.00  0.00     0.293 HD
ENDBRANCH  15  18
BRANCH  17  20
ATOM     20  O   UNL     1      -8.645 -17.826 -10.025  1.00  0.00    -0.504 OA
ATOM     21  H   UNL     1      -9.451 -18.176  -9.520  1.00  0.00     0.293 HD
ENDBRANCH  17  20
ENDBRANCH   1  12
BRANCH   6  22
ATOM     22  O   UNL     1      -2.432 -15.535  -2.958  1.00  0.00    -0.507 OA
ATOM     23  H   UNL     1      -2.778 -14.676  -3.355  1.00  0.00     0.293 HD
ENDBRANCH   6  22
BRANCH   8  24
ATOM     24  O   UNL     1      -1.023 -20.125  -2.921  1.00  0.00    -0.508 OA
ATOM     25  H   UNL     1      -1.176 -20.401  -1.958  1.00  0.00     0.293 HD
ENDBRANCH   8  24
TORSDOF 5
ENDMDL
MODEL 2
REMARK VINA RESULT:    -4.999      1.766      2.394
REMARK INTER + INTRA:          -6.159
REMARK INTER:                  -5.863
REMARK INTRA:                  -0.296
REMARK UNBOUND:                -0.284
REMARK SMILES O=c1cc(-c2ccc(O)c(O)c2)oc2cc(O)cc(O)c12
REMARK SMILES IDX 4 1 3 2 2 3 1 4 21 5 19 6 18 7 16 8 15 9 14 10 13 11 5 12
REMARK SMILES IDX 6 13 7 14 8 15 12 16 10 17 9 18 11 20 20 22 17 24
REMARK H PARENT 9 19 11 21 20 23 17 25
REMARK Flexibility Score: inf
ROOT
ATOM      1  C   UNL     1      -5.863 -17.196  -7.135  1.00  0.00     0.138 A 
ATOM      2  C   UNL     1      -6.957 -16.510  -6.587  1.00  0.00     0.100 A 
ATOM      3  C   UNL     1      -6.808 -15.823  -5.382  1.00  0.00     0.197 A 
ATOM      4  O   UNL     1      -7.822 -15.265  -4.889  1.00  0.00    -0.289 OA
ATOM      5  C   UNL     1      -5.547 -15.794  -4.740  1.00  0.00     0.107 A 
ATOM      6  C   UNL     1      -5.267 -15.098  -3.524  1.00  0.00     0.134 A 
ATOM      7  C   UNL     1      -4.005 -15.222  -2.932  1.00  0.00     0.093 A 
ATOM      8  C   UNL     1      -2.993 -15.972  -3.540  1.00  0.00     0.123 A 
ATOM      9  C   UNL     1      -3.241 -16.613  -4.751  1.00  0.00     0.094 A 
ATOM     10  C   UNL     1      -4.500 -16.536  -5.349  1.00  0.00     0.146 A 
ATOM     11  O   UNL     1      -4.699 -17.179  -6.496  1.00  0.00    -0.456 OA
ENDROOT
BRANCH   1  12
ATOM     12  C   UNL     1      -5.964 -17.941  -8.415  1.00  0.00     0.021 A 
ATOM     13  C   UNL     1      -4.908 -18.779  -8.810  1.00  0.00     0.016 A 
ATOM     14  C   UNL     1      -4.980 -19.497 -10.007  1.00  0.00     0.051 A 
ATOM     15  C   UNL     1      -6.109 -19.397 -10.824  1.00  0.00     0.157 A 
ATOM     16  C   UNL     1      -7.106 -17.855  -9.234  1.00  0.00     0.062 A 
ATOM     17  C   UNL     1      -7.180 -18.576 -10.436  1.00  0.00     0.158 A 
BRANCH  15  18
ATOM     18  O   UNL     1      -6.152 -20.125 -12.013  1.00  0.00    -0.504 OA
ATOM     19  H   UNL     1      -6.985 -20.615 -12.315  1.00  0.00     0.293 HD
ENDBRANCH  15  18
BRANCH  17  20
ATOM     20  O   UNL     1      -8.314 -18.482 -11.241  1.00  0.00    -0.504 OA
ATOM     21  H   UNL     1      -9.233 -18.315 -10.847  1.00  0.00     0.293 HD
ENDBRANCH  17  20
ENDBRANCH   1  12
BRANCH   6  22
ATOM     22  O   UNL     1      -6.178 -14.259  -2.875  1.00  0.00    -0.507 OA
ATOM     23  H   UNL     1      -7.175 -14.257  -3.027  1.00  0.00     0.293 HD
ENDBRANCH   6  22
BRANCH   8  24
ATOM     24  O   UNL     1      -1.735 -16.077  -2.951  1.00  0.00    -0.508 OA
ATOM     25  H   UNL     1      -0.909 -16.286  -3.499  1.00  0.00     0.293 HD
ENDBRANCH   8  24
TORSDOF 5
ENDMDL
MODEL 3
REMARK VINA RESULT:    -4.936      1.168      2.659
REMARK INTER + INTRA:          -6.086
REMARK INTER:                  -5.792
REMARK INTRA:                  -0.293
REMARK UNBOUND:                -0.284
REMARK SMILES O=c1cc(-c2ccc(O)c(O)c2)oc2cc(O)cc(O)c12
REMARK SMILES IDX 4 1 3 2 2 3 1 4 21 5 19 6 18 7 16 8 15 9 14 10 13 11 5 12
REMARK SMILES IDX 6 13 7 14 8 15 12 16 10 17 9 18 11 20 20 22 17 24
REMARK H PARENT 9 19 11 21 20 23 17 25
REMARK Flexibility Score: inf
ROOT
ATOM      1  C   UNL     1      -4.811 -18.295  -7.060  1.00  0.00     0.138 A 
ATOM      2  C   UNL     1      -4.099 -19.369  -6.504  1.00  0.00     0.100 A 
ATOM      3  C   UNL     1      -3.286 -19.155  -5.390  1.00  0.00     0.197 A 
ATOM      4  O   UNL     1      -2.617 -20.125  -4.950  1.00  0.00    -0.289 OA
ATOM      5  C   UNL     1      -3.214 -17.866  -4.808  1.00  0.00     0.107 A 
ATOM      6  C   UNL     1      -2.446 -17.537  -3.650  1.00  0.00     0.134 A 
ATOM      7  C   UNL     1      -2.375 -16.205  -3.225  1.00  0.00     0.093 A 
ATOM      8  C   UNL     1      -3.091 -15.199  -3.880  1.00  0.00     0.123 A 
ATOM      9  C   UNL     1      -3.883 -15.518  -4.979  1.00  0.00     0.094 A 
ATOM     10  C   UNL     1      -3.947 -16.832  -5.449  1.00  0.00     0.146 A 
ATOM     11  O   UNL     1      -4.702 -17.090  -6.513  1.00  0.00    -0.456 OA
ENDROOT
BRANCH   1  12
ATOM     12  C   UNL     1      -5.692 -18.467  -8.242  1.00  0.00     0.021 A 
ATOM     13  C   UNL     1      -5.248 -19.245  -9.325  1.00  0.00     0.016 A 
ATOM     14  C   UNL     1      -6.060 -19.429 -10.448  1.00  0.00     0.051 A 
ATOM     15  C   UNL     1      -7.328 -18.847 -10.505  1.00  0.00     0.157 A 
ATOM     16  C   UNL     1      -6.977 -17.894  -8.299  1.00  0.00     0.062 A 
ATOM     17  C   UNL     1      -7.793 -18.080  -9.426  1.00  0.00     0.158 A 
BRANCH  15  18
ATOM     18  O   UNL     1      -8.115 -19.047 -11.641  1.00  0.00    -0.504 OA
ATOM     19  H   UNL     1      -8.137 -18.381 -12.403  1.00  0.00     0.293 HD
ENDBRANCH  15  18
BRANCH  17  20
ATOM     20  O   UNL     1      -9.063 -17.507  -9.472  1.00  0.00    -0.504 OA
ATOM     21  H   UNL     1      -9.835 -17.881  -8.932  1.00  0.00     0.293 HD
ENDBRANCH  17  20
ENDBRANCH   1  12
BRANCH   6  22
ATOM     22  O   UNL     1      -1.757 -18.474  -2.875  1.00  0.00    -0.507 OA
ATOM     23  H   UNL     1      -1.804 -19.474  -2.995  1.00  0.00     0.293 HD
ENDBRANCH   6  22
BRANCH   8  24
ATOM     24  O   UNL     1      -3.027 -13.879  -3.439  1.00  0.00    -0.508 OA
ATOM     25  H   UNL     1      -2.555 -13.630  -2.578  1.00  0.00     0.293 HD
ENDBRANCH   8  24
TORSDOF 5
ENDMDL
MODEL 4
REMARK VINA RESULT:    -4.711      1.950      3.405
REMARK INTER + INTRA:          -5.821
REMARK INTER:                  -5.503
REMARK INTRA:                  -0.318
REMARK UNBOUND:                -0.284
REMARK SMILES O=c1cc(-c2ccc(O)c(O)c2)oc2cc(O)cc(O)c12
REMARK SMILES IDX 4 1 3 2 2 3 1 4 21 5 19 6 18 7 16 8 15 9 14 10 13 11 5 12
REMARK SMILES IDX 6 13 7 14 8 15 12 16 10 17 9 18 11 20 20 22 17 24
REMARK H PARENT 9 19 11 21 20 23 17 25
REMARK Flexibility Score: inf
ROOT
ATOM      1  C   UNL     1      -5.641 -17.615  -7.314  1.00  0.00     0.138 A 
ATOM      2  C   UNL     1      -4.343 -17.750  -6.799  1.00  0.00     0.100 A 
ATOM      3  C   UNL     1      -4.012 -17.136  -5.591  1.00  0.00     0.197 A 
ATOM      4  O   UNL     1      -2.826 -17.230  -5.184  1.00  0.00    -0.289 OA
ATOM      5  C   UNL     1      -4.997 -16.411  -4.878  1.00  0.00     0.107 A 
ATOM      6  C   UNL     1      -4.784 -15.770  -3.619  1.00  0.00     0.134 A 
ATOM      7  C   UNL     1      -5.808 -14.999  -3.056  1.00  0.00     0.093 A 
ATOM      8  C   UNL     1      -7.056 -14.891  -3.676  1.00  0.00     0.123 A 
ATOM      9  C   UNL     1      -7.289 -15.553  -4.879  1.00  0.00     0.094 A 
ATOM     10  C   UNL     1      -6.277 -16.302  -5.483  1.00  0.00     0.146 A 
ATOM     11  O   UNL     1      -6.537 -16.904  -6.641  1.00  0.00    -0.456 OA
ENDROOT
BRANCH   1  12
ATOM     12  C   UNL     1      -6.047 -18.250  -8.593  1.00  0.00     0.021 A 
ATOM     13  C   UNL     1      -5.128 -19.056  -9.285  1.00  0.00     0.016 A 
ATOM     14  C   UNL     1      -5.486 -19.671 -10.488  1.00  0.00     0.051 A 
ATOM     15  C   UNL     1      -6.769 -19.500 -11.014  1.00  0.00     0.157 A 
ATOM     16  C   UNL     1      -7.343 -18.091  -9.121  1.00  0.00     0.062 A 
ATOM     17  C   UNL     1      -7.704 -18.710 -10.328  1.00  0.00     0.158 A 
BRANCH  15  18
ATOM     18  O   UNL     1      -7.097 -20.125 -12.218  1.00  0.00    -0.504 OA
ATOM     19  H   UNL     1      -7.614 -19.649 -12.948  1.00  0.00     0.293 HD
ENDBRANCH  15  18
BRANCH  17  20
ATOM     20  O   UNL     1      -8.990 -18.544 -10.842  1.00  0.00    -0.504 OA
ATOM     21  H   UNL     1      -9.327 -19.100 -11.620  1.00  0.00     0.293 HD
ENDBRANCH  17  20
ENDBRANCH   1  12
BRANCH   6  22
ATOM     22  O   UNL     1      -3.605 -15.877  -2.875  1.00  0.00    -0.507 OA
ATOM     23  H   UNL     1      -2.875 -16.552  -3.039  1.00  0.00     0.293 HD
ENDBRANCH   6  22
BRANCH   8  24
ATOM     24  O   UNL     1      -8.073 -14.134  -3.100  1.00  0.00    -0.508 OA
ATOM     25  H   UNL     1      -8.053 -13.877  -2.120  1.00  0.00     0.293 HD
ENDBRANCH   8  24
TORSDOF 5
ENDMDL
MODEL 5
REMARK VINA RESULT:    -4.622      2.023      3.654
REMARK INTER + INTRA:          -5.716
REMARK INTER:                  -5.422
REMARK INTRA:                  -0.294
REMARK UNBOUND:                -0.284
REMARK SMILES O=c1cc(-c2ccc(O)c(O)c2)oc2cc(O)cc(O)c12
REMARK SMILES IDX 4 1 3 2 2 3 1 4 21 5 19 6 18 7 16 8 15 9 14 10 13 11 5 12
REMARK SMILES IDX 6 13 7 14 8 15 12 16 10 17 9 18 11 20 20 22 17 24
REMARK H PARENT 9 19 11 21 20 23 17 25
REMARK Flexibility Score: inf
ROOT
ATOM      1  C   UNL     1      -6.168 -17.780  -7.353  1.00  0.00     0.138 A 
ATOM      2  C   UNL     1      -4.887 -18.216  -6.985  1.00  0.00     0.100 A 
ATOM      3  C   UNL     1      -4.288 -17.705  -5.833  1.00  0.00     0.197 A 
ATOM      4  O   UNL     1      -3.117 -18.074  -5.560  1.00  0.00    -0.289 OA
ATOM      5  C   UNL     1      -4.991 -16.777  -5.027  1.00  0.00     0.107 A 
ATOM      6  C   UNL     1      -4.495 -16.214  -3.812  1.00  0.00     0.134 A 
ATOM      7  C   UNL     1      -5.242 -15.231  -3.152  1.00  0.00     0.093 A 
ATOM      8  C   UNL     1      -6.493 -14.832  -3.630  1.00  0.00     0.123 A 
ATOM      9  C   UNL     1      -7.008 -15.413  -4.787  1.00  0.00     0.094 A 
ATOM     10  C   UNL     1      -6.272 -16.371  -5.487  1.00  0.00     0.146 A 
ATOM     11  O   UNL     1      -6.793 -16.886  -6.596  1.00  0.00    -0.456 OA
ENDROOT
BRANCH   1  12
ATOM     12  C   UNL     1      -6.853 -18.293  -8.567  1.00  0.00     0.021 A 
ATOM     13  C   UNL     1      -8.237 -18.097  -8.711  1.00  0.00     0.016 A 
ATOM     14  C   UNL     1      -8.906 -18.563  -9.847  1.00  0.00     0.051 A 
ATOM     15  C   UNL     1      -8.205 -19.224 -10.858  1.00  0.00     0.157 A 
ATOM     16  C   UNL     1      -6.148 -18.947  -9.595  1.00  0.00     0.062 A 
ATOM     17  C   UNL     1      -6.819 -19.414 -10.736  1.00  0.00     0.158 A 
BRANCH  15  18
ATOM     18  O   UNL     1      -8.900 -19.679 -11.979  1.00  0.00    -0.504 OA
ATOM     19  H   UNL     1      -9.864 -19.423 -12.154  1.00  0.00     0.293 HD
ENDBRANCH  15  18
BRANCH  17  20
ATOM     20  O   UNL     1      -6.112 -20.062 -11.748  1.00  0.00    -0.504 OA
ATOM     21  H   UNL     1      -5.141 -20.327 -11.632  1.00  0.00     0.293 HD
ENDBRANCH  17  20
ENDBRANCH   1  12
BRANCH   6  22
ATOM     22  O   UNL     1      -3.296 -16.597  -3.204  1.00  0.00    -0.507 OA
ATOM     23  H   UNL     1      -3.017 -17.547  -3.016  1.00  0.00     0.293 HD
ENDBRANCH   6  22
BRANCH   8  24
ATOM     24  O   UNL     1      -7.236 -13.865  -2.957  1.00  0.00    -0.508 OA
ATOM     25  H   UNL     1      -8.236 -13.961  -2.826  1.00  0.00     0.293 HD
ENDBRANCH   8  24
TORSDOF 5
ENDMDL
MODEL 6
REMARK VINA RESULT:    -4.302     15.800     16.591
REMARK INTER + INTRA:          -5.340
REMARK INTER:                  -5.074
REMARK INTRA:                  -0.266
REMARK UNBOUND:                -0.284
REMARK SMILES O=c1cc(-c2ccc(O)c(O)c2)oc2cc(O)cc(O)c12
REMARK SMILES IDX 4 1 3 2 2 3 1 4 21 5 19 6 18 7 16 8 15 9 14 10 13 11 5 12
REMARK SMILES IDX 6 13 7 14 8 15 12 16 10 17 9 18 11 20 20 22 17 24
REMARK H PARENT 9 19 11 21 20 23 17 25
REMARK Flexibility Score: inf
ROOT
ATOM      1  C   UNL     1      -7.645  -1.770  -8.758  1.00  0.00     0.138 A 
ATOM      2  C   UNL     1      -8.615  -1.889  -7.752  1.00  0.00     0.100 A 
ATOM      3  C   UNL     1      -8.217  -2.024  -6.422  1.00  0.00     0.197 A 
ATOM      4  O   UNL     1      -9.109  -2.184  -5.550  1.00  0.00    -0.289 OA
ATOM      5  C   UNL     1      -6.839  -2.005  -6.094  1.00  0.00     0.107 A 
ATOM      6  C   UNL     1      -6.316  -2.100  -4.768  1.00  0.00     0.134 A 
ATOM      7  C   UNL     1      -4.931  -2.168  -4.577  1.00  0.00     0.093 A 
ATOM      8  C   UNL     1      -4.048  -2.087  -5.657  1.00  0.00     0.123 A 
ATOM      9  C   UNL     1      -4.547  -1.943  -6.949  1.00  0.00     0.094 A 
ATOM     10  C   UNL     1      -5.924  -1.906  -7.176  1.00  0.00     0.146 A 
ATOM     11  O   UNL     1      -6.359  -1.786  -8.427  1.00  0.00    -0.456 OA
ENDROOT
BRANCH   1  12
ATOM     12  C   UNL     1      -8.012  -1.621 -10.189  1.00  0.00     0.021 A 
ATOM     13  C   UNL     1      -7.989  -0.345 -10.777  1.00  0.00     0.016 A 
ATOM     14  C   UNL     1      -8.324  -0.177 -12.124  1.00  0.00     0.051 A 
ATOM     15  C   UNL     1      -8.678  -1.279 -12.906  1.00  0.00     0.157 A 
ATOM     16  C   UNL     1      -8.356  -2.730 -10.985  1.00  0.00     0.062 A 
ATOM     17  C   UNL     1      -8.691  -2.562 -12.338  1.00  0.00     0.158 A 
BRANCH  15  18
ATOM     18  O   UNL     1      -9.009  -1.079 -14.247  1.00  0.00    -0.504 OA
ATOM     19  H   UNL     1      -8.868  -0.189 -14.709  1.00  0.00     0.293 HD
ENDBRANCH  15  18
BRANCH  17  20
ATOM     20  O   UNL     1      -9.032  -3.667 -13.117  1.00  0.00    -0.504 OA
ATOM     21  H   UNL     1      -9.960  -4.075 -13.084  1.00  0.00     0.293 HD
ENDBRANCH  17  20
ENDBRANCH   1  12
BRANCH   6  22
ATOM     22  O   UNL     1      -7.105  -2.108  -3.614  1.00  0.00    -0.507 OA
ATOM     23  H   UNL     1      -7.582  -2.915  -3.242  1.00  0.00     0.293 HD
ENDBRANCH   6  22
BRANCH   8  24
ATOM     24  O   UNL     1      -2.671  -2.140  -5.454  1.00  0.00    -0.508 OA
ATOM     25  H   UNL     1      -2.197  -3.013  -5.253  1.00  0.00     0.293 HD
ENDBRANCH   8  24
TORSDOF 5
ENDMDL
MODEL 7
REMARK VINA RESULT:    -3.179      1.763      7.026
REMARK INTER + INTRA:          -4.021
REMARK INTER:                  -3.754
REMARK INTRA:                  -0.267
REMARK UNBOUND:                -0.284
REMARK SMILES O=c1cc(-c2ccc(O)c(O)c2)oc2cc(O)cc(O)c12
REMARK SMILES IDX 4 1 3 2 2 3 1 4 21 5 19 6 18 7 16 8 15 9 14 10 13 11 5 12
REMARK SMILES IDX 6 13 7 14 8 15 12 16 10 17 9 18 11 20 20 22 17 24
REMARK H PARENT 9 19 11 21 20 23 17 25
REMARK Flexibility Score: inf
ROOT
ATOM      1  C   UNL     1      -5.136 -17.416  -5.996  1.00  0.00     0.138 A 
ATOM      2  C   UNL     1      -6.452 -17.603  -5.550  1.00  0.00     0.100 A 
ATOM      3  C   UNL     1      -7.363 -18.289  -6.355  1.00  0.00     0.197 A 
ATOM      4  O   UNL     1      -8.550 -18.392  -5.952  1.00  0.00    -0.289 OA
ATOM      5  C   UNL     1      -6.942 -18.820  -7.598  1.00  0.00     0.107 A 
ATOM      6  C   UNL     1      -7.773 -19.567  -8.488  1.00  0.00     0.134 A 
ATOM      7  C   UNL     1      -7.272 -19.957  -9.736  1.00  0.00     0.093 A 
ATOM      8  C   UNL     1      -5.953 -19.679 -10.103  1.00  0.00     0.123 A 
ATOM      9  C   UNL     1      -5.119 -18.995  -9.221  1.00  0.00     0.094 A 
ATOM     10  C   UNL     1      -5.599 -18.562  -7.984  1.00  0.00     0.146 A 
ATOM     11  O   UNL     1      -4.775 -17.897  -7.180  1.00  0.00    -0.456 OA
ENDROOT
BRANCH   1  12
ATOM     12  C   UNL     1      -4.126 -16.697  -5.179  1.00  0.00     0.021 A 
ATOM     13  C   UNL     1      -4.146 -15.292  -5.138  1.00  0.00     0.016 A 
ATOM     14  C   UNL     1      -3.211 -14.590  -4.372  1.00  0.00     0.051 A 
ATOM     15  C   UNL     1      -2.248 -15.277  -3.629  1.00  0.00     0.157 A 
ATOM     16  C   UNL     1      -3.162 -17.385  -4.417  1.00  0.00     0.062 A 
ATOM     17  C   UNL     1      -2.224 -16.680  -3.647  1.00  0.00     0.158 A 
BRANCH  15  18
ATOM     18  O   UNL     1      -1.328 -14.548  -2.875  1.00  0.00    -0.504 OA
ATOM     19  H   UNL     1      -1.342 -13.536  -2.841  1.00  0.00     0.293 HD
ENDBRANCH  15  18
BRANCH  17  20
ATOM     20  O   UNL     1      -1.273 -17.371  -2.897  1.00  0.00    -0.504 OA
ATOM     21  H   UNL     1      -0.433 -17.748  -3.322  1.00  0.00     0.293 HD
ENDBRANCH  17  20
ENDBRANCH   1  12
BRANCH   6  22
ATOM     22  O   UNL     1      -9.079 -19.967  -8.190  1.00  0.00    -0.507 OA
ATOM     23  H   UNL     1      -9.374 -20.383  -7.320  1.00  0.00     0.293 HD
ENDBRANCH   6  22
BRANCH   8  24
ATOM     24  O   UNL     1      -5.458 -20.085 -11.340  1.00  0.00    -0.508 OA
ATOM     25  H   UNL     1      -6.077 -20.365 -12.093  1.00  0.00     0.293 HD
ENDBRANCH   8  24
TORSDOF 5
ENDMDL
MODEL 8
REMARK VINA RESULT:    -3.116      1.481      7.004
REMARK INTER + INTRA:          -3.946
REMARK INTER:                  -3.674
REMARK INTRA:                  -0.272
REMARK UNBOUND:                -0.284
REMARK SMILES O=c1cc(-c2ccc(O)c(O)c2)oc2cc(O)cc(O)c12
REMARK SMILES IDX 4 1 3 2 2 3 1 4 21 5 19 6 18 7 16 8 15 9 14 10 13 11 5 12
REMARK SMILES IDX 6 13 7 14 8 15 12 16 10 17 9 18 11 20 20 22 17 24
REMARK H PARENT 9 19 11 21 20 23 17 25
REMARK Flexibility Score: inf
ROOT
ATOM      1  C   UNL     1      -5.241 -17.503  -6.970  1.00  0.00     0.138 A 
ATOM      2  C   UNL     1      -6.615 -17.239  -6.869  1.00  0.00     0.100 A 
ATOM      3  C   UNL     1      -7.469 -17.624  -7.904  1.00  0.00     0.197 A 
ATOM      4  O   UNL     1      -8.687 -17.324  -7.809  1.00  0.00    -0.289 OA
ATOM      5  C   UNL     1      -6.948 -18.309  -9.028  1.00  0.00     0.107 A 
ATOM      6  C   UNL     1      -7.728 -18.781 -10.128  1.00  0.00     0.134 A 
ATOM      7  C   UNL     1      -7.088 -19.359 -11.230  1.00  0.00     0.093 A 
ATOM      8  C   UNL     1      -5.702 -19.534 -11.249  1.00  0.00     0.123 A 
ATOM      9  C   UNL     1      -4.938 -19.124 -10.160  1.00  0.00     0.094 A 
ATOM     10  C   UNL     1      -5.543 -18.513  -9.060  1.00  0.00     0.146 A 
ATOM     11  O   UNL     1      -4.774 -18.119  -8.049  1.00  0.00    -0.456 OA
ENDROOT
BRANCH   1  12
ATOM     12  C   UNL     1      -4.288 -17.118  -5.898  1.00  0.00     0.021 A 
ATOM     13  C   UNL     1      -3.421 -18.087  -5.366  1.00  0.00     0.016 A 
ATOM     14  C   UNL     1      -2.509 -17.750  -4.362  1.00  0.00     0.051 A 
ATOM     15  C   UNL     1      -2.441 -16.441  -3.879  1.00  0.00     0.157 A 
ATOM     16  C   UNL     1      -4.206 -15.796  -5.419  1.00  0.00     0.062 A 
ATOM     17  C   UNL     1      -3.290 -15.457  -4.411  1.00  0.00     0.158 A 
BRANCH  15  18
ATOM     18  O   UNL     1      -1.522 -16.136  -2.875  1.00  0.00    -0.504 OA
ATOM     19  H   UNL     1      -0.570 -15.859  -3.084  1.00  0.00     0.293 HD
ENDBRANCH  15  18
BRANCH  17  20
ATOM     20  O   UNL     1      -3.218 -14.146  -3.942  1.00  0.00    -0.504 OA
ATOM     21  H   UNL     1      -2.879 -13.390  -4.526  1.00  0.00     0.293 HD
ENDBRANCH  17  20
ENDBRANCH   1  12
BRANCH   6  22
ATOM     22  O   UNL     1      -9.125 -18.727 -10.177  1.00  0.00    -0.507 OA
ATOM     23  H   UNL     1      -9.665 -17.930 -10.476  1.00  0.00     0.293 HD
ENDBRANCH   6  22
BRANCH   8  24
ATOM     24  O   UNL     1      -5.075 -20.125 -12.344  1.00  0.00    -0.508 OA
ATOM     25  H   UNL     1      -4.621 -21.028 -12.272  1.00  0.00     0.293 HD
ENDBRANCH   8  24
TORSDOF 5
ENDMDL
MODEL 9
REMARK VINA RESULT:    -3.070      2.240      3.397
REMARK INTER + INTRA:          -3.892
REMARK INTER:                  -3.575
REMARK INTRA:                  -0.317
REMARK UNBOUND:                -0.284
REMARK SMILES O=c1cc(-c2ccc(O)c(O)c2)oc2cc(O)cc(O)c12
REMARK SMILES IDX 4 1 3 2 2 3 1 4 21 5 19 6 18 7 16 8 15 9 14 10 13 11 5 12
REMARK SMILES IDX 6 13 7 14 8 15 12 16 10 17 9 18 11 20 20 22 17 24
REMARK H PARENT 9 19 11 21 20 23 17 25
REMARK Flexibility Score: inf
ROOT
ATOM      1  C   UNL     1      -6.534 -18.527  -7.840  1.00  0.00     0.138 A 
ATOM      2  C   UNL     1      -6.643 -19.486  -6.823  1.00  0.00     0.100 A 
ATOM      3  C   UNL     1      -6.101 -19.223  -5.565  1.00  0.00     0.197 A 
ATOM      4  O   UNL     1      -6.167 -20.125  -4.690  1.00  0.00    -0.289 OA
ATOM      5  C   UNL     1      -5.477 -17.977  -5.314  1.00  0.00     0.107 A 
ATOM      6  C   UNL     1      -4.918 -17.584  -4.060  1.00  0.00     0.134 A 
ATOM      7  C   UNL     1      -4.238 -16.364  -3.959  1.00  0.00     0.093 A 
ATOM      8  C   UNL     1      -4.146 -15.497  -5.052  1.00  0.00     0.123 A 
ATOM      9  C   UNL     1      -4.731 -15.849  -6.265  1.00  0.00     0.094 A 
ATOM     10  C   UNL     1      -5.387 -17.074  -6.407  1.00  0.00     0.146 A 
ATOM     11  O   UNL     1      -5.915 -17.379  -7.588  1.00  0.00    -0.456 OA
ENDROOT
BRANCH   1  12
ATOM     12  C   UNL     1      -7.094 -18.754  -9.196  1.00  0.00     0.021 A 
ATOM     13  C   UNL     1      -7.889 -19.889  -9.432  1.00  0.00     0.016 A 
ATOM     14  C   UNL     1      -8.435 -20.123 -10.697  1.00  0.00     0.051 A 
ATOM     15  C   UNL     1      -8.205 -19.226 -11.743  1.00  0.00     0.157 A 
ATOM     16  C   UNL     1      -6.877 -17.845 -10.250  1.00  0.00     0.062 A 
ATOM     17  C   UNL     1      -7.426 -18.080 -11.520  1.00  0.00     0.158 A 
BRANCH  15  18
ATOM     18  O   UNL     1      -8.762 -19.488 -12.995  1.00  0.00    -0.504 OA
ATOM     19  H   UNL     1      -8.213 -19.455 -13.846  1.00  0.00     0.293 HD
ENDBRANCH  15  18
BRANCH  17  20
ATOM     20  O   UNL     1      -7.203 -17.175 -12.557  1.00  0.00    -0.504 OA
ATOM     21  H   UNL     1      -7.015 -16.195 -12.377  1.00  0.00     0.293 HD
ENDBRANCH  17  20
ENDBRANCH   1  12
BRANCH   6  22
ATOM     22  O   UNL     1      -5.021 -18.336  -2.886  1.00  0.00    -0.507 OA
ATOM     23  H   UNL     1      -5.885 -18.595  -2.436  1.00  0.00     0.293 HD
ENDBRANCH   6  22
BRANCH   8  24
ATOM     24  O   UNL     1      -3.482 -14.278  -4.938  1.00  0.00    -0.508 OA
ATOM     25  H   UNL     1      -3.914 -13.409  -5.228  1.00  0.00     0.293 HD
ENDBRANCH   8  24
TORSDOF 5
ENDMDL
