MODEL 1
REMARK VINA RESULT:    -4.270      0.000      0.000
REMARK INTER + INTRA:          -5.479
REMARK INTER:                  -5.268
REMARK INTRA:                  -0.211
REMARK UNBOUND:                -0.211
REMARK SMILES [NH3+][C@@H](Cc1ccc(O)cc1)C(=O)[O-]
REMARK SMILES IDX 3 1 2 2 1 3 11 7 12 8 13 9 4 10 5 11 10 12 6 13 9 14 7 15
REMARK SMILES IDX 8 16
REMARK H PARENT 1 4 1 5 1 6 8 17
REMARK Flexibility Score: inf
ROOT
ATOM      1  C   UNL     1     205.550 190.289  -2.388  1.00  0.00     0.107 C 
ENDROOT
BRANCH   1   2
ATOM      2  C   UNL     1     205.993 191.767  -2.342  1.00  0.00     0.232 C 
BRANCH   2   3
ATOM      3  N   UNL     1     205.743 192.336  -1.013  1.00  0.00    -0.350 N 
ATOM      4  H   UNL     1     206.652 192.585  -0.558  1.00  0.00     0.345 HD
ATOM      5  H   UNL     1     205.173 193.209  -1.100  1.00  0.00     0.345 HD
ATOM      6  H   UNL     1     205.235 191.651  -0.406  1.00  0.00     0.345 HD
ENDBRANCH   2   3
BRANCH   2   7
ATOM      7  C   UNL     1     205.276 192.576  -3.393  1.00  0.00     0.099 C 
ATOM      8  O   UNL     1     204.242 192.118  -3.948  1.00  0.00    -0.544 OA
ATOM      9  O   UNL     1     205.739 193.839  -3.742  1.00  0.00    -0.544 OA
ENDBRANCH   2   7
ENDBRANCH   1   2
BRANCH   1  10
ATOM     10  C   UNL     1     206.690 189.376  -2.760  1.00  0.00    -0.041 A 
ATOM     11  C   UNL     1     208.011 189.852  -2.746  1.00  0.00     0.008 A 
ATOM     12  C   UNL     1     206.441 188.054  -3.165  1.00  0.00     0.008 A 
ATOM     13  C   UNL     1     209.067 189.016  -3.118  1.00  0.00     0.046 A 
ATOM     14  C   UNL     1     207.498 187.218  -3.538  1.00  0.00     0.046 A 
ATOM     15  C   UNL     1     208.815 187.698  -3.513  1.00  0.00     0.115 A 
BRANCH  15  16
ATOM     16  O   UNL     1     209.878 186.875  -3.882  1.00  0.00    -0.508 OA
ATOM     17  H   UNL     1     210.760 186.896  -3.385  1.00  0.00     0.293 HD
ENDBRANCH  15  16
ENDBRANCH   1  10
TORSDOF 5
ENDMDL
MODEL 2
REMARK VINA RESULT:    -4.171      0.255      1.630
REMARK INTER + INTRA:          -5.357
REMARK INTER:                  -5.137
REMARK INTRA:                  -0.221
REMARK UNBOUND:                -0.211
REMARK SMILES [NH3+][C@@H](Cc1ccc(O)cc1)C(=O)[O-]
REMARK SMILES IDX 3 1 2 2 1 3 11 7 12 8 13 9 4 10 5 11 10 12 6 13 9 14 7 15
REMARK SMILES IDX 8 16
REMARK H PARENT 1 4 1 5 1 6 8 17
REMARK Flexibility Score: inf
ROOT
ATOM      1  C   UNL     1     205.559 190.421  -2.111  1.00  0.00     0.107 C 
ENDROOT
BRANCH   1   2
ATOM      2  C   UNL     1     205.975 191.903  -2.220  1.00  0.00     0.232 C 
BRANCH   2   3
ATOM      3  N   UNL     1     205.595 192.634  -1.006  1.00  0.00    -0.350 N 
ATOM      4  H   UNL     1     206.440 193.084  -0.584  1.00  0.00     0.345 HD
ATOM      5  H   UNL     1     204.909 193.387  -1.244  1.00  0.00     0.345 HD
ATOM      6  H   UNL     1     205.167 191.987  -0.303  1.00  0.00     0.345 HD
ENDBRANCH   2   3
BRANCH   2   7
ATOM      7  C   UNL     1     205.349 192.549  -3.429  1.00  0.00     0.099 C 
ATOM      8  O   UNL     1     205.878 193.569  -3.946  1.00  0.00    -0.544 OA
ATOM      9  O   UNL     1     204.197 192.015  -3.993  1.00  0.00    -0.544 OA
ENDBRANCH   2   7
ENDBRANCH   1   2
BRANCH   1  10
ATOM     10  C   UNL     1     206.622 189.501  -2.655  1.00  0.00    -0.041 A 
ATOM     11  C   UNL     1     206.267 188.255  -3.199  1.00  0.00     0.008 A 
ATOM     12  C   UNL     1     207.978 189.858  -2.585  1.00  0.00     0.008 A 
ATOM     13  C   UNL     1     207.253 187.388  -3.679  1.00  0.00     0.046 A 
ATOM     14  C   UNL     1     208.964 188.989  -3.064  1.00  0.00     0.046 A 
ATOM     15  C   UNL     1     208.602 187.752  -3.614  1.00  0.00     0.115 A 
BRANCH  15  16
ATOM     16  O   UNL     1     209.575 186.877  -4.095  1.00  0.00    -0.508 OA
ATOM     17  H   UNL     1     209.826 186.036  -3.591  1.00  0.00     0.293 HD
ENDBRANCH  15  16
ENDBRANCH   1  10
TORSDOF 5
ENDMDL
MODEL 3
REMARK VINA RESULT:    -4.112     18.379     19.249
REMARK INTER + INTRA:          -5.284
REMARK INTER:                  -5.098
REMARK INTRA:                  -0.186
REMARK UNBOUND:                -0.211
REMARK SMILES [NH3+][C@@H](Cc1ccc(O)cc1)C(=O)[O-]
REMARK SMILES IDX 3 1 2 2 1 3 11 7 12 8 13 9 4 10 5 11 10 12 6 13 9 14 7 15
REMARK SMILES IDX 8 16
REMARK H PARENT 1 4 1 5 1 6 8 17
REMARK Flexibility Score: inf
ROOT
ATOM      1  C   UNL     1     220.063 203.469  -6.129  1.00  0.00     0.107 C 
ENDROOT
BRANCH   1   2
ATOM      2  C   UNL     1     220.503 204.759  -6.852  1.00  0.00     0.232 C 
BRANCH   2   3
ATOM      3  N   UNL     1     221.719 205.303  -6.235  1.00  0.00    -0.350 N 
ATOM      4  H   UNL     1     221.699 205.134  -5.203  1.00  0.00     0.345 HD
ATOM      5  H   UNL     1     222.562 204.824  -6.628  1.00  0.00     0.345 HD
ATOM      6  H   UNL     1     221.795 206.332  -6.411  1.00  0.00     0.345 HD
ENDBRANCH   2   3
BRANCH   2   7
ATOM      7  C   UNL     1     219.405 205.792  -6.825  1.00  0.00     0.099 C 
ATOM      8  O   UNL     1     219.069 206.384  -7.885  1.00  0.00    -0.544 OA
ATOM      9  O   UNL     1     218.744 206.083  -5.638  1.00  0.00    -0.544 OA
ENDBRANCH   2   7
ENDBRANCH   1   2
BRANCH   1  10
ATOM     10  C   UNL     1     220.461 202.234  -6.898  1.00  0.00    -0.041 A 
ATOM     11  C   UNL     1     220.728 201.034  -6.219  1.00  0.00     0.008 A 
ATOM     12  C   UNL     1     220.610 202.281  -8.294  1.00  0.00     0.008 A 
ATOM     13  C   UNL     1     221.124 199.896  -6.927  1.00  0.00     0.046 A 
ATOM     14  C   UNL     1     221.007 201.142  -9.000  1.00  0.00     0.046 A 
ATOM     15  C   UNL     1     221.264 199.946  -8.317  1.00  0.00     0.115 A 
BRANCH  15  16
ATOM     16  O   UNL     1     221.661 198.803  -9.010  1.00  0.00    -0.508 OA
ATOM     17  H   UNL     1     222.348 198.846  -9.753  1.00  0.00     0.293 HD
ENDBRANCH  15  16
ENDBRANCH   1  10
TORSDOF 5
ENDMDL
MODEL 4
REMARK VINA RESULT:    -4.058      2.104      5.279
REMARK INTER + INTRA:          -5.218
REMARK INTER:                  -5.017
REMARK INTRA:                  -0.201
REMARK UNBOUND:                -0.211
REMARK SMILES [NH3+][C@@H](Cc1ccc(O)cc1)C(=O)[O-]
REMARK SMILES IDX 3 1 2 2 1 3 11 7 12 8 13 9 4 10 5 11 10 12 6 13 9 14 7 15
REMARK SMILES IDX 8 16
REMARK H PARENT 1 4 1 5 1 6 8 17
REMARK Flexibility Score: inf
ROOT
ATOM      1  C   UNL     1     206.752 188.900  -2.375  1.00  0.00     0.107 C 
ENDROOT
BRANCH   1   2
ATOM      2  C   UNL     1     206.238 187.939  -3.467  1.00  0.00     0.232 C 
BRANCH   2   3
ATOM      3  N   UNL     1     205.372 186.910  -2.880  1.00  0.00    -0.350 N 
ATOM      4  H   UNL     1     204.381 187.247  -2.867  1.00  0.00     0.345 HD
ATOM      5  H   UNL     1     205.412 186.038  -3.456  1.00  0.00     0.345 HD
ATOM      6  H   UNL     1     205.669 186.690  -1.900  1.00  0.00     0.345 HD
ENDBRANCH   2   3
BRANCH   2   7
ATOM      7  C   UNL     1     207.387 187.290  -4.197  1.00  0.00     0.099 C 
ATOM      8  O   UNL     1     207.238 186.890  -5.382  1.00  0.00    -0.544 OA
ATOM      9  O   UNL     1     208.621 187.146  -3.575  1.00  0.00    -0.544 OA
ENDBRANCH   2   7
ENDBRANCH   1   2
BRANCH   1  10
ATOM     10  C   UNL     1     206.500 190.342  -2.736  1.00  0.00    -0.041 A 
ATOM     11  C   UNL     1     205.212 190.762  -3.108  1.00  0.00     0.008 A 
ATOM     12  C   UNL     1     207.554 191.269  -2.745  1.00  0.00     0.008 A 
ATOM     13  C   UNL     1     204.981 192.092  -3.470  1.00  0.00     0.046 A 
ATOM     14  C   UNL     1     207.321 192.599  -3.109  1.00  0.00     0.046 A 
ATOM     15  C   UNL     1     206.032 193.014  -3.471  1.00  0.00     0.115 A 
BRANCH  15  16
ATOM     16  O   UNL     1     205.787 194.337  -3.835  1.00  0.00    -0.508 OA
ATOM     17  H   UNL     1     206.393 194.829  -4.481  1.00  0.00     0.293 HD
ENDBRANCH  15  16
ENDBRANCH   1  10
TORSDOF 5
ENDMDL
MODEL 5
REMARK VINA RESULT:    -3.958     19.456     20.496
REMARK INTER + INTRA:          -5.094
REMARK INTER:                  -4.903
REMARK INTRA:                  -0.191
REMARK UNBOUND:                -0.211
REMARK SMILES [NH3+][C@@H](Cc1ccc(O)cc1)C(=O)[O-]
REMARK SMILES IDX 3 1 2 2 1 3 11 7 12 8 13 9 4 10 5 11 10 12 6 13 9 14 7 15
REMARK SMILES IDX 8 16
REMARK H PARENT 1 4 1 5 1 6 8 17
REMARK Flexibility Score: inf
ROOT
ATOM      1  C   UNL     1     218.603 205.136  -5.182  1.00  0.00     0.107 C 
ENDROOT
BRANCH   1   2
ATOM      2  C   UNL     1     219.701 205.893  -5.959  1.00  0.00     0.232 C 
BRANCH   2   3
ATOM      3  N   UNL     1     219.176 206.388  -7.237  1.00  0.00    -0.350 N 
ATOM      4  H   UNL     1     219.388 205.700  -7.997  1.00  0.00     0.345 HD
ATOM      5  H   UNL     1     218.138 206.498  -7.177  1.00  0.00     0.345 HD
ATOM      6  H   UNL     1     219.607 207.310  -7.482  1.00  0.00     0.345 HD
ENDBRANCH   2   3
BRANCH   2   7
ATOM      7  C   UNL     1     220.897 205.007  -6.200  1.00  0.00     0.099 C 
ATOM      8  O   UNL     1     221.072 203.976  -5.498  1.00  0.00    -0.544 OA
ATOM      9  O   UNL     1     221.803 205.312  -7.209  1.00  0.00    -0.544 OA
ENDBRANCH   2   7
ENDBRANCH   1   2
BRANCH   1  10
ATOM     10  C   UNL     1     218.622 205.476  -3.714  1.00  0.00    -0.041 A 
ATOM     11  C   UNL     1     218.419 206.801  -3.293  1.00  0.00     0.008 A 
ATOM     12  C   UNL     1     218.884 204.483  -2.755  1.00  0.00     0.008 A 
ATOM     13  C   UNL     1     218.464 207.124  -1.934  1.00  0.00     0.046 A 
ATOM     14  C   UNL     1     218.930 204.808  -1.396  1.00  0.00     0.046 A 
ATOM     15  C   UNL     1     218.718 206.131  -0.982  1.00  0.00     0.115 A 
BRANCH  15  16
ATOM     16  O   UNL     1     218.761 206.468   0.370  1.00  0.00    -0.508 OA
ATOM     17  H   UNL     1     218.300 207.297   0.723  1.00  0.00     0.293 HD
ENDBRANCH  15  16
ENDBRANCH   1  10
TORSDOF 5
ENDMDL
MODEL 6
REMARK VINA RESULT:    -3.906      2.310      5.311
REMARK INTER + INTRA:          -5.031
REMARK INTER:                  -4.833
REMARK INTRA:                  -0.198
REMARK UNBOUND:                -0.211
REMARK SMILES [NH3+][C@@H](Cc1ccc(O)cc1)C(=O)[O-]
REMARK SMILES IDX 3 1 2 2 1 3 11 7 12 8 13 9 4 10 5 11 10 12 6 13 9 14 7 15
REMARK SMILES IDX 8 16
REMARK H PARENT 1 4 1 5 1 6 8 17
REMARK Flexibility Score: inf
ROOT
ATOM      1  C   UNL     1     206.608 188.135  -3.162  1.00  0.00     0.107 C 
ENDROOT
BRANCH   1   2
ATOM      2  C   UNL     1     207.546 188.064  -4.385  1.00  0.00     0.232 C 
BRANCH   2   3
ATOM      3  N   UNL     1     207.249 186.875  -5.192  1.00  0.00    -0.350 N 
ATOM      4  H   UNL     1     206.684 187.147  -6.030  1.00  0.00     0.345 HD
ATOM      5  H   UNL     1     208.140 186.441  -5.527  1.00  0.00     0.345 HD
ATOM      6  H   UNL     1     206.713 186.172  -4.632  1.00  0.00     0.345 HD
ENDBRANCH   2   3
BRANCH   2   7
ATOM      7  C   UNL     1     208.991 188.049  -3.955  1.00  0.00     0.099 C 
ATOM      8  O   UNL     1     209.676 189.105  -4.000  1.00  0.00    -0.544 OA
ATOM      9  O   UNL     1     209.572 186.875  -3.489  1.00  0.00    -0.544 OA
ENDBRANCH   2   7
ENDBRANCH   1   2
BRANCH   1  10
ATOM     10  C   UNL     1     206.197 189.552  -2.854  1.00  0.00    -0.041 A 
ATOM     11  C   UNL     1     206.947 190.325  -1.952  1.00  0.00     0.008 A 
ATOM     12  C   UNL     1     205.040 190.100  -3.432  1.00  0.00     0.008 A 
ATOM     13  C   UNL     1     206.552 191.630  -1.644  1.00  0.00     0.046 A 
ATOM     14  C   UNL     1     204.646 191.405  -3.121  1.00  0.00     0.046 A 
ATOM     15  C   UNL     1     205.403 192.174  -2.227  1.00  0.00     0.115 A 
BRANCH  15  16
ATOM     16  O   UNL     1     205.021 193.476  -1.910  1.00  0.00    -0.508 OA
ATOM     17  H   UNL     1     204.318 193.968  -2.449  1.00  0.00     0.293 HD
ENDBRANCH  15  16
ENDBRANCH   1  10
TORSDOF 5
ENDMDL
MODEL 7
REMARK VINA RESULT:    -3.872     19.083     19.698
REMARK INTER + INTRA:          -4.988
REMARK INTER:                  -4.799
REMARK INTRA:                  -0.190
REMARK UNBOUND:                -0.211
REMARK SMILES [NH3+][C@@H](Cc1ccc(O)cc1)C(=O)[O-]
REMARK SMILES IDX 3 1 2 2 1 3 11 7 12 8 13 9 4 10 5 11 10 12 6 13 9 14 7 15
REMARK SMILES IDX 8 16
REMARK H PARENT 1 4 1 5 1 6 8 17
REMARK Flexibility Score: inf
ROOT
ATOM      1  C   UNL     1     218.479 206.342  -4.111  1.00  0.00     0.107 C 
ENDROOT
BRANCH   1   2
ATOM      2  C   UNL     1     217.865 205.584  -2.915  1.00  0.00     0.232 C 
BRANCH   2   3
ATOM      3  N   UNL     1     216.447 205.929  -2.761  1.00  0.00    -0.350 N 
ATOM      4  H   UNL     1     216.085 205.545  -1.857  1.00  0.00     0.345 HD
ATOM      5  H   UNL     1     216.334 206.969  -2.742  1.00  0.00     0.345 HD
ATOM      6  H   UNL     1     215.882 205.536  -3.549  1.00  0.00     0.345 HD
ENDBRANCH   2   3
BRANCH   2   7
ATOM      7  C   UNL     1     218.613 205.891  -1.643  1.00  0.00     0.099 C 
ATOM      8  O   UNL     1     218.545 207.040  -1.132  1.00  0.00    -0.544 OA
ATOM      9  O   UNL     1     219.364 204.905  -1.015  1.00  0.00    -0.544 OA
ENDBRANCH   2   7
ENDBRANCH   1   2
BRANCH   1  10
ATOM     10  C   UNL     1     219.161 205.406  -5.076  1.00  0.00    -0.041 A 
ATOM     11  C   UNL     1     219.528 204.114  -4.666  1.00  0.00     0.008 A 
ATOM     12  C   UNL     1     219.473 205.829  -6.378  1.00  0.00     0.008 A 
ATOM     13  C   UNL     1     220.186 203.254  -5.550  1.00  0.00     0.046 A 
ATOM     14  C   UNL     1     220.132 204.967  -7.261  1.00  0.00     0.046 A 
ATOM     15  C   UNL     1     220.488 203.676  -6.849  1.00  0.00     0.115 A 
BRANCH  15  16
ATOM     16  O   UNL     1     221.145 202.808  -7.720  1.00  0.00    -0.508 OA
ATOM     17  H   UNL     1     220.810 202.651  -8.663  1.00  0.00     0.293 HD
ENDBRANCH  15  16
ENDBRANCH   1  10
TORSDOF 5
ENDMDL
MODEL 8
REMARK VINA RESULT:    -3.581      3.363      6.226
REMARK INTER + INTRA:          -4.629
REMARK INTER:                  -4.410
REMARK INTRA:                  -0.219
REMARK UNBOUND:                -0.211
REMARK SMILES [NH3+][C@@H](Cc1ccc(O)cc1)C(=O)[O-]
REMARK SMILES IDX 3 1 2 2 1 3 11 7 12 8 13 9 4 10 5 11 10 12 6 13 9 14 7 15
REMARK SMILES IDX 8 16
REMARK H PARENT 1 4 1 5 1 6 8 17
REMARK Flexibility Score: inf
ROOT
ATOM      1  C   UNL     1     210.611 187.017  -3.493  1.00  0.00     0.107 C 
ENDROOT
BRANCH   1   2
ATOM      2  C   UNL     1     211.685 187.926  -2.859  1.00  0.00     0.232 C 
BRANCH   2   3
ATOM      3  N   UNL     1     212.643 188.375  -3.876  1.00  0.00    -0.350 N 
ATOM      4  H   UNL     1     212.241 189.181  -4.409  1.00  0.00     0.345 HD
ATOM      5  H   UNL     1     213.526 188.697  -3.416  1.00  0.00     0.345 HD
ATOM      6  H   UNL     1     212.865 187.601  -4.544  1.00  0.00     0.345 HD
ENDBRANCH   2   3
BRANCH   2   7
ATOM      7  C   UNL     1     212.410 187.208  -1.749  1.00  0.00     0.099 C 
ATOM      8  O   UNL     1     213.616 186.875  -1.893  1.00  0.00    -0.544 OA
ATOM      9  O   UNL     1     211.759 186.926  -0.554  1.00  0.00    -0.544 OA
ENDBRANCH   2   7
ENDBRANCH   1   2
BRANCH   1  10
ATOM     10  C   UNL     1     209.240 187.640  -3.424  1.00  0.00    -0.041 A 
ATOM     11  C   UNL     1     209.086 188.958  -2.962  1.00  0.00     0.008 A 
ATOM     12  C   UNL     1     208.102 186.899  -3.781  1.00  0.00     0.008 A 
ATOM     13  C   UNL     1     207.813 189.529  -2.871  1.00  0.00     0.046 A 
ATOM     14  C   UNL     1     206.829 187.471  -3.688  1.00  0.00     0.046 A 
ATOM     15  C   UNL     1     206.682 188.789  -3.233  1.00  0.00     0.115 A 
BRANCH  15  16
ATOM     16  O   UNL     1     205.420 189.371  -3.137  1.00  0.00    -0.508 OA
ATOM     17  H   UNL     1     204.807 189.442  -3.940  1.00  0.00     0.293 HD
ENDBRANCH  15  16
ENDBRANCH   1  10
TORSDOF 5
ENDMDL
