MODEL 1
REMARK VINA RESULT:    -3.709      0.000      0.000
REMARK INTER + INTRA:          -5.578
REMARK INTER:                  -5.660
REMARK INTRA:                   0.082
REMARK UNBOUND:                 0.082
REMARK SMILES CC1=CCC[C@@H](C)C(=O)C[C@@H](C(C)C)C(=O)C1
REMARK SMILES IDX 8 1 9 2 6 3 7 4 5 5 4 6 3 7 2 8 1 9 10 11 11 12 15 13 16 14
REMARK SMILES IDX 17 15 12 17 13 18 14 19
REMARK H PARENT
REMARK Flexibility Score: 70.00
ROOT
ATOM      1  C   UNL     1     -13.251   2.481 -13.837  1.00  0.00     0.136 C 
ATOM      2  O   UNL     1     -13.749   2.315 -12.732  1.00  0.00    -0.299 OA
ENDROOT
BRANCH   1   3
ATOM      3  C   UNL     1     -14.099   2.304 -15.079  1.00  0.00     0.053 C 
ATOM      4  C   UNL     1     -13.337   1.450 -16.098  1.00  0.00     0.016 C 
BRANCH   3   5
ATOM      5  C   UNL     1     -14.503   3.656 -15.715  1.00  0.00     0.015 C 
BRANCH   5   6
ATOM      6  C   UNL     1     -13.397   4.298 -16.564  1.00  0.00     0.028 C 
BRANCH   6   7
ATOM      7  C   UNL     1     -13.244   5.767 -16.253  1.00  0.00    -0.028 C 
ATOM      8  C   UNL     1     -12.208   6.314 -15.579  1.00  0.00    -0.070 CG0
ATOM      9  C   UNL     1     -12.213   7.806 -15.360  1.00  0.00     0.039 C 
ATOM     10  G   UNL     1     -11.045   5.496 -15.051  1.00  0.00     0.000 G0
ENDBRANCH   6   7
ENDBRANCH   5   6
ENDBRANCH   3   5
ENDBRANCH   1   3
BRANCH   1  11
ATOM     11  C   UNL     1     -11.809   2.917 -13.938  1.00  0.00     0.087 C 
BRANCH  11  12
ATOM     12  C   UNL     1     -11.395   3.972 -12.876  1.00  0.00     0.066 C 
BRANCH  12  13
ATOM     13  C   UNL     1     -11.021   5.287 -13.553  1.00  0.00     0.140 C 
ATOM     14  O   UNL     1     -10.776   6.259 -12.854  1.00  0.00    -0.299 OA
BRANCH  13  15
ATOM     15  C   UNL     1     -11.031   5.478 -15.057  1.00  0.00     0.106 CG0
ATOM     16  G   UNL     1     -12.202   6.292 -15.576  1.00  0.00     0.000 G0
ENDBRANCH  13  15
ENDBRANCH  12  13
BRANCH  12  17
ATOM     17  C   UNL     1     -10.210   3.460 -11.996  1.00  0.00    -0.006 C 
ATOM     18  C   UNL     1     -10.552   2.124 -11.310  1.00  0.00     0.008 C 
ATOM     19  C   UNL     1      -8.916   3.279 -12.811  1.00  0.00     0.008 C 
ENDBRANCH  12  17
ENDBRANCH  11  12
ENDBRANCH   1  11
TORSDOF 1
ENDMDL
MODEL 2
REMARK VINA RESULT:    -3.626      1.879      3.326
REMARK INTER + INTRA:          -5.453
REMARK INTER:                  -5.562
REMARK INTRA:                   0.110
REMARK UNBOUND:                 0.082
REMARK SMILES CC1=CCC[C@@H](C)C(=O)C[C@@H](C(C)C)C(=O)C1
REMARK SMILES IDX 8 1 9 2 6 3 7 4 5 5 4 6 3 7 2 8 1 9 10 11 11 12 15 13 16 14
REMARK SMILES IDX 17 15 12 17 13 18 14 19
REMARK H PARENT
REMARK Flexibility Score: 70.00
ROOT
ATOM      1  C   UNL     1     -11.033   4.524 -13.263  1.00  0.00     0.136 C 
ATOM      2  O   UNL     1     -11.509   4.694 -12.150  1.00  0.00    -0.299 OA
ENDROOT
BRANCH   1   3
ATOM      3  C   UNL     1     -11.132   3.166 -13.926  1.00  0.00     0.053 C 
ATOM      4  C   UNL     1      -9.898   2.939 -14.807  1.00  0.00     0.016 C 
BRANCH   3   5
ATOM      5  C   UNL     1     -12.422   3.012 -14.766  1.00  0.00     0.015 C 
BRANCH   5   6
ATOM      6  C   UNL     1     -12.303   3.565 -16.193  1.00  0.00     0.028 C 
BRANCH   6   7
ATOM      7  C   UNL     1     -13.408   4.548 -16.499  1.00  0.00    -0.028 C 
ATOM      8  C   UNL     1     -13.268   5.892 -16.516  1.00  0.00    -0.070 CG0
ATOM      9  C   UNL     1     -14.480   6.727 -16.846  1.00  0.00     0.039 C 
ATOM     10  G   UNL     1     -11.949   6.587 -16.234  1.00  0.00     0.000 G0
ENDBRANCH   6   7
ENDBRANCH   5   6
ENDBRANCH   3   5
ENDBRANCH   1   3
BRANCH   1  11
ATOM     11  C   UNL     1     -10.404   5.694 -13.982  1.00  0.00     0.087 C 
BRANCH  11  12
ATOM     12  C   UNL     1     -11.131   7.044 -13.741  1.00  0.00     0.066 C 
BRANCH  12  13
ATOM     13  C   UNL     1     -11.911   7.456 -14.985  1.00  0.00     0.140 C 
ATOM     14  O   UNL     1     -12.603   8.463 -14.939  1.00  0.00    -0.299 OA
BRANCH  13  15
ATOM     15  C   UNL     1     -11.950   6.625 -16.253  1.00  0.00     0.106 CG0
ATOM     16  G   UNL     1     -13.268   5.913 -16.493  1.00  0.00     0.000 G0
ENDBRANCH  13  15
ENDBRANCH  12  13
BRANCH  12  17
ATOM     17  C   UNL     1     -10.124   8.169 -13.336  1.00  0.00    -0.006 C 
ATOM     18  C   UNL     1     -10.782   9.212 -12.415  1.00  0.00     0.008 C 
ATOM     19  C   UNL     1      -8.875   7.606 -12.631  1.00  0.00     0.008 C 
ENDBRANCH  12  17
ENDBRANCH  11  12
ENDBRANCH   1  11
TORSDOF 1
ENDMDL
MODEL 3
REMARK VINA RESULT:    -3.606      1.072      1.393
REMARK INTER + INTRA:          -5.421
REMARK INTER:                  -5.495
REMARK INTRA:                   0.074
REMARK UNBOUND:                 0.082
REMARK SMILES CC1=CCC[C@@H](C)C(=O)C[C@@H](C(C)C)C(=O)C1
REMARK SMILES IDX 8 1 9 2 6 3 7 4 5 5 4 6 3 7 2 8 1 9 10 11 11 12 15 13 16 14
REMARK SMILES IDX 17 15 12 17 13 18 14 19
REMARK H PARENT
REMARK Flexibility Score: 70.00
ROOT
ATOM      1  C   UNL     1     -12.823   3.018 -15.045  1.00  0.00     0.136 C 
ATOM      2  O   UNL     1     -13.584   2.387 -14.325  1.00  0.00    -0.299 OA
ENDROOT
BRANCH   1   3
ATOM      3  C   UNL     1     -13.329   3.603 -16.347  1.00  0.00     0.053 C 
ATOM      4  C   UNL     1     -12.236   3.487 -17.415  1.00  0.00     0.016 C 
BRANCH   3   5
ATOM      5  C   UNL     1     -13.774   5.078 -16.198  1.00  0.00     0.015 C 
BRANCH   5   6
ATOM      6  C   UNL     1     -12.739   6.093 -16.705  1.00  0.00     0.028 C 
BRANCH   6   7
ATOM      7  C   UNL     1     -12.534   7.214 -15.715  1.00  0.00    -0.028 C 
ATOM      8  C   UNL     1     -11.627   7.208 -14.713  1.00  0.00    -0.070 CG0
ATOM      9  C   UNL     1     -11.553   8.417 -13.816  1.00  0.00     0.039 C 
ATOM     10  G   UNL     1     -10.679   6.049 -14.466  1.00  0.00     0.000 G0
ENDBRANCH   6   7
ENDBRANCH   5   6
ENDBRANCH   3   5
ENDBRANCH   1   3
BRANCH   1  11
ATOM     11  C   UNL     1     -11.403   3.253 -14.589  1.00  0.00     0.087 C 
BRANCH  11  12
ATOM     12  C   UNL     1     -11.290   3.808 -13.143  1.00  0.00     0.066 C 
BRANCH  12  13
ATOM     13  C   UNL     1     -10.911   5.285 -13.170  1.00  0.00     0.140 C 
ATOM     14  O   UNL     1     -10.883   5.904 -12.116  1.00  0.00    -0.299 OA
BRANCH  13  15
ATOM     15  C   UNL     1     -10.658   6.054 -14.452  1.00  0.00     0.106 CG0
ATOM     16  G   UNL     1     -11.626   7.196 -14.697  1.00  0.00     0.000 G0
ENDBRANCH  13  15
ENDBRANCH  12  13
BRANCH  12  17
ATOM     17  C   UNL     1     -10.251   2.997 -12.302  1.00  0.00    -0.006 C 
ATOM     18  C   UNL     1     -10.944   1.968 -11.389  1.00  0.00     0.008 C 
ATOM     19  C   UNL     1      -9.231   2.261 -13.190  1.00  0.00     0.008 C 
ENDBRANCH  12  17
ENDBRANCH  11  12
ENDBRANCH   1  11
TORSDOF 1
ENDMDL
MODEL 4
REMARK VINA RESULT:    -3.542      2.523      3.962
REMARK INTER + INTRA:          -5.324
REMARK INTER:                  -5.416
REMARK INTRA:                   0.091
REMARK UNBOUND:                 0.082
REMARK SMILES CC1=CCC[C@@H](C)C(=O)C[C@@H](C(C)C)C(=O)C1
REMARK SMILES IDX 8 1 9 2 6 3 7 4 5 5 4 6 3 7 2 8 1 9 10 11 11 12 15 13 16 14
REMARK SMILES IDX 17 15 12 17 13 18 14 19
REMARK H PARENT
REMARK Flexibility Score: 70.00
ROOT
ATOM      1  C   UNL     1     -11.723   4.597 -15.190  1.00  0.00     0.136 C 
ATOM      2  O   UNL     1     -11.143   5.509 -15.761  1.00  0.00    -0.299 OA
ENDROOT
BRANCH   1   3
ATOM      3  C   UNL     1     -12.391   3.505 -16.001  1.00  0.00     0.053 C 
ATOM      4  C   UNL     1     -12.246   3.819 -17.493  1.00  0.00     0.016 C 
BRANCH   3   5
ATOM      5  C   UNL     1     -13.884   3.330 -15.636  1.00  0.00     0.015 C 
BRANCH   5   6
ATOM      6  C   UNL     1     -14.168   2.105 -14.754  1.00  0.00     0.028 C 
BRANCH   6   7
ATOM      7  C   UNL     1     -15.134   2.438 -13.642  1.00  0.00    -0.028 C 
ATOM      8  C   UNL     1     -14.861   2.341 -12.322  1.00  0.00    -0.070 CG0
ATOM      9  C   UNL     1     -15.944   2.719 -11.344  1.00  0.00     0.039 C 
ATOM     10  G   UNL     1     -13.516   1.883 -11.790  1.00  0.00     0.000 G0
ENDBRANCH   6   7
ENDBRANCH   5   6
ENDBRANCH   3   5
ENDBRANCH   1   3
BRANCH   1  11
ATOM     11  C   UNL     1     -11.711   4.545 -13.681  1.00  0.00     0.087 C 
BRANCH  11  12
ATOM     12  C   UNL     1     -11.546   3.114 -13.102  1.00  0.00     0.066 C 
BRANCH  12  13
ATOM     13  C   UNL     1     -12.420   2.939 -11.864  1.00  0.00     0.140 C 
ATOM     14  O   UNL     1     -12.179   3.613 -10.874  1.00  0.00    -0.299 OA
BRANCH  13  15
ATOM     15  C   UNL     1     -13.518   1.897 -11.764  1.00  0.00     0.106 CG0
ATOM     16  G   UNL     1     -14.858   2.346 -12.316  1.00  0.00     0.000 G0
ENDBRANCH  13  15
ENDBRANCH  12  13
BRANCH  12  17
ATOM     17  C   UNL     1     -10.053   2.808 -12.758  1.00  0.00    -0.006 C 
ATOM     18  C   UNL     1      -9.381   1.965 -13.858  1.00  0.00     0.008 C 
ATOM     19  C   UNL     1      -9.228   4.091 -12.548  1.00  0.00     0.008 C 
ENDBRANCH  12  17
ENDBRANCH  11  12
ENDBRANCH   1  11
TORSDOF 1
ENDMDL
MODEL 5
REMARK VINA RESULT:    -3.514      2.283      3.700
REMARK INTER + INTRA:          -5.281
REMARK INTER:                  -5.212
REMARK INTRA:                  -0.069
REMARK UNBOUND:                 0.082
REMARK SMILES CC1=CCC[C@@H](C)C(=O)C[C@@H](C(C)C)C(=O)C1
REMARK SMILES IDX 8 1 9 2 6 3 7 4 5 5 4 6 3 7 2 8 1 9 10 11 11 12 15 13 16 14
REMARK SMILES IDX 17 15 12 17 13 18 14 19
REMARK H PARENT
REMARK Flexibility Score: 70.00
ROOT
ATOM      1  C   UNL     1     -12.579   5.482 -15.979  1.00  0.00     0.136 C 
ATOM      2  O   UNL     1     -13.155   4.543 -16.509  1.00  0.00    -0.299 OA
ENDROOT
BRANCH   1   3
ATOM      3  C   UNL     1     -13.261   6.832 -15.891  1.00  0.00     0.053 C 
ATOM      4  C   UNL     1     -14.133   7.043 -17.133  1.00  0.00     0.016 C 
BRANCH   3   5
ATOM      5  C   UNL     1     -12.250   7.994 -15.745  1.00  0.00     0.015 C 
BRANCH   5   6
ATOM      6  C   UNL     1     -12.429   8.815 -14.460  1.00  0.00     0.028 C 
BRANCH   6   7
ATOM      7  C   UNL     1     -11.101   9.282 -13.914  1.00  0.00    -0.028 C 
ATOM      8  C   UNL     1     -10.358   8.614 -13.005  1.00  0.00    -0.070 CG0
ATOM      9  C   UNL     1      -9.049   9.225 -12.571  1.00  0.00     0.039 C 
ATOM     10  G   UNL     1     -10.777   7.280 -12.417  1.00  0.00     0.000 G0
ENDBRANCH   6   7
ENDBRANCH   5   6
ENDBRANCH   3   5
ENDBRANCH   1   3
BRANCH   1  11
ATOM     11  C   UNL     1     -11.216   5.260 -15.368  1.00  0.00     0.087 C 
BRANCH  11  12
ATOM     12  C   UNL     1     -11.241   5.067 -13.828  1.00  0.00     0.066 C 
BRANCH  12  13
ATOM     13  C   UNL     1     -10.293   6.054 -13.154  1.00  0.00     0.140 C 
ATOM     14  O   UNL     1      -9.095   5.812 -13.155  1.00  0.00    -0.299 OA
BRANCH  13  15
ATOM     15  C   UNL     1     -10.770   7.276 -12.394  1.00  0.00     0.106 CG0
ATOM     16  G   UNL     1     -10.351   8.598 -13.011  1.00  0.00     0.000 G0
ENDBRANCH  13  15
ENDBRANCH  12  13
BRANCH  12  17
ATOM     17  C   UNL     1     -10.869   3.601 -13.431  1.00  0.00    -0.006 C 
ATOM     18  C   UNL     1     -11.602   3.159 -12.151  1.00  0.00     0.008 C 
ATOM     19  C   UNL     1     -11.187   2.596 -14.554  1.00  0.00     0.008 C 
ENDBRANCH  12  17
ENDBRANCH  11  12
ENDBRANCH   1  11
TORSDOF 1
ENDMDL
MODEL 6
REMARK VINA RESULT:    -3.500     15.359     17.441
REMARK INTER + INTRA:          -5.260
REMARK INTER:                  -5.115
REMARK INTRA:                  -0.146
REMARK UNBOUND:                 0.082
REMARK SMILES CC1=CCC[C@@H](C)C(=O)C[C@@H](C(C)C)C(=O)C1
REMARK SMILES IDX 8 1 9 2 6 3 7 4 5 5 4 6 3 7 2 8 1 9 10 11 11 12 15 13 16 14
REMARK SMILES IDX 17 15 12 17 13 18 14 19
REMARK H PARENT
REMARK Flexibility Score: 70.00
ROOT
ATOM      1  C   UNL     1     -27.589   6.391 -20.956  1.00  0.00     0.136 C 
ATOM      2  O   UNL     1     -28.487   5.625 -21.275  1.00  0.00    -0.299 OA
ENDROOT
BRANCH   1   3
ATOM      3  C   UNL     1     -27.773   7.316 -19.771  1.00  0.00     0.053 C 
ATOM      4  C   UNL     1     -28.034   6.483 -18.511  1.00  0.00     0.016 C 
BRANCH   3   5
ATOM      5  C   UNL     1     -28.921   8.330 -19.986  1.00  0.00     0.015 C 
BRANCH   5   6
ATOM      6  C   UNL     1     -28.451   9.703 -20.488  1.00  0.00     0.028 C 
BRANCH   6   7
ATOM      7  C   UNL     1     -28.996  10.004 -21.864  1.00  0.00    -0.028 C 
ATOM      8  C   UNL     1     -28.252  10.107 -22.987  1.00  0.00    -0.070 CG0
ATOM      9  C   UNL     1     -28.962  10.410 -24.283  1.00  0.00     0.039 C 
ATOM     10  G   UNL     1     -26.747   9.921 -22.999  1.00  0.00     0.000 G0
ENDBRANCH   6   7
ENDBRANCH   5   6
ENDBRANCH   3   5
ENDBRANCH   1   3
BRANCH   1  11
ATOM     11  C   UNL     1     -26.286   6.357 -21.718  1.00  0.00     0.087 C 
BRANCH  11  12
ATOM     12  C   UNL     1     -25.634   7.752 -21.912  1.00  0.00     0.066 C 
BRANCH  12  13
ATOM     13  C   UNL     1     -26.284   8.482 -23.084  1.00  0.00     0.140 C 
ATOM     14  O   UNL     1     -26.374   7.907 -24.159  1.00  0.00    -0.299 OA
BRANCH  13  15
ATOM     15  C   UNL     1     -26.740   9.927 -23.011  1.00  0.00     0.106 CG0
ATOM     16  G   UNL     1     -28.247  10.106 -22.986  1.00  0.00     0.000 G0
ENDBRANCH  13  15
ENDBRANCH  12  13
BRANCH  12  17
ATOM     17  C   UNL     1     -24.092   7.635 -22.136  1.00  0.00    -0.006 C 
ATOM     18  C   UNL     1     -23.469   8.995 -22.502  1.00  0.00     0.008 C 
ATOM     19  C   UNL     1     -23.365   7.077 -20.898  1.00  0.00     0.008 C 
ENDBRANCH  12  17
ENDBRANCH  11  12
ENDBRANCH   1  11
TORSDOF 1
ENDMDL
MODEL 7
REMARK VINA RESULT:    -3.403      2.225      5.023
REMARK INTER + INTRA:          -5.112
REMARK INTER:                  -5.216
REMARK INTRA:                   0.105
REMARK UNBOUND:                 0.082
REMARK SMILES CC1=CCC[C@@H](C)C(=O)C[C@@H](C(C)C)C(=O)C1
REMARK SMILES IDX 8 1 9 2 6 3 7 4 5 5 4 6 3 7 2 8 1 9 10 11 11 12 15 13 16 14
REMARK SMILES IDX 17 15 12 17 13 18 14 19
REMARK H PARENT
REMARK Flexibility Score: 70.00
ROOT
ATOM      1  C   UNL     1     -11.442   6.427 -14.565  1.00  0.00     0.136 C 
ATOM      2  O   UNL     1     -12.431   6.983 -15.021  1.00  0.00    -0.299 OA
ENDROOT
BRANCH   1   3
ATOM      3  C   UNL     1     -10.773   6.980 -13.323  1.00  0.00     0.053 C 
ATOM      4  C   UNL     1     -10.711   8.508 -13.417  1.00  0.00     0.016 C 
BRANCH   3   5
ATOM      5  C   UNL     1      -9.354   6.401 -13.110  1.00  0.00     0.015 C 
BRANCH   5   6
ATOM      6  C   UNL     1      -9.252   5.425 -11.929  1.00  0.00     0.028 C 
BRANCH   6   7
ATOM      7  C   UNL     1     -10.615   5.092 -11.369  1.00  0.00    -0.028 C 
ATOM      8  C   UNL     1     -11.275   3.931 -11.574  1.00  0.00    -0.070 CG0
ATOM      9  C   UNL     1     -12.630   3.764 -10.934  1.00  0.00     0.039 C 
ATOM     10  G   UNL     1     -10.707   2.796 -12.404  1.00  0.00     0.000 G0
ENDBRANCH   6   7
ENDBRANCH   5   6
ENDBRANCH   3   5
ENDBRANCH   1   3
BRANCH   1  11
ATOM     11  C   UNL     1     -10.941   5.161 -15.217  1.00  0.00     0.087 C 
BRANCH  11  12
ATOM     12  C   UNL     1     -11.604   3.867 -14.672  1.00  0.00     0.066 C 
BRANCH  12  13
ATOM     13  C   UNL     1     -10.591   3.046 -13.880  1.00  0.00     0.140 C 
ATOM     14  O   UNL     1      -9.673   2.506 -14.480  1.00  0.00    -0.299 OA
BRANCH  13  15
ATOM     15  C   UNL     1     -10.719   2.782 -12.392  1.00  0.00     0.106 CG0
ATOM     16  G   UNL     1     -11.272   3.949 -11.595  1.00  0.00     0.000 G0
ENDBRANCH  13  15
ENDBRANCH  12  13
BRANCH  12  17
ATOM     17  C   UNL     1     -12.213   3.009 -15.827  1.00  0.00    -0.006 C 
ATOM     18  C   UNL     1     -13.446   2.218 -15.353  1.00  0.00     0.008 C 
ATOM     19  C   UNL     1     -12.614   3.867 -17.041  1.00  0.00     0.008 C 
ENDBRANCH  12  17
ENDBRANCH  11  12
ENDBRANCH   1  11
TORSDOF 1
ENDMDL
MODEL 8
REMARK VINA RESULT:    -3.336      2.528      5.416
REMARK INTER + INTRA:          -5.009
REMARK INTER:                  -4.786
REMARK INTRA:                  -0.224
REMARK UNBOUND:                 0.082
REMARK SMILES CC1=CCC[C@@H](C)C(=O)C[C@@H](C(C)C)C(=O)C1
REMARK SMILES IDX 8 1 9 2 6 3 7 4 5 5 4 6 3 7 2 8 1 9 10 11 11 12 15 13 16 14
REMARK SMILES IDX 17 15 12 17 13 18 14 19
REMARK H PARENT
REMARK Flexibility Score: 70.00
ROOT
ATOM      1  C   UNL     1      -9.691   2.992 -13.831  1.00  0.00     0.136 C 
ATOM      2  O   UNL     1      -9.271   3.677 -14.753  1.00  0.00    -0.299 OA
ENDROOT
BRANCH   1   3
ATOM      3  C   UNL     1      -8.963   2.990 -12.503  1.00  0.00     0.053 C 
ATOM      4  C   UNL     1      -8.955   1.568 -11.930  1.00  0.00     0.016 C 
BRANCH   3   5
ATOM      5  C   UNL     1      -9.592   3.970 -11.484  1.00  0.00     0.015 C 
BRANCH   5   6
ATOM      6  C   UNL     1     -10.039   3.303 -10.175  1.00  0.00     0.028 C 
BRANCH   6   7
ATOM      7  C   UNL     1     -11.447   3.704  -9.804  1.00  0.00    -0.028 C 
ATOM      8  C   UNL     1     -12.570   3.162 -10.322  1.00  0.00    -0.070 CG0
ATOM      9  C   UNL     1     -13.899   3.680  -9.834  1.00  0.00     0.039 C 
ATOM     10  G   UNL     1     -12.549   2.053 -11.358  1.00  0.00     0.000 G0
ENDBRANCH   6   7
ENDBRANCH   5   6
ENDBRANCH   3   5
ENDBRANCH   1   3
BRANCH   1  11
ATOM     11  C   UNL     1     -10.965   2.204 -14.019  1.00  0.00     0.087 C 
BRANCH  11  12
ATOM     12  C   UNL     1     -12.257   3.044 -13.830  1.00  0.00     0.066 C 
BRANCH  12  13
ATOM     13  C   UNL     1     -13.119   2.448 -12.721  1.00  0.00     0.140 C 
ATOM     14  O   UNL     1     -14.324   2.354 -12.899  1.00  0.00    -0.299 OA
BRANCH  13  15
ATOM     15  C   UNL     1     -12.568   2.054 -11.364  1.00  0.00     0.106 CG0
ATOM     16  G   UNL     1     -12.582   3.169 -10.335  1.00  0.00     0.000 G0
ENDBRANCH  13  15
ENDBRANCH  12  13
BRANCH  12  17
ATOM     17  C   UNL     1     -13.075   3.138 -15.159  1.00  0.00    -0.006 C 
ATOM     18  C   UNL     1     -12.587   4.302 -16.040  1.00  0.00     0.008 C 
ATOM     19  C   UNL     1     -13.006   1.836 -15.978  1.00  0.00     0.008 C 
ENDBRANCH  12  17
ENDBRANCH  11  12
ENDBRANCH   1  11
TORSDOF 1
ENDMDL
MODEL 9
REMARK VINA RESULT:    -3.309      3.468      5.964
REMARK INTER + INTRA:          -4.969
REMARK INTER:                  -4.550
REMARK INTRA:                  -0.419
REMARK UNBOUND:                 0.082
REMARK SMILES CC1=CCC[C@@H](C)C(=O)C[C@@H](C(C)C)C(=O)C1
REMARK SMILES IDX 8 1 9 2 6 3 7 4 5 5 4 6 3 7 2 8 1 9 10 11 11 12 15 13 16 14
REMARK SMILES IDX 17 15 12 17 13 18 14 19
REMARK H PARENT
REMARK Flexibility Score: 70.00
ROOT
ATOM      1  C   UNL     1     -13.656   3.182 -10.790  1.00  0.00     0.136 C 
ATOM      2  O   UNL     1     -14.286   3.993 -10.127  1.00  0.00    -0.299 OA
ENDROOT
BRANCH   1   3
ATOM      3  C   UNL     1     -14.295   1.865 -11.179  1.00  0.00     0.053 C 
ATOM      4  C   UNL     1     -15.691   2.128 -11.755  1.00  0.00     0.016 C 
BRANCH   3   5
ATOM      5  C   UNL     1     -14.387   0.880  -9.989  1.00  0.00     0.015 C 
BRANCH   5   6
ATOM      6  C   UNL     1     -13.223   0.998  -8.994  1.00  0.00     0.028 C 
BRANCH   6   7
ATOM      7  C   UNL     1     -12.196  -0.085  -9.216  1.00  0.00    -0.028 C 
ATOM      8  C   UNL     1     -10.951   0.115  -9.703  1.00  0.00    -0.070 CG0
ATOM      9  C   UNL     1     -10.049  -1.084  -9.857  1.00  0.00     0.039 C 
ATOM     10  G   UNL     1     -10.424   1.486 -10.083  1.00  0.00     0.000 G0
ENDBRANCH   6   7
ENDBRANCH   5   6
ENDBRANCH   3   5
ENDBRANCH   1   3
BRANCH   1  11
ATOM     11  C   UNL     1     -12.265   3.537 -11.261  1.00  0.00     0.087 C 
BRANCH  11  12
ATOM     12  C   UNL     1     -11.648   2.500 -12.237  1.00  0.00     0.066 C 
BRANCH  12  13
ATOM     13  C   UNL     1     -10.463   1.796 -11.583  1.00  0.00     0.140 C 
ATOM     14  O   UNL     1      -9.552   1.396 -12.293  1.00  0.00    -0.299 OA
BRANCH  13  15
ATOM     15  C   UNL     1     -10.400   1.480 -10.102  1.00  0.00     0.106 CG0
ATOM     16  G   UNL     1     -10.959   0.119  -9.729  1.00  0.00     0.000 G0
ENDBRANCH  13  15
ENDBRANCH  12  13
BRANCH  12  17
ATOM     17  C   UNL     1     -11.206   3.171 -13.578  1.00  0.00    -0.006 C 
ATOM     18  C   UNL     1     -12.226   2.913 -14.702  1.00  0.00     0.008 C 
ATOM     19  C   UNL     1     -11.010   4.692 -13.430  1.00  0.00     0.008 C 
ENDBRANCH  12  17
ENDBRANCH  11  12
ENDBRANCH   1  11
TORSDOF 1
ENDMDL
