MODEL 1
REMARK VINA RESULT:    -5.509      0.000      0.000
REMARK INTER + INTRA:          -9.465
REMARK INTER:                  -8.407
REMARK INTRA:                  -1.058
REMARK UNBOUND:                -1.058
REMARK SMILES CC(=O)CCC=C(C)CCC=C(C)CCC=C(C)C
REMARK SMILES IDX 10 1 11 2 12 3 13 4 14 5 15 6 16 7 18 8 17 9 19 10 9 11 7 12
REMARK SMILES IDX 6 13 8 14 5 15 4 16 2 17 3 18 1 19
REMARK H PARENT
REMARK Flexibility Score: inf
ROOT
ATOM      1  C   UNL     1      76.081  35.111  51.837  1.00  0.00     0.032 C 
ENDROOT
BRANCH   1   2
ATOM      2  C   UNL     1      75.293  35.814  52.912  1.00  0.00    -0.028 C 
ATOM      3  C   UNL     1      74.292  35.251  53.629  1.00  0.00    -0.077 C 
ATOM      4  C   UNL     1      73.565  36.110  54.632  1.00  0.00     0.039 C 
BRANCH   3   5
ATOM      5  C   UNL     1      73.896  33.792  53.490  1.00  0.00     0.034 C 
BRANCH   5   6
ATOM      6  C   UNL     1      72.559  33.489  54.182  1.00  0.00     0.032 C 
BRANCH   6   7
ATOM      7  C   UNL     1      72.771  32.986  55.590  1.00  0.00    -0.028 C 
ATOM      8  C   UNL     1      72.280  32.635  57.972  1.00  0.00     0.039 C 
ATOM      9  C   UNL     1      71.969  33.269  56.640  1.00  0.00    -0.080 C 
ATOM     10  C   UNL     1      70.781  34.193  56.516  1.00  0.00     0.039 C 
ENDBRANCH   6   7
ENDBRANCH   5   6
ENDBRANCH   3   5
ENDBRANCH   1   2
BRANCH   1  11
ATOM     11  C   UNL     1      76.740  36.125  50.895  1.00  0.00     0.034 C 
BRANCH  11  12
ATOM     12  C   UNL     1      78.234  35.897  50.824  1.00  0.00    -0.077 C 
ATOM     13  C   UNL     1      78.930  35.760  51.975  1.00  0.00    -0.028 C 
ATOM     14  C   UNL     1      78.902  35.806  49.472  1.00  0.00     0.039 C 
BRANCH  13  15
ATOM     15  C   UNL     1      80.425  35.582  52.050  1.00  0.00     0.035 C 
BRANCH  15  16
ATOM     16  C   UNL     1      80.777  34.234  52.687  1.00  0.00     0.079 C 
BRANCH  16  17
ATOM     17  C   UNL     1      80.402  33.099  51.774  1.00  0.00     0.130 C 
ATOM     18  O   UNL     1      80.787  33.099  50.615  1.00  0.00    -0.300 OA
ATOM     19  C   UNL     1      79.541  31.978  52.273  1.00  0.00     0.087 C 
ENDBRANCH  16  17
ENDBRANCH  15  16
ENDBRANCH  13  15
ENDBRANCH  11  12
ENDBRANCH   1  11
TORSDOF 9
ENDMDL
MODEL 2
REMARK VINA RESULT:    -5.241      2.945      7.908
REMARK INTER + INTRA:          -9.056
REMARK INTER:                  -7.736
REMARK INTRA:                  -1.320
REMARK UNBOUND:                -1.058
REMARK SMILES CC(=O)CCC=C(C)CCC=C(C)CCC=C(C)C
REMARK SMILES IDX 10 1 11 2 12 3 13 4 14 5 15 6 16 7 18 8 17 9 19 10 9 11 7 12
REMARK SMILES IDX 6 13 8 14 5 15 4 16 2 17 3 18 1 19
REMARK H PARENT
REMARK Flexibility Score: inf
ROOT
ATOM      1  C   UNL     1      76.457  35.424  52.255  1.00  0.00     0.032 C 
ENDROOT
BRANCH   1   2
ATOM      2  C   UNL     1      77.256  35.477  50.977  1.00  0.00    -0.028 C 
ATOM      3  C   UNL     1      78.561  35.824  50.898  1.00  0.00    -0.077 C 
ATOM      4  C   UNL     1      79.201  35.881  49.534  1.00  0.00     0.039 C 
BRANCH   3   5
ATOM      5  C   UNL     1      79.413  36.125  52.118  1.00  0.00     0.034 C 
BRANCH   5   6
ATOM      6  C   UNL     1      80.600  35.160  52.246  1.00  0.00     0.032 C 
BRANCH   6   7
ATOM      7  C   UNL     1      80.138  33.762  52.584  1.00  0.00    -0.028 C 
ATOM      8  C   UNL     1      79.867  31.336  52.313  1.00  0.00     0.039 C 
ATOM      9  C   UNL     1      80.331  32.676  51.804  1.00  0.00    -0.080 C 
ATOM     10  C   UNL     1      80.996  32.767  50.451  1.00  0.00     0.039 C 
ENDBRANCH   6   7
ENDBRANCH   5   6
ENDBRANCH   3   5
ENDBRANCH   1   2
BRANCH   1  11
ATOM     11  C   UNL     1      75.682  34.105  52.356  1.00  0.00     0.034 C 
BRANCH  11  12
ATOM     12  C   UNL     1      74.269  34.351  52.838  1.00  0.00    -0.077 C 
ATOM     13  C   UNL     1      73.797  33.627  53.879  1.00  0.00    -0.028 C 
ATOM     14  C   UNL     1      73.434  35.412  52.162  1.00  0.00     0.039 C 
BRANCH  13  15
ATOM     15  C   UNL     1      72.396  33.733  54.424  1.00  0.00     0.035 C 
BRANCH  15  16
ATOM     16  C   UNL     1      72.397  34.442  55.782  1.00  0.00     0.079 C 
BRANCH  16  17
ATOM     17  C   UNL     1      71.473  33.749  56.746  1.00  0.00     0.130 C 
ATOM     18  O   UNL     1      70.285  34.035  56.759  1.00  0.00    -0.300 OA
ATOM     19  C   UNL     1      72.003  32.727  57.704  1.00  0.00     0.087 C 
ENDBRANCH  16  17
ENDBRANCH  15  16
ENDBRANCH  13  15
ENDBRANCH  11  12
ENDBRANCH   1  11
TORSDOF 9
ENDMDL
MODEL 3
REMARK VINA RESULT:    -4.626      3.229      8.292
REMARK INTER + INTRA:          -8.118
REMARK INTER:                  -7.595
REMARK INTRA:                  -0.523
REMARK UNBOUND:                -1.058
REMARK SMILES CC(=O)CCC=C(C)CCC=C(C)CCC=C(C)C
REMARK SMILES IDX 10 1 11 2 12 3 13 4 14 5 15 6 16 7 18 8 17 9 19 10 9 11 7 12
REMARK SMILES IDX 6 13 8 14 5 15 4 16 2 17 3 18 1 19
REMARK H PARENT
REMARK Flexibility Score: inf
ROOT
ATOM      1  C   UNL     1      74.834  35.890  51.835  1.00  0.00     0.032 C 
ENDROOT
BRANCH   1   2
ATOM      2  C   UNL     1      75.611  34.610  52.015  1.00  0.00    -0.028 C 
ATOM      3  C   UNL     1      76.951  34.493  51.865  1.00  0.00    -0.077 C 
ATOM      4  C   UNL     1      77.568  33.128  52.027  1.00  0.00     0.039 C 
BRANCH   3   5
ATOM      5  C   UNL     1      77.856  35.677  51.576  1.00  0.00     0.034 C 
BRANCH   5   6
ATOM      6  C   UNL     1      79.342  35.297  51.641  1.00  0.00     0.032 C 
BRANCH   6   7
ATOM      7  C   UNL     1      79.861  34.874  50.286  1.00  0.00    -0.028 C 
ATOM      8  C   UNL     1      80.939  33.425  48.622  1.00  0.00     0.039 C 
ATOM      9  C   UNL     1      80.547  33.735  50.044  1.00  0.00    -0.080 C 
ATOM     10  C   UNL     1      80.925  32.775  51.146  1.00  0.00     0.039 C 
ENDBRANCH   6   7
ENDBRANCH   5   6
ENDBRANCH   3   5
ENDBRANCH   1   2
BRANCH   1  11
ATOM     11  C   UNL     1      73.371  35.700  52.252  1.00  0.00     0.034 C 
BRANCH  11  12
ATOM     12  C   UNL     1      73.282  35.052  53.616  1.00  0.00    -0.077 C 
ATOM     13  C   UNL     1      72.607  33.888  53.746  1.00  0.00    -0.028 C 
ATOM     14  C   UNL     1      73.970  35.709  54.789  1.00  0.00     0.039 C 
BRANCH  13  15
ATOM     15  C   UNL     1      72.398  33.165  55.052  1.00  0.00     0.035 C 
BRANCH  15  16
ATOM     16  C   UNL     1      71.406  33.925  55.937  1.00  0.00     0.079 C 
BRANCH  16  17
ATOM     17  C   UNL     1      71.267  33.258  57.278  1.00  0.00     0.130 C 
ATOM     18  O   UNL     1      70.177  33.223  57.829  1.00  0.00    -0.300 OA
ATOM     19  C   UNL     1      72.462  32.656  57.952  1.00  0.00     0.087 C 
ENDBRANCH  16  17
ENDBRANCH  15  16
ENDBRANCH  13  15
ENDBRANCH  11  12
ENDBRANCH   1  11
TORSDOF 9
ENDMDL
MODEL 4
REMARK VINA RESULT:    -4.338      2.798      8.061
REMARK INTER + INTRA:          -7.678
REMARK INTER:                  -6.945
REMARK INTRA:                  -0.733
REMARK UNBOUND:                -1.058
REMARK SMILES CC(=O)CCC=C(C)CCC=C(C)CCC=C(C)C
REMARK SMILES IDX 10 1 11 2 12 3 13 4 14 5 15 6 16 7 18 8 17 9 19 10 9 11 7 12
REMARK SMILES IDX 6 13 8 14 5 15 4 16 2 17 3 18 1 19
REMARK H PARENT
REMARK Flexibility Score: inf
ROOT
ATOM      1  C   UNL     1      76.150  35.850  51.662  1.00  0.00     0.032 C 
ENDROOT
BRANCH   1   2
ATOM      2  C   UNL     1      76.783  34.481  51.685  1.00  0.00    -0.028 C 
ATOM      3  C   UNL     1      78.050  34.224  52.083  1.00  0.00    -0.077 C 
ATOM      4  C   UNL     1      78.549  32.805  51.994  1.00  0.00     0.039 C 
BRANCH   3   5
ATOM      5  C   UNL     1      78.974  35.291  52.643  1.00  0.00     0.034 C 
BRANCH   5   6
ATOM      6  C   UNL     1      80.009  35.758  51.610  1.00  0.00     0.032 C 
BRANCH   6   7
ATOM      7  C   UNL     1      80.399  34.636  50.677  1.00  0.00    -0.028 C 
ATOM      8  C   UNL     1      80.835  33.516  48.534  1.00  0.00     0.039 C 
ATOM      9  C   UNL     1      80.348  34.701  49.328  1.00  0.00    -0.080 C 
ATOM     10  C   UNL     1      79.823  35.916  48.602  1.00  0.00     0.039 C 
ENDBRANCH   6   7
ENDBRANCH   5   6
ENDBRANCH   3   5
ENDBRANCH   1   2
BRANCH   1  11
ATOM     11  C   UNL     1      75.403  36.125  52.972  1.00  0.00     0.034 C 
BRANCH  11  12
ATOM     12  C   UNL     1      74.057  35.436  52.975  1.00  0.00    -0.077 C 
ATOM     13  C   UNL     1      73.740  34.621  54.008  1.00  0.00    -0.028 C 
ATOM     14  C   UNL     1      73.094  35.694  51.840  1.00  0.00     0.039 C 
BRANCH  13  15
ATOM     15  C   UNL     1      72.459  33.834  54.110  1.00  0.00     0.035 C 
BRANCH  15  16
ATOM     16  C   UNL     1      72.602  32.699  55.129  1.00  0.00     0.079 C 
BRANCH  16  17
ATOM     17  C   UNL     1      72.044  33.109  56.464  1.00  0.00     0.130 C 
ATOM     18  O   UNL     1      72.460  32.579  57.484  1.00  0.00    -0.300 OA
ATOM     19  C   UNL     1      70.966  34.145  56.550  1.00  0.00     0.087 C 
ENDBRANCH  16  17
ENDBRANCH  15  16
ENDBRANCH  13  15
ENDBRANCH  11  12
ENDBRANCH   1  11
TORSDOF 9
ENDMDL
MODEL 5
REMARK VINA RESULT:    -4.225      1.156      1.533
REMARK INTER + INTRA:          -7.506
REMARK INTER:                  -6.613
REMARK INTRA:                  -0.893
REMARK UNBOUND:                -1.058
REMARK SMILES CC(=O)CCC=C(C)CCC=C(C)CCC=C(C)C
REMARK SMILES IDX 10 1 11 2 12 3 13 4 14 5 15 6 16 7 18 8 17 9 19 10 9 11 7 12
REMARK SMILES IDX 6 13 8 14 5 15 4 16 2 17 3 18 1 19
REMARK H PARENT
REMARK Flexibility Score: inf
ROOT
ATOM      1  C   UNL     1      74.823  35.289  51.497  1.00  0.00     0.032 C 
ENDROOT
BRANCH   1   2
ATOM      2  C   UNL     1      74.337  35.890  52.791  1.00  0.00    -0.028 C 
ATOM      3  C   UNL     1      73.756  35.192  53.795  1.00  0.00    -0.077 C 
ATOM      4  C   UNL     1      73.274  35.953  55.004  1.00  0.00     0.039 C 
BRANCH   3   5
ATOM      5  C   UNL     1      73.600  33.682  53.770  1.00  0.00     0.034 C 
BRANCH   5   6
ATOM      6  C   UNL     1      72.352  33.218  54.535  1.00  0.00     0.032 C 
BRANCH   6   7
ATOM      7  C   UNL     1      72.683  32.877  55.969  1.00  0.00    -0.028 C 
ATOM      8  C   UNL     1      72.337  32.693  58.394  1.00  0.00     0.039 C 
ATOM      9  C   UNL     1      71.896  33.159  57.031  1.00  0.00    -0.080 C 
ATOM     10  C   UNL     1      70.599  33.919  56.889  1.00  0.00     0.039 C 
ENDBRANCH   6   7
ENDBRANCH   5   6
ENDBRANCH   3   5
ENDBRANCH   1   2
BRANCH   1  11
ATOM     11  C   UNL     1      75.965  36.125  50.906  1.00  0.00     0.034 C 
BRANCH  11  12
ATOM     12  C   UNL     1      77.294  35.428  51.100  1.00  0.00    -0.077 C 
ATOM     13  C   UNL     1      78.405  35.975  50.557  1.00  0.00    -0.028 C 
ATOM     14  C   UNL     1      77.347  34.157  51.914  1.00  0.00     0.039 C 
BRANCH  13  15
ATOM     15  C   UNL     1      79.779  35.360  50.629  1.00  0.00     0.035 C 
BRANCH  15  16
ATOM     16  C   UNL     1      80.505  35.808  51.901  1.00  0.00     0.079 C 
BRANCH  16  17
ATOM     17  C   UNL     1      81.072  34.624  52.636  1.00  0.00     0.130 C 
ATOM     18  O   UNL     1      81.810  34.801  53.594  1.00  0.00    -0.300 OA
ATOM     19  C   UNL     1      80.755  33.230  52.187  1.00  0.00     0.087 C 
ENDBRANCH  16  17
ENDBRANCH  15  16
ENDBRANCH  13  15
ENDBRANCH  11  12
ENDBRANCH   1  11
TORSDOF 9
ENDMDL
MODEL 6
REMARK VINA RESULT:    -4.034      1.628      2.743
REMARK INTER + INTRA:          -7.214
REMARK INTER:                  -6.474
REMARK INTRA:                  -0.740
REMARK UNBOUND:                -1.058
REMARK SMILES CC(=O)CCC=C(C)CCC=C(C)CCC=C(C)C
REMARK SMILES IDX 10 1 11 2 12 3 13 4 14 5 15 6 16 7 18 8 17 9 19 10 9 11 7 12
REMARK SMILES IDX 6 13 8 14 5 15 4 16 2 17 3 18 1 19
REMARK H PARENT
REMARK Flexibility Score: inf
ROOT
ATOM      1  C   UNL     1      76.140  32.722  52.918  1.00  0.00     0.032 C 
ENDROOT
BRANCH   1   2
ATOM      2  C   UNL     1      75.354  33.814  52.239  1.00  0.00    -0.028 C 
ATOM      3  C   UNL     1      74.384  34.549  52.830  1.00  0.00    -0.077 C 
ATOM      4  C   UNL     1      73.654  35.569  51.994  1.00  0.00     0.039 C 
BRANCH   3   5
ATOM      5  C   UNL     1      74.023  34.414  54.299  1.00  0.00     0.034 C 
BRANCH   5   6
ATOM      6  C   UNL     1      73.067  33.240  54.553  1.00  0.00     0.032 C 
BRANCH   6   7
ATOM      7  C   UNL     1      71.796  33.703  55.224  1.00  0.00    -0.028 C 
ATOM      8  C   UNL     1      70.206  34.077  57.060  1.00  0.00     0.039 C 
ATOM      9  C   UNL     1      71.488  33.494  56.523  1.00  0.00    -0.080 C 
ATOM     10  C   UNL     1      72.386  32.701  57.443  1.00  0.00     0.039 C 
ENDBRANCH   6   7
ENDBRANCH   5   6
ENDBRANCH   3   5
ENDBRANCH   1   2
BRANCH   1  11
ATOM     11  C   UNL     1      77.101  32.050  51.931  1.00  0.00     0.034 C 
BRANCH  11  12
ATOM     12  C   UNL     1      78.507  32.577  52.111  1.00  0.00    -0.077 C 
ATOM     13  C   UNL     1      78.721  33.911  52.039  1.00  0.00    -0.028 C 
ATOM     14  C   UNL     1      79.629  31.605  52.391  1.00  0.00     0.039 C 
BRANCH  13  15
ATOM     15  C   UNL     1      80.074  34.565  52.147  1.00  0.00     0.035 C 
BRANCH  15  16
ATOM     16  C   UNL     1      80.158  35.790  51.233  1.00  0.00     0.079 C 
BRANCH  16  17
ATOM     17  C   UNL     1      79.776  35.430  49.823  1.00  0.00     0.130 C 
ATOM     18  O   UNL     1      78.869  36.031  49.267  1.00  0.00    -0.300 OA
ATOM     19  C   UNL     1      80.486  34.323  49.104  1.00  0.00     0.087 C 
ENDBRANCH  16  17
ENDBRANCH  15  16
ENDBRANCH  13  15
ENDBRANCH  11  12
ENDBRANCH   1  11
TORSDOF 9
ENDMDL
MODEL 7
REMARK VINA RESULT:    -3.246      2.748      7.497
REMARK INTER + INTRA:          -6.012
REMARK INTER:                  -5.907
REMARK INTRA:                  -0.105
REMARK UNBOUND:                -1.058
REMARK SMILES CC(=O)CCC=C(C)CCC=C(C)CCC=C(C)C
REMARK SMILES IDX 10 1 11 2 12 3 13 4 14 5 15 6 16 7 18 8 17 9 19 10 9 11 7 12
REMARK SMILES IDX 6 13 8 14 5 15 4 16 2 17 3 18 1 19
REMARK H PARENT
REMARK Flexibility Score: inf
ROOT
ATOM      1  C   UNL     1      76.749  35.676  51.838  1.00  0.00     0.032 C 
ENDROOT
BRANCH   1   2
ATOM      2  C   UNL     1      77.698  35.595  50.670  1.00  0.00    -0.028 C 
ATOM      3  C   UNL     1      79.029  35.829  50.739  1.00  0.00    -0.077 C 
ATOM      4  C   UNL     1      79.832  35.759  49.466  1.00  0.00     0.039 C 
BRANCH   3   5
ATOM      5  C   UNL     1      79.749  36.125  52.043  1.00  0.00     0.034 C 
BRANCH   5   6
ATOM      6  C   UNL     1      80.240  34.846  52.735  1.00  0.00     0.032 C 
BRANCH   6   7
ATOM      7  C   UNL     1      80.705  33.820  51.728  1.00  0.00    -0.028 C 
ATOM      8  C   UNL     1      80.671  31.730  50.438  1.00  0.00     0.039 C 
ATOM      9  C   UNL     1      80.127  32.615  51.530  1.00  0.00    -0.080 C 
ATOM     10  C   UNL     1      78.962  32.137  52.363  1.00  0.00     0.039 C 
ENDBRANCH   6   7
ENDBRANCH   5   6
ENDBRANCH   3   5
ENDBRANCH   1   2
BRANCH   1  11
ATOM     11  C   UNL     1      75.357  36.123  51.376  1.00  0.00     0.034 C 
BRANCH  11  12
ATOM     12  C   UNL     1      74.316  35.797  52.424  1.00  0.00    -0.077 C 
ATOM     13  C   UNL     1      74.643  35.916  53.731  1.00  0.00    -0.028 C 
ATOM     14  C   UNL     1      72.935  35.372  51.984  1.00  0.00     0.039 C 
BRANCH  13  15
ATOM     15  C   UNL     1      73.722  35.574  54.874  1.00  0.00     0.035 C 
BRANCH  15  16
ATOM     16  C   UNL     1      72.971  34.270  54.591  1.00  0.00     0.079 C 
BRANCH  16  17
ATOM     17  C   UNL     1      72.376  33.712  55.855  1.00  0.00     0.130 C 
ATOM     18  O   UNL     1      71.316  34.152  56.273  1.00  0.00    -0.300 OA
ATOM     19  C   UNL     1      73.088  32.635  56.617  1.00  0.00     0.087 C 
ENDBRANCH  16  17
ENDBRANCH  15  16
ENDBRANCH  13  15
ENDBRANCH  11  12
ENDBRANCH   1  11
TORSDOF 9
ENDMDL
MODEL 8
REMARK VINA RESULT:    -2.521      1.427      2.196
REMARK INTER + INTRA:          -4.906
REMARK INTER:                  -4.381
REMARK INTRA:                  -0.525
REMARK UNBOUND:                -1.058
REMARK SMILES CC(=O)CCC=C(C)CCC=C(C)CCC=C(C)C
REMARK SMILES IDX 10 1 11 2 12 3 13 4 14 5 15 6 16 7 18 8 17 9 19 10 9 11 7 12
REMARK SMILES IDX 6 13 8 14 5 15 4 16 2 17 3 18 1 19
REMARK H PARENT
REMARK Flexibility Score: inf
ROOT
ATOM      1  C   UNL     1      75.408  33.345  52.747  1.00  0.00     0.032 C 
ENDROOT
BRANCH   1   2
ATOM      2  C   UNL     1      74.382  34.183  52.028  1.00  0.00    -0.028 C 
ATOM      3  C   UNL     1      73.843  35.326  52.512  1.00  0.00    -0.077 C 
ATOM      4  C   UNL     1      72.786  36.018  51.690  1.00  0.00     0.039 C 
BRANCH   3   5
ATOM      5  C   UNL     1      74.279  35.955  53.823  1.00  0.00     0.034 C 
BRANCH   5   6
ATOM      6  C   UNL     1      73.119  36.070  54.822  1.00  0.00     0.032 C 
BRANCH   6   7
ATOM      7  C   UNL     1      73.130  34.928  55.811  1.00  0.00    -0.028 C 
ATOM      8  C   UNL     1      72.705  32.666  56.667  1.00  0.00     0.039 C 
ATOM      9  C   UNL     1      72.548  33.726  55.608  1.00  0.00    -0.080 C 
ATOM     10  C   UNL     1      71.755  33.418  54.360  1.00  0.00     0.039 C 
ENDBRANCH   6   7
ENDBRANCH   5   6
ENDBRANCH   3   5
ENDBRANCH   1   2
BRANCH   1  11
ATOM     11  C   UNL     1      76.675  33.189  51.896  1.00  0.00     0.034 C 
BRANCH  11  12
ATOM     12  C   UNL     1      77.374  34.520  51.730  1.00  0.00    -0.077 C 
ATOM     13  C   UNL     1      78.447  34.797  52.506  1.00  0.00    -0.028 C 
ATOM     14  C   UNL     1      76.872  35.492  50.689  1.00  0.00     0.039 C 
BRANCH  13  15
ATOM     15  C   UNL     1      79.203  36.101  52.481  1.00  0.00     0.035 C 
BRANCH  15  16
ATOM     16  C   UNL     1      80.496  35.960  51.673  1.00  0.00     0.079 C 
BRANCH  16  17
ATOM     17  C   UNL     1      80.509  34.664  50.909  1.00  0.00     0.130 C 
ATOM     18  O   UNL     1      80.745  33.617  51.493  1.00  0.00    -0.300 OA
ATOM     19  C   UNL     1      80.257  34.653  49.432  1.00  0.00     0.087 C 
ENDBRANCH  16  17
ENDBRANCH  15  16
ENDBRANCH  13  15
ENDBRANCH  11  12
ENDBRANCH   1  11
TORSDOF 9
ENDMDL
