MODEL 1
REMARK VINA RESULT:    -3.538      0.000      0.000
REMARK INTER + INTRA:          -7.022
REMARK INTER:                  -5.192
REMARK INTRA:                  -1.830
REMARK UNBOUND:                -1.830
REMARK SMILES O=c1c(O[C@@H]2O[C@@H](CO)[C@H](O)[C@@H](O)[C@@H]2O)c(-c2ccc(O)c(O)c2)oc2cc(O)cc(O)c12
REMARK SMILES IDX 4 1 3 2 16 3 25 4 2 5 26 6 1 7 33 8 27 9 31 10 28 11 30 12
REMARK SMILES IDX 17 13 18 14 19 15 20 16 24 17 22 18 21 19 23 21 32 23 29 25
REMARK SMILES IDX 5 27 14 28 6 29 12 30 7 31 10 32 15 33 13 35 8 37 9 38 11 40
REMARK H PARENT 21 20 23 22 32 24 29 26 15 34 13 36 9 39 11 41
REMARK Flexibility Score: inf
ROOT
ATOM      1  O   UNL     1      12.620  13.500  -2.348  1.00  0.00    -0.454 OA
ENDROOT
BRANCH   1   2
ATOM      2  C   UNL     1      12.160  12.173  -2.327  1.00  0.00     0.214 A 
ATOM      3  C   UNL     1      10.783  11.914  -2.172  1.00  0.00     0.180 A 
ATOM      4  O   UNL     1      10.349  10.662  -2.083  1.00  0.00    -0.452 OA
ATOM      5  C   UNL     1      13.038  11.083  -2.479  1.00  0.00     0.239 A 
ATOM      6  C   UNL     1      11.147   9.603  -2.176  1.00  0.00     0.146 A 
ATOM      7  O   UNL     1      14.257  11.290  -2.725  1.00  0.00    -0.285 OA
ATOM      8  C   UNL     1      12.538   9.767  -2.389  1.00  0.00     0.111 A 
ATOM      9  C   UNL     1      10.596   8.323  -2.069  1.00  0.00     0.094 A 
ATOM     10  C   UNL     1      13.357   8.615  -2.508  1.00  0.00     0.134 A 
ATOM     11  C   UNL     1      11.409   7.192  -2.180  1.00  0.00     0.123 A 
ATOM     12  C   UNL     1      12.784   7.339  -2.401  1.00  0.00     0.093 A 
BRANCH   3  13
ATOM     13  C   UNL     1       9.791  13.006  -2.069  1.00  0.00     0.025 A 
ATOM     14  C   UNL     1       9.663  13.924  -3.122  1.00  0.00     0.016 A 
ATOM     15  C   UNL     1       8.694  14.928  -3.071  1.00  0.00     0.051 A 
ATOM     16  C   UNL     1       7.850  15.040  -1.956  1.00  0.00     0.157 A 
ATOM     17  C   UNL     1       8.963  13.136  -0.939  1.00  0.00     0.062 A 
ATOM     18  C   UNL     1       7.991  14.142  -0.882  1.00  0.00     0.158 A 
BRANCH  16  19
ATOM     19  O   UNL     1       6.875  16.036  -1.913  1.00  0.00    -0.504 OA
ATOM     20  H   UNL     1       6.591  16.535  -2.751  1.00  0.00     0.293 HD
ENDBRANCH  16  19
BRANCH  18  21
ATOM     21  O   UNL     1       7.174  14.233   0.245  1.00  0.00    -0.504 OA
ATOM     22  H   UNL     1       7.512  14.614   1.122  1.00  0.00     0.293 HD
ENDBRANCH  18  21
ENDBRANCH   3  13
BRANCH  10  23
ATOM     23  O   UNL     1      14.730   8.730  -2.729  1.00  0.00    -0.507 OA
ATOM     24  H   UNL     1      15.193   9.631  -2.753  1.00  0.00     0.293 HD
ENDBRANCH  10  23
BRANCH  11  25
ATOM     25  O   UNL     1      10.840   5.924  -2.074  1.00  0.00    -0.508 OA
ATOM     26  H   UNL     1      10.273   5.660  -1.273  1.00  0.00     0.293 HD
ENDBRANCH  11  25
ENDBRANCH   1   2
BRANCH   1  27
ATOM     27  C   UNL     1      13.290  14.141  -1.255  1.00  0.00     0.339 C 
ATOM     28  C   UNL     1      14.522  14.916  -1.758  1.00  0.00     0.214 C 
ATOM     29  O   UNL     1      12.410  14.988  -0.534  1.00  0.00    -0.332 OA
ATOM     30  C   UNL     1      14.082  16.113  -2.618  1.00  0.00     0.180 C 
ATOM     31  C   UNL     1      11.905  16.043  -1.339  1.00  0.00     0.179 C 
ATOM     32  C   UNL     1      13.048  16.952  -1.848  1.00  0.00     0.177 C 
BRANCH  28  33
ATOM     33  O   UNL     1      15.335  14.051  -2.506  1.00  0.00    -0.384 OA
ATOM     34  H   UNL     1      14.961  13.134  -2.400  1.00  0.00     0.211 HD
ENDBRANCH  28  33
BRANCH  30  35
ATOM     35  O   UNL     1      15.194  16.918  -2.928  1.00  0.00    -0.387 OA
ATOM     36  H   UNL     1      14.918  17.864  -2.795  1.00  0.00     0.211 HD
ENDBRANCH  30  35
BRANCH  31  37
ATOM     37  C   UNL     1      10.890  16.836  -0.497  1.00  0.00     0.191 C 
BRANCH  37  38
ATOM     38  O   UNL     1      10.089  17.652  -1.313  1.00  0.00    -0.394 OA
ATOM     39  H   UNL     1       9.578  18.254  -0.707  1.00  0.00     0.210 HD
ENDBRANCH  37  38
ENDBRANCH  31  37
BRANCH  32  40
ATOM     40  O   UNL     1      12.524  17.938  -2.707  1.00  0.00    -0.387 OA
ATOM     41  H   UNL     1      12.055  18.604  -2.136  1.00  0.00     0.211 HD
ENDBRANCH  32  40
ENDBRANCH   1  27
TORSDOF 12
ENDMDL
MODEL 2
REMARK VINA RESULT:    -3.222      1.586      4.671
REMARK INTER + INTRA:          -6.559
REMARK INTER:                  -5.081
REMARK INTRA:                  -1.479
REMARK UNBOUND:                -1.830
REMARK SMILES O=c1c(O[C@@H]2O[C@@H](CO)[C@H](O)[C@@H](O)[C@@H]2O)c(-c2ccc(O)c(O)c2)oc2cc(O)cc(O)c12
REMARK SMILES IDX 4 1 3 2 16 3 25 4 2 5 26 6 1 7 33 8 27 9 31 10 28 11 30 12
REMARK SMILES IDX 17 13 18 14 19 15 20 16 24 17 22 18 21 19 23 21 32 23 29 25
REMARK SMILES IDX 5 27 14 28 6 29 12 30 7 31 10 32 15 33 13 35 8 37 9 38 11 40
REMARK H PARENT 21 20 23 22 32 24 29 26 15 34 13 36 9 39 11 41
REMARK Flexibility Score: inf
ROOT
ATOM      1  O   UNL     1      10.791  13.972  -1.558  1.00  0.00    -0.454 OA
ENDROOT
BRANCH   1   2
ATOM      2  C   UNL     1      11.438  12.752  -1.807  1.00  0.00     0.214 A 
ATOM      3  C   UNL     1      12.827  12.735  -2.052  1.00  0.00     0.180 A 
ATOM      4  O   UNL     1      13.434  11.592  -2.356  1.00  0.00    -0.452 OA
ATOM      5  C   UNL     1      10.741  11.529  -1.801  1.00  0.00     0.239 A 
ATOM      6  C   UNL     1      12.806  10.422  -2.404  1.00  0.00     0.146 A 
ATOM      7  O   UNL     1       9.521  11.506  -1.481  1.00  0.00    -0.285 OA
ATOM      8  C   UNL     1      11.422  10.334  -2.118  1.00  0.00     0.111 A 
ATOM      9  C   UNL     1      13.531   9.274  -2.734  1.00  0.00     0.094 A 
ATOM     10  C   UNL     1      10.789   9.066  -2.156  1.00  0.00     0.134 A 
ATOM     11  C   UNL     1      12.901   8.027  -2.777  1.00  0.00     0.123 A 
ATOM     12  C   UNL     1      11.536   7.925  -2.486  1.00  0.00     0.093 A 
BRANCH   3  13
ATOM     13  C   UNL     1      13.640  13.969  -2.014  1.00  0.00     0.025 A 
ATOM     14  C   UNL     1      14.442  14.301  -3.117  1.00  0.00     0.016 A 
ATOM     15  C   UNL     1      15.175  15.490  -3.125  1.00  0.00     0.051 A 
ATOM     16  C   UNL     1      15.130  16.355  -2.022  1.00  0.00     0.157 A 
ATOM     17  C   UNL     1      13.619  14.824  -0.897  1.00  0.00     0.062 A 
ATOM     18  C   UNL     1      14.353  16.016  -0.900  1.00  0.00     0.158 A 
BRANCH  16  19
ATOM     19  O   UNL     1      15.853  17.548  -2.038  1.00  0.00    -0.504 OA
ATOM     20  H   UNL     1      15.552  18.342  -2.596  1.00  0.00     0.293 HD
ENDBRANCH  16  19
BRANCH  18  21
ATOM     21  O   UNL     1      14.295  16.851   0.216  1.00  0.00    -0.504 OA
ATOM     22  H   UNL     1      13.657  17.637   0.264  1.00  0.00     0.293 HD
ENDBRANCH  18  21
ENDBRANCH   3  13
BRANCH  10  23
ATOM     23  O   UNL     1       9.430   8.933  -1.870  1.00  0.00    -0.507 OA
ATOM     24  H   UNL     1       8.725   9.464  -2.369  1.00  0.00     0.293 HD
ENDBRANCH  10  23
BRANCH  11  25
ATOM     25  O   UNL     1      13.642   6.893  -3.105  1.00  0.00    -0.508 OA
ATOM     26  H   UNL     1      14.212   6.854  -3.946  1.00  0.00     0.293 HD
ENDBRANCH  11  25
ENDBRANCH   1   2
BRANCH   1  27
ATOM     27  C   UNL     1      10.415  14.911  -2.574  1.00  0.00     0.339 C 
ATOM     28  C   UNL     1       8.883  14.964  -2.717  1.00  0.00     0.214 C 
ATOM     29  O   UNL     1      10.951  16.198  -2.313  1.00  0.00    -0.332 OA
ATOM     30  C   UNL     1       8.252  15.579  -1.457  1.00  0.00     0.180 C 
ATOM     31  C   UNL     1      10.464  16.744  -1.096  1.00  0.00     0.179 C 
ATOM     32  C   UNL     1       8.928  16.923  -1.141  1.00  0.00     0.177 C 
BRANCH  28  33
ATOM     33  O   UNL     1       8.395  13.665  -2.923  1.00  0.00    -0.384 OA
ATOM     34  H   UNL     1       9.171  13.100  -3.189  1.00  0.00     0.211 HD
ENDBRANCH  28  33
BRANCH  30  35
ATOM     35  O   UNL     1       6.875  15.790  -1.660  1.00  0.00    -0.387 OA
ATOM     36  H   UNL     1       6.405  15.461  -0.848  1.00  0.00     0.211 HD
ENDBRANCH  30  35
BRANCH  31  37
ATOM     37  C   UNL     1      11.181  18.085  -0.859  1.00  0.00     0.191 C 
BRANCH  37  38
ATOM     38  O   UNL     1      11.760  18.125   0.421  1.00  0.00    -0.394 OA
ATOM     39  H   UNL     1      12.282  17.284   0.527  1.00  0.00     0.210 HD
ENDBRANCH  37  38
ENDBRANCH  31  37
BRANCH  32  40
ATOM     40  O   UNL     1       8.469  17.389   0.107  1.00  0.00    -0.387 OA
ATOM     41  H   UNL     1       9.263  17.465   0.701  1.00  0.00     0.211 HD
ENDBRANCH  32  40
ENDBRANCH   1  27
TORSDOF 12
ENDMDL
MODEL 3
REMARK VINA RESULT:    -2.627      2.032      3.185
REMARK INTER + INTRA:          -5.685
REMARK INTER:                  -3.733
REMARK INTRA:                  -1.952
REMARK UNBOUND:                -1.830
REMARK SMILES O=c1c(O[C@@H]2O[C@@H](CO)[C@H](O)[C@@H](O)[C@@H]2O)c(-c2ccc(O)c(O)c2)oc2cc(O)cc(O)c12
REMARK SMILES IDX 4 1 3 2 16 3 25 4 2 5 26 6 1 7 33 8 27 9 31 10 28 11 30 12
REMARK SMILES IDX 17 13 18 14 19 15 20 16 24 17 22 18 21 19 23 21 32 23 29 25
REMARK SMILES IDX 5 27 14 28 6 29 12 30 7 31 10 32 15 33 13 35 8 37 9 38 11 40
REMARK H PARENT 21 20 23 22 32 24 29 26 15 34 13 36 9 39 11 41
REMARK Flexibility Score: inf
ROOT
ATOM      1  O   UNL     1      11.339  10.693  -2.477  1.00  0.00    -0.454 OA
ENDROOT
BRANCH   1   2
ATOM      2  C   UNL     1      10.419   9.632  -2.475  1.00  0.00     0.214 A 
ATOM      3  C   UNL     1       9.051   9.895  -2.255  1.00  0.00     0.180 A 
ATOM      4  O   UNL     1       8.185   8.890  -2.184  1.00  0.00    -0.452 OA
ATOM      5  C   UNL     1      10.820   8.303  -2.708  1.00  0.00     0.239 A 
ATOM      6  C   UNL     1       8.527   7.617  -2.354  1.00  0.00     0.146 A 
ATOM      7  O   UNL     1      12.019   8.056  -3.012  1.00  0.00    -0.285 OA
ATOM      8  C   UNL     1       9.869   7.263  -2.636  1.00  0.00     0.111 A 
ATOM      9  C   UNL     1       7.543   6.629  -2.260  1.00  0.00     0.094 A 
ATOM     10  C   UNL     1      10.195   5.898  -2.835  1.00  0.00     0.134 A 
ATOM     11  C   UNL     1       7.871   5.284  -2.451  1.00  0.00     0.123 A 
ATOM     12  C   UNL     1       9.192   4.921  -2.740  1.00  0.00     0.093 A 
BRANCH   3  13
ATOM     13  C   UNL     1       8.542  11.270  -2.064  1.00  0.00     0.025 A 
ATOM     14  C   UNL     1       8.611  12.185  -3.125  1.00  0.00     0.016 A 
ATOM     15  C   UNL     1       8.085  13.471  -2.984  1.00  0.00     0.051 A 
ATOM     16  C   UNL     1       7.497  13.866  -1.773  1.00  0.00     0.157 A 
ATOM     17  C   UNL     1       7.977  11.676  -0.841  1.00  0.00     0.062 A 
ATOM     18  C   UNL     1       7.449  12.965  -0.695  1.00  0.00     0.158 A 
BRANCH  16  19
ATOM     19  O   UNL     1       6.961  15.147  -1.640  1.00  0.00    -0.504 OA
ATOM     20  H   UNL     1       7.359  15.823  -0.994  1.00  0.00     0.293 HD
ENDBRANCH  16  19
BRANCH  18  21
ATOM     21  O   UNL     1       6.880  13.330   0.525  1.00  0.00    -0.504 OA
ATOM     22  H   UNL     1       7.024  12.783   1.368  1.00  0.00     0.293 HD
ENDBRANCH  18  21
ENDBRANCH   3  13
BRANCH  10  23
ATOM     23  O   UNL     1      11.503   5.507  -3.125  1.00  0.00    -0.507 OA
ATOM     24  H   UNL     1      12.075   6.010  -3.794  1.00  0.00     0.293 HD
ENDBRANCH  10  23
BRANCH  11  25
ATOM     25  O   UNL     1       6.875   4.313  -2.356  1.00  0.00    -0.508 OA
ATOM     26  H   UNL     1       6.715   3.797  -1.496  1.00  0.00     0.293 HD
ENDBRANCH  11  25
ENDBRANCH   1   2
BRANCH   1  27
ATOM     27  C   UNL     1      12.168  11.047  -1.363  1.00  0.00     0.339 C 
ATOM     28  C   UNL     1      13.638  11.170  -1.802  1.00  0.00     0.214 C 
ATOM     29  O   UNL     1      11.716  12.239  -0.739  1.00  0.00    -0.332 OA
ATOM     30  C   UNL     1      13.813  12.381  -2.735  1.00  0.00     0.180 C 
ATOM     31  C   UNL     1      11.767  13.353  -1.618  1.00  0.00     0.179 C 
ATOM     32  C   UNL     1      13.218  13.636  -2.076  1.00  0.00     0.177 C 
BRANCH  28  33
ATOM     33  O   UNL     1      14.023   9.991  -2.456  1.00  0.00    -0.384 OA
ATOM     34  H   UNL     1      13.296   9.762  -3.098  1.00  0.00     0.211 HD
ENDBRANCH  28  33
BRANCH  30  35
ATOM     35  O   UNL     1      15.180  12.597  -2.993  1.00  0.00    -0.387 OA
ATOM     36  H   UNL     1      15.459  11.930  -3.675  1.00  0.00     0.211 HD
ENDBRANCH  30  35
BRANCH  31  37
ATOM     37  C   UNL     1      11.165  14.563  -0.882  1.00  0.00     0.191 C 
BRANCH  37  38
ATOM     38  O   UNL     1      10.642  15.496  -1.795  1.00  0.00    -0.394 OA
ATOM     39  H   UNL     1      10.639  16.378  -1.335  1.00  0.00     0.210 HD
ENDBRANCH  37  38
ENDBRANCH  31  37
BRANCH  32  40
ATOM     40  O   UNL     1      13.224  14.693  -3.006  1.00  0.00    -0.387 OA
ATOM     41  H   UNL     1      13.155  15.539  -2.488  1.00  0.00     0.211 HD
ENDBRANCH  32  40
ENDBRANCH   1  27
TORSDOF 12
ENDMDL
MODEL 4
REMARK VINA RESULT:    -2.548      1.922      6.506
REMARK INTER + INTRA:          -5.570
REMARK INTER:                  -4.053
REMARK INTRA:                  -1.518
REMARK UNBOUND:                -1.830
REMARK SMILES O=c1c(O[C@@H]2O[C@@H](CO)[C@H](O)[C@@H](O)[C@@H]2O)c(-c2ccc(O)c(O)c2)oc2cc(O)cc(O)c12
REMARK SMILES IDX 4 1 3 2 16 3 25 4 2 5 26 6 1 7 33 8 27 9 31 10 28 11 30 12
REMARK SMILES IDX 17 13 18 14 19 15 20 16 24 17 22 18 21 19 23 21 32 23 29 25
REMARK SMILES IDX 5 27 14 28 6 29 12 30 7 31 10 32 15 33 13 35 8 37 9 38 11 40
REMARK H PARENT 21 20 23 22 32 24 29 26 15 34 13 36 9 39 11 41
REMARK Flexibility Score: inf
ROOT
ATOM      1  O   UNL     1      12.583  10.517  -2.017  1.00  0.00    -0.454 OA
ENDROOT
BRANCH   1   2
ATOM      2  C   UNL     1      13.164  11.789  -2.143  1.00  0.00     0.214 A 
ATOM      3  C   UNL     1      12.373  12.940  -1.950  1.00  0.00     0.180 A 
ATOM      4  O   UNL     1      12.900  14.146  -2.134  1.00  0.00    -0.452 OA
ATOM      5  C   UNL     1      14.531  11.953  -2.438  1.00  0.00     0.239 A 
ATOM      6  C   UNL     1      14.174  14.346  -2.457  1.00  0.00     0.146 A 
ATOM      7  O   UNL     1      15.281  10.942  -2.511  1.00  0.00    -0.285 OA
ATOM      8  C   UNL     1      15.056  13.250  -2.616  1.00  0.00     0.111 A 
ATOM      9  C   UNL     1      14.635  15.654  -2.629  1.00  0.00     0.094 A 
ATOM     10  C   UNL     1      16.415  13.501  -2.937  1.00  0.00     0.134 A 
ATOM     11  C   UNL     1      15.973  15.895  -2.952  1.00  0.00     0.123 A 
ATOM     12  C   UNL     1      16.859  14.821  -3.103  1.00  0.00     0.093 A 
BRANCH   3  13
ATOM     13  C   UNL     1      10.946  12.852  -1.575  1.00  0.00     0.025 A 
ATOM     14  C   UNL     1      10.596  12.614  -0.238  1.00  0.00     0.016 A 
ATOM     15  C   UNL     1       9.254  12.583   0.147  1.00  0.00     0.051 A 
ATOM     16  C   UNL     1       8.241  12.772  -0.804  1.00  0.00     0.157 A 
ATOM     17  C   UNL     1       9.928  13.013  -2.534  1.00  0.00     0.062 A 
ATOM     18  C   UNL     1       8.581  12.982  -2.153  1.00  0.00     0.158 A 
BRANCH  16  19
ATOM     19  O   UNL     1       6.901  12.753  -0.415  1.00  0.00    -0.504 OA
ATOM     20  H   UNL     1       6.353  11.898  -0.447  1.00  0.00     0.293 HD
ENDBRANCH  16  19
BRANCH  18  21
ATOM     21  O   UNL     1       7.597  13.163  -3.125  1.00  0.00    -0.504 OA
ATOM     22  H   UNL     1       7.703  12.803  -4.067  1.00  0.00     0.293 HD
ENDBRANCH  18  21
ENDBRANCH   3  13
BRANCH  10  23
ATOM     23  O   UNL     1      17.321  12.451  -3.093  1.00  0.00    -0.507 OA
ATOM     24  H   UNL     1      18.323  12.607  -3.098  1.00  0.00     0.293 HD
ENDBRANCH  10  23
BRANCH  11  25
ATOM     25  O   UNL     1      16.415  17.206  -3.118  1.00  0.00    -0.508 OA
ATOM     26  H   UNL     1      16.205  17.737  -3.958  1.00  0.00     0.293 HD
ENDBRANCH  11  25
ENDBRANCH   1   2
BRANCH   1  27
ATOM     27  C   UNL     1      12.176   9.701  -3.123  1.00  0.00     0.339 C 
ATOM     28  C   UNL     1      12.935   8.362  -3.112  1.00  0.00     0.214 C 
ATOM     29  O   UNL     1      10.772   9.496  -3.125  1.00  0.00    -0.332 OA
ATOM     30  C   UNL     1      12.500   7.514  -1.905  1.00  0.00     0.180 C 
ATOM     31  C   UNL     1      10.331   8.807  -1.964  1.00  0.00     0.179 C 
ATOM     32  C   UNL     1      10.967   7.399  -1.876  1.00  0.00     0.177 C 
BRANCH  28  33
ATOM     33  O   UNL     1      14.313   8.615  -3.059  1.00  0.00    -0.384 OA
ATOM     34  H   UNL     1      14.467   9.238  -2.296  1.00  0.00     0.211 HD
ENDBRANCH  28  33
BRANCH  30  35
ATOM     35  O   UNL     1      13.060   6.226  -1.994  1.00  0.00    -0.387 OA
ATOM     36  H   UNL     1      12.323   5.602  -2.230  1.00  0.00     0.211 HD
ENDBRANCH  30  35
BRANCH  31  37
ATOM     37  C   UNL     1       8.795   8.727  -2.017  1.00  0.00     0.191 C 
BRANCH  37  38
ATOM     38  O   UNL     1       8.280   8.178  -0.830  1.00  0.00    -0.394 OA
ATOM     39  H   UNL     1       8.288   8.904  -0.149  1.00  0.00     0.210 HD
ENDBRANCH  37  38
ENDBRANCH  31  37
BRANCH  32  40
ATOM     40  O   UNL     1      10.574   6.776  -0.676  1.00  0.00    -0.387 OA
ATOM     41  H   UNL     1      11.281   6.964  -0.002  1.00  0.00     0.211 HD
ENDBRANCH  32  40
ENDBRANCH   1  27
TORSDOF 12
ENDMDL
MODEL 5
REMARK VINA RESULT:    -2.303      1.610      6.945
REMARK INTER + INTRA:          -5.210
REMARK INTER:                  -5.902
REMARK INTRA:                   0.691
REMARK UNBOUND:                -1.830
REMARK SMILES O=c1c(O[C@@H]2O[C@@H](CO)[C@H](O)[C@@H](O)[C@@H]2O)c(-c2ccc(O)c(O)c2)oc2cc(O)cc(O)c12
REMARK SMILES IDX 4 1 3 2 16 3 25 4 2 5 26 6 1 7 33 8 27 9 31 10 28 11 30 12
REMARK SMILES IDX 17 13 18 14 19 15 20 16 24 17 22 18 21 19 23 21 32 23 29 25
REMARK SMILES IDX 5 27 14 28 6 29 12 30 7 31 10 32 15 33 13 35 8 37 9 38 11 40
REMARK H PARENT 21 20 23 22 32 24 29 26 15 34 13 36 9 39 11 41
REMARK Flexibility Score: inf
ROOT
ATOM      1  O   UNL     1      10.829  12.890  -2.030  1.00  0.00    -0.454 OA
ENDROOT
BRANCH   1   2
ATOM      2  C   UNL     1      12.069  13.503  -2.272  1.00  0.00     0.214 A 
ATOM      3  C   UNL     1      13.212  12.706  -2.489  1.00  0.00     0.180 A 
ATOM      4  O   UNL     1      14.400  13.278  -2.650  1.00  0.00    -0.452 OA
ATOM      5  C   UNL     1      12.205  14.903  -2.326  1.00  0.00     0.239 A 
ATOM      6  C   UNL     1      14.581  14.595  -2.664  1.00  0.00     0.146 A 
ATOM      7  O   UNL     1      11.181  15.635  -2.242  1.00  0.00    -0.285 OA
ATOM      8  C   UNL     1      13.482  15.475  -2.511  1.00  0.00     0.111 A 
ATOM      9  C   UNL     1      15.871  15.103  -2.840  1.00  0.00     0.094 A 
ATOM     10  C   UNL     1      13.707  16.874  -2.554  1.00  0.00     0.134 A 
ATOM     11  C   UNL     1      16.089  16.483  -2.876  1.00  0.00     0.123 A 
ATOM     12  C   UNL     1      15.010  17.364  -2.736  1.00  0.00     0.093 A 
BRANCH   3  13
ATOM     13  C   UNL     1      13.140  11.229  -2.510  1.00  0.00     0.025 A 
ATOM     14  C   UNL     1      14.204  10.494  -3.054  1.00  0.00     0.016 A 
ATOM     15  C   UNL     1      14.182   9.098  -3.033  1.00  0.00     0.051 A 
ATOM     16  C   UNL     1      13.086   8.417  -2.483  1.00  0.00     0.157 A 
ATOM     17  C   UNL     1      12.029  10.544  -1.985  1.00  0.00     0.062 A 
ATOM     18  C   UNL     1      12.002   9.145  -1.962  1.00  0.00     0.158 A 
BRANCH  16  19
ATOM     19  O   UNL     1      13.073   7.022  -2.452  1.00  0.00    -0.504 OA
ATOM     20  H   UNL     1      12.989   6.474  -3.304  1.00  0.00     0.293 HD
ENDBRANCH  16  19
BRANCH  18  21
ATOM     21  O   UNL     1      10.893   8.497  -1.417  1.00  0.00    -0.504 OA
ATOM     22  H   UNL     1      10.927   8.053  -0.506  1.00  0.00     0.293 HD
ENDBRANCH  18  21
ENDBRANCH   3  13
BRANCH  10  23
ATOM     23  O   UNL     1      12.652  17.776  -2.418  1.00  0.00    -0.507 OA
ATOM     24  H   UNL     1      11.816  17.710  -2.987  1.00  0.00     0.293 HD
ENDBRANCH  10  23
BRANCH  11  25
ATOM     25  O   UNL     1      17.382  16.971  -3.055  1.00  0.00    -0.508 OA
ATOM     26  H   UNL     1      17.997  16.599  -3.774  1.00  0.00     0.293 HD
ENDBRANCH  11  25
ENDBRANCH   1   2
BRANCH   1  27
ATOM     27  C   UNL     1       9.637  13.152  -2.782  1.00  0.00     0.339 C 
ATOM     28  C   UNL     1       8.686  11.943  -2.723  1.00  0.00     0.214 C 
ATOM     29  O   UNL     1       8.993  14.335  -2.334  1.00  0.00    -0.332 OA
ATOM     30  C   UNL     1       8.139  11.767  -1.296  1.00  0.00     0.180 C 
ATOM     31  C   UNL     1       8.573  14.235  -0.981  1.00  0.00     0.179 C 
ATOM     32  C   UNL     1       7.543  13.094  -0.800  1.00  0.00     0.177 C 
BRANCH  28  33
ATOM     33  O   UNL     1       9.380  10.793  -3.125  1.00  0.00    -0.384 OA
ATOM     34  H   UNL     1       9.949  11.051  -3.901  1.00  0.00     0.211 HD
ENDBRANCH  28  33
BRANCH  30  35
ATOM     35  O   UNL     1       7.139  10.776  -1.282  1.00  0.00    -0.387 OA
ATOM     36  H   UNL     1       7.331  10.156  -2.035  1.00  0.00     0.211 HD
ENDBRANCH  30  35
BRANCH  31  37
ATOM     37  C   UNL     1       7.983  15.595  -0.568  1.00  0.00     0.191 C 
BRANCH  37  38
ATOM     38  O   UNL     1       9.002  16.541  -0.362  1.00  0.00    -0.394 OA
ATOM     39  H   UNL     1       8.801  16.996   0.501  1.00  0.00     0.210 HD
ENDBRANCH  37  38
ENDBRANCH  31  37
BRANCH  32  40
ATOM     40  O   UNL     1       7.209  12.970   0.562  1.00  0.00    -0.387 OA
ATOM     41  H   UNL     1       6.771  13.820   0.836  1.00  0.00     0.211 HD
ENDBRANCH  32  40
ENDBRANCH   1  27
TORSDOF 12
ENDMDL
MODEL 6
REMARK VINA RESULT:    -2.173      2.028      5.090
REMARK INTER + INTRA:          -5.019
REMARK INTER:                  -5.139
REMARK INTRA:                   0.120
REMARK UNBOUND:                -1.830
REMARK SMILES O=c1c(O[C@@H]2O[C@@H](CO)[C@H](O)[C@@H](O)[C@@H]2O)c(-c2ccc(O)c(O)c2)oc2cc(O)cc(O)c12
REMARK SMILES IDX 4 1 3 2 16 3 25 4 2 5 26 6 1 7 33 8 27 9 31 10 28 11 30 12
REMARK SMILES IDX 17 13 18 14 19 15 20 16 24 17 22 18 21 19 23 21 32 23 29 25
REMARK SMILES IDX 5 27 14 28 6 29 12 30 7 31 10 32 15 33 13 35 8 37 9 38 11 40
REMARK H PARENT 21 20 23 22 32 24 29 26 15 34 13 36 9 39 11 41
REMARK Flexibility Score: inf
ROOT
ATOM      1  O   UNL     1      10.405  11.769  -2.238  1.00  0.00    -0.454 OA
ENDROOT
BRANCH   1   2
ATOM      2  C   UNL     1      10.397  10.367  -2.311  1.00  0.00     0.214 A 
ATOM      3  C   UNL     1      11.593   9.675  -2.591  1.00  0.00     0.180 A 
ATOM      4  O   UNL     1      11.580   8.354  -2.729  1.00  0.00    -0.452 OA
ATOM      5  C   UNL     1       9.224   9.620  -2.091  1.00  0.00     0.239 A 
ATOM      6  C   UNL     1      10.487   7.614  -2.574  1.00  0.00     0.146 A 
ATOM      7  O   UNL     1       8.166  10.208  -1.735  1.00  0.00    -0.285 OA
ATOM      8  C   UNL     1       9.251   8.217  -2.236  1.00  0.00     0.111 A 
ATOM      9  C   UNL     1      10.573   6.229  -2.740  1.00  0.00     0.094 A 
ATOM     10  C   UNL     1       8.110   7.395  -2.054  1.00  0.00     0.134 A 
ATOM     11  C   UNL     1       9.444   5.424  -2.567  1.00  0.00     0.123 A 
ATOM     12  C   UNL     1       8.218   6.006  -2.222  1.00  0.00     0.093 A 
BRANCH   3  13
ATOM     13  C   UNL     1      12.879  10.383  -2.773  1.00  0.00     0.025 A 
ATOM     14  C   UNL     1      12.890  11.783  -2.857  1.00  0.00     0.016 A 
ATOM     15  C   UNL     1      14.098  12.475  -2.972  1.00  0.00     0.051 A 
ATOM     16  C   UNL     1      15.312  11.773  -3.022  1.00  0.00     0.157 A 
ATOM     17  C   UNL     1      14.095   9.680  -2.853  1.00  0.00     0.062 A 
ATOM     18  C   UNL     1      15.308  10.368  -2.969  1.00  0.00     0.158 A 
BRANCH  16  19
ATOM     19  O   UNL     1      16.518  12.467  -3.125  1.00  0.00    -0.504 OA
ATOM     20  H   UNL     1      17.343  12.037  -3.532  1.00  0.00     0.293 HD
ENDBRANCH  16  19
BRANCH  18  21
ATOM     21  O   UNL     1      16.498   9.641  -3.027  1.00  0.00    -0.504 OA
ATOM     22  H   UNL     1      17.145   9.610  -2.247  1.00  0.00     0.293 HD
ENDBRANCH  18  21
ENDBRANCH   3  13
BRANCH  10  23
ATOM     23  O   UNL     1       6.875   7.947  -1.711  1.00  0.00    -0.507 OA
ATOM     24  H   UNL     1       6.761   8.941  -1.549  1.00  0.00     0.293 HD
ENDBRANCH  10  23
BRANCH  11  25
ATOM     25  O   UNL     1       9.550   4.045  -2.734  1.00  0.00    -0.508 OA
ATOM     26  H   UNL     1      10.332   3.520  -2.353  1.00  0.00     0.293 HD
ENDBRANCH  11  25
ENDBRANCH   1   2
BRANCH   1  27
ATOM     27  C   UNL     1       9.782  12.528  -1.194  1.00  0.00     0.339 C 
ATOM     28  C   UNL     1      10.846  13.157  -0.277  1.00  0.00     0.214 C 
ATOM     29  O   UNL     1       8.910  13.515  -1.722  1.00  0.00    -0.332 OA
ATOM     30  C   UNL     1      11.633  14.237  -1.039  1.00  0.00     0.180 C 
ATOM     31  C   UNL     1       9.600  14.466  -2.520  1.00  0.00     0.179 C 
ATOM     32  C   UNL     1      10.656  15.231  -1.688  1.00  0.00     0.177 C 
BRANCH  28  33
ATOM     33  O   UNL     1      11.712  12.153   0.179  1.00  0.00    -0.384 OA
ATOM     34  H   UNL     1      12.622  12.373  -0.163  1.00  0.00     0.211 HD
ENDBRANCH  28  33
BRANCH  30  35
ATOM     35  O   UNL     1      12.480  14.931  -0.154  1.00  0.00    -0.387 OA
ATOM     36  H   UNL     1      12.752  14.289   0.555  1.00  0.00     0.211 HD
ENDBRANCH  30  35
BRANCH  31  37
ATOM     37  C   UNL     1       8.557  15.423  -3.122  1.00  0.00     0.191 C 
BRANCH  37  38
ATOM     38  O   UNL     1       8.568  16.661  -2.456  1.00  0.00    -0.394 OA
ATOM     39  H   UNL     1       8.058  17.299  -3.025  1.00  0.00     0.210 HD
ENDBRANCH  37  38
ENDBRANCH  31  37
BRANCH  32  40
ATOM     40  O   UNL     1      11.375  16.106  -2.524  1.00  0.00    -0.387 OA
ATOM     41  H   UNL     1      11.562  15.616  -3.370  1.00  0.00     0.211 HD
ENDBRANCH  32  40
ENDBRANCH   1  27
TORSDOF 12
ENDMDL
MODEL 7
REMARK VINA RESULT:    -1.823      1.784      7.222
REMARK INTER + INTRA:          -4.506
REMARK INTER:                  -5.019
REMARK INTRA:                   0.513
REMARK UNBOUND:                -1.830
REMARK SMILES O=c1c(O[C@@H]2O[C@@H](CO)[C@H](O)[C@@H](O)[C@@H]2O)c(-c2ccc(O)c(O)c2)oc2cc(O)cc(O)c12
REMARK SMILES IDX 4 1 3 2 16 3 25 4 2 5 26 6 1 7 33 8 27 9 31 10 28 11 30 12
REMARK SMILES IDX 17 13 18 14 19 15 20 16 24 17 22 18 21 19 23 21 32 23 29 25
REMARK SMILES IDX 5 27 14 28 6 29 12 30 7 31 10 32 15 33 13 35 8 37 9 38 11 40
REMARK H PARENT 21 20 23 22 32 24 29 26 15 34 13 36 9 39 11 41
REMARK Flexibility Score: inf
ROOT
ATOM      1  O   UNL     1      11.306  13.003  -2.673  1.00  0.00    -0.454 OA
ENDROOT
BRANCH   1   2
ATOM      2  C   UNL     1      12.552  13.638  -2.797  1.00  0.00     0.214 A 
ATOM      3  C   UNL     1      13.731  12.865  -2.822  1.00  0.00     0.180 A 
ATOM      4  O   UNL     1      14.916  13.462  -2.870  1.00  0.00    -0.452 OA
ATOM      5  C   UNL     1      12.662  15.037  -2.917  1.00  0.00     0.239 A 
ATOM      6  C   UNL     1      15.068  14.781  -2.940  1.00  0.00     0.146 A 
ATOM      7  O   UNL     1      11.619  15.741  -3.003  1.00  0.00    -0.285 OA
ATOM      8  C   UNL     1      13.938  15.634  -2.976  1.00  0.00     0.111 A 
ATOM      9  C   UNL     1      16.358  15.317  -2.986  1.00  0.00     0.094 A 
ATOM     10  C   UNL     1      14.136  17.035  -3.075  1.00  0.00     0.134 A 
ATOM     11  C   UNL     1      16.547  16.698  -3.076  1.00  0.00     0.123 A 
ATOM     12  C   UNL     1      15.440  17.553  -3.123  1.00  0.00     0.093 A 
BRANCH   3  13
ATOM     13  C   UNL     1      13.695  11.388  -2.764  1.00  0.00     0.025 A 
ATOM     14  C   UNL     1      14.867  10.681  -2.453  1.00  0.00     0.016 A 
ATOM     15  C   UNL     1      14.843   9.289  -2.337  1.00  0.00     0.051 A 
ATOM     16  C   UNL     1      13.650   8.583  -2.549  1.00  0.00     0.157 A 
ATOM     17  C   UNL     1      12.506  10.675  -3.004  1.00  0.00     0.062 A 
ATOM     18  C   UNL     1      12.478   9.280  -2.890  1.00  0.00     0.158 A 
BRANCH  16  19
ATOM     19  O   UNL     1      13.627   7.194  -2.421  1.00  0.00    -0.504 OA
ATOM     20  H   UNL     1      13.025   6.735  -1.743  1.00  0.00     0.293 HD
ENDBRANCH  16  19
BRANCH  18  21
ATOM     21  O   UNL     1      11.278   8.606  -3.117  1.00  0.00    -0.504 OA
ATOM     22  H   UNL     1      10.578   8.960  -3.760  1.00  0.00     0.293 HD
ENDBRANCH  18  21
ENDBRANCH   3  13
BRANCH  10  23
ATOM     23  O   UNL     1      13.052  17.912  -3.124  1.00  0.00    -0.507 OA
ATOM     24  H   UNL     1      12.843  18.546  -2.361  1.00  0.00     0.293 HD
ENDBRANCH  10  23
BRANCH  11  25
ATOM     25  O   UNL     1      17.841  17.213  -3.123  1.00  0.00    -0.508 OA
ATOM     26  H   UNL     1      18.623  16.661  -3.464  1.00  0.00     0.293 HD
ENDBRANCH  11  25
ENDBRANCH   1   2
BRANCH   1  27
ATOM     27  C   UNL     1      10.694  12.657  -1.424  1.00  0.00     0.339 C 
ATOM     28  C   UNL     1       9.753  13.781  -0.955  1.00  0.00     0.214 C 
ATOM     29  O   UNL     1      10.011  11.416  -1.509  1.00  0.00    -0.332 OA
ATOM     30  C   UNL     1       8.539  13.883  -1.894  1.00  0.00     0.180 C 
ATOM     31  C   UNL     1       8.950  11.454  -2.451  1.00  0.00     0.179 C 
ATOM     32  C   UNL     1       7.884  12.501  -2.049  1.00  0.00     0.177 C 
BRANCH  28  33
ATOM     33  O   UNL     1      10.458  14.993  -0.936  1.00  0.00    -0.384 OA
ATOM     34  H   UNL     1       9.865  15.683  -1.342  1.00  0.00     0.211 HD
ENDBRANCH  28  33
BRANCH  30  35
ATOM     35  O   UNL     1       7.596  14.787  -1.367  1.00  0.00    -0.387 OA
ATOM     36  H   UNL     1       6.767  14.693  -1.907  1.00  0.00     0.211 HD
ENDBRANCH  30  35
BRANCH  31  37
ATOM     37  C   UNL     1       8.345  10.042  -2.539  1.00  0.00     0.191 C 
BRANCH  37  38
ATOM     38  O   UNL     1       8.880   9.204  -1.546  1.00  0.00    -0.394 OA
ATOM     39  H   UNL     1       8.350   9.363  -0.719  1.00  0.00     0.210 HD
ENDBRANCH  37  38
ENDBRANCH  31  37
BRANCH  32  40
ATOM     40  O   UNL     1       6.889  12.571  -3.043  1.00  0.00    -0.387 OA
ATOM     41  H   UNL     1       6.181  11.917  -2.796  1.00  0.00     0.211 HD
ENDBRANCH  32  40
ENDBRANCH   1  27
TORSDOF 12
ENDMDL
MODEL 8
REMARK VINA RESULT:    -1.741      2.029      6.778
REMARK INTER + INTRA:          -4.385
REMARK INTER:                  -3.932
REMARK INTRA:                  -0.453
REMARK UNBOUND:                -1.830
REMARK SMILES O=c1c(O[C@@H]2O[C@@H](CO)[C@H](O)[C@@H](O)[C@@H]2O)c(-c2ccc(O)c(O)c2)oc2cc(O)cc(O)c12
REMARK SMILES IDX 4 1 3 2 16 3 25 4 2 5 26 6 1 7 33 8 27 9 31 10 28 11 30 12
REMARK SMILES IDX 17 13 18 14 19 15 20 16 24 17 22 18 21 19 23 21 32 23 29 25
REMARK SMILES IDX 5 27 14 28 6 29 12 30 7 31 10 32 15 33 13 35 8 37 9 38 11 40
REMARK H PARENT 21 20 23 22 32 24 29 26 15 34 13 36 9 39 11 41
REMARK Flexibility Score: inf
ROOT
ATOM      1  O   UNL     1      11.530  11.566  -1.606  1.00  0.00    -0.454 OA
ENDROOT
BRANCH   1   2
ATOM      2  C   UNL     1      10.652  12.630  -1.346  1.00  0.00     0.214 A 
ATOM      3  C   UNL     1       9.262  12.440  -1.490  1.00  0.00     0.180 A 
ATOM      4  O   UNL     1       8.430  13.461  -1.312  1.00  0.00    -0.452 OA
ATOM      5  C   UNL     1      11.119  13.889  -0.922  1.00  0.00     0.239 A 
ATOM      6  C   UNL     1       8.832  14.677  -0.955  1.00  0.00     0.146 A 
ATOM      7  O   UNL     1      12.347  14.053  -0.684  1.00  0.00    -0.285 OA
ATOM      8  C   UNL     1      10.204  14.946  -0.733  1.00  0.00     0.111 A 
ATOM      9  C   UNL     1       7.880  15.687  -0.792  1.00  0.00     0.094 A 
ATOM     10  C   UNL     1      10.594  16.248  -0.329  1.00  0.00     0.134 A 
ATOM     11  C   UNL     1       8.271  16.970  -0.401  1.00  0.00     0.123 A 
ATOM     12  C   UNL     1       9.623  17.248  -0.168  1.00  0.00     0.093 A 
BRANCH   3  13
ATOM     13  C   UNL     1       8.689  11.131  -1.870  1.00  0.00     0.025 A 
ATOM     14  C   UNL     1       7.545  11.088  -2.681  1.00  0.00     0.016 A 
ATOM     15  C   UNL     1       7.021   9.863  -3.099  1.00  0.00     0.051 A 
ATOM     16  C   UNL     1       7.623   8.662  -2.696  1.00  0.00     0.157 A 
ATOM     17  C   UNL     1       9.275   9.925  -1.444  1.00  0.00     0.062 A 
ATOM     18  C   UNL     1       8.753   8.695  -1.859  1.00  0.00     0.158 A 
BRANCH  16  19
ATOM     19  O   UNL     1       7.104   7.440  -3.125  1.00  0.00    -0.504 OA
ATOM     20  H   UNL     1       6.201   7.381  -3.586  1.00  0.00     0.293 HD
ENDBRANCH  16  19
BRANCH  18  21
ATOM     21  O   UNL     1       9.369   7.518  -1.433  1.00  0.00    -0.504 OA
ATOM     22  H   UNL     1       9.028   6.604  -1.710  1.00  0.00     0.293 HD
ENDBRANCH  18  21
ENDBRANCH   3  13
BRANCH  10  23
ATOM     23  O   UNL     1      11.935  16.554  -0.090  1.00  0.00    -0.507 OA
ATOM     24  H   UNL     1      12.597  15.850   0.215  1.00  0.00     0.293 HD
ENDBRANCH  10  23
BRANCH  11  25
ATOM     25  O   UNL     1       7.307  17.964  -0.242  1.00  0.00    -0.508 OA
ATOM     26  H   UNL     1       6.583  18.122  -0.938  1.00  0.00     0.293 HD
ENDBRANCH  11  25
ENDBRANCH   1   2
BRANCH   1  27
ATOM     27  C   UNL     1      12.000  11.205  -2.911  1.00  0.00     0.339 C 
ATOM     28  C   UNL     1      13.439  11.711  -3.124  1.00  0.00     0.214 C 
ATOM     29  O   UNL     1      11.911   9.805  -3.125  1.00  0.00    -0.332 OA
ATOM     30  C   UNL     1      14.411  10.950  -2.207  1.00  0.00     0.180 C 
ATOM     31  C   UNL     1      12.721   9.074  -2.216  1.00  0.00     0.179 C 
ATOM     32  C   UNL     1      14.215   9.436  -2.384  1.00  0.00     0.177 C 
BRANCH  28  33
ATOM     33  O   UNL     1      13.487  13.086  -2.853  1.00  0.00    -0.384 OA
ATOM     34  H   UNL     1      13.891  13.528  -3.651  1.00  0.00     0.211 HD
ENDBRANCH  28  33
BRANCH  30  35
ATOM     35  O   UNL     1      15.740  11.287  -2.527  1.00  0.00    -0.387 OA
ATOM     36  H   UNL     1      16.330  10.676  -2.012  1.00  0.00     0.211 HD
ENDBRANCH  30  35
BRANCH  31  37
ATOM     37  C   UNL     1      12.474   7.575  -2.464  1.00  0.00     0.191 C 
BRANCH  37  38
ATOM     38  O   UNL     1      13.600   6.972  -3.051  1.00  0.00    -0.394 OA
ATOM     39  H   UNL     1      13.843   6.196  -2.477  1.00  0.00     0.210 HD
ENDBRANCH  37  38
ENDBRANCH  31  37
BRANCH  32  40
ATOM     40  O   UNL     1      14.980   8.755  -1.417  1.00  0.00    -0.387 OA
ATOM     41  H   UNL     1      14.371   8.117  -0.958  1.00  0.00     0.211 HD
ENDBRANCH  32  40
ENDBRANCH   1  27
TORSDOF 12
ENDMDL
MODEL 9
REMARK VINA RESULT:    -1.661      2.440      6.271
REMARK INTER + INTRA:          -4.267
REMARK INTER:                  -5.941
REMARK INTRA:                   1.674
REMARK UNBOUND:                -1.830
REMARK SMILES O=c1c(O[C@@H]2O[C@@H](CO)[C@H](O)[C@@H](O)[C@@H]2O)c(-c2ccc(O)c(O)c2)oc2cc(O)cc(O)c12
REMARK SMILES IDX 4 1 3 2 16 3 25 4 2 5 26 6 1 7 33 8 27 9 31 10 28 11 30 12
REMARK SMILES IDX 17 13 18 14 19 15 20 16 24 17 22 18 21 19 23 21 32 23 29 25
REMARK SMILES IDX 5 27 14 28 6 29 12 30 7 31 10 32 15 33 13 35 8 37 9 38 11 40
REMARK H PARENT 21 20 23 22 32 24 29 26 15 34 13 36 9 39 11 41
REMARK Flexibility Score: inf
ROOT
ATOM      1  O   UNL     1      10.978   9.617  -1.844  1.00  0.00    -0.454 OA
ENDROOT
BRANCH   1   2
ATOM      2  C   UNL     1      11.513   8.339  -2.070  1.00  0.00     0.214 A 
ATOM      3  C   UNL     1      12.848   8.207  -2.504  1.00  0.00     0.180 A 
ATOM      4  O   UNL     1      13.340   7.005  -2.784  1.00  0.00    -0.452 OA
ATOM      5  C   UNL     1      10.757   7.171  -1.854  1.00  0.00     0.239 A 
ATOM      6  C   UNL     1      12.647   5.880  -2.638  1.00  0.00     0.146 A 
ATOM      7  O   UNL     1       9.598   7.257  -1.366  1.00  0.00    -0.285 OA
ATOM      8  C   UNL     1      11.317   5.911  -2.153  1.00  0.00     0.111 A 
ATOM      9  C   UNL     1      13.251   4.662  -2.960  1.00  0.00     0.094 A 
ATOM     10  C   UNL     1      10.616   4.690  -1.986  1.00  0.00     0.134 A 
ATOM     11  C   UNL     1      12.554   3.462  -2.800  1.00  0.00     0.123 A 
ATOM     12  C   UNL     1      11.241   3.477  -2.313  1.00  0.00     0.093 A 
BRANCH   3  13
ATOM     13  C   UNL     1      13.726   9.382  -2.693  1.00  0.00     0.025 A 
ATOM     14  C   UNL     1      13.166  10.668  -2.697  1.00  0.00     0.016 A 
ATOM     15  C   UNL     1      13.984  11.794  -2.818  1.00  0.00     0.051 A 
ATOM     16  C   UNL     1      15.372  11.648  -2.954  1.00  0.00     0.157 A 
ATOM     17  C   UNL     1      15.115   9.236  -2.859  1.00  0.00     0.062 A 
ATOM     18  C   UNL     1      15.939  10.361  -2.981  1.00  0.00     0.158 A 
BRANCH  16  19
ATOM     19  O   UNL     1      16.188  12.775  -3.062  1.00  0.00    -0.504 OA
ATOM     20  H   UNL     1      16.041  13.466  -3.792  1.00  0.00     0.293 HD
ENDBRANCH  16  19
BRANCH  18  21
ATOM     21  O   UNL     1      17.315  10.182  -3.125  1.00  0.00    -0.504 OA
ATOM     22  H   UNL     1      17.960  10.351  -2.361  1.00  0.00     0.293 HD
ENDBRANCH  18  21
ENDBRANCH   3  13
BRANCH  10  23
ATOM     23  O   UNL     1       9.307   4.674  -1.502  1.00  0.00    -0.507 OA
ATOM     24  H   UNL     1       9.036   5.198  -0.678  1.00  0.00     0.293 HD
ENDBRANCH  10  23
BRANCH  11  25
ATOM     25  O   UNL     1      13.174   2.257  -3.125  1.00  0.00    -0.508 OA
ATOM     26  H   UNL     1      14.171   2.117  -2.989  1.00  0.00     0.293 HD
ENDBRANCH  11  25
ENDBRANCH   1   2
BRANCH   1  27
ATOM     27  C   UNL     1      10.445  10.463  -2.870  1.00  0.00     0.339 C 
ATOM     28  C   UNL     1       8.912  10.334  -2.933  1.00  0.00     0.214 C 
ATOM     29  O   UNL     1      10.839  11.814  -2.685  1.00  0.00    -0.332 OA
ATOM     30  C   UNL     1       8.277  10.924  -1.662  1.00  0.00     0.180 C 
ATOM     31  C   UNL     1      10.353  12.349  -1.463  1.00  0.00     0.179 C 
ATOM     32  C   UNL     1       8.806  12.349  -1.431  1.00  0.00     0.177 C 
BRANCH  28  33
ATOM     33  O   UNL     1       8.570   8.980  -3.066  1.00  0.00    -0.384 OA
ATOM     34  H   UNL     1       9.375   8.449  -2.814  1.00  0.00     0.211 HD
ENDBRANCH  28  33
BRANCH  30  35
ATOM     35  O   UNL     1       6.876  10.966  -1.798  1.00  0.00    -0.387 OA
ATOM     36  H   UNL     1       6.640  10.395  -2.576  1.00  0.00     0.211 HD
ENDBRANCH  30  35
BRANCH  31  37
ATOM     37  C   UNL     1      10.918  13.772  -1.312  1.00  0.00     0.191 C 
BRANCH  37  38
ATOM     38  O   UNL     1       9.926  14.735  -1.562  1.00  0.00    -0.394 OA
ATOM     39  H   UNL     1      10.179  15.550  -1.049  1.00  0.00     0.210 HD
ENDBRANCH  37  38
ENDBRANCH  31  37
BRANCH  32  40
ATOM     40  O   UNL     1       8.358  12.810  -0.178  1.00  0.00    -0.387 OA
ATOM     41  H   UNL     1       9.130  13.256   0.264  1.00  0.00     0.211 HD
ENDBRANCH  32  40
ENDBRANCH   1  27
TORSDOF 12
ENDMDL
