MODEL 1
REMARK VINA RESULT:    -1.097      0.000      0.000
REMARK INTER + INTRA:          -5.521
REMARK INTER:                  -2.893
REMARK INTRA:                  -2.627
REMARK UNBOUND:                -2.627
REMARK SMILES CCCCCCCCCCCCCCCCCCCCCCCCCCCCCC(=O)[O-]
REMARK SMILES IDX 16 1 17 2 18 3 19 4 20 5 21 6 22 7 23 8 24 9 25 10 26 11
REMARK SMILES IDX 27 12 28 13 29 14 30 15 31 16 32 17 15 18 14 19 13 20 12 21
REMARK SMILES IDX 11 22 10 23 9 24 8 25 7 26 6 27 5 28 4 29 3 30 2 31 1 32
REMARK H PARENT
REMARK Flexibility Score: inf
ROOT
ATOM      1  C   UNL     1      85.195 123.415 127.607  1.00  0.00     0.000 C 
ENDROOT
BRANCH   1   2
ATOM      2  C   UNL     1      85.967 122.148 128.027  1.00  0.00     0.000 C 
BRANCH   2   3
ATOM      3  C   UNL     1      86.187 122.069 129.549  1.00  0.00     0.000 C 
BRANCH   3   4
ATOM      4  C   UNL     1      86.944 120.786 129.957  1.00  0.00     0.000 C 
BRANCH   4   5
ATOM      5  C   UNL     1      86.031 119.563 130.143  1.00  0.00     0.000 C 
BRANCH   5   6
ATOM      6  C   UNL     1      84.684 119.922 130.788  1.00  0.00     0.000 C 
BRANCH   6   7
ATOM      7  C   UNL     1      84.670 119.684 132.310  1.00  0.00     0.000 C 
BRANCH   7   8
ATOM      8  C   UNL     1      83.859 120.711 133.123  1.00  0.00     0.000 C 
BRANCH   8   9
ATOM      9  C   UNL     1      82.552 121.127 132.425  1.00  0.00     0.000 C 
BRANCH   9  10
ATOM     10  C   UNL     1      82.199 122.607 132.650  1.00  0.00     0.000 C 
BRANCH  10  11
ATOM     11  C   UNL     1      83.403 123.569 132.704  1.00  0.00     0.000 C 
BRANCH  11  12
ATOM     12  C   UNL     1      83.199 124.871 131.901  1.00  0.00     0.000 C 
BRANCH  12  13
ATOM     13  C   UNL     1      83.883 126.076 132.570  1.00  0.00     0.006 C 
BRANCH  13  14
ATOM     14  C   UNL     1      83.300 127.413 132.095  1.00  0.00     0.053 C 
BRANCH  14  15
ATOM     15  C   UNL     1      84.337 128.268 131.435  1.00  0.00     0.041 C 
ATOM     16  O   UNL     1      84.496 128.223 130.186  1.00  0.00    -0.550 OA
ATOM     17  O   UNL     1      85.107 129.141 132.194  1.00  0.00    -0.550 OA
ENDBRANCH  14  15
ENDBRANCH  13  14
ENDBRANCH  12  13
ENDBRANCH  11  12
ENDBRANCH  10  11
ENDBRANCH   9  10
ENDBRANCH   8   9
ENDBRANCH   7   8
ENDBRANCH   6   7
ENDBRANCH   5   6
ENDBRANCH   4   5
ENDBRANCH   3   4
ENDBRANCH   2   3
ENDBRANCH   1   2
BRANCH   1  18
ATOM     18  C   UNL     1      84.015 123.760 128.531  1.00  0.00     0.000 C 
BRANCH  18  19
ATOM     19  C   UNL     1      83.251 122.518 129.018  1.00  0.00     0.000 C 
BRANCH  19  20
ATOM     20  C   UNL     1      82.805 121.610 127.854  1.00  0.00     0.000 C 
BRANCH  20  21
ATOM     21  C   UNL     1      82.649 120.135 128.270  1.00  0.00     0.000 C 
BRANCH  21  22
ATOM     22  C   UNL     1      83.291 119.172 127.253  1.00  0.00     0.000 C 
BRANCH  22  23
ATOM     23  C   UNL     1      83.779 119.901 125.992  1.00  0.00     0.000 C 
BRANCH  23  24
ATOM     24  C   UNL     1      83.629 119.026 124.734  1.00  0.00    -0.000 C 
BRANCH  24  25
ATOM     25  C   UNL     1      82.169 118.875 124.279  1.00  0.00    -0.000 C 
BRANCH  25  26
ATOM     26  C   UNL     1      81.875 119.389 122.857  1.00  0.00    -0.000 C 
BRANCH  26  27
ATOM     27  C   UNL     1      82.807 120.536 122.431  1.00  0.00    -0.000 C 
BRANCH  27  28
ATOM     28  C   UNL     1      82.191 121.920 122.703  1.00  0.00    -0.000 C 
BRANCH  28  29
ATOM     29  C   UNL     1      83.177 122.914 123.345  1.00  0.00    -0.000 C 
BRANCH  29  30
ATOM     30  C   UNL     1      83.044 122.960 124.876  1.00  0.00    -0.000 C 
BRANCH  30  31
ATOM     31  C   UNL     1      83.127 124.403 125.389  1.00  0.00    -0.003 C 
ATOM     32  C   UNL     1      82.013 124.695 126.392  1.00  0.00     0.004 C 
ENDBRANCH  30  31
ENDBRANCH  29  30
ENDBRANCH  28  29
ENDBRANCH  27  28
ENDBRANCH  26  27
ENDBRANCH  25  26
ENDBRANCH  24  25
ENDBRANCH  23  24
ENDBRANCH  22  23
ENDBRANCH  21  22
ENDBRANCH  20  21
ENDBRANCH  19  20
ENDBRANCH  18  19
ENDBRANCH   1  18
TORSDOF 28
ENDMDL
MODEL 2
REMARK VINA RESULT:     0.582      2.733      7.340
REMARK INTER + INTRA:          -1.094
REMARK INTER:                   0.017
REMARK INTRA:                  -1.111
REMARK UNBOUND:                -2.627
REMARK SMILES CCCCCCCCCCCCCCCCCCCCCCCCCCCCCC(=O)[O-]
REMARK SMILES IDX 16 1 17 2 18 3 19 4 20 5 21 6 22 7 23 8 24 9 25 10 26 11
REMARK SMILES IDX 27 12 28 13 29 14 30 15 31 16 32 17 15 18 14 19 13 20 12 21
REMARK SMILES IDX 11 22 10 23 9 24 8 25 7 26 6 27 5 28 4 29 3 30 2 31 1 32
REMARK H PARENT
REMARK Flexibility Score: inf
ROOT
ATOM      1  C   UNL     1      84.121 127.206 131.298  1.00  0.00     0.000 C 
ENDROOT
BRANCH   1   2
ATOM      2  C   UNL     1      84.222 128.119 130.060  1.00  0.00     0.000 C 
BRANCH   2   3
ATOM      3  C   UNL     1      85.192 127.568 128.998  1.00  0.00     0.000 C 
BRANCH   3   4
ATOM      4  C   UNL     1      84.709 126.220 128.420  1.00  0.00     0.000 C 
BRANCH   4   5
ATOM      5  C   UNL     1      85.773 125.491 127.583  1.00  0.00     0.000 C 
BRANCH   5   6
ATOM      6  C   UNL     1      85.773 123.972 127.817  1.00  0.00     0.000 C 
BRANCH   6   7
ATOM      7  C   UNL     1      84.364 123.408 128.077  1.00  0.00     0.000 C 
BRANCH   7   8
ATOM      8  C   UNL     1      83.248 124.465 128.182  1.00  0.00     0.000 C 
BRANCH   8   9
ATOM      9  C   UNL     1      81.884 123.944 127.697  1.00  0.00     0.000 C 
BRANCH   9  10
ATOM     10  C   UNL     1      81.978 123.161 126.377  1.00  0.00     0.000 C 
BRANCH  10  11
ATOM     11  C   UNL     1      82.969 123.733 125.343  1.00  0.00     0.000 C 
BRANCH  11  12
ATOM     12  C   UNL     1      83.411 122.715 124.271  1.00  0.00     0.000 C 
BRANCH  12  13
ATOM     13  C   UNL     1      84.071 121.471 124.892  1.00  0.00     0.006 C 
BRANCH  13  14
ATOM     14  C   UNL     1      83.042 120.516 125.512  1.00  0.00     0.053 C 
BRANCH  14  15
ATOM     15  C   UNL     1      83.373 120.193 126.936  1.00  0.00     0.041 C 
ATOM     16  O   UNL     1      82.547 120.446 127.852  1.00  0.00    -0.550 OA
ATOM     17  O   UNL     1      84.580 119.580 127.249  1.00  0.00    -0.550 OA
ENDBRANCH  14  15
ENDBRANCH  13  14
ENDBRANCH  12  13
ENDBRANCH  11  12
ENDBRANCH  10  11
ENDBRANCH   9  10
ENDBRANCH   8   9
ENDBRANCH   7   8
ENDBRANCH   6   7
ENDBRANCH   5   6
ENDBRANCH   4   5
ENDBRANCH   3   4
ENDBRANCH   2   3
ENDBRANCH   1   2
BRANCH   1  18
ATOM     18  C   UNL     1      82.860 126.326 131.322  1.00  0.00     0.000 C 
BRANCH  18  19
ATOM     19  C   UNL     1      82.208 126.249 132.713  1.00  0.00     0.000 C 
BRANCH  19  20
ATOM     20  C   UNL     1      81.876 124.801 133.125  1.00  0.00     0.000 C 
BRANCH  20  21
ATOM     21  C   UNL     1      82.448 123.754 132.151  1.00  0.00     0.000 C 
BRANCH  21  22
ATOM     22  C   UNL     1      83.193 122.622 132.884  1.00  0.00     0.000 C 
BRANCH  22  23
ATOM     23  C   UNL     1      82.334 121.355 133.017  1.00  0.00     0.000 C 
BRANCH  23  24
ATOM     24  C   UNL     1      82.020 120.733 131.644  1.00  0.00    -0.000 C 
BRANCH  24  25
ATOM     25  C   UNL     1      82.502 119.278 131.520  1.00  0.00    -0.000 C 
BRANCH  25  26
ATOM     26  C   UNL     1      83.623 118.879 132.497  1.00  0.00    -0.000 C 
BRANCH  26  27
ATOM     27  C   UNL     1      85.029 119.134 131.930  1.00  0.00    -0.000 C 
BRANCH  27  28
ATOM     28  C   UNL     1      84.997 119.517 130.439  1.00  0.00    -0.000 C 
BRANCH  28  29
ATOM     29  C   UNL     1      85.425 120.972 130.171  1.00  0.00    -0.000 C 
BRANCH  29  30
ATOM     30  C   UNL     1      86.038 121.636 131.413  1.00  0.00    -0.000 C 
BRANCH  30  31
ATOM     31  C   UNL     1      87.553 121.813 131.247  1.00  0.00    -0.003 C 
ATOM     32  C   UNL     1      88.061 121.085 130.005  1.00  0.00     0.004 C 
ENDBRANCH  30  31
ENDBRANCH  29  30
ENDBRANCH  28  29
ENDBRANCH  27  28
ENDBRANCH  26  27
ENDBRANCH  25  26
ENDBRANCH  24  25
ENDBRANCH  23  24
ENDBRANCH  22  23
ENDBRANCH  21  22
ENDBRANCH  20  21
ENDBRANCH  19  20
ENDBRANCH  18  19
ENDBRANCH   1  18
TORSDOF 28
ENDMDL
MODEL 3
REMARK VINA RESULT:     0.663     12.145     16.273
REMARK INTER + INTRA:          -0.879
REMARK INTER:                   0.400
REMARK INTRA:                  -1.279
REMARK UNBOUND:                -2.627
REMARK SMILES CCCCCCCCCCCCCCCCCCCCCCCCCCCCCC(=O)[O-]
REMARK SMILES IDX 16 1 17 2 18 3 19 4 20 5 21 6 22 7 23 8 24 9 25 10 26 11
REMARK SMILES IDX 27 12 28 13 29 14 30 15 31 16 32 17 15 18 14 19 13 20 12 21
REMARK SMILES IDX 11 22 10 23 9 24 8 25 7 26 6 27 5 28 4 29 3 30 2 31 1 32
REMARK H PARENT
REMARK Flexibility Score: inf
ROOT
ATOM      1  C   UNL     1      98.198 121.953 126.401  1.00  0.00     0.000 C 
ENDROOT
BRANCH   1   2
ATOM      2  C   UNL     1      96.851 122.413 126.993  1.00  0.00     0.000 C 
BRANCH   2   3
ATOM      3  C   UNL     1      95.751 122.545 125.925  1.00  0.00     0.000 C 
BRANCH   3   4
ATOM      4  C   UNL     1      95.785 123.924 125.229  1.00  0.00     0.000 C 
BRANCH   4   5
ATOM      5  C   UNL     1      95.023 123.961 123.894  1.00  0.00     0.000 C 
BRANCH   5   6
ATOM      6  C   UNL     1      93.599 124.520 124.039  1.00  0.00     0.000 C 
BRANCH   6   7
ATOM      7  C   UNL     1      92.512 123.466 123.760  1.00  0.00     0.000 C 
BRANCH   7   8
ATOM      8  C   UNL     1      92.974 122.262 122.917  1.00  0.00     0.000 C 
BRANCH   8   9
ATOM      9  C   UNL     1      92.665 122.428 121.419  1.00  0.00     0.000 C 
BRANCH   9  10
ATOM     10  C   UNL     1      93.567 121.563 120.523  1.00  0.00     0.000 C 
BRANCH  10  11
ATOM     11  C   UNL     1      93.431 121.823 119.009  1.00  0.00     0.000 C 
BRANCH  11  12
ATOM     12  C   UNL     1      92.017 122.262 118.575  1.00  0.00     0.000 C 
BRANCH  12  13
ATOM     13  C   UNL     1      92.011 122.874 117.163  1.00  0.00     0.006 C 
BRANCH  13  14
ATOM     14  C   UNL     1      91.289 121.981 116.145  1.00  0.00     0.053 C 
BRANCH  14  15
ATOM     15  C   UNL     1      92.121 120.798 115.757  1.00  0.00     0.041 C 
ATOM     16  O   UNL     1      93.341 120.943 115.481  1.00  0.00    -0.550 OA
ATOM     17  O   UNL     1      91.558 119.528 115.734  1.00  0.00    -0.550 OA
ENDBRANCH  14  15
ENDBRANCH  13  14
ENDBRANCH  12  13
ENDBRANCH  11  12
ENDBRANCH  10  11
ENDBRANCH   9  10
ENDBRANCH   8   9
ENDBRANCH   7   8
ENDBRANCH   6   7
ENDBRANCH   5   6
ENDBRANCH   4   5
ENDBRANCH   3   4
ENDBRANCH   2   3
ENDBRANCH   1   2
BRANCH   1  18
ATOM     18  C   UNL     1      99.300 123.025 126.452  1.00  0.00     0.000 C 
BRANCH  18  19
ATOM     19  C   UNL     1      98.757 124.428 126.770  1.00  0.00     0.000 C 
BRANCH  19  20
ATOM     20  C   UNL     1      98.963 125.415 125.603  1.00  0.00     0.000 C 
BRANCH  20  21
ATOM     21  C   UNL     1      97.665 126.135 125.192  1.00  0.00     0.000 C 
BRANCH  21  22
ATOM     22  C   UNL     1      97.632 127.598 125.674  1.00  0.00     0.000 C 
BRANCH  22  23
ATOM     23  C   UNL     1      97.655 127.704 127.206  1.00  0.00     0.000 C 
BRANCH  23  24
ATOM     24  C   UNL     1      97.820 129.162 127.673  1.00  0.00    -0.000 C 
BRANCH  24  25
ATOM     25  C   UNL     1      96.491 129.933 127.712  1.00  0.00    -0.000 C 
BRANCH  25  26
ATOM     26  C   UNL     1      96.579 131.352 128.305  1.00  0.00    -0.000 C 
BRANCH  26  27
ATOM     27  C   UNL     1      95.482 131.636 129.344  1.00  0.00    -0.000 C 
BRANCH  27  28
ATOM     28  C   UNL     1      95.521 130.642 130.520  1.00  0.00    -0.000 C 
BRANCH  28  29
ATOM     29  C   UNL     1      96.665 130.915 131.514  1.00  0.00    -0.000 C 
BRANCH  29  30
ATOM     30  C   UNL     1      96.167 131.579 132.807  1.00  0.00    -0.000 C 
BRANCH  30  31
ATOM     31  C   UNL     1      96.668 133.025 132.908  1.00  0.00    -0.003 C 
ATOM     32  C   UNL     1      96.188 133.859 131.722  1.00  0.00     0.004 C 
ENDBRANCH  30  31
ENDBRANCH  29  30
ENDBRANCH  28  29
ENDBRANCH  27  28
ENDBRANCH  26  27
ENDBRANCH  25  26
ENDBRANCH  24  25
ENDBRANCH  23  24
ENDBRANCH  22  23
ENDBRANCH  21  22
ENDBRANCH  20  21
ENDBRANCH  19  20
ENDBRANCH  18  19
ENDBRANCH   1  18
TORSDOF 28
ENDMDL
MODEL 4
REMARK VINA RESULT:     1.019     13.765     16.007
REMARK INTER + INTRA:           0.061
REMARK INTER:                   0.471
REMARK INTRA:                  -0.410
REMARK UNBOUND:                -2.627
REMARK SMILES CCCCCCCCCCCCCCCCCCCCCCCCCCCCCC(=O)[O-]
REMARK SMILES IDX 16 1 17 2 18 3 19 4 20 5 21 6 22 7 23 8 24 9 25 10 26 11
REMARK SMILES IDX 27 12 28 13 29 14 30 15 31 16 32 17 15 18 14 19 13 20 12 21
REMARK SMILES IDX 11 22 10 23 9 24 8 25 7 26 6 27 5 28 4 29 3 30 2 31 1 32
REMARK H PARENT
REMARK Flexibility Score: inf
ROOT
ATOM      1  C   UNL     1      97.893 128.193 127.397  1.00  0.00     0.000 C 
ENDROOT
BRANCH   1   2
ATOM      2  C   UNL     1      96.838 129.312 127.509  1.00  0.00     0.000 C 
BRANCH   2   3
ATOM      3  C   UNL     1      97.212 130.373 128.560  1.00  0.00     0.000 C 
BRANCH   3   4
ATOM      4  C   UNL     1      96.019 131.291 128.904  1.00  0.00     0.000 C 
BRANCH   4   5
ATOM      5  C   UNL     1      95.069 131.539 127.721  1.00  0.00     0.000 C 
BRANCH   5   6
ATOM      6  C   UNL     1      95.756 132.260 126.551  1.00  0.00     0.000 C 
BRANCH   6   7
ATOM      7  C   UNL     1      94.922 132.225 125.256  1.00  0.00     0.000 C 
BRANCH   7   8
ATOM      8  C   UNL     1      94.981 133.509 124.408  1.00  0.00     0.000 C 
BRANCH   8   9
ATOM      9  C   UNL     1      96.345 133.712 123.726  1.00  0.00     0.000 C 
BRANCH   9  10
ATOM     10  C   UNL     1      96.618 135.181 123.362  1.00  0.00     0.000 C 
BRANCH  10  11
ATOM     11  C   UNL     1      96.449 135.530 121.869  1.00  0.00     0.000 C 
BRANCH  11  12
ATOM     12  C   UNL     1      97.620 136.346 121.281  1.00  0.00     0.000 C 
BRANCH  12  13
ATOM     13  C   UNL     1      97.920 135.958 119.823  1.00  0.00     0.006 C 
BRANCH  13  14
ATOM     14  C   UNL     1      96.836 136.450 118.855  1.00  0.00     0.053 C 
BRANCH  14  15
ATOM     15  C   UNL     1      96.697 137.941 118.889  1.00  0.00     0.041 C 
ATOM     16  O   UNL     1      96.325 138.567 117.863  1.00  0.00    -0.550 OA
ATOM     17  O   UNL     1      96.945 138.637 120.066  1.00  0.00    -0.550 OA
ENDBRANCH  14  15
ENDBRANCH  13  14
ENDBRANCH  12  13
ENDBRANCH  11  12
ENDBRANCH  10  11
ENDBRANCH   9  10
ENDBRANCH   8   9
ENDBRANCH   7   8
ENDBRANCH   6   7
ENDBRANCH   5   6
ENDBRANCH   4   5
ENDBRANCH   3   4
ENDBRANCH   2   3
ENDBRANCH   1   2
BRANCH   1  18
ATOM     18  C   UNL     1      97.569 127.137 126.327  1.00  0.00     0.000 C 
BRANCH  18  19
ATOM     19  C   UNL     1      97.710 125.696 126.846  1.00  0.00     0.000 C 
BRANCH  19  20
ATOM     20  C   UNL     1      97.381 124.648 125.764  1.00  0.00     0.000 C 
BRANCH  20  21
ATOM     21  C   UNL     1      96.676 123.402 126.330  1.00  0.00     0.000 C 
BRANCH  21  22
ATOM     22  C   UNL     1      95.467 122.976 125.475  1.00  0.00     0.000 C 
BRANCH  22  23
ATOM     23  C   UNL     1      95.158 123.990 124.363  1.00  0.00     0.000 C 
BRANCH  23  24
ATOM     24  C   UNL     1      93.654 124.036 124.037  1.00  0.00    -0.000 C 
BRANCH  24  25
ATOM     25  C   UNL     1      93.095 122.676 123.588  1.00  0.00    -0.000 C 
BRANCH  25  26
ATOM     26  C   UNL     1      92.439 122.671 122.194  1.00  0.00    -0.000 C 
BRANCH  26  27
ATOM     27  C   UNL     1      93.457 122.490 121.056  1.00  0.00    -0.000 C 
BRANCH  27  28
ATOM     28  C   UNL     1      92.823 121.861 119.801  1.00  0.00    -0.000 C 
BRANCH  28  29
ATOM     29  C   UNL     1      91.956 122.846 118.994  1.00  0.00    -0.000 C 
BRANCH  29  30
ATOM     30  C   UNL     1      92.047 122.597 117.480  1.00  0.00    -0.000 C 
BRANCH  30  31
ATOM     31  C   UNL     1      92.455 121.148 117.187  1.00  0.00    -0.003 C 
ATOM     32  C   UNL     1      92.005 120.719 115.793  1.00  0.00     0.004 C 
ENDBRANCH  30  31
ENDBRANCH  29  30
ENDBRANCH  28  29
ENDBRANCH  27  28
ENDBRANCH  26  27
ENDBRANCH  25  26
ENDBRANCH  24  25
ENDBRANCH  23  24
ENDBRANCH  22  23
ENDBRANCH  21  22
ENDBRANCH  20  21
ENDBRANCH  19  20
ENDBRANCH  18  19
ENDBRANCH   1  18
TORSDOF 28
ENDMDL
MODEL 5
REMARK VINA RESULT:     1.114     11.396     13.139
REMARK INTER + INTRA:           0.310
REMARK INTER:                   1.264
REMARK INTRA:                  -0.954
REMARK UNBOUND:                -2.627
REMARK SMILES CCCCCCCCCCCCCCCCCCCCCCCCCCCCCC(=O)[O-]
REMARK SMILES IDX 16 1 17 2 18 3 19 4 20 5 21 6 22 7 23 8 24 9 25 10 26 11
REMARK SMILES IDX 27 12 28 13 29 14 30 15 31 16 32 17 15 18 14 19 13 20 12 21
REMARK SMILES IDX 11 22 10 23 9 24 8 25 7 26 6 27 5 28 4 29 3 30 2 31 1 32
REMARK H PARENT
REMARK Flexibility Score: inf
ROOT
ATOM      1  C   UNL     1      94.836 122.521 125.581  1.00  0.00     0.000 C 
ENDROOT
BRANCH   1   2
ATOM      2  C   UNL     1      95.566 122.141 126.885  1.00  0.00     0.000 C 
BRANCH   2   3
ATOM      3  C   UNL     1      96.715 123.108 127.222  1.00  0.00     0.000 C 
BRANCH   3   4
ATOM      4  C   UNL     1      98.077 122.585 126.716  1.00  0.00     0.000 C 
BRANCH   4   5
ATOM      5  C   UNL     1      99.077 123.701 126.371  1.00  0.00     0.000 C 
BRANCH   5   6
ATOM      6  C   UNL     1      98.541 125.101 126.703  1.00  0.00     0.000 C 
BRANCH   6   7
ATOM      7  C   UNL     1      97.955 125.823 125.475  1.00  0.00     0.000 C 
BRANCH   7   8
ATOM      8  C   UNL     1      97.847 127.353 125.608  1.00  0.00     0.000 C 
BRANCH   8   9
ATOM      9  C   UNL     1      97.499 127.805 127.038  1.00  0.00     0.000 C 
BRANCH   9  10
ATOM     10  C   UNL     1      96.889 129.216 127.087  1.00  0.00     0.000 C 
BRANCH  10  11
ATOM     11  C   UNL     1      97.320 130.076 128.293  1.00  0.00     0.000 C 
BRANCH  11  12
ATOM     12  C   UNL     1      96.711 131.494 128.298  1.00  0.00     0.000 C 
BRANCH  12  13
ATOM     13  C   UNL     1      95.579 131.633 129.332  1.00  0.00     0.006 C 
BRANCH  13  14
ATOM     14  C   UNL     1      95.900 130.906 130.645  1.00  0.00     0.053 C 
BRANCH  14  15
ATOM     15  C   UNL     1      96.136 131.868 131.768  1.00  0.00     0.041 C 
ATOM     16  O   UNL     1      95.983 133.105 131.587  1.00  0.00    -0.550 OA
ATOM     17  O   UNL     1      96.491 131.396 133.026  1.00  0.00    -0.550 OA
ENDBRANCH  14  15
ENDBRANCH  13  14
ENDBRANCH  12  13
ENDBRANCH  11  12
ENDBRANCH  10  11
ENDBRANCH   9  10
ENDBRANCH   8   9
ENDBRANCH   7   8
ENDBRANCH   6   7
ENDBRANCH   5   6
ENDBRANCH   4   5
ENDBRANCH   3   4
ENDBRANCH   2   3
ENDBRANCH   1   2
BRANCH   1  18
ATOM     18  C   UNL     1      95.398 123.778 124.896  1.00  0.00     0.000 C 
BRANCH  18  19
ATOM     19  C   UNL     1      94.483 124.313 123.782  1.00  0.00     0.000 C 
BRANCH  19  20
ATOM     20  C   UNL     1      92.989 124.140 124.117  1.00  0.00     0.000 C 
BRANCH  20  21
ATOM     21  C   UNL     1      92.360 122.911 123.435  1.00  0.00     0.000 C 
BRANCH  21  22
ATOM     22  C   UNL     1      93.127 122.493 122.165  1.00  0.00     0.000 C 
BRANCH  22  23
ATOM     23  C   UNL     1      92.389 122.899 120.881  1.00  0.00     0.000 C 
BRANCH  23  24
ATOM     24  C   UNL     1      92.957 122.178 119.645  1.00  0.00    -0.000 C 
BRANCH  24  25
ATOM     25  C   UNL     1      94.141 121.256 119.980  1.00  0.00    -0.000 C 
BRANCH  25  26
ATOM     26  C   UNL     1      94.547 120.284 118.856  1.00  0.00    -0.000 C 
BRANCH  26  27
ATOM     27  C   UNL     1      94.058 120.736 117.470  1.00  0.00    -0.000 C 
BRANCH  27  28
ATOM     28  C   UNL     1      92.560 120.453 117.258  1.00  0.00    -0.000 C 
BRANCH  28  29
ATOM     29  C   UNL     1      92.094 120.672 115.806  1.00  0.00    -0.000 C 
BRANCH  29  30
ATOM     30  C   UNL     1      91.436 122.046 115.607  1.00  0.00    -0.000 C 
BRANCH  30  31
ATOM     31  C   UNL     1      91.802 123.000 116.751  1.00  0.00    -0.003 C 
ATOM     32  C   UNL     1      92.045 124.415 116.232  1.00  0.00     0.004 C 
ENDBRANCH  30  31
ENDBRANCH  29  30
ENDBRANCH  28  29
ENDBRANCH  27  28
ENDBRANCH  26  27
ENDBRANCH  25  26
ENDBRANCH  24  25
ENDBRANCH  23  24
ENDBRANCH  22  23
ENDBRANCH  21  22
ENDBRANCH  20  21
ENDBRANCH  19  20
ENDBRANCH  18  19
ENDBRANCH   1  18
TORSDOF 28
ENDMDL
MODEL 6
REMARK VINA RESULT:     1.252     13.112     15.180
REMARK INTER + INTRA:           0.675
REMARK INTER:                   2.001
REMARK INTRA:                  -1.326
REMARK UNBOUND:                -2.627
REMARK SMILES CCCCCCCCCCCCCCCCCCCCCCCCCCCCCC(=O)[O-]
REMARK SMILES IDX 16 1 17 2 18 3 19 4 20 5 21 6 22 7 23 8 24 9 25 10 26 11
REMARK SMILES IDX 27 12 28 13 29 14 30 15 31 16 32 17 15 18 14 19 13 20 12 21
REMARK SMILES IDX 11 22 10 23 9 24 8 25 7 26 6 27 5 28 4 29 3 30 2 31 1 32
REMARK H PARENT
REMARK Flexibility Score: inf
ROOT
ATOM      1  C   UNL     1      97.920 127.052 125.496  1.00  0.00     0.000 C 
ENDROOT
BRANCH   1   2
ATOM      2  C   UNL     1      97.586 127.439 126.950  1.00  0.00     0.000 C 
BRANCH   2   3
ATOM      3  C   UNL     1      97.581 128.963 127.168  1.00  0.00     0.000 C 
BRANCH   3   4
ATOM      4  C   UNL     1      96.488 129.399 128.169  1.00  0.00     0.000 C 
BRANCH   4   5
ATOM      5  C   UNL     1      96.886 130.609 129.030  1.00  0.00     0.000 C 
BRANCH   5   6
ATOM      6  C   UNL     1      95.752 131.636 129.170  1.00  0.00     0.000 C 
BRANCH   6   7
ATOM      7  C   UNL     1      94.879 131.736 127.905  1.00  0.00     0.000 C 
BRANCH   7   8
ATOM      8  C   UNL     1      95.629 132.156 126.627  1.00  0.00     0.000 C 
BRANCH   8   9
ATOM      9  C   UNL     1      94.755 132.066 125.364  1.00  0.00     0.000 C 
BRANCH   9  10
ATOM     10  C   UNL     1      94.825 133.335 124.497  1.00  0.00     0.000 C 
BRANCH  10  11
ATOM     11  C   UNL     1      96.237 133.720 124.010  1.00  0.00     0.000 C 
BRANCH  11  12
ATOM     12  C   UNL     1      96.345 135.170 123.493  1.00  0.00     0.000 C 
BRANCH  12  13
ATOM     13  C   UNL     1      97.230 135.271 122.238  1.00  0.00     0.006 C 
BRANCH  13  14
ATOM     14  C   UNL     1      96.467 135.833 121.032  1.00  0.00     0.053 C 
BRANCH  14  15
ATOM     15  C   UNL     1      97.382 136.124 119.883  1.00  0.00     0.041 C 
ATOM     16  O   UNL     1      97.023 136.912 118.969  1.00  0.00    -0.550 OA
ATOM     17  O   UNL     1      98.648 135.553 119.838  1.00  0.00    -0.550 OA
ENDBRANCH  14  15
ENDBRANCH  13  14
ENDBRANCH  12  13
ENDBRANCH  11  12
ENDBRANCH  10  11
ENDBRANCH   9  10
ENDBRANCH   8   9
ENDBRANCH   7   8
ENDBRANCH   6   7
ENDBRANCH   5   6
ENDBRANCH   4   5
ENDBRANCH   3   4
ENDBRANCH   2   3
ENDBRANCH   1   2
BRANCH   1  18
ATOM     18  C   UNL     1      98.014 125.535 125.261  1.00  0.00     0.000 C 
BRANCH  18  19
ATOM     19  C   UNL     1      97.599 124.711 126.492  1.00  0.00     0.000 C 
BRANCH  19  20
ATOM     20  C   UNL     1      96.441 123.740 126.184  1.00  0.00     0.000 C 
BRANCH  20  21
ATOM     21  C   UNL     1      96.245 123.502 124.674  1.00  0.00     0.000 C 
BRANCH  21  22
ATOM     22  C   UNL     1      94.962 124.169 124.142  1.00  0.00     0.000 C 
BRANCH  22  23
ATOM     23  C   UNL     1      93.704 123.352 124.471  1.00  0.00     0.000 C 
BRANCH  23  24
ATOM     24  C   UNL     1      92.677 123.401 123.325  1.00  0.00    -0.000 C 
BRANCH  24  25
ATOM     25  C   UNL     1      92.717 122.152 122.429  1.00  0.00    -0.000 C 
BRANCH  25  26
ATOM     26  C   UNL     1      92.633 122.432 120.917  1.00  0.00    -0.000 C 
BRANCH  26  27
ATOM     27  C   UNL     1      93.718 121.699 120.112  1.00  0.00    -0.000 C 
BRANCH  27  28
ATOM     28  C   UNL     1      93.296 121.454 118.652  1.00  0.00    -0.000 C 
BRANCH  28  29
ATOM     29  C   UNL     1      92.315 122.512 118.112  1.00  0.00    -0.000 C 
BRANCH  29  30
ATOM     30  C   UNL     1      91.516 122.002 116.902  1.00  0.00    -0.000 C 
BRANCH  30  31
ATOM     31  C   UNL     1      92.418 121.216 115.942  1.00  0.00    -0.003 C 
ATOM     32  C   UNL     1      91.700 119.985 115.394  1.00  0.00     0.004 C 
ENDBRANCH  30  31
ENDBRANCH  29  30
ENDBRANCH  28  29
ENDBRANCH  27  28
ENDBRANCH  26  27
ENDBRANCH  25  26
ENDBRANCH  24  25
ENDBRANCH  23  24
ENDBRANCH  22  23
ENDBRANCH  21  22
ENDBRANCH  20  21
ENDBRANCH  19  20
ENDBRANCH  18  19
ENDBRANCH   1  18
TORSDOF 28
ENDMDL
MODEL 7
REMARK VINA RESULT:     1.419     13.488     16.618
REMARK INTER + INTRA:           1.115
REMARK INTER:                   2.709
REMARK INTRA:                  -1.594
REMARK UNBOUND:                -2.627
REMARK SMILES CCCCCCCCCCCCCCCCCCCCCCCCCCCCCC(=O)[O-]
REMARK SMILES IDX 16 1 17 2 18 3 19 4 20 5 21 6 22 7 23 8 24 9 25 10 26 11
REMARK SMILES IDX 27 12 28 13 29 14 30 15 31 16 32 17 15 18 14 19 13 20 12 21
REMARK SMILES IDX 11 22 10 23 9 24 8 25 7 26 6 27 5 28 4 29 3 30 2 31 1 32
REMARK H PARENT
REMARK Flexibility Score: inf
ROOT
ATOM      1  C   UNL     1      97.999 126.957 126.172  1.00  0.00     0.000 C 
ENDROOT
BRANCH   1   2
ATOM      2  C   UNL     1      97.620 125.858 127.184  1.00  0.00     0.000 C 
BRANCH   2   3
ATOM      3  C   UNL     1      98.000 124.448 126.695  1.00  0.00     0.000 C 
BRANCH   3   4
ATOM      4  C   UNL     1      96.809 123.729 126.026  1.00  0.00     0.000 C 
BRANCH   4   5
ATOM      5  C   UNL     1      96.687 124.005 124.519  1.00  0.00     0.000 C 
BRANCH   5   6
ATOM      6  C   UNL     1      95.245 124.309 124.086  1.00  0.00     0.000 C 
BRANCH   6   7
ATOM      7  C   UNL     1      94.249 123.220 124.526  1.00  0.00     0.000 C 
BRANCH   7   8
ATOM      8  C   UNL     1      92.770 123.528 124.222  1.00  0.00     0.000 C 
BRANCH   8   9
ATOM      9  C   UNL     1      92.416 123.347 122.736  1.00  0.00     0.000 C 
BRANCH   9  10
ATOM     10  C   UNL     1      93.017 122.068 122.129  1.00  0.00     0.000 C 
BRANCH  10  11
ATOM     11  C   UNL     1      92.757 121.871 120.621  1.00  0.00     0.000 C 
BRANCH  11  12
ATOM     12  C   UNL     1      92.211 123.129 119.912  1.00  0.00     0.000 C 
BRANCH  12  13
ATOM     13  C   UNL     1      92.312 123.018 118.381  1.00  0.00     0.006 C 
BRANCH  13  14
ATOM     14  C   UNL     1      92.364 121.560 117.905  1.00  0.00     0.053 C 
BRANCH  14  15
ATOM     15  C   UNL     1      91.926 121.426 116.480  1.00  0.00     0.041 C 
ATOM     16  O   UNL     1      91.309 122.366 115.914  1.00  0.00    -0.550 OA
ATOM     17  O   UNL     1      92.230 120.274 115.764  1.00  0.00    -0.550 OA
ENDBRANCH  14  15
ENDBRANCH  13  14
ENDBRANCH  12  13
ENDBRANCH  11  12
ENDBRANCH  10  11
ENDBRANCH   9  10
ENDBRANCH   8   9
ENDBRANCH   7   8
ENDBRANCH   6   7
ENDBRANCH   5   6
ENDBRANCH   4   5
ENDBRANCH   3   4
ENDBRANCH   2   3
ENDBRANCH   1   2
BRANCH   1  18
ATOM     18  C   UNL     1      97.252 128.284 126.384  1.00  0.00     0.000 C 
BRANCH  18  19
ATOM     19  C   UNL     1      97.246 128.741 127.853  1.00  0.00     0.000 C 
BRANCH  19  20
ATOM     20  C   UNL     1      97.402 130.268 127.992  1.00  0.00     0.000 C 
BRANCH  20  21
ATOM     21  C   UNL     1      96.302 130.906 128.862  1.00  0.00     0.000 C 
BRANCH  21  22
ATOM     22  C   UNL     1      95.221 131.604 128.014  1.00  0.00     0.000 C 
BRANCH  22  23
ATOM     23  C   UNL     1      95.728 131.964 126.609  1.00  0.00     0.000 C 
BRANCH  23  24
ATOM     24  C   UNL     1      94.570 132.333 125.663  1.00  0.00    -0.000 C 
BRANCH  24  25
ATOM     25  C   UNL     1      95.050 132.753 124.264  1.00  0.00    -0.000 C 
BRANCH  25  26
ATOM     26  C   UNL     1      95.300 134.263 124.089  1.00  0.00    -0.000 C 
BRANCH  26  27
ATOM     27  C   UNL     1      96.630 134.570 123.380  1.00  0.00    -0.000 C 
BRANCH  27  28
ATOM     28  C   UNL     1      96.467 135.619 122.265  1.00  0.00    -0.000 C 
BRANCH  28  29
ATOM     29  C   UNL     1      97.192 135.242 120.959  1.00  0.00    -0.000 C 
BRANCH  29  30
ATOM     30  C   UNL     1      97.860 136.455 120.293  1.00  0.00    -0.000 C 
BRANCH  30  31
ATOM     31  C   UNL     1      96.898 137.649 120.237  1.00  0.00    -0.003 C 
ATOM     32  C   UNL     1      96.443 137.924 118.806  1.00  0.00     0.004 C 
ENDBRANCH  30  31
ENDBRANCH  29  30
ENDBRANCH  28  29
ENDBRANCH  27  28
ENDBRANCH  26  27
ENDBRANCH  25  26
ENDBRANCH  24  25
ENDBRANCH  23  24
ENDBRANCH  22  23
ENDBRANCH  21  22
ENDBRANCH  20  21
ENDBRANCH  19  20
ENDBRANCH  18  19
ENDBRANCH   1  18
TORSDOF 28
ENDMDL
