MODEL 1
REMARK VINA RESULT:    -4.178      0.000      0.000
REMARK INTER + INTRA:          -9.079
REMARK INTER:                  -7.842
REMARK INTRA:                  -1.237
REMARK UNBOUND:                -1.237
REMARK SMILES O=C([O-])CCCCCCCCCCCCCCC(=O)[O-]
REMARK SMILES IDX 10 1 9 2 8 3 7 4 6 5 5 6 4 7 2 8 1 9 3 10 11 11 12 12 13 13
REMARK SMILES IDX 14 14 15 15 16 16 17 17 18 18 19 19 20 20
REMARK H PARENT
REMARK Flexibility Score: inf
ROOT
ATOM      1  C   UNL     1      -1.509  11.365  -4.350  1.00  0.00     0.000 C 
ENDROOT
BRANCH   1   2
ATOM      2  C   UNL     1      -0.461  12.391  -3.893  1.00  0.00     0.000 C 
BRANCH   2   3
ATOM      3  C   UNL     1       0.942  11.779  -3.753  1.00  0.00     0.000 C 
BRANCH   3   4
ATOM      4  C   UNL     1       1.068  10.862  -2.524  1.00  0.00     0.000 C 
BRANCH   4   5
ATOM      5  C   UNL     1       2.242   9.878  -2.640  1.00  0.00     0.000 C 
BRANCH   5   6
ATOM      6  C   UNL     1       2.849   9.519  -1.273  1.00  0.00     0.006 C 
BRANCH   6   7
ATOM      7  C   UNL     1       2.467   8.102  -0.824  1.00  0.00     0.053 C 
BRANCH   7   8
ATOM      8  C   UNL     1       1.489   8.124   0.312  1.00  0.00     0.041 C 
ATOM      9  O   UNL     1       0.546   8.959   0.319  1.00  0.00    -0.550 OA
ATOM     10  O   UNL     1       1.598   7.200   1.343  1.00  0.00    -0.550 OA
ENDBRANCH   7   8
ENDBRANCH   6   7
ENDBRANCH   5   6
ENDBRANCH   4   5
ENDBRANCH   3   4
ENDBRANCH   2   3
ENDBRANCH   1   2
BRANCH   1  11
ATOM     11  C   UNL     1      -2.885  12.022  -4.512  1.00  0.00     0.000 C 
BRANCH  11  12
ATOM     12  C   UNL     1      -2.911  12.955  -5.728  1.00  0.00     0.000 C 
BRANCH  12  13
ATOM     13  C   UNL     1      -3.362  14.366  -5.331  1.00  0.00     0.000 C 
BRANCH  13  14
ATOM     14  C   UNL     1      -2.554  15.434  -6.084  1.00  0.00     0.000 C 
BRANCH  14  15
ATOM     15  C   UNL     1      -1.494  16.109  -5.200  1.00  0.00     0.000 C 
BRANCH  15  16
ATOM     16  C   UNL     1      -1.718  15.845  -3.701  1.00  0.00     0.006 C 
BRANCH  16  17
ATOM     17  C   UNL     1      -0.412  15.918  -2.898  1.00  0.00     0.053 C 
BRANCH  17  18
ATOM     18  C   UNL     1      -0.664  15.898  -1.422  1.00  0.00     0.041 C 
ATOM     19  O   UNL     1      -1.838  16.001  -0.978  1.00  0.00    -0.550 OA
ATOM     20  O   UNL     1       0.401  15.796  -0.535  1.00  0.00    -0.550 OA
ENDBRANCH  17  18
ENDBRANCH  16  17
ENDBRANCH  15  16
ENDBRANCH  14  15
ENDBRANCH  13  14
ENDBRANCH  12  13
ENDBRANCH  11  12
ENDBRANCH   1  11
TORSDOF 15
ENDMDL
MODEL 2
REMARK VINA RESULT:    -3.880      0.874      7.395
REMARK INTER + INTRA:          -8.519
REMARK INTER:                  -7.303
REMARK INTRA:                  -1.216
REMARK UNBOUND:                -1.237
REMARK SMILES O=C([O-])CCCCCCCCCCCCCCC(=O)[O-]
REMARK SMILES IDX 10 1 9 2 8 3 7 4 6 5 5 6 4 7 2 8 1 9 3 10 11 11 12 12 13 13
REMARK SMILES IDX 14 14 15 15 16 16 17 17 18 18 19 19 20 20
REMARK H PARENT
REMARK Flexibility Score: inf
ROOT
ATOM      1  C   UNL     1      -1.861  11.689  -4.679  1.00  0.00     0.000 C 
ENDROOT
BRANCH   1   2
ATOM      2  C   UNL     1      -3.065  12.505  -5.173  1.00  0.00     0.000 C 
BRANCH   2   3
ATOM      3  C   UNL     1      -3.035  13.960  -4.681  1.00  0.00     0.000 C 
BRANCH   3   4
ATOM      4  C   UNL     1      -2.766  14.963  -5.816  1.00  0.00     0.000 C 
BRANCH   4   5
ATOM      5  C   UNL     1      -1.424  15.693  -5.653  1.00  0.00     0.000 C 
BRANCH   5   6
ATOM      6  C   UNL     1      -1.411  16.642  -4.443  1.00  0.00     0.006 C 
BRANCH   6   7
ATOM      7  C   UNL     1      -0.275  16.317  -3.464  1.00  0.00     0.053 C 
BRANCH   7   8
ATOM      8  C   UNL     1      -0.797  15.968  -2.103  1.00  0.00     0.041 C 
ATOM      9  O   UNL     1       0.002  15.745  -1.157  1.00  0.00    -0.550 OA
ATOM     10  O   UNL     1      -2.166  15.923  -1.873  1.00  0.00    -0.550 OA
ENDBRANCH   7   8
ENDBRANCH   6   7
ENDBRANCH   5   6
ENDBRANCH   4   5
ENDBRANCH   3   4
ENDBRANCH   2   3
ENDBRANCH   1   2
BRANCH   1  11
ATOM     11  C   UNL     1      -0.971  12.528  -3.755  1.00  0.00     0.000 C 
BRANCH  11  12
ATOM     12  C   UNL     1       0.502  12.124  -3.891  1.00  0.00     0.000 C 
BRANCH  12  13
ATOM     13  C   UNL     1       0.862  11.011  -2.900  1.00  0.00     0.000 C 
BRANCH  13  14
ATOM     14  C   UNL     1       2.334  10.596  -3.050  1.00  0.00     0.000 C 
BRANCH  14  15
ATOM     15  C   UNL     1       2.680   9.335  -2.242  1.00  0.00     0.000 C 
BRANCH  15  16
ATOM     16  C   UNL     1       2.026   9.326  -0.850  1.00  0.00     0.006 C 
BRANCH  16  17
ATOM     17  C   UNL     1       2.937   8.699   0.214  1.00  0.00     0.053 C 
BRANCH  17  18
ATOM     18  C   UNL     1       2.242   7.609   0.971  1.00  0.00     0.041 C 
ATOM     19  O   UNL     1       0.985   7.540   0.970  1.00  0.00    -0.550 OA
ATOM     20  O   UNL     1       2.981   6.686   1.700  1.00  0.00    -0.550 OA
ENDBRANCH  17  18
ENDBRANCH  16  17
ENDBRANCH  15  16
ENDBRANCH  14  15
ENDBRANCH  13  14
ENDBRANCH  12  13
ENDBRANCH  11  12
ENDBRANCH   1  11
TORSDOF 15
ENDMDL
MODEL 3
REMARK VINA RESULT:    -3.850      1.000      1.567
REMARK INTER + INTRA:          -8.463
REMARK INTER:                  -7.274
REMARK INTRA:                  -1.189
REMARK UNBOUND:                -1.237
REMARK SMILES O=C([O-])CCCCCCCCCCCCCCC(=O)[O-]
REMARK SMILES IDX 10 1 9 2 8 3 7 4 6 5 5 6 4 7 2 8 1 9 3 10 11 11 12 12 13 13
REMARK SMILES IDX 14 14 15 15 16 16 17 17 18 18 19 19 20 20
REMARK H PARENT
REMARK Flexibility Score: inf
ROOT
ATOM      1  C   UNL     1      -0.144  12.232  -3.897  1.00  0.00     0.000 C 
ENDROOT
BRANCH   1   2
ATOM      2  C   UNL     1       0.884  11.374  -3.146  1.00  0.00     0.000 C 
BRANCH   2   3
ATOM      3  C   UNL     1       0.259  10.583  -1.986  1.00  0.00     0.000 C 
BRANCH   3   4
ATOM      4  C   UNL     1       1.316   9.978  -1.045  1.00  0.00     0.000 C 
BRANCH   4   5
ATOM      5  C   UNL     1       2.550   9.459  -1.800  1.00  0.00     0.000 C 
BRANCH   5   6
ATOM      6  C   UNL     1       3.181   8.230  -1.125  1.00  0.00     0.006 C 
BRANCH   6   7
ATOM      7  C   UNL     1       3.329   8.414   0.392  1.00  0.00     0.053 C 
BRANCH   7   8
ATOM      8  C   UNL     1       2.655   7.314   1.153  1.00  0.00     0.041 C 
ATOM      9  O   UNL     1       1.404   7.186   1.106  1.00  0.00    -0.550 OA
ATOM     10  O   UNL     1       3.412   6.409   1.886  1.00  0.00    -0.550 OA
ENDBRANCH   7   8
ENDBRANCH   6   7
ENDBRANCH   5   6
ENDBRANCH   4   5
ENDBRANCH   3   4
ENDBRANCH   2   3
ENDBRANCH   1   2
BRANCH   1  11
ATOM     11  C   UNL     1      -1.360  11.396  -4.312  1.00  0.00     0.000 C 
BRANCH  11  12
ATOM     12  C   UNL     1      -2.635  12.247  -4.330  1.00  0.00     0.000 C 
BRANCH  12  13
ATOM     13  C   UNL     1      -2.817  12.939  -5.686  1.00  0.00     0.000 C 
BRANCH  13  14
ATOM     14  C   UNL     1      -3.210  14.413  -5.503  1.00  0.00     0.000 C 
BRANCH  14  15
ATOM     15  C   UNL     1      -2.117  15.382  -5.982  1.00  0.00     0.000 C 
BRANCH  15  16
ATOM     16  C   UNL     1      -1.693  16.381  -4.892  1.00  0.00     0.006 C 
BRANCH  16  17
ATOM     17  C   UNL     1      -0.610  15.807  -3.969  1.00  0.00     0.053 C 
BRANCH  17  18
ATOM     18  C   UNL     1      -1.033  15.829  -2.532  1.00  0.00     0.041 C 
ATOM     19  O   UNL     1      -2.256  15.834  -2.232  1.00  0.00    -0.550 OA
ATOM     20  O   UNL     1      -0.077  15.873  -1.525  1.00  0.00    -0.550 OA
ENDBRANCH  17  18
ENDBRANCH  16  17
ENDBRANCH  15  16
ENDBRANCH  14  15
ENDBRANCH  13  14
ENDBRANCH  12  13
ENDBRANCH  11  12
ENDBRANCH   1  11
TORSDOF 15
ENDMDL
MODEL 4
REMARK VINA RESULT:    -3.802      1.347      1.881
REMARK INTER + INTRA:          -8.373
REMARK INTER:                  -7.072
REMARK INTRA:                  -1.302
REMARK UNBOUND:                -1.237
REMARK SMILES O=C([O-])CCCCCCCCCCCCCCC(=O)[O-]
REMARK SMILES IDX 10 1 9 2 8 3 7 4 6 5 5 6 4 7 2 8 1 9 3 10 11 11 12 12 13 13
REMARK SMILES IDX 14 14 15 15 16 16 17 17 18 18 19 19 20 20
REMARK H PARENT
REMARK Flexibility Score: inf
ROOT
ATOM      1  C   UNL     1       0.299  12.518  -4.123  1.00  0.00     0.000 C 
ENDROOT
BRANCH   1   2
ATOM      2  C   UNL     1       0.458  11.414  -3.067  1.00  0.00     0.000 C 
BRANCH   2   3
ATOM      3  C   UNL     1       1.788  10.656  -3.200  1.00  0.00     0.000 C 
BRANCH   3   4
ATOM      4  C   UNL     1       2.194   9.942  -1.899  1.00  0.00     0.000 C 
BRANCH   4   5
ATOM      5  C   UNL     1       1.038   9.849  -0.891  1.00  0.00     0.000 C 
BRANCH   5   6
ATOM      6  C   UNL     1       1.026   8.513  -0.128  1.00  0.00     0.006 C 
BRANCH   6   7
ATOM      7  C   UNL     1       2.340   7.738  -0.297  1.00  0.00     0.053 C 
BRANCH   7   8
ATOM      8  C   UNL     1       3.098   7.643   0.992  1.00  0.00     0.041 C 
ATOM      9  O   UNL     1       2.841   6.723   1.811  1.00  0.00    -0.550 OA
ATOM     10  O   UNL     1       4.113   8.550   1.271  1.00  0.00    -0.550 OA
ENDBRANCH   7   8
ENDBRANCH   6   7
ENDBRANCH   5   6
ENDBRANCH   4   5
ENDBRANCH   3   4
ENDBRANCH   2   3
ENDBRANCH   1   2
BRANCH   1  11
ATOM     11  C   UNL     1      -1.169  12.940  -4.260  1.00  0.00     0.000 C 
BRANCH  11  12
ATOM     12  C   UNL     1      -1.374  13.831  -5.490  1.00  0.00     0.000 C 
BRANCH  12  13
ATOM     13  C   UNL     1      -2.680  14.627  -5.383  1.00  0.00     0.000 C 
BRANCH  13  14
ATOM     14  C   UNL     1      -2.406  16.139  -5.404  1.00  0.00     0.000 C 
BRANCH  14  15
ATOM     15  C   UNL     1      -0.905  16.470  -5.415  1.00  0.00     0.000 C 
BRANCH  15  16
ATOM     16  C   UNL     1      -0.439  17.143  -4.113  1.00  0.00     0.006 C 
BRANCH  16  17
ATOM     17  C   UNL     1       0.210  16.145  -3.144  1.00  0.00     0.053 C 
BRANCH  17  18
ATOM     18  C   UNL     1      -0.583  15.995  -1.883  1.00  0.00     0.041 C 
ATOM     19  O   UNL     1       0.004  15.924  -0.771  1.00  0.00    -0.550 OA
ATOM     20  O   UNL     1      -1.968  15.905  -1.937  1.00  0.00    -0.550 OA
ENDBRANCH  17  18
ENDBRANCH  16  17
ENDBRANCH  15  16
ENDBRANCH  14  15
ENDBRANCH  13  14
ENDBRANCH  12  13
ENDBRANCH  11  12
ENDBRANCH   1  11
TORSDOF 15
ENDMDL
MODEL 5
REMARK VINA RESULT:    -3.549      2.009      2.557
REMARK INTER + INTRA:          -7.898
REMARK INTER:                  -6.762
REMARK INTRA:                  -1.136
REMARK UNBOUND:                -1.237
REMARK SMILES O=C([O-])CCCCCCCCCCCCCCC(=O)[O-]
REMARK SMILES IDX 10 1 9 2 8 3 7 4 6 5 5 6 4 7 2 8 1 9 3 10 11 11 12 12 13 13
REMARK SMILES IDX 14 14 15 15 16 16 17 17 18 18 19 19 20 20
REMARK H PARENT
REMARK Flexibility Score: inf
ROOT
ATOM      1  C   UNL     1      -2.921  11.787  -4.627  1.00  0.00     0.000 C 
ENDROOT
BRANCH   1   2
ATOM      2  C   UNL     1      -1.533  11.256  -4.238  1.00  0.00     0.000 C 
BRANCH   2   3
ATOM      3  C   UNL     1      -0.516  12.382  -3.999  1.00  0.00     0.000 C 
BRANCH   3   4
ATOM      4  C   UNL     1       0.903  11.850  -3.725  1.00  0.00     0.000 C 
BRANCH   4   5
ATOM      5  C   UNL     1       0.957  10.918  -2.504  1.00  0.00     0.000 C 
BRANCH   5   6
ATOM      6  C   UNL     1       2.163   9.964  -2.544  1.00  0.00     0.006 C 
BRANCH   6   7
ATOM      7  C   UNL     1       2.565   9.480  -1.144  1.00  0.00     0.053 C 
BRANCH   7   8
ATOM      8  C   UNL     1       1.458   8.717  -0.481  1.00  0.00     0.041 C 
ATOM      9  O   UNL     1       1.417   7.462  -0.565  1.00  0.00    -0.550 OA
ATOM     10  O   UNL     1       0.494   9.390   0.258  1.00  0.00    -0.550 OA
ENDBRANCH   7   8
ENDBRANCH   6   7
ENDBRANCH   5   6
ENDBRANCH   4   5
ENDBRANCH   3   4
ENDBRANCH   2   3
ENDBRANCH   1   2
BRANCH   1  11
ATOM     11  C   UNL     1      -2.812  12.864  -5.713  1.00  0.00     0.000 C 
BRANCH  11  12
ATOM     12  C   UNL     1      -3.566  14.135  -5.306  1.00  0.00     0.000 C 
BRANCH  12  13
ATOM     13  C   UNL     1      -2.971  15.372  -5.991  1.00  0.00     0.000 C 
BRANCH  13  14
ATOM     14  C   UNL     1      -1.488  15.542  -5.628  1.00  0.00     0.000 C 
BRANCH  14  15
ATOM     15  C   UNL     1      -1.285  16.103  -4.211  1.00  0.00     0.000 C 
BRANCH  15  16
ATOM     16  C   UNL     1       0.198  16.180  -3.812  1.00  0.00     0.006 C 
BRANCH  16  17
ATOM     17  C   UNL     1       1.113  16.408  -5.024  1.00  0.00     0.053 C 
BRANCH  17  18
ATOM     18  C   UNL     1       2.258  17.316  -4.696  1.00  0.00     0.041 C 
ATOM     19  O   UNL     1       2.068  18.555  -4.571  1.00  0.00    -0.550 OA
ATOM     20  O   UNL     1       3.540  16.799  -4.557  1.00  0.00    -0.550 OA
ENDBRANCH  17  18
ENDBRANCH  16  17
ENDBRANCH  15  16
ENDBRANCH  14  15
ENDBRANCH  13  14
ENDBRANCH  12  13
ENDBRANCH  11  12
ENDBRANCH   1  11
TORSDOF 15
ENDMDL
MODEL 6
REMARK VINA RESULT:    -3.501      1.858      8.164
REMARK INTER + INTRA:          -7.807
REMARK INTER:                  -6.619
REMARK INTRA:                  -1.188
REMARK UNBOUND:                -1.237
REMARK SMILES O=C([O-])CCCCCCCCCCCCCCC(=O)[O-]
REMARK SMILES IDX 10 1 9 2 8 3 7 4 6 5 5 6 4 7 2 8 1 9 3 10 11 11 12 12 13 13
REMARK SMILES IDX 14 14 15 15 16 16 17 17 18 18 19 19 20 20
REMARK H PARENT
REMARK Flexibility Score: inf
ROOT
ATOM      1  C   UNL     1      -1.099  11.671  -3.660  1.00  0.00     0.000 C 
ENDROOT
BRANCH   1   2
ATOM      2  C   UNL     1      -1.879  12.004  -4.940  1.00  0.00     0.000 C 
BRANCH   2   3
ATOM      3  C   UNL     1      -3.032  12.988  -4.691  1.00  0.00     0.000 C 
BRANCH   3   4
ATOM      4  C   UNL     1      -3.168  14.036  -5.809  1.00  0.00     0.000 C 
BRANCH   4   5
ATOM      5  C   UNL     1      -2.049  15.089  -5.769  1.00  0.00     0.000 C 
BRANCH   5   6
ATOM      6  C   UNL     1      -1.955  15.799  -4.408  1.00  0.00     0.006 C 
BRANCH   6   7
ATOM      7  C   UNL     1      -0.529  15.779  -3.841  1.00  0.00     0.053 C 
BRANCH   7   8
ATOM      8  C   UNL     1       0.353  16.781  -4.523  1.00  0.00     0.041 C 
ATOM      9  O   UNL     1       1.222  16.400  -5.350  1.00  0.00    -0.550 OA
ATOM     10  O   UNL     1       0.190  18.137  -4.271  1.00  0.00    -0.550 OA
ENDBRANCH   7   8
ENDBRANCH   6   7
ENDBRANCH   5   6
ENDBRANCH   4   5
ENDBRANCH   3   4
ENDBRANCH   2   3
ENDBRANCH   1   2
BRANCH   1  11
ATOM     11  C   UNL     1       0.357  12.140  -3.766  1.00  0.00     0.000 C 
BRANCH  11  12
ATOM     12  C   UNL     1       1.313  11.113  -3.147  1.00  0.00     0.000 C 
BRANCH  12  13
ATOM     13  C   UNL     1       0.693  10.459  -1.906  1.00  0.00     0.000 C 
BRANCH  13  14
ATOM     14  C   UNL     1       1.780   9.867  -0.996  1.00  0.00     0.000 C 
BRANCH  14  15
ATOM     15  C   UNL     1       2.747   8.941  -1.751  1.00  0.00     0.000 C 
BRANCH  15  16
ATOM     16  C   UNL     1       3.726   8.216  -0.812  1.00  0.00     0.006 C 
BRANCH  16  17
ATOM     17  C   UNL     1       3.357   8.402   0.666  1.00  0.00     0.053 C 
BRANCH  17  18
ATOM     18  C   UNL     1       2.753   7.161   1.250  1.00  0.00     0.041 C 
ATOM     19  O   UNL     1       3.445   6.403   1.979  1.00  0.00    -0.550 OA
ATOM     20  O   UNL     1       1.434   6.828   0.966  1.00  0.00    -0.550 OA
ENDBRANCH  17  18
ENDBRANCH  16  17
ENDBRANCH  15  16
ENDBRANCH  14  15
ENDBRANCH  13  14
ENDBRANCH  12  13
ENDBRANCH  11  12
ENDBRANCH   1  11
TORSDOF 15
ENDMDL
MODEL 7
REMARK VINA RESULT:    -3.404      2.301      2.677
REMARK INTER + INTRA:          -7.626
REMARK INTER:                  -6.685
REMARK INTRA:                  -0.941
REMARK UNBOUND:                -1.237
REMARK SMILES O=C([O-])CCCCCCCCCCCCCCC(=O)[O-]
REMARK SMILES IDX 10 1 9 2 8 3 7 4 6 5 5 6 4 7 2 8 1 9 3 10 11 11 12 12 13 13
REMARK SMILES IDX 14 14 15 15 16 16 17 17 18 18 19 19 20 20
REMARK H PARENT
REMARK Flexibility Score: inf
ROOT
ATOM      1  C   UNL     1      -1.684  11.708  -4.508  1.00  0.00     0.000 C 
ENDROOT
BRANCH   1   2
ATOM      2  C   UNL     1      -0.437  12.366  -3.900  1.00  0.00     0.000 C 
BRANCH   2   3
ATOM      3  C   UNL     1       0.648  11.344  -3.526  1.00  0.00     0.000 C 
BRANCH   3   4
ATOM      4  C   UNL     1       0.790  11.163  -2.004  1.00  0.00     0.000 C 
BRANCH   4   5
ATOM      5  C   UNL     1       1.376   9.794  -1.626  1.00  0.00     0.000 C 
BRANCH   5   6
ATOM      6  C   UNL     1       1.225   9.481  -0.127  1.00  0.00     0.006 C 
BRANCH   6   7
ATOM      7  C   UNL     1       1.510   8.007   0.188  1.00  0.00     0.053 C 
BRANCH   7   8
ATOM      8  C   UNL     1       2.980   7.733   0.283  1.00  0.00     0.041 C 
ATOM      9  O   UNL     1       3.593   7.936   1.363  1.00  0.00    -0.550 OA
ATOM     10  O   UNL     1       3.665   7.221  -0.812  1.00  0.00    -0.550 OA
ENDBRANCH   7   8
ENDBRANCH   6   7
ENDBRANCH   5   6
ENDBRANCH   4   5
ENDBRANCH   3   4
ENDBRANCH   2   3
ENDBRANCH   1   2
BRANCH   1  11
ATOM     11  C   UNL     1      -2.601  12.756  -5.151  1.00  0.00     0.000 C 
BRANCH  11  12
ATOM     12  C   UNL     1      -1.855  14.077  -5.376  1.00  0.00     0.000 C 
BRANCH  12  13
ATOM     13  C   UNL     1      -2.821  15.267  -5.346  1.00  0.00     0.000 C 
BRANCH  13  14
ATOM     14  C   UNL     1      -2.227  16.438  -4.549  1.00  0.00     0.000 C 
BRANCH  14  15
ATOM     15  C   UNL     1      -1.704  17.566  -5.452  1.00  0.00     0.000 C 
BRANCH  15  16
ATOM     16  C   UNL     1      -0.351  18.124  -4.978  1.00  0.00     0.006 C 
BRANCH  16  17
ATOM     17  C   UNL     1       0.519  17.049  -4.312  1.00  0.00     0.053 C 
BRANCH  17  18
ATOM     18  C   UNL     1       1.484  16.434  -5.279  1.00  0.00     0.041 C 
ATOM     19  O   UNL     1       2.276  17.163  -5.932  1.00  0.00    -0.550 OA
ATOM     20  O   UNL     1       1.488  15.060  -5.481  1.00  0.00    -0.550 OA
ENDBRANCH  17  18
ENDBRANCH  16  17
ENDBRANCH  15  16
ENDBRANCH  14  15
ENDBRANCH  13  14
ENDBRANCH  12  13
ENDBRANCH  11  12
ENDBRANCH   1  11
TORSDOF 15
ENDMDL
MODEL 8
REMARK VINA RESULT:    -3.401      2.030      7.756
REMARK INTER + INTRA:          -7.620
REMARK INTER:                  -6.742
REMARK INTRA:                  -0.878
REMARK UNBOUND:                -1.237
REMARK SMILES O=C([O-])CCCCCCCCCCCCCCC(=O)[O-]
REMARK SMILES IDX 10 1 9 2 8 3 7 4 6 5 5 6 4 7 2 8 1 9 3 10 11 11 12 12 13 13
REMARK SMILES IDX 14 14 15 15 16 16 17 17 18 18 19 19 20 20
REMARK H PARENT
REMARK Flexibility Score: inf
ROOT
ATOM      1  C   UNL     1      -2.931  11.957  -4.627  1.00  0.00     0.000 C 
ENDROOT
BRANCH   1   2
ATOM      2  C   UNL     1      -2.843  13.025  -5.728  1.00  0.00     0.000 C 
BRANCH   2   3
ATOM      3  C   UNL     1      -3.414  14.380  -5.283  1.00  0.00     0.000 C 
BRANCH   3   4
ATOM      4  C   UNL     1      -2.591  15.570  -5.810  1.00  0.00     0.000 C 
BRANCH   4   5
ATOM      5  C   UNL     1      -1.843  16.310  -4.690  1.00  0.00     0.000 C 
BRANCH   5   6
ATOM      6  C   UNL     1      -1.110  17.564  -5.199  1.00  0.00     0.006 C 
BRANCH   6   7
ATOM      7  C   UNL     1       0.065  17.213  -6.121  1.00  0.00     0.053 C 
BRANCH   7   8
ATOM      8  C   UNL     1       1.384  17.393  -5.432  1.00  0.00     0.041 C 
ATOM      9  O   UNL     1       1.534  17.011  -4.242  1.00  0.00    -0.550 OA
ATOM     10  O   UNL     1       2.456  17.951  -6.116  1.00  0.00    -0.550 OA
ENDBRANCH   7   8
ENDBRANCH   6   7
ENDBRANCH   5   6
ENDBRANCH   4   5
ENDBRANCH   3   4
ENDBRANCH   2   3
ENDBRANCH   1   2
BRANCH   1  11
ATOM     11  C   UNL     1      -1.538  11.432  -4.259  1.00  0.00     0.000 C 
BRANCH  11  12
ATOM     12  C   UNL     1      -0.592  12.582  -3.898  1.00  0.00     0.000 C 
BRANCH  12  13
ATOM     13  C   UNL     1       0.868  12.115  -3.894  1.00  0.00     0.000 C 
BRANCH  13  14
ATOM     14  C   UNL     1       1.078  10.974  -2.886  1.00  0.00     0.000 C 
BRANCH  14  15
ATOM     15  C   UNL     1       2.426  10.260  -3.070  1.00  0.00     0.000 C 
BRANCH  15  16
ATOM     16  C   UNL     1       2.707   9.231  -1.962  1.00  0.00     0.006 C 
BRANCH  16  17
ATOM     17  C   UNL     1       1.890   9.509  -0.692  1.00  0.00     0.053 C 
BRANCH  17  18
ATOM     18  C   UNL     1       2.138   8.479   0.367  1.00  0.00     0.041 C 
ATOM     19  O   UNL     1       1.235   7.657   0.675  1.00  0.00    -0.550 OA
ATOM     20  O   UNL     1       3.355   8.446   1.035  1.00  0.00    -0.550 OA
ENDBRANCH  17  18
ENDBRANCH  16  17
ENDBRANCH  15  16
ENDBRANCH  14  15
ENDBRANCH  13  14
ENDBRANCH  12  13
ENDBRANCH  11  12
ENDBRANCH   1  11
TORSDOF 15
ENDMDL
MODEL 9
REMARK VINA RESULT:    -2.821      1.027      6.890
REMARK INTER + INTRA:          -6.531
REMARK INTER:                  -5.407
REMARK INTRA:                  -1.124
REMARK UNBOUND:                -1.237
REMARK SMILES O=C([O-])CCCCCCCCCCCCCCC(=O)[O-]
REMARK SMILES IDX 10 1 9 2 8 3 7 4 6 5 5 6 4 7 2 8 1 9 3 10 11 11 12 12 13 13
REMARK SMILES IDX 14 14 15 15 16 16 17 17 18 18 19 19 20 20
REMARK H PARENT
REMARK Flexibility Score: inf
ROOT
ATOM      1  C   UNL     1      -2.605  13.924  -4.935  1.00  0.00     0.000 C 
ENDROOT
BRANCH   1   2
ATOM      2  C   UNL     1      -2.394  14.871  -6.125  1.00  0.00     0.000 C 
BRANCH   2   3
ATOM      3  C   UNL     1      -2.245  16.338  -5.694  1.00  0.00     0.000 C 
BRANCH   3   4
ATOM      4  C   UNL     1      -0.884  16.937  -6.092  1.00  0.00     0.000 C 
BRANCH   4   5
ATOM      5  C   UNL     1      -0.018  17.295  -4.874  1.00  0.00     0.000 C 
BRANCH   5   6
ATOM      6  C   UNL     1      -0.730  17.009  -3.540  1.00  0.00     0.006 C 
BRANCH   6   7
ATOM      7  C   UNL     1      -0.040  15.893  -2.743  1.00  0.00     0.053 C 
BRANCH   7   8
ATOM      8  C   UNL     1      -0.424  15.926  -1.295  1.00  0.00     0.041 C 
ATOM      9  O   UNL     1      -1.638  15.921  -0.963  1.00  0.00    -0.550 OA
ATOM     10  O   UNL     1       0.559  15.925  -0.314  1.00  0.00    -0.550 OA
ENDBRANCH   7   8
ENDBRANCH   6   7
ENDBRANCH   5   6
ENDBRANCH   4   5
ENDBRANCH   3   4
ENDBRANCH   2   3
ENDBRANCH   1   2
BRANCH   1  11
ATOM     11  C   UNL     1      -2.300  12.473  -5.326  1.00  0.00     0.000 C 
BRANCH  11  12
ATOM     12  C   UNL     1      -1.505  11.760  -4.226  1.00  0.00     0.000 C 
BRANCH  12  13
ATOM     13  C   UNL     1      -0.171  12.469  -3.962  1.00  0.00     0.000 C 
BRANCH  13  14
ATOM     14  C   UNL     1       0.884  11.479  -3.445  1.00  0.00     0.000 C 
BRANCH  14  15
ATOM     15  C   UNL     1       0.669  11.098  -1.972  1.00  0.00     0.000 C 
BRANCH  15  16
ATOM     16  C   UNL     1       1.454   9.839  -1.565  1.00  0.00     0.006 C 
BRANCH  16  17
ATOM     17  C   UNL     1       0.921   9.218  -0.266  1.00  0.00     0.053 C 
BRANCH  17  18
ATOM     18  C   UNL     1       1.951   8.363   0.406  1.00  0.00     0.041 C 
ATOM     19  O   UNL     1       3.174   8.532   0.158  1.00  0.00    -0.550 OA
ATOM     20  O   UNL     1       1.559   7.361   1.285  1.00  0.00    -0.550 OA
ENDBRANCH  17  18
ENDBRANCH  16  17
ENDBRANCH  15  16
ENDBRANCH  14  15
ENDBRANCH  13  14
ENDBRANCH  12  13
ENDBRANCH  11  12
ENDBRANCH   1  11
TORSDOF 15
ENDMDL
