MODEL 1
REMARK VINA RESULT:    -2.977      0.000      0.000
REMARK INTER + INTRA:          -3.922
REMARK INTER:                  -3.847
REMARK INTRA:                  -0.075
REMARK UNBOUND:                -0.075
REMARK SMILES CCCCCCC=O
REMARK SMILES IDX 4 1 3 2 2 3 1 4 5 5 6 6 7 7 8 8
REMARK H PARENT
REMARK Flexibility Score: inf
ROOT
ATOM      1  C   UNL     1     163.546 165.026 169.770  1.00  0.00     0.000 C 
ENDROOT
BRANCH   1   2
ATOM      2  C   UNL     1     164.478 165.715 168.762  1.00  0.00    -0.000 C 
BRANCH   2   3
ATOM      3  C   UNL     1     165.963 165.528 169.107  1.00  0.00    -0.003 C 
ATOM      4  C   UNL     1     166.804 165.118 167.899  1.00  0.00     0.004 C 
ENDBRANCH   2   3
ENDBRANCH   1   2
BRANCH   1   5
ATOM      5  C   UNL     1     162.299 164.465 169.070  1.00  0.00     0.008 C 
BRANCH   5   6
ATOM      6  C   UNL     1     161.767 163.190 169.741  1.00  0.00     0.072 C 
BRANCH   6   7
ATOM      7  C   UNL     1     160.595 162.606 169.007  1.00  0.00     0.224 C 
ATOM      8  O   UNL     1     160.713 161.574 168.366  1.00  0.00    -0.303 OA
ENDBRANCH   6   7
ENDBRANCH   5   6
ENDBRANCH   1   5
TORSDOF 5
ENDMDL
MODEL 2
REMARK VINA RESULT:    -2.973      5.261      7.566
REMARK INTER + INTRA:          -3.917
REMARK INTER:                  -3.844
REMARK INTRA:                  -0.073
REMARK UNBOUND:                -0.075
REMARK SMILES CCCCCCC=O
REMARK SMILES IDX 4 1 3 2 2 3 1 4 5 5 6 6 7 7 8 8
REMARK H PARENT
REMARK Flexibility Score: inf
ROOT
ATOM      1  C   UNL     1     167.551 166.383 169.854  1.00  0.00     0.000 C 
ENDROOT
BRANCH   1   2
ATOM      2  C   UNL     1     166.740 165.502 168.892  1.00  0.00    -0.000 C 
BRANCH   2   3
ATOM      3  C   UNL     1     165.226 165.599 169.136  1.00  0.00    -0.003 C 
ATOM      4  C   UNL     1     164.466 166.141 167.926  1.00  0.00     0.004 C 
ENDBRANCH   2   3
ENDBRANCH   1   2
BRANCH   1   5
ATOM      5  C   UNL     1     168.878 166.818 169.213  1.00  0.00     0.008 C 
BRANCH   5   6
ATOM      6  C   UNL     1     169.484 168.057 169.889  1.00  0.00     0.072 C 
BRANCH   6   7
ATOM      7  C   UNL     1     170.628 168.632 169.106  1.00  0.00     0.224 C 
ATOM      8  O   UNL     1     170.452 169.568 168.342  1.00  0.00    -0.303 OA
ENDBRANCH   6   7
ENDBRANCH   5   6
ENDBRANCH   1   5
TORSDOF 5
ENDMDL
MODEL 3
REMARK VINA RESULT:    -2.931      7.707      8.372
REMARK INTER + INTRA:          -3.863
REMARK INTER:                  -3.646
REMARK INTRA:                  -0.218
REMARK UNBOUND:                -0.075
REMARK SMILES CCCCCCC=O
REMARK SMILES IDX 4 1 3 2 2 3 1 4 5 5 6 6 7 7 8 8
REMARK H PARENT
REMARK Flexibility Score: inf
ROOT
ATOM      1  C   UNL     1     162.759 171.269 169.541  1.00  0.00     0.000 C 
ENDROOT
BRANCH   1   2
ATOM      2  C   UNL     1     163.243 171.942 168.248  1.00  0.00    -0.000 C 
BRANCH   2   3
ATOM      3  C   UNL     1     162.936 173.447 168.214  1.00  0.00    -0.003 C 
ATOM      4  C   UNL     1     163.191 174.072 166.843  1.00  0.00     0.004 C 
ENDBRANCH   2   3
ENDBRANCH   1   2
BRANCH   1   5
ATOM      5  C   UNL     1     161.604 172.060 170.172  1.00  0.00     0.008 C 
BRANCH   5   6
ATOM      6  C   UNL     1     160.256 171.331 170.061  1.00  0.00     0.072 C 
BRANCH   6   7
ATOM      7  C   UNL     1     159.403 171.873 168.951  1.00  0.00     0.224 C 
ATOM      8  O   UNL     1     158.467 171.224 168.513  1.00  0.00    -0.303 OA
ENDBRANCH   6   7
ENDBRANCH   5   6
ENDBRANCH   1   5
TORSDOF 5
ENDMDL
MODEL 4
REMARK VINA RESULT:    -2.835      7.543      8.151
REMARK INTER + INTRA:          -3.739
REMARK INTER:                  -3.519
REMARK INTRA:                  -0.220
REMARK UNBOUND:                -0.075
REMARK SMILES CCCCCCC=O
REMARK SMILES IDX 4 1 3 2 2 3 1 4 5 5 6 6 7 7 8 8
REMARK H PARENT
REMARK Flexibility Score: inf
ROOT
ATOM      1  C   UNL     1     161.821 172.027 170.204  1.00  0.00     0.000 C 
ENDROOT
BRANCH   1   2
ATOM      2  C   UNL     1     162.927 171.291 169.434  1.00  0.00    -0.000 C 
BRANCH   2   3
ATOM      3  C   UNL     1     163.260 171.960 168.092  1.00  0.00    -0.003 C 
ATOM      4  C   UNL     1     162.812 173.420 168.032  1.00  0.00     0.004 C 
ENDBRANCH   2   3
ENDBRANCH   1   2
BRANCH   1   5
ATOM      5  C   UNL     1     160.771 171.040 170.734  1.00  0.00     0.008 C 
BRANCH   5   6
ATOM      6  C   UNL     1     159.331 171.504 170.461  1.00  0.00     0.072 C 
BRANCH   6   7
ATOM      7  C   UNL     1     159.123 171.908 169.031  1.00  0.00     0.224 C 
ATOM      8  O   UNL     1     158.450 171.219 168.281  1.00  0.00    -0.303 OA
ENDBRANCH   6   7
ENDBRANCH   5   6
ENDBRANCH   1   5
TORSDOF 5
ENDMDL
MODEL 5
REMARK VINA RESULT:    -2.766      7.792      9.318
REMARK INTER + INTRA:          -3.649
REMARK INTER:                  -3.321
REMARK INTRA:                  -0.328
REMARK UNBOUND:                -0.075
REMARK SMILES CCCCCCC=O
REMARK SMILES IDX 4 1 3 2 2 3 1 4 5 5 6 6 7 7 8 8
REMARK H PARENT
REMARK Flexibility Score: inf
ROOT
ATOM      1  C   UNL     1     169.090 159.602 170.825  1.00  0.00     0.000 C 
ENDROOT
BRANCH   1   2
ATOM      2  C   UNL     1     168.240 160.181 169.684  1.00  0.00    -0.000 C 
BRANCH   2   3
ATOM      3  C   UNL     1     168.028 159.179 168.538  1.00  0.00    -0.003 C 
ATOM      4  C   UNL     1     168.227 157.729 168.976  1.00  0.00     0.004 C 
ENDBRANCH   2   3
ENDBRANCH   1   2
BRANCH   1   5
ATOM      5  C   UNL     1     170.509 160.189 170.804  1.00  0.00     0.008 C 
BRANCH   5   6
ATOM      6  C   UNL     1     171.559 159.181 170.312  1.00  0.00     0.072 C 
BRANCH   6   7
ATOM      7  C   UNL     1     171.825 159.306 168.840  1.00  0.00     0.224 C 
ATOM      8  O   UNL     1     172.734 160.010 168.429  1.00  0.00    -0.303 OA
ENDBRANCH   6   7
ENDBRANCH   5   6
ENDBRANCH   1   5
TORSDOF 5
ENDMDL
MODEL 6
REMARK VINA RESULT:    -2.751      8.231      9.493
REMARK INTER + INTRA:          -3.631
REMARK INTER:                  -3.447
REMARK INTRA:                  -0.184
REMARK UNBOUND:                -0.075
REMARK SMILES CCCCCCC=O
REMARK SMILES IDX 4 1 3 2 2 3 1 4 5 5 6 6 7 7 8 8
REMARK H PARENT
REMARK Flexibility Score: inf
ROOT
ATOM      1  C   UNL     1     161.598 172.243 169.737  1.00  0.00     0.000 C 
ENDROOT
BRANCH   1   2
ATOM      2  C   UNL     1     160.591 171.253 170.340  1.00  0.00    -0.000 C 
BRANCH   2   3
ATOM      3  C   UNL     1     159.136 171.602 169.987  1.00  0.00    -0.003 C 
ATOM      4  C   UNL     1     158.929 171.830 168.490  1.00  0.00     0.004 C 
ENDBRANCH   2   3
ENDBRANCH   1   2
BRANCH   1   5
ATOM      5  C   UNL     1     162.860 171.513 169.251  1.00  0.00     0.008 C 
BRANCH   5   6
ATOM      6  C   UNL     1     163.352 172.024 167.888  1.00  0.00     0.072 C 
BRANCH   6   7
ATOM      7  C   UNL     1     163.010 173.468 167.663  1.00  0.00     0.224 C 
ATOM      8  O   UNL     1     163.377 174.044 166.650  1.00  0.00    -0.303 OA
ENDBRANCH   6   7
ENDBRANCH   5   6
ENDBRANCH   1   5
TORSDOF 5
ENDMDL
MODEL 7
REMARK VINA RESULT:    -2.728      7.206      8.136
REMARK INTER + INTRA:          -3.600
REMARK INTER:                  -3.360
REMARK INTRA:                  -0.240
REMARK UNBOUND:                -0.075
REMARK SMILES CCCCCCC=O
REMARK SMILES IDX 4 1 3 2 2 3 1 4 5 5 6 6 7 7 8 8
REMARK H PARENT
REMARK Flexibility Score: inf
ROOT
ATOM      1  C   UNL     1     168.445 159.954 169.620  1.00  0.00     0.000 C 
ENDROOT
BRANCH   1   2
ATOM      2  C   UNL     1     169.597 159.185 170.284  1.00  0.00    -0.000 C 
BRANCH   2   3
ATOM      3  C   UNL     1     170.919 159.968 170.265  1.00  0.00    -0.003 C 
ATOM      4  C   UNL     1     171.876 159.485 169.176  1.00  0.00     0.004 C 
ENDBRANCH   2   3
ENDBRANCH   1   2
BRANCH   1   5
ATOM      5  C   UNL     1     167.973 159.242 168.344  1.00  0.00     0.008 C 
BRANCH   5   6
ATOM      6  C   UNL     1     168.244 157.730 168.375  1.00  0.00     0.072 C 
BRANCH   6   7
ATOM      7  C   UNL     1     168.250 157.122 167.002  1.00  0.00     0.224 C 
ATOM      8  O   UNL     1     167.254 157.168 166.297  1.00  0.00    -0.303 OA
ENDBRANCH   6   7
ENDBRANCH   5   6
ENDBRANCH   1   5
TORSDOF 5
ENDMDL
MODEL 8
REMARK VINA RESULT:    -2.704      2.289      3.598
REMARK INTER + INTRA:          -3.569
REMARK INTER:                  -3.412
REMARK INTRA:                  -0.158
REMARK UNBOUND:                -0.075
REMARK SMILES CCCCCCC=O
REMARK SMILES IDX 4 1 3 2 2 3 1 4 5 5 6 6 7 7 8 8
REMARK H PARENT
REMARK Flexibility Score: inf
ROOT
ATOM      1  C   UNL     1     166.749 165.305 168.402  1.00  0.00     0.000 C 
ENDROOT
BRANCH   1   2
ATOM      2  C   UNL     1     167.345 166.034 169.615  1.00  0.00    -0.000 C 
BRANCH   2   3
ATOM      3  C   UNL     1     168.665 166.748 169.287  1.00  0.00    -0.003 C 
ATOM      4  C   UNL     1     169.015 167.839 170.298  1.00  0.00     0.004 C 
ENDBRANCH   2   3
ENDBRANCH   1   2
BRANCH   1   5
ATOM      5  C   UNL     1     165.282 165.706 168.187  1.00  0.00     0.008 C 
BRANCH   5   6
ATOM      6  C   UNL     1     164.549 165.998 169.504  1.00  0.00     0.072 C 
BRANCH   6   7
ATOM      7  C   UNL     1     163.608 164.894 169.891  1.00  0.00     0.224 C 
ATOM      8  O   UNL     1     162.712 164.547 169.137  1.00  0.00    -0.303 OA
ENDBRANCH   6   7
ENDBRANCH   5   6
ENDBRANCH   1   5
TORSDOF 5
ENDMDL
MODEL 9
REMARK VINA RESULT:    -2.659      8.682     10.365
REMARK INTER + INTRA:          -3.511
REMARK INTER:                  -3.231
REMARK INTRA:                  -0.280
REMARK UNBOUND:                -0.075
REMARK SMILES CCCCCCC=O
REMARK SMILES IDX 4 1 3 2 2 3 1 4 5 5 6 6 7 7 8 8
REMARK H PARENT
REMARK Flexibility Score: inf
ROOT
ATOM      1  C   UNL     1     170.090 157.343 168.903  1.00  0.00     0.000 C 
ENDROOT
BRANCH   1   2
ATOM      2  C   UNL     1     168.809 157.466 168.064  1.00  0.00    -0.000 C 
BRANCH   2   3
ATOM      3  C   UNL     1     168.118 158.828 168.236  1.00  0.00    -0.003 C 
ATOM      4  C   UNL     1     168.724 159.660 169.365  1.00  0.00     0.004 C 
ENDBRANCH   2   3
ENDBRANCH   1   2
BRANCH   1   5
ATOM      5  C   UNL     1     171.237 156.752 168.070  1.00  0.00     0.008 C 
BRANCH   5   6
ATOM      6  C   UNL     1     172.405 157.733 167.890  1.00  0.00     0.072 C 
BRANCH   6   7
ATOM      7  C   UNL     1     172.333 158.889 168.845  1.00  0.00     0.224 C 
ATOM      8  O   UNL     1     172.666 160.009 168.492  1.00  0.00    -0.303 OA
ENDBRANCH   6   7
ENDBRANCH   5   6
ENDBRANCH   1   5
TORSDOF 5
ENDMDL
