MODEL 1
REMARK VINA RESULT:    -4.213      0.000      0.000
REMARK INTER + INTRA:          -5.370
REMARK INTER:                  -5.198
REMARK INTRA:                  -0.171
REMARK UNBOUND:                -0.171
REMARK SMILES CCCCCC(=O)[O-]
REMARK SMILES IDX 4 1 5 2 6 3 7 4 8 5 3 6 2 7 1 8
REMARK H PARENT
REMARK Flexibility Score: inf
ROOT
ATOM      1  C   UNL     1      19.428   6.554  10.281  1.00  0.00     0.006 C 
ENDROOT
BRANCH   1   2
ATOM      2  C   UNL     1      19.421   7.928  10.974  1.00  0.00     0.053 C 
BRANCH   2   3
ATOM      3  C   UNL     1      20.800   8.463  11.213  1.00  0.00     0.041 C 
ATOM      4  O   UNL     1      21.458   8.097  12.223  1.00  0.00    -0.550 OA
ATOM      5  O   UNL     1      21.378   9.333  10.297  1.00  0.00    -0.550 OA
ENDBRANCH   2   3
ENDBRANCH   1   2
BRANCH   1   6
ATOM      6  C   UNL     1      20.112   6.552   8.899  1.00  0.00     0.000 C 
BRANCH   6   7
ATOM      7  C   UNL     1      19.206   6.955   7.723  1.00  0.00    -0.003 C 
ATOM      8  C   UNL     1      19.521   8.346   7.173  1.00  0.00     0.004 C 
ENDBRANCH   6   7
ENDBRANCH   1   6
TORSDOF 4
ENDMDL
MODEL 2
REMARK VINA RESULT:    -4.143      0.283      1.165
REMARK INTER + INTRA:          -5.283
REMARK INTER:                  -5.127
REMARK INTRA:                  -0.156
REMARK UNBOUND:                -0.171
REMARK SMILES CCCCCC(=O)[O-]
REMARK SMILES IDX 4 1 5 2 6 3 7 4 8 5 3 6 2 7 1 8
REMARK H PARENT
REMARK Flexibility Score: inf
ROOT
ATOM      1  C   UNL     1      19.482   6.337  10.187  1.00  0.00     0.006 C 
ENDROOT
BRANCH   1   2
ATOM      2  C   UNL     1      19.460   7.624  11.033  1.00  0.00     0.053 C 
BRANCH   2   3
ATOM      3  C   UNL     1      20.824   8.217  11.217  1.00  0.00     0.041 C 
ATOM      4  O   UNL     1      21.194   9.192  10.511  1.00  0.00    -0.550 OA
ATOM      5  O   UNL     1      21.673   7.720  12.198  1.00  0.00    -0.550 OA
ENDBRANCH   2   3
ENDBRANCH   1   2
BRANCH   1   6
ATOM      6  C   UNL     1      20.117   6.512   8.793  1.00  0.00     0.000 C 
BRANCH   6   7
ATOM      7  C   UNL     1      19.181   7.088   7.718  1.00  0.00    -0.003 C 
ATOM      8  C   UNL     1      19.775   8.292   6.987  1.00  0.00     0.004 C 
ENDBRANCH   6   7
ENDBRANCH   1   6
TORSDOF 4
ENDMDL
MODEL 3
REMARK VINA RESULT:    -4.013      1.504      2.088
REMARK INTER + INTRA:          -5.123
REMARK INTER:                  -4.894
REMARK INTRA:                  -0.229
REMARK UNBOUND:                -0.171
REMARK SMILES CCCCCC(=O)[O-]
REMARK SMILES IDX 4 1 5 2 6 3 7 4 8 5 3 6 2 7 1 8
REMARK H PARENT
REMARK Flexibility Score: inf
ROOT
ATOM      1  C   UNL     1      19.904   8.392   9.838  1.00  0.00     0.006 C 
ENDROOT
BRANCH   1   2
ATOM      2  C   UNL     1      21.194   8.768  10.590  1.00  0.00     0.053 C 
BRANCH   2   3
ATOM      3  C   UNL     1      22.406   8.736   9.709  1.00  0.00     0.041 C 
ATOM      4  O   UNL     1      22.600   9.646   8.861  1.00  0.00    -0.550 OA
ATOM      5  O   UNL     1      23.345   7.722   9.853  1.00  0.00    -0.550 OA
ENDBRANCH   2   3
ENDBRANCH   1   2
BRANCH   1   6
ATOM      6  C   UNL     1      20.010   7.090   9.020  1.00  0.00     0.000 C 
BRANCH   6   7
ATOM      7  C   UNL     1      19.338   7.131   7.638  1.00  0.00    -0.003 C 
ATOM      8  C   UNL     1      19.636   8.416   6.864  1.00  0.00     0.004 C 
ENDBRANCH   6   7
ENDBRANCH   1   6
TORSDOF 4
ENDMDL
MODEL 4
REMARK VINA RESULT:    -4.006      1.262      2.017
REMARK INTER + INTRA:          -5.114
REMARK INTER:                  -4.877
REMARK INTRA:                  -0.237
REMARK UNBOUND:                -0.171
REMARK SMILES CCCCCC(=O)[O-]
REMARK SMILES IDX 4 1 5 2 6 3 7 4 8 5 3 6 2 7 1 8
REMARK H PARENT
REMARK Flexibility Score: inf
ROOT
ATOM      1  C   UNL     1      19.507   8.006  11.012  1.00  0.00     0.006 C 
ENDROOT
BRANCH   1   2
ATOM      2  C   UNL     1      20.886   8.359  11.600  1.00  0.00     0.053 C 
BRANCH   2   3
ATOM      3  C   UNL     1      21.915   8.619  10.542  1.00  0.00     0.041 C 
ATOM      4  O   UNL     1      22.096   9.786  10.104  1.00  0.00    -0.550 OA
ATOM      5  O   UNL     1      22.705   7.579  10.068  1.00  0.00    -0.550 OA
ENDBRANCH   2   3
ENDBRANCH   1   2
BRANCH   1   6
ATOM      6  C   UNL     1      19.233   6.491  10.922  1.00  0.00     0.000 C 
BRANCH   6   7
ATOM      7  C   UNL     1      19.389   5.883   9.519  1.00  0.00    -0.003 C 
ATOM      8  C   UNL     1      19.470   6.936   8.414  1.00  0.00     0.004 C 
ENDBRANCH   6   7
ENDBRANCH   1   6
TORSDOF 4
ENDMDL
MODEL 5
REMARK VINA RESULT:    -3.996      2.542      3.738
REMARK INTER + INTRA:          -5.101
REMARK INTER:                  -4.919
REMARK INTRA:                  -0.182
REMARK UNBOUND:                -0.171
REMARK SMILES CCCCCC(=O)[O-]
REMARK SMILES IDX 4 1 5 2 6 3 7 4 8 5 3 6 2 7 1 8
REMARK H PARENT
REMARK Flexibility Score: inf
ROOT
ATOM      1  C   UNL     1      20.201   8.642  10.005  1.00  0.00     0.006 C 
ENDROOT
BRANCH   1   2
ATOM      2  C   UNL     1      20.827   7.880   8.822  1.00  0.00     0.053 C 
BRANCH   2   3
ATOM      3  C   UNL     1      19.901   7.773   7.649  1.00  0.00     0.041 C 
ATOM      4  O   UNL     1      18.966   6.929   7.650  1.00  0.00    -0.550 OA
ATOM      5  O   UNL     1      20.043   8.636   6.569  1.00  0.00    -0.550 OA
ENDBRANCH   2   3
ENDBRANCH   1   2
BRANCH   1   6
ATOM      6  C   UNL     1      20.005   7.785  11.271  1.00  0.00     0.000 C 
BRANCH   6   7
ATOM      7  C   UNL     1      18.804   6.826  11.230  1.00  0.00    -0.003 C 
ATOM      8  C   UNL     1      19.181   5.410  10.795  1.00  0.00     0.004 C 
ENDBRANCH   6   7
ENDBRANCH   1   6
TORSDOF 4
ENDMDL
MODEL 6
REMARK VINA RESULT:    -3.985      1.450      2.378
REMARK INTER + INTRA:          -5.088
REMARK INTER:                  -4.901
REMARK INTRA:                  -0.186
REMARK UNBOUND:                -0.171
REMARK SMILES CCCCCC(=O)[O-]
REMARK SMILES IDX 4 1 5 2 6 3 7 4 8 5 3 6 2 7 1 8
REMARK H PARENT
REMARK Flexibility Score: inf
ROOT
ATOM      1  C   UNL     1      19.806   8.111   9.181  1.00  0.00     0.006 C 
ENDROOT
BRANCH   1   2
ATOM      2  C   UNL     1      21.292   8.482   9.026  1.00  0.00     0.053 C 
BRANCH   2   3
ATOM      3  C   UNL     1      21.868   9.090  10.269  1.00  0.00     0.041 C 
ATOM      4  O   UNL     1      21.393   8.800  11.398  1.00  0.00    -0.550 OA
ATOM      5  O   UNL     1      22.960   9.946  10.184  1.00  0.00    -0.550 OA
ENDBRANCH   2   3
ENDBRANCH   1   2
BRANCH   1   6
ATOM      6  C   UNL     1      19.464   6.683   8.711  1.00  0.00     0.000 C 
BRANCH   6   7
ATOM      7  C   UNL     1      19.307   5.646   9.835  1.00  0.00    -0.003 C 
ATOM      8  C   UNL     1      18.857   6.261  11.160  1.00  0.00     0.004 C 
ENDBRANCH   6   7
ENDBRANCH   1   6
TORSDOF 4
ENDMDL
MODEL 7
REMARK VINA RESULT:    -3.819      1.252      1.508
REMARK INTER + INTRA:          -4.883
REMARK INTER:                  -4.753
REMARK INTRA:                  -0.130
REMARK UNBOUND:                -0.171
REMARK SMILES CCCCCC(=O)[O-]
REMARK SMILES IDX 4 1 5 2 6 3 7 4 8 5 3 6 2 7 1 8
REMARK H PARENT
REMARK Flexibility Score: inf
ROOT
ATOM      1  C   UNL     1      20.104   8.359   9.699  1.00  0.00     0.006 C 
ENDROOT
BRANCH   1   2
ATOM      2  C   UNL     1      21.477   8.991   9.992  1.00  0.00     0.053 C 
BRANCH   2   3
ATOM      3  C   UNL     1      22.003   8.629  11.348  1.00  0.00     0.041 C 
ATOM      4  O   UNL     1      21.299   7.951  12.142  1.00  0.00    -0.550 OA
ATOM      5  O   UNL     1      23.288   9.003  11.719  1.00  0.00    -0.550 OA
ENDBRANCH   2   3
ENDBRANCH   1   2
BRANCH   1   6
ATOM      6  C   UNL     1      20.172   7.080   8.842  1.00  0.00     0.000 C 
BRANCH   6   7
ATOM      7  C   UNL     1      19.239   7.064   7.620  1.00  0.00    -0.003 C 
ATOM      8  C   UNL     1      19.273   8.367   6.822  1.00  0.00     0.004 C 
ENDBRANCH   6   7
ENDBRANCH   1   6
TORSDOF 4
ENDMDL
MODEL 8
REMARK VINA RESULT:    -3.741      2.161      2.490
REMARK INTER + INTRA:          -4.787
REMARK INTER:                  -4.654
REMARK INTRA:                  -0.133
REMARK UNBOUND:                -0.171
REMARK SMILES CCCCCC(=O)[O-]
REMARK SMILES IDX 4 1 5 2 6 3 7 4 8 5 3 6 2 7 1 8
REMARK H PARENT
REMARK Flexibility Score: inf
ROOT
ATOM      1  C   UNL     1      21.487   7.475   9.840  1.00  0.00     0.006 C 
ENDROOT
BRANCH   1   2
ATOM      2  C   UNL     1      20.762   7.208  11.172  1.00  0.00     0.053 C 
BRANCH   2   3
ATOM      3  C   UNL     1      19.442   6.523  10.983  1.00  0.00     0.041 C 
ATOM      4  O   UNL     1      18.385   7.046  11.426  1.00  0.00    -0.550 OA
ATOM      5  O   UNL     1      19.372   5.326  10.281  1.00  0.00    -0.550 OA
ENDBRANCH   2   3
ENDBRANCH   1   2
BRANCH   1   6
ATOM      6  C   UNL     1      20.680   8.335   8.847  1.00  0.00     0.000 C 
BRANCH   6   7
ATOM      7  C   UNL     1      20.113   7.575   7.637  1.00  0.00    -0.003 C 
ATOM      8  C   UNL     1      19.047   8.365   6.878  1.00  0.00     0.004 C 
ENDBRANCH   6   7
ENDBRANCH   1   6
TORSDOF 4
ENDMDL
MODEL 9
REMARK VINA RESULT:    -3.512      2.303      3.114
REMARK INTER + INTRA:          -4.505
REMARK INTER:                  -4.453
REMARK INTRA:                  -0.051
REMARK UNBOUND:                -0.171
REMARK SMILES CCCCCC(=O)[O-]
REMARK SMILES IDX 4 1 5 2 6 3 7 4 8 5 3 6 2 7 1 8
REMARK H PARENT
REMARK Flexibility Score: inf
ROOT
ATOM      1  C   UNL     1      21.357   8.702  10.362  1.00  0.00     0.006 C 
ENDROOT
BRANCH   1   2
ATOM      2  C   UNL     1      22.367   9.605   9.631  1.00  0.00     0.053 C 
BRANCH   2   3
ATOM      3  C   UNL     1      23.769   9.422  10.126  1.00  0.00     0.041 C 
ATOM      4  O   UNL     1      24.213  10.143  11.058  1.00  0.00    -0.550 OA
ATOM      5  O   UNL     1      24.574   8.426   9.587  1.00  0.00    -0.550 OA
ENDBRANCH   2   3
ENDBRANCH   1   2
BRANCH   1   6
ATOM      6  C   UNL     1      20.138   8.302   9.507  1.00  0.00     0.000 C 
BRANCH   6   7
ATOM      7  C   UNL     1      20.103   6.827   9.072  1.00  0.00    -0.003 C 
ATOM      8  C   UNL     1      19.379   5.924  10.069  1.00  0.00     0.004 C 
ENDBRANCH   6   7
ENDBRANCH   1   6
TORSDOF 4
ENDMDL
