MODEL 1
REMARK VINA RESULT:    -4.129      0.000      0.000
REMARK INTER + INTRA:          -7.012
REMARK INTER:                  -6.301
REMARK INTRA:                  -0.711
REMARK UNBOUND:                -0.711
REMARK SMILES CCCCCCCCCC=CC(=O)[O-]
REMARK SMILES IDX 7 1 8 2 9 3 10 4 11 5 12 6 13 7 14 8 6 9 5 10 4 11 3 12 2 13
REMARK SMILES IDX 1 14
REMARK H PARENT
REMARK Flexibility Score: inf
ROOT
ATOM      1  C   UNL     1      -8.537  15.281 -12.252  1.00  0.00     0.000 C 
ENDROOT
BRANCH   1   2
ATOM      2  C   UNL     1      -9.301  16.483 -12.834  1.00  0.00     0.004 C 
BRANCH   2   3
ATOM      3  C   UNL     1      -8.826  16.840 -14.248  1.00  0.00     0.027 C 
BRANCH   3   4
ATOM      4  C   UNL     1      -8.004  18.099 -14.253  1.00  0.00    -0.025 C 
ATOM      5  C   UNL     1      -8.237  19.091 -13.389  1.00  0.00     0.020 C 
BRANCH   5   6
ATOM      6  C   UNL     1      -7.416  20.310 -13.362  1.00  0.00     0.064 C 
ATOM      7  O   UNL     1      -6.802  20.623 -12.309  1.00  0.00    -0.545 OA
ATOM      8  O   UNL     1      -7.305  21.125 -14.483  1.00  0.00    -0.545 OA
ENDBRANCH   5   6
ENDBRANCH   3   4
ENDBRANCH   2   3
ENDBRANCH   1   2
BRANCH   1   9
ATOM      9  C   UNL     1      -7.515  14.696 -13.241  1.00  0.00     0.000 C 
BRANCH   9  10
ATOM     10  C   UNL     1      -7.773  13.213 -13.547  1.00  0.00     0.000 C 
BRANCH  10  11
ATOM     11  C   UNL     1      -7.195  12.828 -14.917  1.00  0.00    -0.000 C 
BRANCH  11  12
ATOM     12  C   UNL     1      -8.284  12.597 -15.977  1.00  0.00    -0.000 C 
BRANCH  12  13
ATOM     13  C   UNL     1      -9.701  12.819 -15.427  1.00  0.00    -0.003 C 
ATOM     14  C   UNL     1     -10.691  11.841 -16.051  1.00  0.00     0.004 C 
ENDBRANCH  12  13
ENDBRANCH  11  12
ENDBRANCH  10  11
ENDBRANCH   9  10
ENDBRANCH   1   9
TORSDOF 9
ENDMDL
MODEL 2
REMARK VINA RESULT:    -3.487      3.639      6.631
REMARK INTER + INTRA:          -6.032
REMARK INTER:                  -5.207
REMARK INTRA:                  -0.825
REMARK UNBOUND:                -0.711
REMARK SMILES CCCCCCCCCC=CC(=O)[O-]
REMARK SMILES IDX 7 1 8 2 9 3 10 4 11 5 12 6 13 7 14 8 6 9 5 10 4 11 3 12 2 13
REMARK SMILES IDX 1 14
REMARK H PARENT
REMARK Flexibility Score: inf
ROOT
ATOM      1  C   UNL     1      -8.776  17.634 -13.035  1.00  0.00     0.000 C 
ENDROOT
BRANCH   1   2
ATOM      2  C   UNL     1      -9.300  16.221 -12.727  1.00  0.00     0.004 C 
BRANCH   2   3
ATOM      3  C   UNL     1      -8.176  15.268 -12.299  1.00  0.00     0.027 C 
BRANCH   3   4
ATOM      4  C   UNL     1      -8.009  14.139 -13.275  1.00  0.00    -0.025 C 
ATOM      5  C   UNL     1      -8.925  13.880 -14.212  1.00  0.00     0.020 C 
BRANCH   5   6
ATOM      6  C   UNL     1      -8.753  12.800 -15.195  1.00  0.00     0.064 C 
ATOM      7  O   UNL     1      -7.597  12.493 -15.586  1.00  0.00    -0.545 OA
ATOM      8  O   UNL     1      -9.850  12.109 -15.699  1.00  0.00    -0.545 OA
ENDBRANCH   5   6
ENDBRANCH   3   4
ENDBRANCH   2   3
ENDBRANCH   1   2
BRANCH   1   9
ATOM      9  C   UNL     1      -7.741  17.646 -14.172  1.00  0.00     0.000 C 
BRANCH   9  10
ATOM     10  C   UNL     1      -8.328  18.153 -15.499  1.00  0.00     0.000 C 
BRANCH  10  11
ATOM     11  C   UNL     1      -7.697  19.495 -15.900  1.00  0.00    -0.000 C 
BRANCH  11  12
ATOM     12  C   UNL     1      -6.407  19.799 -15.124  1.00  0.00    -0.000 C 
BRANCH  12  13
ATOM     13  C   UNL     1      -6.479  21.124 -14.351  1.00  0.00    -0.003 C 
ATOM     14  C   UNL     1      -6.567  20.879 -12.848  1.00  0.00     0.004 C 
ENDBRANCH  12  13
ENDBRANCH  11  12
ENDBRANCH  10  11
ENDBRANCH   9  10
ENDBRANCH   1   9
TORSDOF 9
ENDMDL
MODEL 3
REMARK VINA RESULT:    -3.436      2.331      5.318
REMARK INTER + INTRA:          -5.955
REMARK INTER:                  -5.278
REMARK INTRA:                  -0.678
REMARK UNBOUND:                -0.711
REMARK SMILES CCCCCCCCCC=CC(=O)[O-]
REMARK SMILES IDX 7 1 8 2 9 3 10 4 11 5 12 6 13 7 14 8 6 9 5 10 4 11 3 12 2 13
REMARK SMILES IDX 1 14
REMARK H PARENT
REMARK Flexibility Score: inf
ROOT
ATOM      1  C   UNL     1      -5.964  14.185 -14.966  1.00  0.00     0.000 C 
ENDROOT
BRANCH   1   2
ATOM      2  C   UNL     1      -6.926  13.036 -15.315  1.00  0.00     0.004 C 
BRANCH   2   3
ATOM      3  C   UNL     1      -8.028  12.866 -14.260  1.00  0.00     0.027 C 
BRANCH   3   4
ATOM      4  C   UNL     1      -8.718  14.169 -13.968  1.00  0.00    -0.025 C 
ATOM      5  C   UNL     1      -8.467  14.860 -12.853  1.00  0.00     0.020 C 
BRANCH   5   6
ATOM      6  C   UNL     1      -9.110  16.153 -12.576  1.00  0.00     0.064 C 
ATOM      7  O   UNL     1      -8.486  17.030 -11.922  1.00  0.00    -0.545 OA
ATOM      8  O   UNL     1     -10.397  16.425 -13.026  1.00  0.00    -0.545 OA
ENDBRANCH   5   6
ENDBRANCH   3   4
ENDBRANCH   2   3
ENDBRANCH   1   2
BRANCH   1   9
ATOM      9  C   UNL     1      -6.065  15.362 -15.950  1.00  0.00     0.000 C 
BRANCH   9  10
ATOM     10  C   UNL     1      -6.023  16.726 -15.246  1.00  0.00     0.000 C 
BRANCH  10  11
ATOM     11  C   UNL     1      -6.951  17.732 -15.943  1.00  0.00    -0.000 C 
BRANCH  11  12
ATOM     12  C   UNL     1      -7.759  18.581 -14.949  1.00  0.00    -0.000 C 
BRANCH  12  13
ATOM     13  C   UNL     1      -6.904  19.649 -14.252  1.00  0.00    -0.003 C 
ATOM     14  C   UNL     1      -7.686  20.334 -13.135  1.00  0.00     0.004 C 
ENDBRANCH  12  13
ENDBRANCH  11  12
ENDBRANCH  10  11
ENDBRANCH   9  10
ENDBRANCH   1   9
TORSDOF 9
ENDMDL
MODEL 4
REMARK VINA RESULT:    -3.409      3.800      6.272
REMARK INTER + INTRA:          -5.913
REMARK INTER:                  -4.985
REMARK INTRA:                  -0.928
REMARK UNBOUND:                -0.711
REMARK SMILES CCCCCCCCCC=CC(=O)[O-]
REMARK SMILES IDX 7 1 8 2 9 3 10 4 11 5 12 6 13 7 14 8 6 9 5 10 4 11 3 12 2 13
REMARK SMILES IDX 1 14
REMARK H PARENT
REMARK Flexibility Score: inf
ROOT
ATOM      1  C   UNL     1      -9.332  16.412 -12.293  1.00  0.00     0.000 C 
ENDROOT
BRANCH   1   2
ATOM      2  C   UNL     1      -8.269  15.300 -12.327  1.00  0.00     0.004 C 
BRANCH   2   3
ATOM      3  C   UNL     1      -7.487  15.289 -13.647  1.00  0.00     0.027 C 
BRANCH   3   4
ATOM      4  C   UNL     1      -7.897  14.138 -14.521  1.00  0.00    -0.025 C 
ATOM      5  C   UNL     1      -9.178  13.782 -14.657  1.00  0.00     0.020 C 
BRANCH   5   6
ATOM      6  C   UNL     1      -9.593  12.681 -15.538  1.00  0.00     0.064 C 
ATOM      7  O   UNL     1     -10.816  12.500 -15.774  1.00  0.00    -0.545 OA
ATOM      8  O   UNL     1      -8.654  11.835 -16.118  1.00  0.00    -0.545 OA
ENDBRANCH   5   6
ENDBRANCH   3   4
ENDBRANCH   2   3
ENDBRANCH   1   2
BRANCH   1   9
ATOM      9  C   UNL     1      -9.141  17.447 -13.414  1.00  0.00     0.000 C 
BRANCH   9  10
ATOM     10  C   UNL     1      -8.815  18.848 -12.874  1.00  0.00     0.000 C 
BRANCH  10  11
ATOM     11  C   UNL     1      -8.094  19.691 -13.937  1.00  0.00    -0.000 C 
BRANCH  11  12
ATOM     12  C   UNL     1      -6.711  19.129 -14.301  1.00  0.00    -0.000 C 
BRANCH  12  13
ATOM     13  C   UNL     1      -6.545  18.902 -15.811  1.00  0.00    -0.003 C 
ATOM     14  C   UNL     1      -5.933  17.534 -16.096  1.00  0.00     0.004 C 
ENDBRANCH  12  13
ENDBRANCH  11  12
ENDBRANCH  10  11
ENDBRANCH   9  10
ENDBRANCH   1   9
TORSDOF 9
ENDMDL
MODEL 5
REMARK VINA RESULT:    -3.307      1.483      3.140
REMARK INTER + INTRA:          -5.758
REMARK INTER:                  -4.672
REMARK INTRA:                  -1.086
REMARK UNBOUND:                -0.711
REMARK SMILES CCCCCCCCCC=CC(=O)[O-]
REMARK SMILES IDX 7 1 8 2 9 3 10 4 11 5 12 6 13 7 14 8 6 9 5 10 4 11 3 12 2 13
REMARK SMILES IDX 1 14
REMARK H PARENT
REMARK Flexibility Score: inf
ROOT
ATOM      1  C   UNL     1      -6.396  14.267 -16.096  1.00  0.00     0.000 C 
ENDROOT
BRANCH   1   2
ATOM      2  C   UNL     1      -5.875  15.579 -15.486  1.00  0.00     0.004 C 
BRANCH   2   3
ATOM      3  C   UNL     1      -6.779  16.772 -15.825  1.00  0.00     0.027 C 
BRANCH   3   4
ATOM      4  C   UNL     1      -6.973  17.673 -14.638  1.00  0.00    -0.025 C 
ATOM      5  C   UNL     1      -6.846  18.999 -14.736  1.00  0.00     0.020 C 
BRANCH   5   6
ATOM      6  C   UNL     1      -7.070  19.892 -13.589  1.00  0.00     0.064 C 
ATOM      7  O   UNL     1      -8.004  19.646 -12.783  1.00  0.00    -0.545 OA
ATOM      8  O   UNL     1      -6.262  21.004 -13.379  1.00  0.00    -0.545 OA
ENDBRANCH   5   6
ENDBRANCH   3   4
ENDBRANCH   2   3
ENDBRANCH   1   2
BRANCH   1   9
ATOM      9  C   UNL     1      -6.736  13.213 -15.029  1.00  0.00     0.000 C 
BRANCH   9  10
ATOM     10  C   UNL     1      -8.248  12.981 -14.890  1.00  0.00     0.000 C 
BRANCH  10  11
ATOM     11  C   UNL     1      -8.870  13.990 -13.912  1.00  0.00    -0.000 C 
BRANCH  11  12
ATOM     12  C   UNL     1      -7.881  14.455 -12.832  1.00  0.00    -0.000 C 
BRANCH  12  13
ATOM     13  C   UNL     1      -8.460  15.560 -11.936  1.00  0.00    -0.003 C 
ATOM     14  C   UNL     1      -9.558  16.333 -12.659  1.00  0.00     0.004 C 
ENDBRANCH  12  13
ENDBRANCH  11  12
ENDBRANCH  10  11
ENDBRANCH   9  10
ENDBRANCH   1   9
TORSDOF 9
ENDMDL
MODEL 6
REMARK VINA RESULT:    -3.286      3.579      5.754
REMARK INTER + INTRA:          -5.726
REMARK INTER:                  -4.377
REMARK INTRA:                  -1.348
REMARK UNBOUND:                -0.711
REMARK SMILES CCCCCCCCCC=CC(=O)[O-]
REMARK SMILES IDX 7 1 8 2 9 3 10 4 11 5 12 6 13 7 14 8 6 9 5 10 4 11 3 12 2 13
REMARK SMILES IDX 1 14
REMARK H PARENT
REMARK Flexibility Score: inf
ROOT
ATOM      1  C   UNL     1      -5.983  17.998 -14.386  1.00  0.00     0.000 C 
ENDROOT
BRANCH   1   2
ATOM      2  C   UNL     1      -6.589  17.418 -15.675  1.00  0.00     0.004 C 
BRANCH   2   3
ATOM      3  C   UNL     1      -5.875  16.135 -16.121  1.00  0.00     0.027 C 
BRANCH   3   4
ATOM      4  C   UNL     1      -6.624  14.907 -15.686  1.00  0.00    -0.025 C 
ATOM      5  C   UNL     1      -7.936  14.774 -15.898  1.00  0.00     0.020 C 
BRANCH   5   6
ATOM      6  C   UNL     1      -8.671  13.561 -15.508  1.00  0.00     0.064 C 
ATOM      7  O   UNL     1      -9.699  13.661 -14.790  1.00  0.00    -0.545 OA
ATOM      8  O   UNL     1      -8.248  12.303 -15.923  1.00  0.00    -0.545 OA
ENDBRANCH   5   6
ENDBRANCH   3   4
ENDBRANCH   2   3
ENDBRANCH   1   2
BRANCH   1   9
ATOM      9  C   UNL     1      -6.739  19.239 -13.883  1.00  0.00     0.000 C 
BRANCH   9  10
ATOM     10  C   UNL     1      -8.244  19.176 -14.186  1.00  0.00     0.000 C 
BRANCH  10  11
ATOM     11  C   UNL     1      -9.009  18.513 -13.030  1.00  0.00    -0.000 C 
BRANCH  11  12
ATOM     12  C   UNL     1      -9.370  17.049 -13.321  1.00  0.00    -0.000 C 
BRANCH  12  13
ATOM     13  C   UNL     1      -9.247  16.151 -12.081  1.00  0.00    -0.003 C 
ATOM     14  C   UNL     1      -8.021  15.248 -12.177  1.00  0.00     0.004 C 
ENDBRANCH  12  13
ENDBRANCH  11  12
ENDBRANCH  10  11
ENDBRANCH   9  10
ENDBRANCH   1   9
TORSDOF 9
ENDMDL
MODEL 7
REMARK VINA RESULT:    -3.185      2.470      3.506
REMARK INTER + INTRA:          -5.572
REMARK INTER:                  -5.055
REMARK INTRA:                  -0.517
REMARK UNBOUND:                -0.711
REMARK SMILES CCCCCCCCCC=CC(=O)[O-]
REMARK SMILES IDX 7 1 8 2 9 3 10 4 11 5 12 6 13 7 14 8 6 9 5 10 4 11 3 12 2 13
REMARK SMILES IDX 1 14
REMARK H PARENT
REMARK Flexibility Score: inf
ROOT
ATOM      1  C   UNL     1      -5.941  18.357 -14.855  1.00  0.00     0.000 C 
ENDROOT
BRANCH   1   2
ATOM      2  C   UNL     1      -6.425  19.768 -15.231  1.00  0.00     0.004 C 
BRANCH   2   3
ATOM      3  C   UNL     1      -7.732  20.138 -14.518  1.00  0.00     0.027 C 
BRANCH   3   4
ATOM      4  C   UNL     1      -8.096  19.124 -13.471  1.00  0.00    -0.025 C 
ATOM      5  C   UNL     1      -8.969  18.143 -13.718  1.00  0.00     0.020 C 
BRANCH   5   6
ATOM      6  C   UNL     1      -9.304  17.124 -12.712  1.00  0.00     0.064 C 
ATOM      7  O   UNL     1      -8.575  16.993 -11.694  1.00  0.00    -0.545 OA
ATOM      8  O   UNL     1     -10.415  16.304 -12.866  1.00  0.00    -0.545 OA
ENDBRANCH   5   6
ENDBRANCH   3   4
ENDBRANCH   2   3
ENDBRANCH   1   2
BRANCH   1   9
ATOM      9  C   UNL     1      -6.075  17.357 -16.015  1.00  0.00     0.000 C 
BRANCH   9  10
ATOM     10  C   UNL     1      -6.304  15.917 -15.530  1.00  0.00     0.000 C 
BRANCH  10  11
ATOM     11  C   UNL     1      -7.767  15.496 -15.732  1.00  0.00    -0.000 C 
BRANCH  11  12
ATOM     12  C   UNL     1      -7.937  13.972 -15.830  1.00  0.00    -0.000 C 
BRANCH  12  13
ATOM     13  C   UNL     1      -9.046  13.440 -14.910  1.00  0.00    -0.003 C 
ATOM     14  C   UNL     1      -9.869  12.362 -15.608  1.00  0.00     0.004 C 
ENDBRANCH  12  13
ENDBRANCH  11  12
ENDBRANCH  10  11
ENDBRANCH   9  10
ENDBRANCH   1   9
TORSDOF 9
ENDMDL
MODEL 8
REMARK VINA RESULT:    -2.864      1.572      2.099
REMARK INTER + INTRA:          -5.082
REMARK INTER:                  -4.575
REMARK INTRA:                  -0.507
REMARK UNBOUND:                -0.711
REMARK SMILES CCCCCCCCCC=CC(=O)[O-]
REMARK SMILES IDX 7 1 8 2 9 3 10 4 11 5 12 6 13 7 14 8 6 9 5 10 4 11 3 12 2 13
REMARK SMILES IDX 1 14
REMARK H PARENT
REMARK Flexibility Score: inf
ROOT
ATOM      1  C   UNL     1      -7.317  15.817 -15.307  1.00  0.00     0.000 C 
ENDROOT
BRANCH   1   2
ATOM      2  C   UNL     1      -6.117  16.332 -16.119  1.00  0.00     0.004 C 
BRANCH   2   3
ATOM      3  C   UNL     1      -6.031  17.864 -16.114  1.00  0.00     0.027 C 
BRANCH   3   4
ATOM      4  C   UNL     1      -6.407  18.434 -14.776  1.00  0.00    -0.025 C 
ATOM      5  C   UNL     1      -6.491  19.752 -14.573  1.00  0.00     0.020 C 
BRANCH   5   6
ATOM      6  C   UNL     1      -6.894  20.318 -13.277  1.00  0.00     0.064 C 
ATOM      7  O   UNL     1      -6.012  20.671 -12.452  1.00  0.00    -0.545 OA
ATOM      8  O   UNL     1      -8.236  20.471 -12.948  1.00  0.00    -0.545 OA
ENDBRANCH   5   6
ENDBRANCH   3   4
ENDBRANCH   2   3
ENDBRANCH   1   2
BRANCH   1   9
ATOM      9  C   UNL     1      -6.897  14.905 -14.143  1.00  0.00     0.000 C 
BRANCH   9  10
ATOM     10  C   UNL     1      -8.080  14.131 -13.542  1.00  0.00     0.000 C 
BRANCH  10  11
ATOM     11  C   UNL     1      -8.050  12.658 -13.976  1.00  0.00    -0.000 C 
BRANCH  11  12
ATOM     12  C   UNL     1      -8.080  12.490 -15.503  1.00  0.00    -0.000 C 
BRANCH  12  13
ATOM     13  C   UNL     1      -9.402  12.965 -16.125  1.00  0.00    -0.003 C 
ATOM     14  C   UNL     1     -10.555  12.047 -15.730  1.00  0.00     0.004 C 
ENDBRANCH  12  13
ENDBRANCH  11  12
ENDBRANCH  10  11
ENDBRANCH   9  10
ENDBRANCH   1   9
TORSDOF 9
ENDMDL
