MODEL 1
REMARK VINA RESULT:    -3.790      0.000      0.000
REMARK INTER + INTRA:          -5.049
REMARK INTER:                  -4.898
REMARK INTRA:                  -0.151
REMARK UNBOUND:                -0.151
REMARK SMILES CCCCCCC(=O)[O-]
REMARK SMILES IDX 5 1 6 2 7 3 8 4 9 5 4 6 3 7 2 8 1 9
REMARK H PARENT
REMARK Flexibility Score: inf
ROOT
ATOM      1  C   UNL     1      46.728   6.898  20.230  1.00  0.00     0.006 C 
ENDROOT
BRANCH   1   2
ATOM      2  C   UNL     1      46.741   7.815  21.456  1.00  0.00     0.053 C 
BRANCH   2   3
ATOM      3  C   UNL     1      47.906   7.494  22.338  1.00  0.00     0.041 C 
ATOM      4  O   UNL     1      48.223   6.295  22.558  1.00  0.00    -0.550 OA
ATOM      5  O   UNL     1      48.612   8.517  22.958  1.00  0.00    -0.550 OA
ENDBRANCH   2   3
ENDBRANCH   1   2
BRANCH   1   6
ATOM      6  C   UNL     1      46.400   7.687  18.956  1.00  0.00     0.000 C 
BRANCH   6   7
ATOM      7  C   UNL     1      46.716   6.864  17.702  1.00  0.00    -0.000 C 
BRANCH   7   8
ATOM      8  C   UNL     1      45.549   6.907  16.708  1.00  0.00    -0.003 C 
ATOM      9  C   UNL     1      44.426   7.806  17.215  1.00  0.00     0.004 C 
ENDBRANCH   7   8
ENDBRANCH   6   7
ENDBRANCH   1   6
TORSDOF 5
ENDMDL
MODEL 2
REMARK VINA RESULT:    -3.721      3.381      5.152
REMARK INTER + INTRA:          -4.960
REMARK INTER:                  -4.740
REMARK INTRA:                  -0.220
REMARK UNBOUND:                -0.151
REMARK SMILES CCCCCCC(=O)[O-]
REMARK SMILES IDX 5 1 6 2 7 3 8 4 9 5 4 6 3 7 2 8 1 9
REMARK H PARENT
REMARK Flexibility Score: inf
ROOT
ATOM      1  C   UNL     1      46.010   8.094  19.232  1.00  0.00     0.006 C 
ENDROOT
BRANCH   1   2
ATOM      2  C   UNL     1      46.683   6.933  18.493  1.00  0.00     0.053 C 
BRANCH   2   3
ATOM      3  C   UNL     1      46.125   6.799  17.112  1.00  0.00     0.041 C 
ATOM      4  O   UNL     1      44.962   7.210  16.855  1.00  0.00    -0.550 OA
ATOM      5  O   UNL     1      46.868   6.174  16.118  1.00  0.00    -0.550 OA
ENDBRANCH   2   3
ENDBRANCH   1   2
BRANCH   1   6
ATOM      6  C   UNL     1      46.256   8.000  20.743  1.00  0.00     0.000 C 
BRANCH   6   7
ATOM      7  C   UNL     1      47.179   6.823  21.079  1.00  0.00    -0.000 C 
BRANCH   7   8
ATOM      8  C   UNL     1      47.995   7.109  22.345  1.00  0.00    -0.003 C 
ATOM      9  C   UNL     1      47.714   8.511  22.877  1.00  0.00     0.004 C 
ENDBRANCH   7   8
ENDBRANCH   6   7
ENDBRANCH   1   6
TORSDOF 5
ENDMDL
MODEL 3
REMARK VINA RESULT:    -3.707      3.429      5.271
REMARK INTER + INTRA:          -4.942
REMARK INTER:                  -4.776
REMARK INTRA:                  -0.166
REMARK UNBOUND:                -0.151
REMARK SMILES CCCCCCC(=O)[O-]
REMARK SMILES IDX 5 1 6 2 7 3 8 4 9 5 4 6 3 7 2 8 1 9
REMARK H PARENT
REMARK Flexibility Score: inf
ROOT
ATOM      1  C   UNL     1      46.504   7.004  18.391  1.00  0.00     0.006 C 
ENDROOT
BRANCH   1   2
ATOM      2  C   UNL     1      46.762   7.407  16.937  1.00  0.00     0.053 C 
BRANCH   2   3
ATOM      3  C   UNL     1      46.933   6.193  16.080  1.00  0.00     0.041 C 
ATOM      4  O   UNL     1      46.272   6.072  15.014  1.00  0.00    -0.550 OA
ATOM      5  O   UNL     1      47.783   5.171  16.481  1.00  0.00    -0.550 OA
ENDBRANCH   2   3
ENDBRANCH   1   2
BRANCH   1   6
ATOM      6  C   UNL     1      45.930   8.178  19.194  1.00  0.00     0.000 C 
BRANCH   6   7
ATOM      7  C   UNL     1      46.325   8.080  20.672  1.00  0.00    -0.000 C 
BRANCH   7   8
ATOM      8  C   UNL     1      47.118   6.797  20.946  1.00  0.00    -0.003 C 
ATOM      9  C   UNL     1      47.896   6.899  22.255  1.00  0.00     0.004 C 
ENDBRANCH   7   8
ENDBRANCH   6   7
ENDBRANCH   1   6
TORSDOF 5
ENDMDL
MODEL 4
REMARK VINA RESULT:    -3.640      9.631     11.056
REMARK INTER + INTRA:          -4.855
REMARK INTER:                  -4.560
REMARK INTRA:                  -0.295
REMARK UNBOUND:                -0.151
REMARK SMILES CCCCCCC(=O)[O-]
REMARK SMILES IDX 5 1 6 2 7 3 8 4 9 5 4 6 3 7 2 8 1 9
REMARK H PARENT
REMARK Flexibility Score: inf
ROOT
ATOM      1  C   UNL     1      44.218  -1.621  15.340  1.00  0.00     0.006 C 
ENDROOT
BRANCH   1   2
ATOM      2  C   UNL     1      43.855  -0.779  14.114  1.00  0.00     0.053 C 
BRANCH   2   3
ATOM      3  C   UNL     1      44.687   0.465  14.070  1.00  0.00     0.041 C 
ATOM      4  O   UNL     1      44.140   1.587  13.902  1.00  0.00    -0.550 OA
ATOM      5  O   UNL     1      46.070   0.381  14.163  1.00  0.00    -0.550 OA
ENDBRANCH   2   3
ENDBRANCH   1   2
BRANCH   1   6
ATOM      6  C   UNL     1      44.689  -3.021  14.927  1.00  0.00     0.000 C 
BRANCH   6   7
ATOM      7  C   UNL     1      46.218  -3.079  14.824  1.00  0.00    -0.000 C 
BRANCH   7   8
ATOM      8  C   UNL     1      46.876  -2.456  16.060  1.00  0.00    -0.003 C 
ATOM      9  C   UNL     1      47.609  -3.510  16.884  1.00  0.00     0.004 C 
ENDBRANCH   7   8
ENDBRANCH   6   7
ENDBRANCH   1   6
TORSDOF 5
ENDMDL
MODEL 5
REMARK VINA RESULT:    -3.637      9.893     11.275
REMARK INTER + INTRA:          -4.851
REMARK INTER:                  -4.613
REMARK INTRA:                  -0.237
REMARK UNBOUND:                -0.151
REMARK SMILES CCCCCCC(=O)[O-]
REMARK SMILES IDX 5 1 6 2 7 3 8 4 9 5 4 6 3 7 2 8 1 9
REMARK H PARENT
REMARK Flexibility Score: inf
ROOT
ATOM      1  C   UNL     1      46.304  -2.136  14.236  1.00  0.00     0.006 C 
ENDROOT
BRANCH   1   2
ATOM      2  C   UNL     1      46.144  -0.695  14.728  1.00  0.00     0.053 C 
BRANCH   2   3
ATOM      3  C   UNL     1      44.714  -0.266  14.636  1.00  0.00     0.041 C 
ATOM      4  O   UNL     1      43.789  -1.103  14.808  1.00  0.00    -0.550 OA
ATOM      5  O   UNL     1      44.401   1.048  14.311  1.00  0.00    -0.550 OA
ENDBRANCH   2   3
ENDBRANCH   1   2
BRANCH   1   6
ATOM      6  C   UNL     1      46.574  -3.090  15.406  1.00  0.00     0.000 C 
BRANCH   6   7
ATOM      7  C   UNL     1      47.267  -2.361  16.563  1.00  0.00    -0.000 C 
BRANCH   7   8
ATOM      8  C   UNL     1      48.473  -3.159  17.072  1.00  0.00    -0.003 C 
ATOM      9  C   UNL     1      48.313  -4.647  16.778  1.00  0.00     0.004 C 
ENDBRANCH   7   8
ENDBRANCH   6   7
ENDBRANCH   1   6
TORSDOF 5
ENDMDL
MODEL 6
REMARK VINA RESULT:    -3.519      3.114      4.535
REMARK INTER + INTRA:          -4.698
REMARK INTER:                  -4.395
REMARK INTRA:                  -0.304
REMARK UNBOUND:                -0.151
REMARK SMILES CCCCCCC(=O)[O-]
REMARK SMILES IDX 5 1 6 2 7 3 8 4 9 5 4 6 3 7 2 8 1 9
REMARK H PARENT
REMARK Flexibility Score: inf
ROOT
ATOM      1  C   UNL     1      44.801   8.331  21.654  1.00  0.00     0.006 C 
ENDROOT
BRANCH   1   2
ATOM      2  C   UNL     1      44.392   9.547  22.491  1.00  0.00     0.053 C 
BRANCH   2   3
ATOM      3  C   UNL     1      44.280   9.174  23.935  1.00  0.00     0.041 C 
ATOM      4  O   UNL     1      45.245   8.617  24.522  1.00  0.00    -0.550 OA
ATOM      5  O   UNL     1      43.093   9.395  24.622  1.00  0.00    -0.550 OA
ENDBRANCH   2   3
ENDBRANCH   1   2
BRANCH   1   6
ATOM      6  C   UNL     1      46.203   8.518  21.061  1.00  0.00     0.000 C 
BRANCH   6   7
ATOM      7  C   UNL     1      46.937   7.178  20.949  1.00  0.00    -0.000 C 
BRANCH   7   8
ATOM      8  C   UNL     1      47.832   6.938  22.171  1.00  0.00    -0.003 C 
ATOM      9  C   UNL     1      48.280   8.257  22.793  1.00  0.00     0.004 C 
ENDBRANCH   7   8
ENDBRANCH   6   7
ENDBRANCH   1   6
TORSDOF 5
ENDMDL
MODEL 7
REMARK VINA RESULT:    -3.478      1.674      2.143
REMARK INTER + INTRA:          -4.646
REMARK INTER:                  -4.503
REMARK INTRA:                  -0.144
REMARK UNBOUND:                -0.151
REMARK SMILES CCCCCCC(=O)[O-]
REMARK SMILES IDX 5 1 6 2 7 3 8 4 9 5 4 6 3 7 2 8 1 9
REMARK H PARENT
REMARK Flexibility Score: inf
ROOT
ATOM      1  C   UNL     1      46.668   7.035  18.509  1.00  0.00     0.006 C 
ENDROOT
BRANCH   1   2
ATOM      2  C   UNL     1      46.171   8.135  19.452  1.00  0.00     0.053 C 
BRANCH   2   3
ATOM      3  C   UNL     1      46.404   7.747  20.878  1.00  0.00     0.041 C 
ATOM      4  O   UNL     1      47.362   6.986  21.178  1.00  0.00    -0.550 OA
ATOM      5  O   UNL     1      45.535   8.183  21.869  1.00  0.00    -0.550 OA
ENDBRANCH   2   3
ENDBRANCH   1   2
BRANCH   1   6
ATOM      6  C   UNL     1      46.716   7.534  17.059  1.00  0.00     0.000 C 
BRANCH   6   7
ATOM      7  C   UNL     1      45.974   6.574  16.122  1.00  0.00    -0.000 C 
BRANCH   7   8
ATOM      8  C   UNL     1      44.474   6.890  16.086  1.00  0.00    -0.003 C 
ATOM      9  C   UNL     1      43.996   7.131  14.657  1.00  0.00     0.004 C 
ENDBRANCH   7   8
ENDBRANCH   6   7
ENDBRANCH   1   6
TORSDOF 5
ENDMDL
MODEL 8
REMARK VINA RESULT:    -3.448      3.194      5.303
REMARK INTER + INTRA:          -4.607
REMARK INTER:                  -4.392
REMARK INTRA:                  -0.215
REMARK UNBOUND:                -0.151
REMARK SMILES CCCCCCC(=O)[O-]
REMARK SMILES IDX 5 1 6 2 7 3 8 4 9 5 4 6 3 7 2 8 1 9
REMARK H PARENT
REMARK Flexibility Score: inf
ROOT
ATOM      1  C   UNL     1      44.855   8.493  21.754  1.00  0.00     0.006 C 
ENDROOT
BRANCH   1   2
ATOM      2  C   UNL     1      46.377   8.599  21.880  1.00  0.00     0.053 C 
BRANCH   2   3
ATOM      3  C   UNL     1      47.035   7.386  21.301  1.00  0.00     0.041 C 
ATOM      4  O   UNL     1      46.770   7.021  20.126  1.00  0.00    -0.550 OA
ATOM      5  O   UNL     1      47.905   6.629  22.076  1.00  0.00    -0.550 OA
ENDBRANCH   2   3
ENDBRANCH   1   2
BRANCH   1   6
ATOM      6  C   UNL     1      44.167   8.855  23.076  1.00  0.00     0.000 C 
BRANCH   6   7
ATOM      7  C   UNL     1      45.156   8.795  24.246  1.00  0.00    -0.000 C 
BRANCH   7   8
ATOM      8  C   UNL     1      44.537   9.382  25.520  1.00  0.00    -0.003 C 
ATOM      9  C   UNL     1      43.033   9.583  25.360  1.00  0.00     0.004 C 
ENDBRANCH   7   8
ENDBRANCH   6   7
ENDBRANCH   1   6
TORSDOF 5
ENDMDL
MODEL 9
REMARK VINA RESULT:    -3.442      2.571      3.623
REMARK INTER + INTRA:          -4.599
REMARK INTER:                  -4.324
REMARK INTRA:                  -0.276
REMARK UNBOUND:                -0.151
REMARK SMILES CCCCCCC(=O)[O-]
REMARK SMILES IDX 5 1 6 2 7 3 8 4 9 5 4 6 3 7 2 8 1 9
REMARK H PARENT
REMARK Flexibility Score: inf
ROOT
ATOM      1  C   UNL     1      44.513   8.024  17.424  1.00  0.00     0.006 C 
ENDROOT
BRANCH   1   2
ATOM      2  C   UNL     1      45.503   8.397  18.531  1.00  0.00     0.053 C 
BRANCH   2   3
ATOM      3  C   UNL     1      46.442   7.263  18.797  1.00  0.00     0.041 C 
ATOM      4  O   UNL     1      46.709   6.434  17.887  1.00  0.00    -0.550 OA
ATOM      5  O   UNL     1      46.986   7.092  20.064  1.00  0.00    -0.550 OA
ENDBRANCH   2   3
ENDBRANCH   1   2
BRANCH   1   6
ATOM      6  C   UNL     1      44.795   8.818  16.143  1.00  0.00     0.000 C 
BRANCH   6   7
ATOM      7  C   UNL     1      45.098   7.880  14.969  1.00  0.00    -0.000 C 
BRANCH   7   8
ATOM      8  C   UNL     1      44.182   6.652  14.996  1.00  0.00    -0.003 C 
ATOM      9  C   UNL     1      43.148   6.710  13.875  1.00  0.00     0.004 C 
ENDBRANCH   7   8
ENDBRANCH   6   7
ENDBRANCH   1   6
TORSDOF 5
ENDMDL
