MODEL 1
REMARK VINA RESULT:    -3.581      0.000      0.000
REMARK INTER + INTRA:          -3.807
REMARK INTER:                  -3.790
REMARK INTRA:                  -0.017
REMARK UNBOUND:                -0.017
REMARK SMILES O=C([O-])c1cccnc1
REMARK SMILES IDX 4 1 5 2 9 3 6 4 8 5 7 6 2 7 1 8 3 9
REMARK H PARENT
REMARK Flexibility Score: inf
ROOT
ATOM      1  C   UNL     1      49.864  45.883  56.820  1.00  0.00     0.016 A 
ATOM      2  C   UNL     1      49.841  46.368  55.502  1.00  0.00     0.013 A 
ATOM      3  C   UNL     1      51.053  45.306  57.299  1.00  0.00     0.120 A 
ATOM      4  C   UNL     1      50.979  46.269  54.700  1.00  0.00     0.021 A 
ATOM      5  N   UNL     1      52.148  45.223  56.497  1.00  0.00    -0.264 NA
ATOM      6  C   UNL     1      52.135  45.687  55.220  1.00  0.00     0.111 A 
ENDROOT
BRANCH   1   7
ATOM      7  C   UNL     1      48.665  45.982  57.679  1.00  0.00     0.073 C 
ATOM      8  O   UNL     1      48.646  46.767  58.665  1.00  0.00    -0.545 OA
ATOM      9  O   UNL     1      47.541  45.211  57.411  1.00  0.00    -0.545 OA
ENDBRANCH   1   7
TORSDOF 1
ENDMDL
MODEL 2
REMARK VINA RESULT:    -3.446      0.910      1.601
REMARK INTER + INTRA:          -3.665
REMARK INTER:                  -3.648
REMARK INTRA:                  -0.017
REMARK UNBOUND:                -0.017
REMARK SMILES O=C([O-])c1cccnc1
REMARK SMILES IDX 4 1 5 2 9 3 6 4 8 5 7 6 2 7 1 8 3 9
REMARK H PARENT
REMARK Flexibility Score: inf
ROOT
ATOM      1  C   UNL     1      49.909  45.883  56.822  1.00  0.00     0.016 A 
ATOM      2  C   UNL     1      51.107  45.340  57.315  1.00  0.00     0.013 A 
ATOM      3  C   UNL     1      49.883  46.348  55.496  1.00  0.00     0.120 A 
ATOM      4  C   UNL     1      52.235  45.271  56.496  1.00  0.00     0.021 A 
ATOM      5  N   UNL     1      50.996  46.269  54.718  1.00  0.00    -0.264 NA
ATOM      6  C   UNL     1      52.160  45.746  55.186  1.00  0.00     0.111 A 
ENDROOT
BRANCH   1   7
ATOM      7  C   UNL     1      48.708  45.961  57.681  1.00  0.00     0.073 C 
ATOM      8  O   UNL     1      48.677  46.744  58.668  1.00  0.00    -0.545 OA
ATOM      9  O   UNL     1      47.597  45.172  57.411  1.00  0.00    -0.545 OA
ENDBRANCH   1   7
TORSDOF 1
ENDMDL
MODEL 3
REMARK VINA RESULT:    -3.423     15.962     16.633
REMARK INTER + INTRA:          -3.640
REMARK INTER:                  -3.623
REMARK INTRA:                  -0.017
REMARK UNBOUND:                -0.017
REMARK SMILES O=C([O-])c1cccnc1
REMARK SMILES IDX 4 1 5 2 9 3 6 4 8 5 7 6 2 7 1 8 3 9
REMARK H PARENT
REMARK Flexibility Score: inf
ROOT
ATOM      1  C   UNL     1      43.912  48.260  41.675  1.00  0.00     0.016 A 
ATOM      2  C   UNL     1      42.617  47.778  41.425  1.00  0.00     0.013 A 
ATOM      3  C   UNL     1      44.992  47.368  41.557  1.00  0.00     0.120 A 
ATOM      4  C   UNL     1      42.423  46.442  41.069  1.00  0.00     0.021 A 
ATOM      5  N   UNL     1      44.776  46.071  41.208  1.00  0.00    -0.264 NA
ATOM      6  C   UNL     1      43.527  45.595  40.965  1.00  0.00     0.111 A 
ENDROOT
BRANCH   1   7
ATOM      7  C   UNL     1      44.129  49.673  42.054  1.00  0.00     0.073 C 
ATOM      8  O   UNL     1      43.837  50.078  43.211  1.00  0.00    -0.545 OA
ATOM      9  O   UNL     1      44.657  50.575  41.137  1.00  0.00    -0.545 OA
ENDBRANCH   1   7
TORSDOF 1
ENDMDL
MODEL 4
REMARK VINA RESULT:    -3.378      2.696      3.583
REMARK INTER + INTRA:          -3.592
REMARK INTER:                  -3.569
REMARK INTRA:                  -0.023
REMARK UNBOUND:                -0.017
REMARK SMILES O=C([O-])c1cccnc1
REMARK SMILES IDX 4 1 5 2 9 3 6 4 8 5 7 6 2 7 1 8 3 9
REMARK H PARENT
REMARK Flexibility Score: inf
ROOT
ATOM      1  C   UNL     1      50.536  45.707  56.455  1.00  0.00     0.016 A 
ATOM      2  C   UNL     1      49.141  45.869  56.470  1.00  0.00     0.013 A 
ATOM      3  C   UNL     1      51.170  45.267  57.630  1.00  0.00     0.120 A 
ATOM      4  C   UNL     1      48.416  45.596  57.631  1.00  0.00     0.021 A 
ATOM      5  N   UNL     1      50.440  45.007  58.748  1.00  0.00    -0.264 NA
ATOM      6  C   UNL     1      49.090  45.162  58.773  1.00  0.00     0.111 A 
ENDROOT
BRANCH   1   7
ATOM      7  C   UNL     1      51.314  45.993  55.231  1.00  0.00     0.073 C 
ATOM      8  O   UNL     1      50.866  46.784  54.358  1.00  0.00    -0.545 OA
ATOM      9  O   UNL     1      52.551  45.393  55.026  1.00  0.00    -0.545 OA
ENDBRANCH   1   7
TORSDOF 1
ENDMDL
MODEL 5
REMARK VINA RESULT:    -3.346     11.304     12.378
REMARK INTER + INTRA:          -3.558
REMARK INTER:                  -3.537
REMARK INTRA:                  -0.021
REMARK UNBOUND:                -0.017
REMARK SMILES O=C([O-])c1cccnc1
REMARK SMILES IDX 4 1 5 2 9 3 6 4 8 5 7 6 2 7 1 8 3 9
REMARK H PARENT
REMARK Flexibility Score: inf
ROOT
ATOM      1  C   UNL     1      51.223  46.626  44.788  1.00  0.00     0.016 A 
ATOM      2  C   UNL     1      52.421  45.945  44.512  1.00  0.00     0.013 A 
ATOM      3  C   UNL     1      50.314  46.832  43.737  1.00  0.00     0.120 A 
ATOM      4  C   UNL     1      52.686  45.492  43.218  1.00  0.00     0.021 A 
ATOM      5  N   UNL     1      50.597  46.380  42.485  1.00  0.00    -0.264 NA
ATOM      6  C   UNL     1      51.753  45.721  42.207  1.00  0.00     0.111 A 
ENDROOT
BRANCH   1   7
ATOM      7  C   UNL     1      50.932  47.110  46.155  1.00  0.00     0.073 C 
ATOM      8  O   UNL     1      51.856  47.555  46.887  1.00  0.00    -0.545 OA
ATOM      9  O   UNL     1      49.634  47.083  46.650  1.00  0.00    -0.545 OA
ENDBRANCH   1   7
TORSDOF 1
ENDMDL
MODEL 6
REMARK VINA RESULT:    -3.342      2.863      3.874
REMARK INTER + INTRA:          -3.554
REMARK INTER:                  -3.531
REMARK INTRA:                  -0.023
REMARK UNBOUND:                -0.017
REMARK SMILES O=C([O-])c1cccnc1
REMARK SMILES IDX 4 1 5 2 9 3 6 4 8 5 7 6 2 7 1 8 3 9
REMARK H PARENT
REMARK Flexibility Score: inf
ROOT
ATOM      1  C   UNL     1      50.361  45.657  56.547  1.00  0.00     0.016 A 
ATOM      2  C   UNL     1      50.847  45.361  57.831  1.00  0.00     0.013 A 
ATOM      3  C   UNL     1      48.972  45.615  56.332  1.00  0.00     0.120 A 
ATOM      4  C   UNL     1      49.960  45.035  58.858  1.00  0.00     0.021 A 
ATOM      5  N   UNL     1      48.129  45.295  57.351  1.00  0.00    -0.264 NA
ATOM      6  C   UNL     1      48.590  45.007  58.597  1.00  0.00     0.111 A 
ENDROOT
BRANCH   1   7
ATOM      7  C   UNL     1      51.291  46.003  55.451  1.00  0.00     0.073 C 
ATOM      8  O   UNL     1      52.492  45.623  55.487  1.00  0.00    -0.545 OA
ATOM      9  O   UNL     1      50.853  46.753  54.366  1.00  0.00    -0.545 OA
ENDBRANCH   1   7
TORSDOF 1
ENDMDL
MODEL 7
REMARK VINA RESULT:    -3.080     12.133     13.357
REMARK INTER + INTRA:          -3.276
REMARK INTER:                  -3.253
REMARK INTRA:                  -0.024
REMARK UNBOUND:                -0.017
REMARK SMILES O=C([O-])c1cccnc1
REMARK SMILES IDX 4 1 5 2 9 3 6 4 8 5 7 6 2 7 1 8 3 9
REMARK H PARENT
REMARK Flexibility Score: inf
ROOT
ATOM      1  C   UNL     1      51.812  46.342  43.774  1.00  0.00     0.016 A 
ATOM      2  C   UNL     1      52.218  46.369  45.119  1.00  0.00     0.013 A 
ATOM      3  C   UNL     1      50.447  46.511  43.484  1.00  0.00     0.120 A 
ATOM      4  C   UNL     1      51.276  46.560  46.131  1.00  0.00     0.021 A 
ATOM      5  N   UNL     1      49.550  46.696  44.490  1.00  0.00    -0.264 NA
ATOM      6  C   UNL     1      49.932  46.723  45.793  1.00  0.00     0.111 A 
ENDROOT
BRANCH   1   7
ATOM      7  C   UNL     1      52.802  46.141  42.693  1.00  0.00     0.073 C 
ATOM      8  O   UNL     1      52.433  46.092  41.489  1.00  0.00    -0.545 OA
ATOM      9  O   UNL     1      54.152  46.004  42.991  1.00  0.00    -0.545 OA
ENDBRANCH   1   7
TORSDOF 1
ENDMDL
MODEL 8
REMARK VINA RESULT:    -3.078     11.416     12.484
REMARK INTER + INTRA:          -3.275
REMARK INTER:                  -3.255
REMARK INTRA:                  -0.020
REMARK UNBOUND:                -0.017
REMARK SMILES O=C([O-])c1cccnc1
REMARK SMILES IDX 4 1 5 2 9 3 6 4 8 5 7 6 2 7 1 8 3 9
REMARK H PARENT
REMARK Flexibility Score: inf
ROOT
ATOM      1  C   UNL     1      51.221  46.606  44.618  1.00  0.00     0.016 A 
ATOM      2  C   UNL     1      50.415  46.956  43.522  1.00  0.00     0.013 A 
ATOM      3  C   UNL     1      52.383  45.851  44.379  1.00  0.00     0.120 A 
ATOM      4  C   UNL     1      50.773  46.556  42.233  1.00  0.00     0.021 A 
ATOM      5  N   UNL     1      52.709  45.475  43.113  1.00  0.00    -0.264 NA
ATOM      6  C   UNL     1      51.935  45.808  42.047  1.00  0.00     0.111 A 
ENDROOT
BRANCH   1   7
ATOM      7  C   UNL     1      50.852  47.024  45.987  1.00  0.00     0.073 C 
ATOM      8  O   UNL     1      49.660  46.929  46.386  1.00  0.00    -0.545 OA
ATOM      9  O   UNL     1      51.815  47.527  46.854  1.00  0.00    -0.545 OA
ENDBRANCH   1   7
TORSDOF 1
ENDMDL
MODEL 9
REMARK VINA RESULT:    -3.009     15.868     16.278
REMARK INTER + INTRA:          -3.201
REMARK INTER:                  -3.180
REMARK INTRA:                  -0.022
REMARK UNBOUND:                -0.017
REMARK SMILES O=C([O-])c1cccnc1
REMARK SMILES IDX 4 1 5 2 9 3 6 4 8 5 7 6 2 7 1 8 3 9
REMARK H PARENT
REMARK Flexibility Score: inf
ROOT
ATOM      1  C   UNL     1      44.161  47.240  41.645  1.00  0.00     0.016 A 
ATOM      2  C   UNL     1      45.534  47.527  41.579  1.00  0.00     0.013 A 
ATOM      3  C   UNL     1      43.748  45.906  41.488  1.00  0.00     0.120 A 
ATOM      4  C   UNL     1      46.454  46.500  41.362  1.00  0.00     0.021 A 
ATOM      5  N   UNL     1      44.666  44.923  41.278  1.00  0.00    -0.264 NA
ATOM      6  C   UNL     1      45.996  45.191  41.211  1.00  0.00     0.111 A 
ENDROOT
BRANCH   1   7
ATOM      7  C   UNL     1      43.177  48.320  41.875  1.00  0.00     0.073 C 
ATOM      8  O   UNL     1      42.007  48.229  41.415  1.00  0.00    -0.545 OA
ATOM      9  O   UNL     1      43.529  49.450  42.603  1.00  0.00    -0.545 OA
ENDBRANCH   1   7
TORSDOF 1
ENDMDL
