MODEL 1
REMARK VINA RESULT:    -5.421      0.000      0.000
REMARK INTER + INTRA:          -6.685
REMARK INTER:                  -6.372
REMARK INTRA:                  -0.313
REMARK UNBOUND:                -0.313
REMARK SMILES O=c1cc(-c2ccc(O)c(O)c2)oc2cc(O)cc(O)c12
REMARK SMILES IDX 4 1 3 2 2 3 1 4 21 5 19 6 18 7 16 8 15 9 14 10 13 11 5 12
REMARK SMILES IDX 6 13 7 14 8 15 12 16 10 17 9 18 11 20 20 22 17 24
REMARK H PARENT 9 19 11 21 20 23 17 25
REMARK Flexibility Score: inf
ROOT
ATOM      1  C   UNL     1     132.989 138.636 137.417  1.00  0.00     0.138 A 
ATOM      2  C   UNL     1     133.756 138.565 138.588  1.00  0.00     0.100 A 
ATOM      3  C   UNL     1     135.148 138.638 138.507  1.00  0.00     0.197 A 
ATOM      4  O   UNL     1     135.811 138.515 139.569  1.00  0.00    -0.289 OA
ATOM      5  C   UNL     1     135.771 138.817 137.249  1.00  0.00     0.107 A 
ATOM      6  C   UNL     1     137.180 138.938 137.048  1.00  0.00     0.134 A 
ATOM      7  C   UNL     1     137.685 139.014 135.743  1.00  0.00     0.093 A 
ATOM      8  C   UNL     1     136.832 139.032 134.638  1.00  0.00     0.123 A 
ATOM      9  C   UNL     1     135.453 138.964 134.827  1.00  0.00     0.094 A 
ATOM     10  C   UNL     1     134.919 138.853 136.112  1.00  0.00     0.146 A 
ATOM     11  O   UNL     1     133.599 138.773 136.246  1.00  0.00    -0.456 OA
ENDROOT
BRANCH   1  12
ATOM     12  C   UNL     1     131.505 138.568 137.446  1.00  0.00     0.021 A 
ATOM     13  C   UNL     1     130.775 138.827 138.619  1.00  0.00     0.016 A 
ATOM     14  C   UNL     1     129.381 138.746 138.618  1.00  0.00     0.051 A 
ATOM     15  C   UNL     1     128.687 138.398 137.456  1.00  0.00     0.157 A 
ATOM     16  C   UNL     1     130.808 138.206 136.282  1.00  0.00     0.062 A 
ATOM     17  C   UNL     1     129.409 138.122 136.272  1.00  0.00     0.158 A 
BRANCH  15  18
ATOM     18  O   UNL     1     127.293 138.336 137.522  1.00  0.00    -0.504 OA
ATOM     19  H   UNL     1     126.763 137.479 137.471  1.00  0.00     0.293 HD
ENDBRANCH  15  18
BRANCH  17  20
ATOM     20  O   UNL     1     128.787 137.764 135.074  1.00  0.00    -0.504 OA
ATOM     21  H   UNL     1     127.820 137.479 135.004  1.00  0.00     0.293 HD
ENDBRANCH  17  20
ENDBRANCH   1  12
BRANCH   6  22
ATOM     22  O   UNL     1     138.116 139.012 138.083  1.00  0.00    -0.507 OA
ATOM     23  H   UNL     1     138.743 139.784 138.244  1.00  0.00     0.293 HD
ENDBRANCH   6  22
BRANCH   8  24
ATOM     24  O   UNL     1     137.345 139.123 133.346  1.00  0.00    -0.508 OA
ATOM     25  H   UNL     1     138.178 139.663 133.143  1.00  0.00     0.293 HD
ENDBRANCH   8  24
TORSDOF 5
ENDMDL
MODEL 2
REMARK VINA RESULT:    -5.201      1.695      2.424
REMARK INTER + INTRA:          -6.426
REMARK INTER:                  -6.159
REMARK INTRA:                  -0.267
REMARK UNBOUND:                -0.313
REMARK SMILES O=c1cc(-c2ccc(O)c(O)c2)oc2cc(O)cc(O)c12
REMARK SMILES IDX 4 1 3 2 2 3 1 4 21 5 19 6 18 7 16 8 15 9 14 10 13 11 5 12
REMARK SMILES IDX 6 13 7 14 8 15 12 16 10 17 9 18 11 20 20 22 17 24
REMARK H PARENT 9 19 11 21 20 23 17 25
REMARK Flexibility Score: inf
ROOT
ATOM      1  C   UNL     1     132.798 137.360 135.976  1.00  0.00     0.138 A 
ATOM      2  C   UNL     1     133.033 137.467 137.354  1.00  0.00     0.100 A 
ATOM      3  C   UNL     1     134.275 137.912 137.809  1.00  0.00     0.197 A 
ATOM      4  O   UNL     1     134.474 137.945 139.051  1.00  0.00    -0.289 OA
ATOM      5  C   UNL     1     135.275 138.282 136.879  1.00  0.00     0.107 A 
ATOM      6  C   UNL     1     136.567 138.781 137.227  1.00  0.00     0.134 A 
ATOM      7  C   UNL     1     137.508 139.022 136.217  1.00  0.00     0.093 A 
ATOM      8  C   UNL     1     137.185 138.839 134.871  1.00  0.00     0.123 A 
ATOM      9  C   UNL     1     135.910 138.400 134.519  1.00  0.00     0.094 A 
ATOM     10  C   UNL     1     134.961 138.118 135.503  1.00  0.00     0.146 A 
ATOM     11  O   UNL     1     133.764 137.684 135.123  1.00  0.00    -0.456 OA
ENDROOT
BRANCH   1  12
ATOM     12  C   UNL     1     131.494 136.896 135.436  1.00  0.00     0.021 A 
ATOM     13  C   UNL     1     131.388 135.732 134.655  1.00  0.00     0.016 A 
ATOM     14  C   UNL     1     130.150 135.328 134.153  1.00  0.00     0.051 A 
ATOM     15  C   UNL     1     128.996 136.073 134.410  1.00  0.00     0.157 A 
ATOM     16  C   UNL     1     130.336 137.652 135.683  1.00  0.00     0.062 A 
ATOM     17  C   UNL     1     129.090 137.253 135.184  1.00  0.00     0.158 A 
BRANCH  15  18
ATOM     18  O   UNL     1     127.789 135.612 133.880  1.00  0.00    -0.504 OA
ATOM     19  H   UNL     1     127.300 136.057 133.117  1.00  0.00     0.293 HD
ENDBRANCH  15  18
BRANCH  17  20
ATOM     20  O   UNL     1     127.983 138.052 135.478  1.00  0.00    -0.504 OA
ATOM     21  H   UNL     1     127.399 137.929 136.293  1.00  0.00     0.293 HD
ENDBRANCH  17  20
ENDBRANCH   1  12
BRANCH   6  22
ATOM     22  O   UNL     1     136.967 139.076 138.533  1.00  0.00    -0.507 OA
ATOM     23  H   UNL     1     137.671 138.574 139.051  1.00  0.00     0.293 HD
ENDBRANCH   6  22
BRANCH   8  24
ATOM     24  O   UNL     1     138.123 139.096 133.874  1.00  0.00    -0.508 OA
ATOM     25  H   UNL     1     138.033 138.698 132.946  1.00  0.00     0.293 HD
ENDBRANCH   8  24
TORSDOF 5
ENDMDL
MODEL 3
REMARK VINA RESULT:    -5.171     15.457     18.258
REMARK INTER + INTRA:          -6.391
REMARK INTER:                  -6.106
REMARK INTRA:                  -0.285
REMARK UNBOUND:                -0.313
REMARK SMILES O=c1cc(-c2ccc(O)c(O)c2)oc2cc(O)cc(O)c12
REMARK SMILES IDX 4 1 3 2 2 3 1 4 21 5 19 6 18 7 16 8 15 9 14 10 13 11 5 12
REMARK SMILES IDX 6 13 7 14 8 15 12 16 10 17 9 18 11 20 20 22 17 24
REMARK H PARENT 9 19 11 21 20 23 17 25
REMARK Flexibility Score: inf
ROOT
ATOM      1  C   UNL     1     122.167 126.866 128.430  1.00  0.00     0.138 A 
ATOM      2  C   UNL     1     121.966 128.157 128.937  1.00  0.00     0.100 A 
ATOM      3  C   UNL     1     123.040 129.046 129.007  1.00  0.00     0.197 A 
ATOM      4  O   UNL     1     122.840 130.178 129.517  1.00  0.00    -0.289 OA
ATOM      5  C   UNL     1     124.314 128.650 128.533  1.00  0.00     0.107 A 
ATOM      6  C   UNL     1     125.474 129.482 128.522  1.00  0.00     0.134 A 
ATOM      7  C   UNL     1     126.703 128.946 128.119  1.00  0.00     0.093 A 
ATOM      8  C   UNL     1     126.803 127.626 127.672  1.00  0.00     0.123 A 
ATOM      9  C   UNL     1     125.667 126.822 127.631  1.00  0.00     0.094 A 
ATOM     10  C   UNL     1     124.433 127.315 128.059  1.00  0.00     0.146 A 
ATOM     11  O   UNL     1     123.379 126.508 128.021  1.00  0.00    -0.456 OA
ENDROOT
BRANCH   1  12
ATOM     12  C   UNL     1     121.059 125.881 128.331  1.00  0.00     0.021 A 
ATOM     13  C   UNL     1     119.847 126.194 127.692  1.00  0.00     0.016 A 
ATOM     14  C   UNL     1     118.820 125.250 127.623  1.00  0.00     0.051 A 
ATOM     15  C   UNL     1     118.974 123.982 128.191  1.00  0.00     0.157 A 
ATOM     16  C   UNL     1     121.209 124.612 128.914  1.00  0.00     0.062 A 
ATOM     17  C   UNL     1     120.184 123.659 128.848  1.00  0.00     0.158 A 
BRANCH  15  18
ATOM     18  O   UNL     1     117.909 123.085 128.085  1.00  0.00    -0.504 OA
ATOM     19  H   UNL     1     117.990 122.155 127.701  1.00  0.00     0.293 HD
ENDBRANCH  15  18
BRANCH  17  20
ATOM     20  O   UNL     1     120.410 122.417 129.444  1.00  0.00    -0.504 OA
ATOM     21  H   UNL     1     120.580 122.288 130.432  1.00  0.00     0.293 HD
ENDBRANCH  17  20
ENDBRANCH   1  12
BRANCH   6  22
ATOM     22  O   UNL     1     125.470 130.836 128.871  1.00  0.00    -0.507 OA
ATOM     23  H   UNL     1     126.169 131.508 128.594  1.00  0.00     0.293 HD
ENDBRANCH   6  22
BRANCH   8  24
ATOM     24  O   UNL     1     128.028 127.107 127.258  1.00  0.00    -0.508 OA
ATOM     25  H   UNL     1     128.301 126.156 127.475  1.00  0.00     0.293 HD
ENDBRANCH   8  24
TORSDOF 5
ENDMDL
MODEL 4
REMARK VINA RESULT:    -4.989      2.024      4.004
REMARK INTER + INTRA:          -6.177
REMARK INTER:                  -5.902
REMARK INTRA:                  -0.275
REMARK UNBOUND:                -0.313
REMARK SMILES O=c1cc(-c2ccc(O)c(O)c2)oc2cc(O)cc(O)c12
REMARK SMILES IDX 4 1 3 2 2 3 1 4 21 5 19 6 18 7 16 8 15 9 14 10 13 11 5 12
REMARK SMILES IDX 6 13 7 14 8 15 12 16 10 17 9 18 11 20 20 22 17 24
REMARK H PARENT 9 19 11 21 20 23 17 25
REMARK Flexibility Score: inf
ROOT
ATOM      1  C   UNL     1     132.789 137.372 136.326  1.00  0.00     0.138 A 
ATOM      2  C   UNL     1     133.885 137.963 135.683  1.00  0.00     0.100 A 
ATOM      3  C   UNL     1     134.996 138.354 136.432  1.00  0.00     0.197 A 
ATOM      4  O   UNL     1     135.940 138.932 135.834  1.00  0.00    -0.289 OA
ATOM      5  C   UNL     1     135.022 138.120 137.828  1.00  0.00     0.107 A 
ATOM      6  C   UNL     1     136.114 138.446 138.688  1.00  0.00     0.134 A 
ATOM      7  C   UNL     1     135.983 138.256 140.070  1.00  0.00     0.093 A 
ATOM      8  C   UNL     1     134.825 137.699 140.615  1.00  0.00     0.123 A 
ATOM      9  C   UNL     1     133.774 137.332 139.779  1.00  0.00     0.094 A 
ATOM     10  C   UNL     1     133.858 137.540 138.401  1.00  0.00     0.146 A 
ATOM     11  O   UNL     1     132.825 137.192 137.642  1.00  0.00    -0.456 OA
ENDROOT
BRANCH   1  12
ATOM     12  C   UNL     1     131.583 136.933 135.578  1.00  0.00     0.021 A 
ATOM     13  C   UNL     1     131.632 135.880 134.648  1.00  0.00     0.016 A 
ATOM     14  C   UNL     1     130.484 135.496 133.952  1.00  0.00     0.051 A 
ATOM     15  C   UNL     1     129.268 136.154 134.161  1.00  0.00     0.157 A 
ATOM     16  C   UNL     1     130.364 137.602 135.778  1.00  0.00     0.062 A 
ATOM     17  C   UNL     1     129.207 137.223 135.084  1.00  0.00     0.158 A 
BRANCH  15  18
ATOM     18  O   UNL     1     128.158 135.720 133.435  1.00  0.00    -0.504 OA
ATOM     19  H   UNL     1     127.204 135.957 133.666  1.00  0.00     0.293 HD
ENDBRANCH  15  18
BRANCH  17  20
ATOM     20  O   UNL     1     128.032 137.932 135.342  1.00  0.00    -0.504 OA
ATOM     21  H   UNL     1     128.006 138.914 135.577  1.00  0.00     0.293 HD
ENDBRANCH  17  20
ENDBRANCH   1  12
BRANCH   6  22
ATOM     22  O   UNL     1     137.345 138.933 138.241  1.00  0.00    -0.507 OA
ATOM     23  H   UNL     1     137.468 139.730 137.636  1.00  0.00     0.293 HD
ENDBRANCH   6  22
BRANCH   8  24
ATOM     24  O   UNL     1     134.711 137.500 141.990  1.00  0.00    -0.508 OA
ATOM     25  H   UNL     1     134.707 138.278 142.639  1.00  0.00     0.293 HD
ENDBRANCH   8  24
TORSDOF 5
ENDMDL
MODEL 5
REMARK VINA RESULT:    -4.987     14.723     18.683
REMARK INTER + INTRA:          -6.174
REMARK INTER:                  -5.911
REMARK INTRA:                  -0.264
REMARK UNBOUND:                -0.313
REMARK SMILES O=c1cc(-c2ccc(O)c(O)c2)oc2cc(O)cc(O)c12
REMARK SMILES IDX 4 1 3 2 2 3 1 4 21 5 19 6 18 7 16 8 15 9 14 10 13 11 5 12
REMARK SMILES IDX 6 13 7 14 8 15 12 16 10 17 9 18 11 20 20 22 17 24
REMARK H PARENT 9 19 11 21 20 23 17 25
REMARK Flexibility Score: inf
ROOT
ATOM      1  C   UNL     1     122.553 128.077 129.223  1.00  0.00     0.138 A 
ATOM      2  C   UNL     1     121.267 128.626 129.127  1.00  0.00     0.100 A 
ATOM      3  C   UNL     1     120.158 127.780 129.074  1.00  0.00     0.197 A 
ATOM      4  O   UNL     1     119.021 128.301 128.932  1.00  0.00    -0.289 OA
ATOM      5  C   UNL     1     120.337 126.378 129.152  1.00  0.00     0.107 A 
ATOM      6  C   UNL     1     119.279 125.420 129.141  1.00  0.00     0.134 A 
ATOM      7  C   UNL     1     119.587 124.053 129.124  1.00  0.00     0.093 A 
ATOM      8  C   UNL     1     120.910 123.611 129.177  1.00  0.00     0.123 A 
ATOM      9  C   UNL     1     121.948 124.538 129.238  1.00  0.00     0.094 A 
ATOM     10  C   UNL     1     121.676 125.908 129.221  1.00  0.00     0.146 A 
ATOM     11  O   UNL     1     122.697 126.757 129.262  1.00  0.00    -0.456 OA
ENDROOT
BRANCH   1  12
ATOM     12  C   UNL     1     123.767 128.931 129.287  1.00  0.00     0.021 A 
ATOM     13  C   UNL     1     124.292 129.380 130.511  1.00  0.00     0.016 A 
ATOM     14  C   UNL     1     125.430 130.189 130.538  1.00  0.00     0.051 A 
ATOM     15  C   UNL     1     126.063 130.574 129.353  1.00  0.00     0.157 A 
ATOM     16  C   UNL     1     124.396 129.328 128.095  1.00  0.00     0.062 A 
ATOM     17  C   UNL     1     125.538 130.139 128.114  1.00  0.00     0.158 A 
BRANCH  15  18
ATOM     18  O   UNL     1     127.197 131.382 129.451  1.00  0.00    -0.504 OA
ATOM     19  H   UNL     1     128.138 131.028 129.535  1.00  0.00     0.293 HD
ENDBRANCH  15  18
BRANCH  17  20
ATOM     20  O   UNL     1     126.111 130.486 126.888  1.00  0.00    -0.504 OA
ATOM     21  H   UNL     1     126.723 129.880 126.360  1.00  0.00     0.293 HD
ENDBRANCH  17  20
ENDBRANCH   1  12
BRANCH   6  22
ATOM     22  O   UNL     1     117.921 125.751 129.169  1.00  0.00    -0.507 OA
ATOM     23  H   UNL     1     117.169 125.100 129.333  1.00  0.00     0.293 HD
ENDBRANCH   6  22
BRANCH   8  24
ATOM     24  O   UNL     1     121.205 122.249 129.176  1.00  0.00    -0.508 OA
ATOM     25  H   UNL     1     121.600 121.791 129.989  1.00  0.00     0.293 HD
ENDBRANCH   8  24
TORSDOF 5
ENDMDL
MODEL 6
REMARK VINA RESULT:    -4.982     18.261     20.181
REMARK INTER + INTRA:          -6.169
REMARK INTER:                  -5.878
REMARK INTRA:                  -0.291
REMARK UNBOUND:                -0.313
REMARK SMILES O=c1cc(-c2ccc(O)c(O)c2)oc2cc(O)cc(O)c12
REMARK SMILES IDX 4 1 3 2 2 3 1 4 21 5 19 6 18 7 16 8 15 9 14 10 13 11 5 12
REMARK SMILES IDX 6 13 7 14 8 15 12 16 10 17 9 18 11 20 20 22 17 24
REMARK H PARENT 9 19 11 21 20 23 17 25
REMARK Flexibility Score: inf
ROOT
ATOM      1  C   UNL     1     125.806 121.239 141.864  1.00  0.00     0.138 A 
ATOM      2  C   UNL     1     124.550 121.846 141.734  1.00  0.00     0.100 A 
ATOM      3  C   UNL     1     124.136 122.313 140.485  1.00  0.00     0.197 A 
ATOM      4  O   UNL     1     123.026 122.902 140.411  1.00  0.00    -0.289 OA
ATOM      5  C   UNL     1     124.971 122.139 139.356  1.00  0.00     0.107 A 
ATOM      6  C   UNL     1     124.639 122.544 138.027  1.00  0.00     0.134 A 
ATOM      7  C   UNL     1     125.590 122.408 137.008  1.00  0.00     0.093 A 
ATOM      8  C   UNL     1     126.836 121.828 137.255  1.00  0.00     0.123 A 
ATOM      9  C   UNL     1     127.150 121.384 138.538  1.00  0.00     0.094 A 
ATOM     10  C   UNL     1     126.238 121.537 139.584  1.00  0.00     0.146 A 
ATOM     11  O   UNL     1     126.585 121.116 140.795  1.00  0.00    -0.456 OA
ENDROOT
BRANCH   1  12
ATOM     12  C   UNL     1     126.296 120.721 143.168  1.00  0.00     0.021 A 
ATOM     13  C   UNL     1     127.662 120.488 143.405  1.00  0.00     0.016 A 
ATOM     14  C   UNL     1     128.090 119.991 144.638  1.00  0.00     0.051 A 
ATOM     15  C   UNL     1     127.173 119.710 145.654  1.00  0.00     0.157 A 
ATOM     16  C   UNL     1     125.372 120.426 144.184  1.00  0.00     0.062 A 
ATOM     17  C   UNL     1     125.795 119.928 145.424  1.00  0.00     0.158 A 
BRANCH  15  18
ATOM     18  O   UNL     1     127.668 119.217 146.863  1.00  0.00    -0.504 OA
ATOM     19  H   UNL     1     128.575 119.450 147.239  1.00  0.00     0.293 HD
ENDBRANCH  15  18
BRANCH  17  20
ATOM     20  O   UNL     1     124.818 119.665 146.387  1.00  0.00    -0.504 OA
ATOM     21  H   UNL     1     124.555 118.737 146.685  1.00  0.00     0.293 HD
ENDBRANCH  17  20
ENDBRANCH   1  12
BRANCH   6  22
ATOM     22  O   UNL     1     123.395 123.061 137.653  1.00  0.00    -0.507 OA
ATOM     23  H   UNL     1     122.565 122.513 137.490  1.00  0.00     0.293 HD
ENDBRANCH   6  22
BRANCH   8  24
ATOM     24  O   UNL     1     127.768 121.683 136.231  1.00  0.00    -0.508 OA
ATOM     25  H   UNL     1     127.744 120.890 135.600  1.00  0.00     0.293 HD
ENDBRANCH   8  24
TORSDOF 5
ENDMDL
MODEL 7
REMARK VINA RESULT:    -4.922     14.641     17.713
REMARK INTER + INTRA:          -6.098
REMARK INTER:                  -5.817
REMARK INTRA:                  -0.281
REMARK UNBOUND:                -0.313
REMARK SMILES O=c1cc(-c2ccc(O)c(O)c2)oc2cc(O)cc(O)c12
REMARK SMILES IDX 4 1 3 2 2 3 1 4 21 5 19 6 18 7 16 8 15 9 14 10 13 11 5 12
REMARK SMILES IDX 6 13 7 14 8 15 12 16 10 17 9 18 11 20 20 22 17 24
REMARK H PARENT 9 19 11 21 20 23 17 25
REMARK Flexibility Score: inf
ROOT
ATOM      1  C   UNL     1     122.412 127.138 128.891  1.00  0.00     0.138 A 
ATOM      2  C   UNL     1     122.791 127.975 127.832  1.00  0.00     0.100 A 
ATOM      3  C   UNL     1     123.748 128.968 128.047  1.00  0.00     0.197 A 
ATOM      4  O   UNL     1     124.027 129.739 127.092  1.00  0.00    -0.289 OA
ATOM      5  C   UNL     1     124.354 129.099 129.319  1.00  0.00     0.107 A 
ATOM      6  C   UNL     1     125.366 130.053 129.645  1.00  0.00     0.134 A 
ATOM      7  C   UNL     1     125.819 130.152 130.967  1.00  0.00     0.093 A 
ATOM      8  C   UNL     1     125.340 129.295 131.960  1.00  0.00     0.123 A 
ATOM      9  C   UNL     1     124.390 128.328 131.641  1.00  0.00     0.094 A 
ATOM     10  C   UNL     1     123.892 128.226 130.340  1.00  0.00     0.146 A 
ATOM     11  O   UNL     1     122.972 127.302 130.084  1.00  0.00    -0.456 OA
ENDROOT
BRANCH   1  12
ATOM     12  C   UNL     1     121.401 126.063 128.718  1.00  0.00     0.021 A 
ATOM     13  C   UNL     1     120.091 126.342 128.290  1.00  0.00     0.016 A 
ATOM     14  C   UNL     1     119.160 125.311 128.146  1.00  0.00     0.051 A 
ATOM     15  C   UNL     1     119.508 123.988 128.431  1.00  0.00     0.157 A 
ATOM     16  C   UNL     1     121.747 124.735 129.017  1.00  0.00     0.062 A 
ATOM     17  C   UNL     1     120.819 123.695 128.874  1.00  0.00     0.158 A 
BRANCH  15  18
ATOM     18  O   UNL     1     118.531 123.005 128.265  1.00  0.00    -0.504 OA
ATOM     19  H   UNL     1     117.559 123.201 128.076  1.00  0.00     0.293 HD
ENDBRANCH  15  18
BRANCH  17  20
ATOM     20  O   UNL     1     121.240 122.400 129.183  1.00  0.00    -0.504 OA
ATOM     21  H   UNL     1     120.849 121.566 128.769  1.00  0.00     0.293 HD
ENDBRANCH  17  20
ENDBRANCH   1  12
BRANCH   6  22
ATOM     22  O   UNL     1     125.971 130.902 128.715  1.00  0.00    -0.507 OA
ATOM     23  H   UNL     1     125.819 130.873 127.718  1.00  0.00     0.293 HD
ENDBRANCH   6  22
BRANCH   8  24
ATOM     24  O   UNL     1     125.809 129.391 133.268  1.00  0.00    -0.508 OA
ATOM     25  H   UNL     1     125.451 130.089 133.910  1.00  0.00     0.293 HD
ENDBRANCH   8  24
TORSDOF 5
ENDMDL
MODEL 8
REMARK VINA RESULT:    -4.914     18.494     20.770
REMARK INTER + INTRA:          -6.088
REMARK INTER:                  -5.783
REMARK INTRA:                  -0.306
REMARK UNBOUND:                -0.313
REMARK SMILES O=c1cc(-c2ccc(O)c(O)c2)oc2cc(O)cc(O)c12
REMARK SMILES IDX 4 1 3 2 2 3 1 4 21 5 19 6 18 7 16 8 15 9 14 10 13 11 5 12
REMARK SMILES IDX 6 13 7 14 8 15 12 16 10 17 9 18 11 20 20 22 17 24
REMARK H PARENT 9 19 11 21 20 23 17 25
REMARK Flexibility Score: inf
ROOT
ATOM      1  C   UNL     1     125.727 121.268 141.894  1.00  0.00     0.138 A 
ATOM      2  C   UNL     1     124.446 121.674 142.294  1.00  0.00     0.100 A 
ATOM      3  C   UNL     1     124.035 121.459 143.611  1.00  0.00     0.197 A 
ATOM      4  O   UNL     1     122.861 121.784 143.925  1.00  0.00    -0.289 OA
ATOM      5  C   UNL     1     124.924 120.866 144.539  1.00  0.00     0.107 A 
ATOM      6  C   UNL     1     124.626 120.629 145.915  1.00  0.00     0.134 A 
ATOM      7  C   UNL     1     125.553 119.945 146.713  1.00  0.00     0.093 A 
ATOM      8  C   UNL     1     126.788 119.542 146.200  1.00  0.00     0.123 A 
ATOM      9  C   UNL     1     127.107 119.813 144.872  1.00  0.00     0.094 A 
ATOM     10  C   UNL     1     126.192 120.463 144.041  1.00  0.00     0.146 A 
ATOM     11  O   UNL     1     126.531 120.685 142.775  1.00  0.00    -0.456 OA
ENDROOT
BRANCH   1  12
ATOM     12  C   UNL     1     126.217 121.475 140.507  1.00  0.00     0.021 A 
ATOM     13  C   UNL     1     125.347 121.454 139.403  1.00  0.00     0.016 A 
ATOM     14  C   UNL     1     125.839 121.642 138.110  1.00  0.00     0.051 A 
ATOM     15  C   UNL     1     127.203 121.847 137.887  1.00  0.00     0.157 A 
ATOM     16  C   UNL     1     127.590 121.668 140.282  1.00  0.00     0.062 A 
ATOM     17  C   UNL     1     128.092 121.858 138.987  1.00  0.00     0.158 A 
BRANCH  15  18
ATOM     18  O   UNL     1     127.630 122.030 136.571  1.00  0.00    -0.504 OA
ATOM     19  H   UNL     1     127.026 122.321 135.816  1.00  0.00     0.293 HD
ENDBRANCH  15  18
BRANCH  17  20
ATOM     20  O   UNL     1     129.468 122.052 138.845  1.00  0.00    -0.504 OA
ATOM     21  H   UNL     1     129.880 122.751 138.243  1.00  0.00     0.293 HD
ENDBRANCH  17  20
ENDBRANCH   1  12
BRANCH   6  22
ATOM     22  O   UNL     1     123.458 121.060 146.549  1.00  0.00    -0.507 OA
ATOM     23  H   UNL     1     123.143 122.016 146.598  1.00  0.00     0.293 HD
ENDBRANCH   6  22
BRANCH   8  24
ATOM     24  O   UNL     1     127.708 118.876 147.006  1.00  0.00    -0.508 OA
ATOM     25  H   UNL     1     128.208 119.354 147.747  1.00  0.00     0.293 HD
ENDBRANCH   8  24
TORSDOF 5
ENDMDL
MODEL 9
REMARK VINA RESULT:    -4.887      2.222      7.169
REMARK INTER + INTRA:          -6.057
REMARK INTER:                  -5.748
REMARK INTRA:                  -0.309
REMARK UNBOUND:                -0.313
REMARK SMILES O=c1cc(-c2ccc(O)c(O)c2)oc2cc(O)cc(O)c12
REMARK SMILES IDX 4 1 3 2 2 3 1 4 21 5 19 6 18 7 16 8 15 9 14 10 13 11 5 12
REMARK SMILES IDX 6 13 7 14 8 15 12 16 10 17 9 18 11 20 20 22 17 24
REMARK H PARENT 9 19 11 21 20 23 17 25
REMARK Flexibility Score: inf
ROOT
ATOM      1  C   UNL     1     133.320 136.884 136.270  1.00  0.00     0.138 A 
ATOM      2  C   UNL     1     133.260 135.770 135.422  1.00  0.00     0.100 A 
ATOM      3  C   UNL     1     132.058 135.447 134.791  1.00  0.00     0.197 A 
ATOM      4  O   UNL     1     132.022 134.410 134.079  1.00  0.00    -0.289 OA
ATOM      5  C   UNL     1     130.919 136.264 134.985  1.00  0.00     0.107 A 
ATOM      6  C   UNL     1     129.649 136.051 134.368  1.00  0.00     0.134 A 
ATOM      7  C   UNL     1     128.568 136.871 134.715  1.00  0.00     0.093 A 
ATOM      8  C   UNL     1     128.724 137.931 135.611  1.00  0.00     0.123 A 
ATOM      9  C   UNL     1     129.971 138.177 136.180  1.00  0.00     0.094 A 
ATOM     10  C   UNL     1     131.061 137.357 135.882  1.00  0.00     0.146 A 
ATOM     11  O   UNL     1     132.228 137.617 136.461  1.00  0.00    -0.456 OA
ENDROOT
BRANCH   1  12
ATOM     12  C   UNL     1     134.573 137.277 136.964  1.00  0.00     0.021 A 
ATOM     13  C   UNL     1     135.838 136.935 136.454  1.00  0.00     0.016 A 
ATOM     14  C   UNL     1     136.999 137.310 137.134  1.00  0.00     0.051 A 
ATOM     15  C   UNL     1     136.927 138.023 138.334  1.00  0.00     0.157 A 
ATOM     16  C   UNL     1     134.500 137.981 138.177  1.00  0.00     0.062 A 
ATOM     17  C   UNL     1     135.661 138.362 138.864  1.00  0.00     0.158 A 
BRANCH  15  18
ATOM     18  O   UNL     1     138.125 138.368 138.962  1.00  0.00    -0.504 OA
ATOM     19  H   UNL     1     138.355 139.303 139.266  1.00  0.00     0.293 HD
ENDBRANCH  15  18
BRANCH  17  20
ATOM     20  O   UNL     1     135.507 139.067 140.060  1.00  0.00    -0.504 OA
ATOM     21  H   UNL     1     134.635 139.475 140.366  1.00  0.00     0.293 HD
ENDBRANCH  17  20
ENDBRANCH   1  12
BRANCH   6  22
ATOM     22  O   UNL     1     129.402 135.073 133.400  1.00  0.00    -0.507 OA
ATOM     23  H   UNL     1     129.492 135.206 132.405  1.00  0.00     0.293 HD
ENDBRANCH   6  22
BRANCH   8  24
ATOM     24  O   UNL     1     127.646 138.750 135.937  1.00  0.00    -0.508 OA
ATOM     25  H   UNL     1     127.453 139.017 136.896  1.00  0.00     0.293 HD
ENDBRANCH   8  24
TORSDOF 5
ENDMDL
