MODEL 1
REMARK VINA RESULT:    -4.032      0.000      0.000
REMARK INTER + INTRA:          -5.298
REMARK INTER:                  -5.210
REMARK INTRA:                  -0.088
REMARK UNBOUND:                -0.088
REMARK SMILES CCCCCCC(=O)[O-]
REMARK SMILES IDX 5 1 6 2 7 3 8 4 9 5 4 6 3 7 2 8 1 9
REMARK H PARENT
REMARK Flexibility Score: inf
ROOT
ATOM      1  C   UNL     1      -6.076  35.227  22.120  1.00  0.00     0.006 C 
ENDROOT
BRANCH   1   2
ATOM      2  C   UNL     1      -4.754  35.462  21.383  1.00  0.00     0.053 C 
BRANCH   2   3
ATOM      3  C   UNL     1      -5.008  35.800  19.948  1.00  0.00     0.041 C 
ATOM      4  O   UNL     1      -4.903  36.989  19.548  1.00  0.00    -0.550 OA
ATOM      5  O   UNL     1      -5.408  34.809  19.060  1.00  0.00    -0.550 OA
ENDBRANCH   2   3
ENDBRANCH   1   2
BRANCH   1   6
ATOM      6  C   UNL     1      -5.839  34.497  23.452  1.00  0.00     0.000 C 
BRANCH   6   7
ATOM      7  C   UNL     1      -6.123  35.386  24.672  1.00  0.00    -0.000 C 
BRANCH   7   8
ATOM      8  C   UNL     1      -5.599  36.819  24.495  1.00  0.00    -0.003 C 
ATOM      9  C   UNL     1      -4.972  37.338  25.786  1.00  0.00     0.004 C 
ENDBRANCH   7   8
ENDBRANCH   6   7
ENDBRANCH   1   6
TORSDOF 5
ENDMDL
MODEL 2
REMARK VINA RESULT:    -3.972      0.924      1.473
REMARK INTER + INTRA:          -5.221
REMARK INTER:                  -5.053
REMARK INTRA:                  -0.168
REMARK UNBOUND:                -0.088
REMARK SMILES CCCCCCC(=O)[O-]
REMARK SMILES IDX 5 1 6 2 7 3 8 4 9 5 4 6 3 7 2 8 1 9
REMARK H PARENT
REMARK Flexibility Score: inf
ROOT
ATOM      1  C   UNL     1      -6.122  35.355  22.118  1.00  0.00     0.006 C 
ENDROOT
BRANCH   1   2
ATOM      2  C   UNL     1      -4.820  35.615  21.354  1.00  0.00     0.053 C 
BRANCH   2   3
ATOM      3  C   UNL     1      -4.846  36.971  20.722  1.00  0.00     0.041 C 
ATOM      4  O   UNL     1      -4.986  37.087  19.476  1.00  0.00    -0.550 OA
ATOM      5  O   UNL     1      -4.666  38.107  21.503  1.00  0.00    -0.550 OA
ENDBRANCH   2   3
ENDBRANCH   1   2
BRANCH   1   6
ATOM      6  C   UNL     1      -5.867  34.483  23.357  1.00  0.00     0.000 C 
BRANCH   6   7
ATOM      7  C   UNL     1      -6.080  35.248  24.673  1.00  0.00    -0.000 C 
BRANCH   7   8
ATOM      8  C   UNL     1      -5.764  36.746  24.544  1.00  0.00    -0.003 C 
ATOM      9  C   UNL     1      -4.987  37.250  25.757  1.00  0.00     0.004 C 
ENDBRANCH   7   8
ENDBRANCH   6   7
ENDBRANCH   1   6
TORSDOF 5
ENDMDL
MODEL 3
REMARK VINA RESULT:    -3.903      2.579      3.591
REMARK INTER + INTRA:          -5.132
REMARK INTER:                  -4.781
REMARK INTRA:                  -0.351
REMARK UNBOUND:                -0.088
REMARK SMILES CCCCCCC(=O)[O-]
REMARK SMILES IDX 5 1 6 2 7 3 8 4 9 5 4 6 3 7 2 8 1 9
REMARK H PARENT
REMARK Flexibility Score: inf
ROOT
ATOM      1  C   UNL     1      -5.330  37.453  20.547  1.00  0.00     0.006 C 
ENDROOT
BRANCH   1   2
ATOM      2  C   UNL     1      -4.403  38.057  21.607  1.00  0.00     0.053 C 
BRANCH   2   3
ATOM      3  C   UNL     1      -5.105  39.145  22.357  1.00  0.00     0.041 C 
ATOM      4  O   UNL     1      -5.036  39.195  23.613  1.00  0.00    -0.550 OA
ATOM      5  O   UNL     1      -5.875  40.077  21.672  1.00  0.00    -0.550 OA
ENDBRANCH   2   3
ENDBRANCH   1   2
BRANCH   1   6
ATOM      6  C   UNL     1      -5.715  36.011  20.913  1.00  0.00     0.000 C 
BRANCH   6   7
ATOM      7  C   UNL     1      -4.846  35.434  22.041  1.00  0.00    -0.000 C 
BRANCH   7   8
ATOM      8  C   UNL     1      -5.680  34.830  23.180  1.00  0.00    -0.003 C 
ATOM      9  C   UNL     1      -5.690  35.747  24.400  1.00  0.00     0.004 C 
ENDBRANCH   7   8
ENDBRANCH   6   7
ENDBRANCH   1   6
TORSDOF 5
ENDMDL
MODEL 4
REMARK VINA RESULT:    -3.810      2.694      4.503
REMARK INTER + INTRA:          -5.012
REMARK INTER:                  -4.821
REMARK INTRA:                  -0.191
REMARK UNBOUND:                -0.088
REMARK SMILES CCCCCCC(=O)[O-]
REMARK SMILES IDX 5 1 6 2 7 3 8 4 9 5 4 6 3 7 2 8 1 9
REMARK H PARENT
REMARK Flexibility Score: inf
ROOT
ATOM      1  C   UNL     1      -5.363  35.027  23.305  1.00  0.00     0.006 C 
ENDROOT
BRANCH   1   2
ATOM      2  C   UNL     1      -6.125  35.872  24.330  1.00  0.00     0.053 C 
BRANCH   2   3
ATOM      3  C   UNL     1      -5.370  37.127  24.639  1.00  0.00     0.041 C 
ATOM      4  O   UNL     1      -5.264  38.033  23.771  1.00  0.00    -0.550 OA
ATOM      5  O   UNL     1      -4.742  37.276  25.869  1.00  0.00    -0.550 OA
ENDBRANCH   2   3
ENDBRANCH   1   2
BRANCH   1   6
ATOM      6  C   UNL     1      -5.836  35.339  21.877  1.00  0.00     0.000 C 
BRANCH   6   7
ATOM      7  C   UNL     1      -4.672  35.479  20.884  1.00  0.00    -0.000 C 
BRANCH   7   8
ATOM      8  C   UNL     1      -4.992  36.438  19.728  1.00  0.00    -0.003 C 
ATOM      9  C   UNL     1      -5.358  37.825  20.250  1.00  0.00     0.004 C 
ENDBRANCH   7   8
ENDBRANCH   6   7
ENDBRANCH   1   6
TORSDOF 5
ENDMDL
MODEL 5
REMARK VINA RESULT:    -3.695      3.102      4.633
REMARK INTER + INTRA:          -4.863
REMARK INTER:                  -4.695
REMARK INTRA:                  -0.168
REMARK UNBOUND:                -0.088
REMARK SMILES CCCCCCC(=O)[O-]
REMARK SMILES IDX 5 1 6 2 7 3 8 4 9 5 4 6 3 7 2 8 1 9
REMARK H PARENT
REMARK Flexibility Score: inf
ROOT
ATOM      1  C   UNL     1      -5.711  35.145  22.769  1.00  0.00     0.006 C 
ENDROOT
BRANCH   1   2
ATOM      2  C   UNL     1      -5.385  36.485  23.435  1.00  0.00     0.053 C 
BRANCH   2   3
ATOM      3  C   UNL     1      -5.502  36.371  24.923  1.00  0.00     0.041 C 
ATOM      4  O   UNL     1      -4.999  37.253  25.667  1.00  0.00    -0.550 OA
ATOM      5  O   UNL     1      -6.125  35.266  25.489  1.00  0.00    -0.550 OA
ENDBRANCH   2   3
ENDBRANCH   1   2
BRANCH   1   6
ATOM      6  C   UNL     1      -6.118  35.347  21.301  1.00  0.00     0.000 C 
BRANCH   6   7
ATOM      7  C   UNL     1      -4.907  35.500  20.367  1.00  0.00    -0.000 C 
BRANCH   7   8
ATOM      8  C   UNL     1      -5.010  36.737  19.463  1.00  0.00    -0.003 C 
ATOM      9  C   UNL     1      -5.360  37.982  20.273  1.00  0.00     0.004 C 
ENDBRANCH   7   8
ENDBRANCH   6   7
ENDBRANCH   1   6
TORSDOF 5
ENDMDL
MODEL 6
REMARK VINA RESULT:    -3.667      2.829      3.866
REMARK INTER + INTRA:          -4.827
REMARK INTER:                  -4.794
REMARK INTRA:                  -0.033
REMARK UNBOUND:                -0.088
REMARK SMILES CCCCCCC(=O)[O-]
REMARK SMILES IDX 5 1 6 2 7 3 8 4 9 5 4 6 3 7 2 8 1 9
REMARK H PARENT
REMARK Flexibility Score: inf
ROOT
ATOM      1  C   UNL     1      -4.806  35.415  21.172  1.00  0.00     0.006 C 
ENDROOT
BRANCH   1   2
ATOM      2  C   UNL     1      -6.125  35.003  21.833  1.00  0.00     0.053 C 
BRANCH   2   3
ATOM      3  C   UNL     1      -5.938  34.823  23.307  1.00  0.00     0.041 C 
ATOM      4  O   UNL     1      -5.780  35.825  24.053  1.00  0.00    -0.550 OA
ATOM      5  O   UNL     1      -5.888  33.546  23.852  1.00  0.00    -0.550 OA
ENDBRANCH   2   3
ENDBRANCH   1   2
BRANCH   1   6
ATOM      6  C   UNL     1      -5.062  36.304  19.945  1.00  0.00     0.000 C 
BRANCH   6   7
ATOM      7  C   UNL     1      -5.303  37.774  20.319  1.00  0.00    -0.000 C 
BRANCH   7   8
ATOM      8  C   UNL     1      -4.864  38.099  21.754  1.00  0.00    -0.003 C 
ATOM      9  C   UNL     1      -5.246  39.526  22.136  1.00  0.00     0.004 C 
ENDBRANCH   7   8
ENDBRANCH   6   7
ENDBRANCH   1   6
TORSDOF 5
ENDMDL
MODEL 7
REMARK VINA RESULT:    -3.570      1.836      2.398
REMARK INTER + INTRA:          -4.702
REMARK INTER:                  -4.486
REMARK INTRA:                  -0.216
REMARK UNBOUND:                -0.088
REMARK SMILES CCCCCCC(=O)[O-]
REMARK SMILES IDX 5 1 6 2 7 3 8 4 9 5 4 6 3 7 2 8 1 9
REMARK H PARENT
REMARK Flexibility Score: inf
ROOT
ATOM      1  C   UNL     1      -5.121  35.412  22.089  1.00  0.00     0.006 C 
ENDROOT
BRANCH   1   2
ATOM      2  C   UNL     1      -6.124  34.876  21.062  1.00  0.00     0.053 C 
BRANCH   2   3
ATOM      3  C   UNL     1      -5.605  35.072  19.672  1.00  0.00     0.041 C 
ATOM      4  O   UNL     1      -5.969  34.301  18.746  1.00  0.00    -0.550 OA
ATOM      5  O   UNL     1      -4.682  36.076  19.409  1.00  0.00    -0.550 OA
ENDBRANCH   2   3
ENDBRANCH   1   2
BRANCH   1   6
ATOM      6  C   UNL     1      -5.845  36.105  23.253  1.00  0.00     0.000 C 
BRANCH   6   7
ATOM      7  C   UNL     1      -5.414  37.569  23.432  1.00  0.00    -0.000 C 
BRANCH   7   8
ATOM      8  C   UNL     1      -5.166  38.280  22.093  1.00  0.00    -0.003 C 
ATOM      9  C   UNL     1      -5.314  39.791  22.238  1.00  0.00     0.004 C 
ENDBRANCH   7   8
ENDBRANCH   6   7
ENDBRANCH   1   6
TORSDOF 5
ENDMDL
MODEL 8
REMARK VINA RESULT:    -3.489      2.972      4.692
REMARK INTER + INTRA:          -4.597
REMARK INTER:                  -4.590
REMARK INTRA:                  -0.007
REMARK UNBOUND:                -0.088
REMARK SMILES CCCCCCC(=O)[O-]
REMARK SMILES IDX 5 1 6 2 7 3 8 4 9 5 4 6 3 7 2 8 1 9
REMARK H PARENT
REMARK Flexibility Score: inf
ROOT
ATOM      1  C   UNL     1      -5.435  36.818  22.777  1.00  0.00     0.006 C 
ENDROOT
BRANCH   1   2
ATOM      2  C   UNL     1      -5.134  37.999  21.850  1.00  0.00     0.053 C 
BRANCH   2   3
ATOM      3  C   UNL     1      -5.297  39.294  22.582  1.00  0.00     0.041 C 
ATOM      4  O   UNL     1      -5.640  40.334  21.961  1.00  0.00    -0.550 OA
ATOM      5  O   UNL     1      -5.023  39.363  23.942  1.00  0.00    -0.550 OA
ENDBRANCH   2   3
ENDBRANCH   1   2
BRANCH   1   6
ATOM      6  C   UNL     1      -5.625  35.523  21.972  1.00  0.00     0.000 C 
BRANCH   6   7
ATOM      7  C   UNL     1      -4.628  35.397  20.810  1.00  0.00    -0.000 C 
BRANCH   7   8
ATOM      8  C   UNL     1      -5.286  35.615  19.439  1.00  0.00    -0.003 C 
ATOM      9  C   UNL     1      -5.634  34.283  18.779  1.00  0.00     0.004 C 
ENDBRANCH   7   8
ENDBRANCH   6   7
ENDBRANCH   1   6
TORSDOF 5
ENDMDL
MODEL 9
REMARK VINA RESULT:    -3.450      1.876      2.612
REMARK INTER + INTRA:          -4.546
REMARK INTER:                  -4.278
REMARK INTRA:                  -0.268
REMARK UNBOUND:                -0.088
REMARK SMILES CCCCCCC(=O)[O-]
REMARK SMILES IDX 5 1 6 2 7 3 8 4 9 5 4 6 3 7 2 8 1 9
REMARK H PARENT
REMARK Flexibility Score: inf
ROOT
ATOM      1  C   UNL     1      -5.659  38.136  21.101  1.00  0.00     0.006 C 
ENDROOT
BRANCH   1   2
ATOM      2  C   UNL     1      -4.883  37.447  19.974  1.00  0.00     0.053 C 
BRANCH   2   3
ATOM      3  C   UNL     1      -4.830  35.969  20.203  1.00  0.00     0.041 C 
ATOM      4  O   UNL     1      -5.564  35.197  19.532  1.00  0.00    -0.550 OA
ATOM      5  O   UNL     1      -4.004  35.447  21.191  1.00  0.00    -0.550 OA
ENDBRANCH   2   3
ENDBRANCH   1   2
BRANCH   1   6
ATOM      6  C   UNL     1      -4.698  38.772  22.119  1.00  0.00     0.000 C 
BRANCH   6   7
ATOM      7  C   UNL     1      -5.103  38.485  23.573  1.00  0.00    -0.000 C 
BRANCH   7   8
ATOM      8  C   UNL     1      -5.708  37.085  23.754  1.00  0.00    -0.003 C 
ATOM      9  C   UNL     1      -5.390  36.524  25.137  1.00  0.00     0.004 C 
ENDBRANCH   7   8
ENDBRANCH   6   7
ENDBRANCH   1   6
TORSDOF 5
ENDMDL
