MODEL 1
REMARK VINA RESULT:    -6.302      0.000      0.000
REMARK INTER + INTRA:          -6.302
REMARK INTER:                  -6.302
REMARK INTRA:                   0.000
REMARK UNBOUND:                 0.000
REMARK SMILES C=C1CCC[C@@]2(C)CC(=O)C(=C(C)C)C[C@H]12
REMARK SMILES IDX 13 1 12 2 11 3 15 4 16 5 2 6 1 7 3 8 4 9 5 10 6 11 8 12 9 13
REMARK SMILES IDX 10 14 7 15 14 16
REMARK H PARENT
REMARK Flexibility Score: inf
ROOT
ATOM      1  C   UNL     1      17.740  15.195  12.734  1.00  0.00     0.039 C 
ATOM      2  C   UNL     1      17.805  15.331  14.238  1.00  0.00    -0.070 C 
ATOM      3  C   UNL     1      17.443  16.484  14.873  1.00  0.00    -0.006 C 
ATOM      4  C   UNL     1      17.572  16.626  16.385  1.00  0.00     0.047 C 
ATOM      5  C   UNL     1      17.848  18.085  16.828  1.00  0.00     0.025 C 
ATOM      6  C   UNL     1      17.947  18.296  18.339  1.00  0.00    -0.073 C 
ATOM      7  C   UNL     1      17.801  17.314  19.250  1.00  0.00     0.008 C 
ATOM      8  C   UNL     1      18.275  19.697  18.798  1.00  0.00     0.031 C 
ATOM      9  C   UNL     1      17.298  20.702  18.179  1.00  0.00     0.005 C 
ATOM     10  C   UNL     1      17.211  20.543  16.652  1.00  0.00     0.008 C 
ATOM     11  C   UNL     1      16.833  19.097  16.209  1.00  0.00    -0.018 C 
ATOM     12  C   UNL     1      16.940  19.022  14.666  1.00  0.00     0.088 C 
ATOM     13  C   UNL     1      16.791  17.618  14.155  1.00  0.00     0.159 C 
ATOM     14  O   UNL     1      16.095  17.424  13.122  1.00  0.00    -0.295 OA
ATOM     15  C   UNL     1      15.372  18.786  16.639  1.00  0.00     0.012 C 
ATOM     16  C   UNL     1      18.328  14.140  15.011  1.00  0.00     0.039 C 
ENDROOT
TORSDOF 0
ENDMDL
MODEL 2
REMARK VINA RESULT:    -6.098      6.656      9.164
REMARK INTER + INTRA:          -6.098
REMARK INTER:                  -6.098
REMARK INTRA:                   0.000
REMARK UNBOUND:                 0.000
REMARK SMILES C=C1CCC[C@@]2(C)CC(=O)C(=C(C)C)C[C@H]12
REMARK SMILES IDX 13 1 12 2 11 3 15 4 16 5 2 6 1 7 3 8 4 9 5 10 6 11 8 12 9 13
REMARK SMILES IDX 10 14 7 15 14 16
REMARK H PARENT
REMARK Flexibility Score: inf
ROOT
ATOM      1  C   UNL     1      19.940  24.542   8.233  1.00  0.00     0.039 C 
ATOM      2  C   UNL     1      19.036  23.508   8.864  1.00  0.00    -0.070 C 
ATOM      3  C   UNL     1      19.384  22.189   8.926  1.00  0.00    -0.006 C 
ATOM      4  C   UNL     1      18.435  21.150   9.510  1.00  0.00     0.047 C 
ATOM      5  C   UNL     1      18.608  19.752   8.865  1.00  0.00     0.025 C 
ATOM      6  C   UNL     1      17.708  18.657   9.440  1.00  0.00    -0.073 C 
ATOM      7  C   UNL     1      16.827  18.851  10.440  1.00  0.00     0.008 C 
ATOM      8  C   UNL     1      17.812  17.297   8.790  1.00  0.00     0.031 C 
ATOM      9  C   UNL     1      19.271  16.832   8.760  1.00  0.00     0.005 C 
ATOM     10  C   UNL     1      20.195  17.897   8.145  1.00  0.00     0.008 C 
ATOM     11  C   UNL     1      20.095  19.279   8.860  1.00  0.00    -0.018 C 
ATOM     12  C   UNL     1      20.936  20.299   8.054  1.00  0.00     0.088 C 
ATOM     13  C   UNL     1      20.744  21.705   8.547  1.00  0.00     0.159 C 
ATOM     14  O   UNL     1      21.754  22.453   8.644  1.00  0.00    -0.295 OA
ATOM     15  C   UNL     1      20.669  19.161  10.299  1.00  0.00     0.012 C 
ATOM     16  C   UNL     1      17.705  23.994   9.392  1.00  0.00     0.039 C 
ENDROOT
TORSDOF 0
ENDMDL
MODEL 3
REMARK VINA RESULT:    -5.813      6.944      8.693
REMARK INTER + INTRA:          -5.813
REMARK INTER:                  -5.813
REMARK INTRA:                   0.000
REMARK UNBOUND:                 0.000
REMARK SMILES C=C1CCC[C@@]2(C)CC(=O)C(=C(C)C)C[C@H]12
REMARK SMILES IDX 13 1 12 2 11 3 15 4 16 5 2 6 1 7 3 8 4 9 5 10 6 11 8 12 9 13
REMARK SMILES IDX 10 14 7 15 14 16
REMARK H PARENT
REMARK Flexibility Score: inf
ROOT
ATOM      1  C   UNL     1      18.210  17.856   9.817  1.00  0.00     0.039 C 
ATOM      2  C   UNL     1      19.264  18.866   9.423  1.00  0.00    -0.070 C 
ATOM      3  C   UNL     1      19.039  20.210   9.502  1.00  0.00    -0.006 C 
ATOM      4  C   UNL     1      20.089  21.214   9.043  1.00  0.00     0.047 C 
ATOM      5  C   UNL     1      19.468  22.529   8.508  1.00  0.00     0.025 C 
ATOM      6  C   UNL     1      20.476  23.591   8.070  1.00  0.00    -0.073 C 
ATOM      7  C   UNL     1      21.813  23.437   8.138  1.00  0.00     0.008 C 
ATOM      8  C   UNL     1      19.899  24.860   7.487  1.00  0.00     0.031 C 
ATOM      9  C   UNL     1      18.867  25.463   8.444  1.00  0.00     0.005 C 
ATOM     10  C   UNL     1      17.812  24.427   8.868  1.00  0.00     0.008 C 
ATOM     11  C   UNL     1      18.434  23.145   9.501  1.00  0.00    -0.018 C 
ATOM     12  C   UNL     1      17.296  22.120   9.730  1.00  0.00     0.088 C 
ATOM     13  C   UNL     1      17.820  20.777  10.150  1.00  0.00     0.159 C 
ATOM     14  O   UNL     1      17.216  20.154  11.065  1.00  0.00    -0.295 OA
ATOM     15  C   UNL     1      19.086  23.503  10.866  1.00  0.00     0.012 C 
ATOM     16  C   UNL     1      20.572  18.318   8.896  1.00  0.00     0.039 C 
ENDROOT
TORSDOF 0
ENDMDL
MODEL 4
REMARK VINA RESULT:    -5.808      2.298      4.777
REMARK INTER + INTRA:          -5.808
REMARK INTER:                  -5.808
REMARK INTRA:                   0.000
REMARK UNBOUND:                 0.000
REMARK SMILES C=C1CCC[C@@]2(C)CC(=O)C(=C(C)C)C[C@H]12
REMARK SMILES IDX 13 1 12 2 11 3 15 4 16 5 2 6 1 7 3 8 4 9 5 10 6 11 8 12 9 13
REMARK SMILES IDX 10 14 7 15 14 16
REMARK H PARENT
REMARK Flexibility Score: inf
ROOT
ATOM      1  C   UNL     1      18.346  20.006  19.031  1.00  0.00     0.039 C 
ATOM      2  C   UNL     1      17.761  18.758  18.408  1.00  0.00    -0.070 C 
ATOM      3  C   UNL     1      17.102  18.792  17.212  1.00  0.00    -0.006 C 
ATOM      4  C   UNL     1      16.465  17.537  16.627  1.00  0.00     0.047 C 
ATOM      5  C   UNL     1      15.215  17.846  15.766  1.00  0.00     0.025 C 
ATOM      6  C   UNL     1      14.557  16.627  15.119  1.00  0.00    -0.073 C 
ATOM      7  C   UNL     1      15.006  15.364  15.256  1.00  0.00     0.008 C 
ATOM      8  C   UNL     1      13.300  16.890  14.322  1.00  0.00     0.031 C 
ATOM      9  C   UNL     1      13.553  17.981  13.277  1.00  0.00     0.005 C 
ATOM     10  C   UNL     1      14.175  19.239  13.907  1.00  0.00     0.008 C 
ATOM     11  C   UNL     1      15.490  18.943  14.690  1.00  0.00    -0.018 C 
ATOM     12  C   UNL     1      15.925  20.243  15.410  1.00  0.00     0.088 C 
ATOM     13  C   UNL     1      17.071  20.012  16.353  1.00  0.00     0.159 C 
ATOM     14  O   UNL     1      18.002  20.861  16.389  1.00  0.00    -0.295 OA
ATOM     15  C   UNL     1      16.602  18.510  13.694  1.00  0.00     0.012 C 
ATOM     16  C   UNL     1      17.905  17.472  19.189  1.00  0.00     0.039 C 
ENDROOT
TORSDOF 0
ENDMDL
MODEL 5
REMARK VINA RESULT:    -5.711      1.551      4.872
REMARK INTER + INTRA:          -5.711
REMARK INTER:                  -5.711
REMARK INTRA:                   0.000
REMARK UNBOUND:                 0.000
REMARK SMILES C=C1CCC[C@@]2(C)CC(=O)C(=C(C)C)C[C@H]12
REMARK SMILES IDX 13 1 12 2 11 3 15 4 16 5 2 6 1 7 3 8 4 9 5 10 6 11 8 12 9 13
REMARK SMILES IDX 10 14 7 15 14 16
REMARK H PARENT
REMARK Flexibility Score: inf
ROOT
ATOM      1  C   UNL     1      17.220  20.777  18.100  1.00  0.00     0.039 C 
ATOM      2  C   UNL     1      17.600  19.357  17.746  1.00  0.00    -0.070 C 
ATOM      3  C   UNL     1      17.313  18.819  16.524  1.00  0.00    -0.006 C 
ATOM      4  C   UNL     1      17.648  17.367  16.204  1.00  0.00     0.047 C 
ATOM      5  C   UNL     1      16.664  16.736  15.187  1.00  0.00     0.025 C 
ATOM      6  C   UNL     1      16.974  15.291  14.796  1.00  0.00    -0.073 C 
ATOM      7  C   UNL     1      18.021  14.588  15.271  1.00  0.00     0.008 C 
ATOM      8  C   UNL     1      15.998  14.629  13.853  1.00  0.00     0.031 C 
ATOM      9  C   UNL     1      15.799  15.492  12.602  1.00  0.00     0.005 C 
ATOM     10  C   UNL     1      15.441  16.943  12.965  1.00  0.00     0.008 C 
ATOM     11  C   UNL     1      16.486  17.613  13.908  1.00  0.00    -0.018 C 
ATOM     12  C   UNL     1      15.937  18.997  14.330  1.00  0.00     0.088 C 
ATOM     13  C   UNL     1      16.776  19.638  15.398  1.00  0.00     0.159 C 
ATOM     14  O   UNL     1      17.023  20.871  15.311  1.00  0.00    -0.295 OA
ATOM     15  C   UNL     1      17.828  17.803  13.147  1.00  0.00     0.012 C 
ATOM     16  C   UNL     1      18.281  18.543  18.823  1.00  0.00     0.039 C 
ENDROOT
TORSDOF 0
ENDMDL
MODEL 6
REMARK VINA RESULT:    -5.710      1.751      5.511
REMARK INTER + INTRA:          -5.710
REMARK INTER:                  -5.710
REMARK INTRA:                   0.000
REMARK UNBOUND:                 0.000
REMARK SMILES C=C1CCC[C@@]2(C)CC(=O)C(=C(C)C)C[C@H]12
REMARK SMILES IDX 13 1 12 2 11 3 15 4 16 5 2 6 1 7 3 8 4 9 5 10 6 11 8 12 9 13
REMARK SMILES IDX 10 14 7 15 14 16
REMARK H PARENT
REMARK Flexibility Score: inf
ROOT
ATOM      1  C   UNL     1      16.960  20.486  17.318  1.00  0.00     0.039 C 
ATOM      2  C   UNL     1      16.947  19.976  15.895  1.00  0.00    -0.070 C 
ATOM      3  C   UNL     1      17.077  18.648  15.604  1.00  0.00    -0.006 C 
ATOM      4  C   UNL     1      17.123  18.156  14.163  1.00  0.00     0.047 C 
ATOM      5  C   UNL     1      17.974  16.872  13.995  1.00  0.00     0.025 C 
ATOM      6  C   UNL     1      18.024  16.309  12.575  1.00  0.00    -0.073 C 
ATOM      7  C   UNL     1      17.381  16.854  11.523  1.00  0.00     0.008 C 
ATOM      8  C   UNL     1      18.895  15.092  12.369  1.00  0.00     0.031 C 
ATOM      9  C   UNL     1      18.518  13.993  13.368  1.00  0.00     0.005 C 
ATOM     10  C   UNL     1      18.503  14.521  14.813  1.00  0.00     0.008 C 
ATOM     11  C   UNL     1      17.567  15.753  15.004  1.00  0.00    -0.018 C 
ATOM     12  C   UNL     1      17.763  16.289  16.443  1.00  0.00     0.088 C 
ATOM     13  C   UNL     1      17.056  17.595  16.662  1.00  0.00     0.159 C 
ATOM     14  O   UNL     1      16.439  17.771  17.747  1.00  0.00    -0.295 OA
ATOM     15  C   UNL     1      16.087  15.315  14.816  1.00  0.00     0.012 C 
ATOM     16  C   UNL     1      16.822  21.010  14.798  1.00  0.00     0.039 C 
ENDROOT
TORSDOF 0
ENDMDL
MODEL 7
REMARK VINA RESULT:    -5.661     15.902     17.024
REMARK INTER + INTRA:          -5.661
REMARK INTER:                  -5.661
REMARK INTRA:                   0.000
REMARK UNBOUND:                 0.000
REMARK SMILES C=C1CCC[C@@]2(C)CC(=O)C(=C(C)C)C[C@H]12
REMARK SMILES IDX 13 1 12 2 11 3 15 4 16 5 2 6 1 7 3 8 4 9 5 10 6 11 8 12 9 13
REMARK SMILES IDX 10 14 7 15 14 16
REMARK H PARENT
REMARK Flexibility Score: inf
ROOT
ATOM      1  C   UNL     1       4.517  10.976  17.866  1.00  0.00     0.039 C 
ATOM      2  C   UNL     1       4.059   9.883  18.804  1.00  0.00    -0.070 C 
ATOM      3  C   UNL     1       3.801  10.127  20.123  1.00  0.00    -0.006 C 
ATOM      4  C   UNL     1       3.399   9.002  21.069  1.00  0.00     0.047 C 
ATOM      5  C   UNL     1       3.860   9.253  22.527  1.00  0.00     0.025 C 
ATOM      6  C   UNL     1       3.450   8.175  23.531  1.00  0.00    -0.073 C 
ATOM      7  C   UNL     1       2.732   7.080  23.212  1.00  0.00     0.008 C 
ATOM      8  C   UNL     1       3.937   8.362  24.948  1.00  0.00     0.031 C 
ATOM      9  C   UNL     1       3.550   9.752  25.465  1.00  0.00     0.005 C 
ATOM     10  C   UNL     1       3.990  10.861  24.495  1.00  0.00     0.008 C 
ATOM     11  C   UNL     1       3.441  10.663  23.049  1.00  0.00    -0.018 C 
ATOM     12  C   UNL     1       4.083  11.738  22.138  1.00  0.00     0.088 C 
ATOM     13  C   UNL     1       3.774  11.508  20.687  1.00  0.00     0.159 C 
ATOM     14  O   UNL     1       3.481  12.502  19.969  1.00  0.00    -0.295 OA
ATOM     15  C   UNL     1       1.898  10.843  23.050  1.00  0.00     0.012 C 
ATOM     16  C   UNL     1       3.936   8.491  18.225  1.00  0.00     0.039 C 
ENDROOT
TORSDOF 0
ENDMDL
MODEL 8
REMARK VINA RESULT:    -5.613      4.172      6.842
REMARK INTER + INTRA:          -5.613
REMARK INTER:                  -5.613
REMARK INTRA:                   0.000
REMARK UNBOUND:                 0.000
REMARK SMILES C=C1CCC[C@@]2(C)CC(=O)C(=C(C)C)C[C@H]12
REMARK SMILES IDX 13 1 12 2 11 3 15 4 16 5 2 6 1 7 3 8 4 9 5 10 6 11 8 12 9 13
REMARK SMILES IDX 10 14 7 15 14 16
REMARK H PARENT
REMARK Flexibility Score: inf
ROOT
ATOM      1  C   UNL     1      19.152  14.913  14.174  1.00  0.00     0.039 C 
ATOM      2  C   UNL     1      18.571  16.184  13.596  1.00  0.00    -0.070 C 
ATOM      3  C   UNL     1      18.811  16.565  12.307  1.00  0.00    -0.006 C 
ATOM      4  C   UNL     1      18.269  17.879  11.759  1.00  0.00     0.047 C 
ATOM      5  C   UNL     1      19.176  18.490  10.662  1.00  0.00     0.025 C 
ATOM      6  C   UNL     1      18.661  19.791  10.045  1.00  0.00    -0.073 C 
ATOM      7  C   UNL     1      17.505  20.387  10.395  1.00  0.00     0.008 C 
ATOM      8  C   UNL     1      19.555  20.442   9.016  1.00  0.00     0.031 C 
ATOM      9  C   UNL     1      19.922  19.437   7.919  1.00  0.00     0.005 C 
ATOM     10  C   UNL     1      20.485  18.133   8.509  1.00  0.00     0.008 C 
ATOM     11  C   UNL     1      19.525  17.464   9.539  1.00  0.00    -0.018 C 
ATOM     12  C   UNL     1      20.266  16.264  10.179  1.00  0.00     0.088 C 
ATOM     13  C   UNL     1      19.501  15.675  11.329  1.00  0.00     0.159 C 
ATOM     14  O   UNL     1      19.448  14.420  11.436  1.00  0.00    -0.295 OA
ATOM     15  C   UNL     1      18.253  16.952   8.808  1.00  0.00     0.012 C 
ATOM     16  C   UNL     1      17.740  17.040  14.526  1.00  0.00     0.039 C 
ENDROOT
TORSDOF 0
ENDMDL
MODEL 9
REMARK VINA RESULT:    -5.531      5.714      7.276
REMARK INTER + INTRA:          -5.531
REMARK INTER:                  -5.531
REMARK INTRA:                   0.000
REMARK UNBOUND:                 0.000
REMARK SMILES C=C1CCC[C@@]2(C)CC(=O)C(=C(C)C)C[C@H]12
REMARK SMILES IDX 13 1 12 2 11 3 15 4 16 5 2 6 1 7 3 8 4 9 5 10 6 11 8 12 9 13
REMARK SMILES IDX 10 14 7 15 14 16
REMARK H PARENT
REMARK Flexibility Score: inf
ROOT
ATOM      1  C   UNL     1      18.873  14.705  12.237  1.00  0.00     0.039 C 
ATOM      2  C   UNL     1      18.141  15.738  11.410  1.00  0.00    -0.070 C 
ATOM      3  C   UNL     1      18.800  16.756  10.781  1.00  0.00    -0.006 C 
ATOM      4  C   UNL     1      18.042  17.823  10.002  1.00  0.00     0.047 C 
ATOM      5  C   UNL     1      18.762  19.195  10.011  1.00  0.00     0.025 C 
ATOM      6  C   UNL     1      18.067  20.297   9.211  1.00  0.00    -0.073 C 
ATOM      7  C   UNL     1      16.919  20.124   8.527  1.00  0.00     0.008 C 
ATOM      8  C   UNL     1      18.714  21.662   9.251  1.00  0.00     0.031 C 
ATOM      9  C   UNL     1      20.191  21.562   8.855  1.00  0.00     0.005 C 
ATOM     10  C   UNL     1      20.927  20.490   9.676  1.00  0.00     0.008 C 
ATOM     11  C   UNL     1      20.260  19.084   9.586  1.00  0.00    -0.018 C 
ATOM     12  C   UNL     1      20.986  18.141  10.575  1.00  0.00     0.088 C 
ATOM     13  C   UNL     1      20.290  16.817  10.710  1.00  0.00     0.159 C 
ATOM     14  O   UNL     1      20.990  15.770  10.749  1.00  0.00    -0.295 OA
ATOM     15  C   UNL     1      20.410  18.529   8.142  1.00  0.00     0.012 C 
ATOM     16  C   UNL     1      16.635  15.617  11.342  1.00  0.00     0.039 C 
ENDROOT
TORSDOF 0
ENDMDL
