MODEL 1
REMARK VINA RESULT:    -2.502      0.000      0.000
REMARK INTER + INTRA:          -3.888
REMARK INTER:                  -3.818
REMARK INTRA:                  -0.070
REMARK UNBOUND:                -0.070
REMARK SMILES CC1=CCC[C@@H](C)C(=O)C[C@H](C(C)C)C(=O)C1
REMARK SMILES IDX 8 1 9 2 6 3 7 4 5 5 4 6 3 7 2 8 1 9 10 11 11 12 15 13 16 14
REMARK SMILES IDX 17 15 12 17 13 18 14 19
REMARK H PARENT
REMARK Flexibility Score: 70.00
ROOT
ATOM      1  C   UNL     1     188.403 203.144 210.844  1.00  0.00     0.136 C 
ATOM      2  O   UNL     1     188.133 202.897 209.676  1.00  0.00    -0.299 OA
ENDROOT
BRANCH   1   3
ATOM      3  C   UNL     1     189.456 204.185 211.181  1.00  0.00     0.053 C 
ATOM      4  C   UNL     1     190.067 204.830 209.927  1.00  0.00     0.016 C 
BRANCH   3   5
ATOM      5  C   UNL     1     190.546 203.605 212.107  1.00  0.00     0.015 C 
BRANCH   5   6
ATOM      6  C   UNL     1     191.176 202.299 211.584  1.00  0.00     0.028 C 
BRANCH   6   7
ATOM      7  C   UNL     1     191.254 201.268 212.680  1.00  0.00    -0.028 C 
ATOM      8  C   UNL     1     190.496 200.149 212.740  1.00  0.00    -0.070 CG0
ATOM      9  C   UNL     1     190.651 199.253 213.942  1.00  0.00     0.039 C 
ATOM     10  G   UNL     1     189.516 199.752 211.646  1.00  0.00     0.000 G0
ENDBRANCH   6   7
ENDBRANCH   5   6
ENDBRANCH   3   5
ENDBRANCH   1   3
BRANCH   1  11
ATOM     11  C   UNL     1     187.676 202.394 211.934  1.00  0.00     0.087 C 
BRANCH  11  12
ATOM     12  C   UNL     1     187.187 201.000 211.460  1.00  0.00     0.066 C 
BRANCH  12  13
ATOM     13  C   UNL     1     188.046 199.884 212.035  1.00  0.00     0.140 C 
ATOM     14  O   UNL     1     187.549 199.058 212.788  1.00  0.00    -0.299 OA
BRANCH  13  15
ATOM     15  C   UNL     1     189.495 199.738 211.636  1.00  0.00     0.106 CG0
ATOM     16  G   UNL     1     190.450 200.149 212.747  1.00  0.00     0.000 G0
ENDBRANCH  13  15
ENDBRANCH  12  13
BRANCH  12  17
ATOM     17  C   UNL     1     185.666 200.790 211.738  1.00  0.00    -0.006 C 
ATOM     18  C   UNL     1     184.908 202.127 211.761  1.00  0.00     0.008 C 
ATOM     19  C   UNL     1     184.977 199.807 210.774  1.00  0.00     0.008 C 
ENDBRANCH  12  17
ENDBRANCH  11  12
ENDBRANCH   1  11
TORSDOF 1
ENDMDL
MODEL 2
REMARK VINA RESULT:    -2.379      1.963      2.557
REMARK INTER + INTRA:          -3.701
REMARK INTER:                  -4.149
REMARK INTRA:                   0.449
REMARK UNBOUND:                -0.070
REMARK SMILES CC1=CCC[C@@H](C)C(=O)C[C@H](C(C)C)C(=O)C1
REMARK SMILES IDX 8 1 9 2 6 3 7 4 5 5 4 6 3 7 2 8 1 9 10 11 11 12 15 13 16 14
REMARK SMILES IDX 17 15 12 17 13 18 14 19
REMARK H PARENT
REMARK Flexibility Score: 70.00
ROOT
ATOM      1  C   UNL     1     189.012 202.657 210.467  1.00  0.00     0.136 C 
ATOM      2  O   UNL     1     189.803 201.868 209.967  1.00  0.00    -0.299 OA
ENDROOT
BRANCH   1   3
ATOM      3  C   UNL     1     189.506 203.744 211.405  1.00  0.00     0.053 C 
ATOM      4  C   UNL     1     190.534 204.672 210.738  1.00  0.00     0.016 C 
BRANCH   3   5
ATOM      5  C   UNL     1     190.049 203.150 212.720  1.00  0.00     0.015 C 
BRANCH   5   6
ATOM      6  C   UNL     1     188.956 202.563 213.635  1.00  0.00     0.028 C 
BRANCH   6   7
ATOM      7  C   UNL     1     188.926 201.060 213.533  1.00  0.00    -0.028 C 
ATOM      8  C   UNL     1     187.798 200.316 213.446  1.00  0.00    -0.070 CG0
ATOM      9  C   UNL     1     187.940 198.816 213.420  1.00  0.00     0.039 C 
ATOM     10  G   UNL     1     186.407 200.927 213.356  1.00  0.00     0.000 G0
ENDBRANCH   6   7
ENDBRANCH   5   6
ENDBRANCH   3   5
ENDBRANCH   1   3
BRANCH   1  11
ATOM     11  C   UNL     1     187.544 202.524 210.137  1.00  0.00     0.087 C 
BRANCH  11  12
ATOM     12  C   UNL     1     186.907 201.272 210.796  1.00  0.00     0.066 C 
BRANCH  12  13
ATOM     13  C   UNL     1     186.143 201.636 212.061  1.00  0.00     0.140 C 
ATOM     14  O   UNL     1     185.272 202.493 212.021  1.00  0.00    -0.299 OA
BRANCH  13  15
ATOM     15  C   UNL     1     186.397 200.904 213.356  1.00  0.00     0.106 CG0
ATOM     16  G   UNL     1     187.808 200.340 213.440  1.00  0.00     0.000 G0
ENDBRANCH  13  15
ENDBRANCH  12  13
BRANCH  12  17
ATOM     17  C   UNL     1     186.040 200.459 209.785  1.00  0.00    -0.006 C 
ATOM     18  C   UNL     1     186.820 200.149 208.497  1.00  0.00     0.008 C 
ATOM     19  C   UNL     1     185.440 199.166 210.365  1.00  0.00     0.008 C 
ENDBRANCH  12  17
ENDBRANCH  11  12
ENDBRANCH   1  11
TORSDOF 1
ENDMDL
MODEL 3
REMARK VINA RESULT:    -2.330      1.877      4.202
REMARK INTER + INTRA:          -3.626
REMARK INTER:                  -3.332
REMARK INTRA:                  -0.294
REMARK UNBOUND:                -0.070
REMARK SMILES CC1=CCC[C@@H](C)C(=O)C[C@H](C(C)C)C(=O)C1
REMARK SMILES IDX 8 1 9 2 6 3 7 4 5 5 4 6 3 7 2 8 1 9 10 11 11 12 15 13 16 14
REMARK SMILES IDX 17 15 12 17 13 18 14 19
REMARK H PARENT
REMARK Flexibility Score: 70.00
ROOT
ATOM      1  C   UNL     1     188.534 202.359 209.836  1.00  0.00     0.136 C 
ATOM      2  O   UNL     1     188.402 203.414 209.229  1.00  0.00    -0.299 OA
ENDROOT
BRANCH   1   3
ATOM      3  C   UNL     1     187.404 201.345 209.861  1.00  0.00     0.053 C 
ATOM      4  C   UNL     1     187.050 200.826 208.459  1.00  0.00     0.016 C 
BRANCH   3   5
ATOM      5  C   UNL     1     186.163 201.902 210.589  1.00  0.00     0.015 C 
BRANCH   5   6
ATOM      6  C   UNL     1     186.170 201.652 212.110  1.00  0.00     0.028 C 
BRANCH   6   7
ATOM      7  C   UNL     1     186.567 200.231 212.415  1.00  0.00    -0.028 C 
ATOM      8  C   UNL     1     187.657 199.873 213.132  1.00  0.00    -0.070 CG0
ATOM      9  C   UNL     1     187.949 198.403 213.290  1.00  0.00     0.039 C 
ATOM     10  G   UNL     1     188.582 200.883 213.796  1.00  0.00     0.000 G0
ENDBRANCH   6   7
ENDBRANCH   5   6
ENDBRANCH   3   5
ENDBRANCH   1   3
BRANCH   1  11
ATOM     11  C   UNL     1     189.833 202.091 210.558  1.00  0.00     0.087 C 
BRANCH  11  12
ATOM     12  C   UNL     1     189.758 202.476 212.059  1.00  0.00     0.066 C 
BRANCH  12  13
ATOM     13  C   UNL     1     189.790 201.244 212.952  1.00  0.00     0.140 C 
ATOM     14  O   UNL     1     190.807 200.568 213.020  1.00  0.00    -0.299 OA
BRANCH  13  15
ATOM     15  C   UNL     1     188.604 200.880 213.813  1.00  0.00     0.106 CG0
ATOM     16  G   UNL     1     187.668 199.895 213.129  1.00  0.00     0.000 G0
ENDBRANCH  13  15
ENDBRANCH  12  13
BRANCH  12  17
ATOM     17  C   UNL     1     190.844 203.526 212.447  1.00  0.00    -0.006 C 
ATOM     18  C   UNL     1     192.036 203.488 211.476  1.00  0.00     0.008 C 
ATOM     19  C   UNL     1     190.314 204.966 212.578  1.00  0.00     0.008 C 
ENDBRANCH  12  17
ENDBRANCH  11  12
ENDBRANCH   1  11
TORSDOF 1
ENDMDL
MODEL 4
REMARK VINA RESULT:    -2.324      1.789      3.970
REMARK INTER + INTRA:          -3.616
REMARK INTER:                  -3.855
REMARK INTRA:                   0.239
REMARK UNBOUND:                -0.070
REMARK SMILES CC1=CCC[C@@H](C)C(=O)C[C@H](C(C)C)C(=O)C1
REMARK SMILES IDX 8 1 9 2 6 3 7 4 5 5 4 6 3 7 2 8 1 9 10 11 11 12 15 13 16 14
REMARK SMILES IDX 17 15 12 17 13 18 14 19
REMARK H PARENT
REMARK Flexibility Score: 70.00
ROOT
ATOM      1  C   UNL     1     186.024 200.156 210.758  1.00  0.00     0.136 C 
ATOM      2  O   UNL     1     186.153 198.942 210.839  1.00  0.00    -0.299 OA
ENDROOT
BRANCH   1   3
ATOM      3  C   UNL     1     185.025 200.880 211.644  1.00  0.00     0.053 C 
ATOM      4  C   UNL     1     183.982 201.663 210.832  1.00  0.00     0.016 C 
BRANCH   3   5
ATOM      5  C   UNL     1     185.734 201.781 212.674  1.00  0.00     0.015 C 
BRANCH   5   6
ATOM      6  C   UNL     1     186.482 201.001 213.773  1.00  0.00     0.028 C 
BRANCH   6   7
ATOM      7  C   UNL     1     187.862 201.568 213.985  1.00  0.00    -0.028 C 
ATOM      8  C   UNL     1     188.985 201.107 213.386  1.00  0.00    -0.070 CG0
ATOM      9  C   UNL     1     190.299 201.743 213.760  1.00  0.00     0.039 C 
ATOM     10  G   UNL     1     188.973 199.995 212.347  1.00  0.00     0.000 G0
ENDBRANCH   6   7
ENDBRANCH   5   6
ENDBRANCH   3   5
ENDBRANCH   1   3
BRANCH   1  11
ATOM     11  C   UNL     1     186.869 200.914 209.762  1.00  0.00     0.087 C 
BRANCH  11  12
ATOM     12  C   UNL     1     188.119 201.555 210.422  1.00  0.00     0.066 C 
BRANCH  12  13
ATOM     13  C   UNL     1     189.086 200.495 210.929  1.00  0.00     0.140 C 
ATOM     14  O   UNL     1     189.977 200.083 210.200  1.00  0.00    -0.299 OA
BRANCH  13  15
ATOM     15  C   UNL     1     189.005 199.990 212.350  1.00  0.00     0.106 CG0
ATOM     16  G   UNL     1     188.995 201.119 213.370  1.00  0.00     0.000 G0
ENDBRANCH  13  15
ENDBRANCH  12  13
BRANCH  12  17
ATOM     17  C   UNL     1     188.806 202.593 209.482  1.00  0.00    -0.006 C 
ATOM     18  C   UNL     1     188.013 202.785 208.180  1.00  0.00     0.008 C 
ATOM     19  C   UNL     1     189.081 203.957 210.141  1.00  0.00     0.008 C 
ENDBRANCH  12  17
ENDBRANCH  11  12
ENDBRANCH   1  11
TORSDOF 1
ENDMDL
MODEL 5
REMARK VINA RESULT:    -2.304      2.377      3.387
REMARK INTER + INTRA:          -3.586
REMARK INTER:                  -3.530
REMARK INTRA:                  -0.056
REMARK UNBOUND:                -0.070
REMARK SMILES CC1=CCC[C@@H](C)C(=O)C[C@H](C(C)C)C(=O)C1
REMARK SMILES IDX 8 1 9 2 6 3 7 4 5 5 4 6 3 7 2 8 1 9 10 11 11 12 15 13 16 14
REMARK SMILES IDX 17 15 12 17 13 18 14 19
REMARK H PARENT
REMARK Flexibility Score: 70.00
ROOT
ATOM      1  C   UNL     1     186.189 201.140 211.479  1.00  0.00     0.136 C 
ATOM      2  O   UNL     1     186.076 202.223 210.918  1.00  0.00    -0.299 OA
ENDROOT
BRANCH   1   3
ATOM      3  C   UNL     1     186.634 201.073 212.929  1.00  0.00     0.053 C 
ATOM      4  C   UNL     1     185.714 201.874 213.863  1.00  0.00     0.016 C 
BRANCH   3   5
ATOM      5  C   UNL     1     188.109 201.498 213.086  1.00  0.00     0.015 C 
BRANCH   5   6
ATOM      6  C   UNL     1     189.080 200.721 212.176  1.00  0.00     0.028 C 
BRANCH   6   7
ATOM      7  C   UNL     1     189.355 199.350 212.738  1.00  0.00    -0.028 C 
ATOM      8  C   UNL     1     189.357 198.207 212.013  1.00  0.00    -0.070 CG0
ATOM      9  C   UNL     1     189.584 196.907 212.741  1.00  0.00     0.039 C 
ATOM     10  G   UNL     1     189.160 198.182 210.504  1.00  0.00     0.000 G0
ENDBRANCH   6   7
ENDBRANCH   5   6
ENDBRANCH   3   5
ENDBRANCH   1   3
BRANCH   1  11
ATOM     11  C   UNL     1     185.883 199.882 210.702  1.00  0.00     0.087 C 
BRANCH  11  12
ATOM     12  C   UNL     1     187.026 199.506 209.723  1.00  0.00     0.066 C 
BRANCH  12  13
ATOM     13  C   UNL     1     187.694 198.199 210.125  1.00  0.00     0.140 C 
ATOM     14  O   UNL     1     187.060 197.154 210.088  1.00  0.00    -0.299 OA
BRANCH  13  15
ATOM     15  C   UNL     1     189.155 198.160 210.504  1.00  0.00     0.106 CG0
ATOM     16  G   UNL     1     189.368 198.211 212.009  1.00  0.00     0.000 G0
ENDBRANCH  13  15
ENDBRANCH  12  13
BRANCH  12  17
ATOM     17  C   UNL     1     186.546 199.502 208.239  1.00  0.00    -0.006 C 
ATOM     18  C   UNL     1     185.019 199.355 208.142  1.00  0.00     0.008 C 
ATOM     19  C   UNL     1     187.013 200.720 207.421  1.00  0.00     0.008 C 
ENDBRANCH  12  17
ENDBRANCH  11  12
ENDBRANCH   1  11
TORSDOF 1
ENDMDL
MODEL 6
REMARK VINA RESULT:    -2.194      2.564      5.042
REMARK INTER + INTRA:          -3.418
REMARK INTER:                  -3.281
REMARK INTRA:                  -0.137
REMARK UNBOUND:                -0.070
REMARK SMILES CC1=CCC[C@@H](C)C(=O)C[C@H](C(C)C)C(=O)C1
REMARK SMILES IDX 8 1 9 2 6 3 7 4 5 5 4 6 3 7 2 8 1 9 10 11 11 12 15 13 16 14
REMARK SMILES IDX 17 15 12 17 13 18 14 19
REMARK H PARENT
REMARK Flexibility Score: 70.00
ROOT
ATOM      1  C   UNL     1     187.854 202.403 211.892  1.00  0.00     0.136 C 
ATOM      2  O   UNL     1     188.166 201.932 212.978  1.00  0.00    -0.299 OA
ENDROOT
BRANCH   1   3
ATOM      3  C   UNL     1     186.597 201.926 211.185  1.00  0.00     0.053 C 
ATOM      4  C   UNL     1     185.491 201.513 212.168  1.00  0.00     0.016 C 
BRANCH   3   5
ATOM      5  C   UNL     1     186.909 200.800 210.178  1.00  0.00     0.015 C 
BRANCH   5   6
ATOM      6  C   UNL     1     187.348 201.309 208.791  1.00  0.00     0.028 C 
BRANCH   6   7
ATOM      7  C   UNL     1     188.659 200.688 208.385  1.00  0.00    -0.028 C 
ATOM      8  C   UNL     1     189.834 201.354 208.303  1.00  0.00    -0.070 CG0
ATOM      9  C   UNL     1     191.043 200.599 207.814  1.00  0.00     0.039 C 
ATOM     10  G   UNL     1     189.988 202.816 208.698  1.00  0.00     0.000 G0
ENDBRANCH   6   7
ENDBRANCH   5   6
ENDBRANCH   3   5
ENDBRANCH   1   3
BRANCH   1  11
ATOM     11  C   UNL     1     188.741 203.456 211.272  1.00  0.00     0.087 C 
BRANCH  11  12
ATOM     12  C   UNL     1     190.238 203.050 211.300  1.00  0.00     0.066 C 
BRANCH  12  13
ATOM     13  C   UNL     1     190.842 203.054 209.903  1.00  0.00     0.140 C 
ATOM     14  O   UNL     1     192.050 203.179 209.762  1.00  0.00    -0.299 OA
BRANCH  13  15
ATOM     15  C   UNL     1     189.977 202.835 208.685  1.00  0.00     0.106 CG0
ATOM     16  G   UNL     1     189.843 201.363 208.323  1.00  0.00     0.000 G0
ENDBRANCH  13  15
ENDBRANCH  12  13
BRANCH  12  17
ATOM     17  C   UNL     1     191.057 203.913 212.310  1.00  0.00    -0.006 C 
ATOM     18  C   UNL     1     190.177 204.977 212.984  1.00  0.00     0.008 C 
ATOM     19  C   UNL     1     191.809 203.095 213.375  1.00  0.00     0.008 C 
ENDBRANCH  12  17
ENDBRANCH  11  12
ENDBRANCH   1  11
TORSDOF 1
ENDMDL
MODEL 7
REMARK VINA RESULT:    -2.182      2.382      4.191
REMARK INTER + INTRA:          -3.400
REMARK INTER:                  -3.545
REMARK INTRA:                   0.145
REMARK UNBOUND:                -0.070
REMARK SMILES CC1=CCC[C@@H](C)C(=O)C[C@H](C(C)C)C(=O)C1
REMARK SMILES IDX 8 1 9 2 6 3 7 4 5 5 4 6 3 7 2 8 1 9 10 11 11 12 15 13 16 14
REMARK SMILES IDX 17 15 12 17 13 18 14 19
REMARK H PARENT
REMARK Flexibility Score: 70.00
ROOT
ATOM      1  C   UNL     1     185.994 200.106 211.753  1.00  0.00     0.136 C 
ATOM      2  O   UNL     1     184.787 199.956 211.620  1.00  0.00    -0.299 OA
ENDROOT
BRANCH   1   3
ATOM      3  C   UNL     1     186.555 200.691 213.037  1.00  0.00     0.053 C 
ATOM      4  C   UNL     1     185.744 201.897 213.536  1.00  0.00     0.016 C 
BRANCH   3   5
ATOM      5  C   UNL     1     188.051 201.035 212.894  1.00  0.00     0.015 C 
BRANCH   5   6
ATOM      6  C   UNL     1     188.314 202.426 212.283  1.00  0.00     0.028 C 
BRANCH   6   7
ATOM      7  C   UNL     1     189.456 202.370 211.301  1.00  0.00    -0.028 C 
ATOM      8  C   UNL     1     189.313 202.331 209.956  1.00  0.00    -0.070 CG0
ATOM      9  C   UNL     1     190.558 202.209 209.116  1.00  0.00     0.039 C 
ATOM     10  G   UNL     1     187.962 202.424 209.262  1.00  0.00     0.000 G0
ENDBRANCH   6   7
ENDBRANCH   5   6
ENDBRANCH   3   5
ENDBRANCH   1   3
BRANCH   1  11
ATOM     11  C   UNL     1     186.908 199.705 210.619  1.00  0.00     0.087 C 
BRANCH  11  12
ATOM     12  C   UNL     1     186.441 200.286 209.258  1.00  0.00     0.066 C 
BRANCH  12  13
ATOM     13  C   UNL     1     187.524 201.144 208.619  1.00  0.00     0.140 C 
ATOM     14  O   UNL     1     188.001 200.820 207.541  1.00  0.00    -0.299 OA
BRANCH  13  15
ATOM     15  C   UNL     1     187.972 202.433 209.266  1.00  0.00     0.106 CG0
ATOM     16  G   UNL     1     189.320 202.299 209.959  1.00  0.00     0.000 G0
ENDBRANCH  13  15
ENDBRANCH  12  13
BRANCH  12  17
ATOM     17  C   UNL     1     185.915 199.173 208.300  1.00  0.00    -0.006 C 
ATOM     18  C   UNL     1     185.490 197.916 209.076  1.00  0.00     0.008 C 
ATOM     19  C   UNL     1     184.778 199.629 207.367  1.00  0.00     0.008 C 
ENDBRANCH  12  17
ENDBRANCH  11  12
ENDBRANCH   1  11
TORSDOF 1
ENDMDL
MODEL 8
REMARK VINA RESULT:    -2.088      2.573      3.638
REMARK INTER + INTRA:          -3.257
REMARK INTER:                  -3.151
REMARK INTRA:                  -0.106
REMARK UNBOUND:                -0.070
REMARK SMILES CC1=CCC[C@@H](C)C(=O)C[C@H](C(C)C)C(=O)C1
REMARK SMILES IDX 8 1 9 2 6 3 7 4 5 5 4 6 3 7 2 8 1 9 10 11 11 12 15 13 16 14
REMARK SMILES IDX 17 15 12 17 13 18 14 19
REMARK H PARENT
REMARK Flexibility Score: 70.00
ROOT
ATOM      1  C   UNL     1     188.058 200.552 208.487  1.00  0.00     0.136 C 
ATOM      2  O   UNL     1     188.504 199.488 208.078  1.00  0.00    -0.299 OA
ENDROOT
BRANCH   1   3
ATOM      3  C   UNL     1     188.989 201.728 208.728  1.00  0.00     0.053 C 
ATOM      4  C   UNL     1     190.470 201.320 208.696  1.00  0.00     0.016 C 
BRANCH   3   5
ATOM      5  C   UNL     1     188.634 202.469 210.033  1.00  0.00     0.015 C 
BRANCH   5   6
ATOM      6  C   UNL     1     188.882 201.638 211.307  1.00  0.00     0.028 C 
BRANCH   6   7
ATOM      7  C   UNL     1     187.869 201.978 212.371  1.00  0.00    -0.028 C 
ATOM      8  C   UNL     1     186.810 201.203 212.701  1.00  0.00    -0.070 CG0
ATOM      9  C   UNL     1     185.851 201.722 213.743  1.00  0.00     0.039 C 
ATOM     10  G   UNL     1     186.558 199.835 212.084  1.00  0.00     0.000 G0
ENDBRANCH   6   7
ENDBRANCH   5   6
ENDBRANCH   3   5
ENDBRANCH   1   3
BRANCH   1  11
ATOM     11  C   UNL     1     186.576 200.669 208.750  1.00  0.00     0.087 C 
BRANCH  11  12
ATOM     12  C   UNL     1     186.024 199.455 209.542  1.00  0.00     0.066 C 
BRANCH  12  13
ATOM     13  C   UNL     1     185.583 199.858 210.942  1.00  0.00     0.140 C 
ATOM     14  O   UNL     1     184.415 200.156 211.150  1.00  0.00    -0.299 OA
BRANCH  13  15
ATOM     15  C   UNL     1     186.553 199.828 212.098  1.00  0.00     0.106 CG0
ATOM     16  G   UNL     1     186.794 201.208 212.692  1.00  0.00     0.000 G0
ENDBRANCH  13  15
ENDBRANCH  12  13
BRANCH  12  17
ATOM     17  C   UNL     1     184.907 198.704 208.754  1.00  0.00    -0.006 C 
ATOM     18  C   UNL     1     184.681 199.326 207.367  1.00  0.00     0.008 C 
ATOM     19  C   UNL     1     185.137 197.187 208.622  1.00  0.00     0.008 C 
ENDBRANCH  12  17
ENDBRANCH  11  12
ENDBRANCH   1  11
TORSDOF 1
ENDMDL
MODEL 9
REMARK VINA RESULT:    -2.087      2.030      4.209
REMARK INTER + INTRA:          -3.255
REMARK INTER:                  -3.137
REMARK INTRA:                  -0.118
REMARK UNBOUND:                -0.070
REMARK SMILES CC1=CCC[C@@H](C)C(=O)C[C@H](C(C)C)C(=O)C1
REMARK SMILES IDX 8 1 9 2 6 3 7 4 5 5 4 6 3 7 2 8 1 9 10 11 11 12 15 13 16 14
REMARK SMILES IDX 17 15 12 17 13 18 14 19
REMARK H PARENT
REMARK Flexibility Score: 70.00
ROOT
ATOM      1  C   UNL     1     189.286 202.252 209.910  1.00  0.00     0.136 C 
ATOM      2  O   UNL     1     188.943 203.423 210.012  1.00  0.00    -0.299 OA
ENDROOT
BRANCH   1   3
ATOM      3  C   UNL     1     189.150 201.529 208.582  1.00  0.00     0.053 C 
ATOM      4  C   UNL     1     189.910 202.236 207.448  1.00  0.00     0.016 C 
BRANCH   3   5
ATOM      5  C   UNL     1     187.669 201.300 208.214  1.00  0.00     0.015 C 
BRANCH   5   6
ATOM      6  C   UNL     1     187.065 200.024 208.833  1.00  0.00     0.028 C 
BRANCH   6   7
ATOM      7  C   UNL     1     186.091 200.373 209.929  1.00  0.00    -0.028 C 
ATOM      8  C   UNL     1     186.313 200.174 211.249  1.00  0.00    -0.070 CG0
ATOM      9  C   UNL     1     185.205 200.517 212.212  1.00  0.00     0.039 C 
ATOM     10  G   UNL     1     187.628 199.642 211.797  1.00  0.00     0.000 G0
ENDBRANCH   6   7
ENDBRANCH   5   6
ENDBRANCH   3   5
ENDBRANCH   1   3
BRANCH   1  11
ATOM     11  C   UNL     1     189.838 201.546 211.125  1.00  0.00     0.087 C 
BRANCH  11  12
ATOM     12  C   UNL     1     188.988 201.815 212.395  1.00  0.00     0.066 C 
BRANCH  12  13
ATOM     13  C   UNL     1     188.232 200.569 212.833  1.00  0.00     0.140 C 
ATOM     14  O   UNL     1     188.064 200.344 214.023  1.00  0.00    -0.299 OA
BRANCH  13  15
ATOM     15  C   UNL     1     187.622 199.636 211.814  1.00  0.00     0.106 CG0
ATOM     16  G   UNL     1     186.312 200.166 211.250  1.00  0.00     0.000 G0
ENDBRANCH  13  15
ENDBRANCH  12  13
BRANCH  12  17
ATOM     17  C   UNL     1     189.840 202.434 213.546  1.00  0.00    -0.006 C 
ATOM     18  C   UNL     1     191.159 201.669 213.744  1.00  0.00     0.008 C 
ATOM     19  C   UNL     1     190.121 203.939 213.385  1.00  0.00     0.008 C 
ENDBRANCH  12  17
ENDBRANCH  11  12
ENDBRANCH   1  11
TORSDOF 1
ENDMDL
