MODEL 1
REMARK VINA RESULT:    -5.369      0.000      0.000
REMARK INTER + INTRA:         -11.242
REMARK INTER:                  -9.763
REMARK INTRA:                  -1.479
REMARK UNBOUND:                -1.479
REMARK SMILES CCCCCCCCCCCCCC[C@H](C)C(=O)[O-]
REMARK SMILES IDX 9 1 10 2 11 3 12 4 13 5 14 6 15 7 16 8 17 9 18 10 19 11 8 12
REMARK SMILES IDX 7 13 6 14 5 15 4 16 3 17 2 18 1 19
REMARK H PARENT
REMARK Flexibility Score: inf
ROOT
ATOM      1  C   UNL     1      -7.832  63.774  53.769  1.00  0.00     0.000 C 
ENDROOT
BRANCH   1   2
ATOM      2  C   UNL     1      -6.919  64.884  53.225  1.00  0.00     0.000 C 
BRANCH   2   3
ATOM      3  C   UNL     1      -7.390  65.353  51.842  1.00  0.00     0.000 C 
BRANCH   3   4
ATOM      4  C   UNL     1      -6.221  65.408  50.851  1.00  0.00     0.000 C 
BRANCH   4   5
ATOM      5  C   UNL     1      -6.354  64.318  49.781  1.00  0.00     0.001 C 
BRANCH   5   6
ATOM      6  C   UNL     1      -7.763  63.703  49.794  1.00  0.00     0.009 C 
BRANCH   6   7
ATOM      7  C   UNL     1      -8.462  63.784  48.421  1.00  0.00     0.032 C 
ATOM      8  C   UNL     1      -9.619  64.791  48.414  1.00  0.00     0.014 C 
BRANCH   7   9
ATOM      9  C   UNL     1      -8.976  62.424  48.032  1.00  0.00     0.044 C 
ATOM     10  O   UNL     1      -9.041  62.095  46.818  1.00  0.00    -0.550 OA
ATOM     11  O   UNL     1      -9.382  61.523  49.009  1.00  0.00    -0.550 OA
ENDBRANCH   7   9
ENDBRANCH   6   7
ENDBRANCH   5   6
ENDBRANCH   4   5
ENDBRANCH   3   4
ENDBRANCH   2   3
ENDBRANCH   1   2
BRANCH   1  12
ATOM     12  C   UNL     1      -7.421  62.377  53.279  1.00  0.00     0.000 C 
BRANCH  12  13
ATOM     13  C   UNL     1      -5.898  62.199  53.208  1.00  0.00    -0.000 C 
BRANCH  13  14
ATOM     14  C   UNL     1      -5.400  61.270  54.322  1.00  0.00    -0.000 C 
BRANCH  14  15
ATOM     15  C   UNL     1      -6.570  60.534  54.992  1.00  0.00    -0.000 C 
BRANCH  15  16
ATOM     16  C   UNL     1      -6.127  59.747  56.244  1.00  0.00    -0.000 C 
BRANCH  16  17
ATOM     17  C   UNL     1      -5.131  58.611  55.943  1.00  0.00    -0.000 C 
BRANCH  17  18
ATOM     18  C   UNL     1      -3.710  58.843  56.482  1.00  0.00    -0.003 C 
ATOM     19  C   UNL     1      -3.697  59.566  57.829  1.00  0.00     0.004 C 
ENDBRANCH  17  18
ENDBRANCH  16  17
ENDBRANCH  15  16
ENDBRANCH  14  15
ENDBRANCH  13  14
ENDBRANCH  12  13
ENDBRANCH   1  12
TORSDOF 14
ENDMDL
MODEL 2
REMARK VINA RESULT:    -5.304      3.849      8.052
REMARK INTER + INTRA:         -11.124
REMARK INTER:                  -9.948
REMARK INTRA:                  -1.175
REMARK UNBOUND:                -1.479
REMARK SMILES CCCCCCCCCCCCCC[C@H](C)C(=O)[O-]
REMARK SMILES IDX 9 1 10 2 11 3 12 4 13 5 14 6 15 7 16 8 17 9 18 10 19 11 8 12
REMARK SMILES IDX 7 13 6 14 5 15 4 16 3 17 2 18 1 19
REMARK H PARENT
REMARK Flexibility Score: inf
ROOT
ATOM      1  C   UNL     1      -8.110  64.127  53.295  1.00  0.00     0.000 C 
ENDROOT
BRANCH   1   2
ATOM      2  C   UNL     1      -7.873  62.988  54.299  1.00  0.00     0.000 C 
BRANCH   2   3
ATOM      3  C   UNL     1      -7.711  61.645  53.577  1.00  0.00     0.000 C 
BRANCH   3   4
ATOM      4  C   UNL     1      -6.249  61.181  53.599  1.00  0.00     0.000 C 
BRANCH   4   5
ATOM      5  C   UNL     1      -5.611  61.435  54.970  1.00  0.00     0.001 C 
BRANCH   5   6
ATOM      6  C   UNL     1      -4.358  60.566  55.164  1.00  0.00     0.009 C 
BRANCH   6   7
ATOM      7  C   UNL     1      -4.672  59.205  55.822  1.00  0.00     0.032 C 
ATOM      8  C   UNL     1      -6.152  59.071  56.206  1.00  0.00     0.014 C 
BRANCH   7   9
ATOM      9  C   UNL     1      -3.817  59.025  57.047  1.00  0.00     0.044 C 
ATOM     10  O   UNL     1      -3.668  59.975  57.860  1.00  0.00    -0.550 OA
ATOM     11  O   UNL     1      -3.188  57.811  57.291  1.00  0.00    -0.550 OA
ENDBRANCH   7   9
ENDBRANCH   6   7
ENDBRANCH   5   6
ENDBRANCH   4   5
ENDBRANCH   3   4
ENDBRANCH   2   3
ENDBRANCH   1   2
BRANCH   1  12
ATOM     12  C   UNL     1      -7.011  65.199  53.347  1.00  0.00     0.000 C 
BRANCH  12  13
ATOM     13  C   UNL     1      -6.420  65.508  51.964  1.00  0.00    -0.000 C 
BRANCH  13  14
ATOM     14  C   UNL     1      -6.236  64.224  51.145  1.00  0.00    -0.000 C 
BRANCH  14  15
ATOM     15  C   UNL     1      -6.824  64.379  49.734  1.00  0.00    -0.000 C 
BRANCH  15  16
ATOM     16  C   UNL     1      -8.343  64.653  49.760  1.00  0.00    -0.000 C 
BRANCH  16  17
ATOM     17  C   UNL     1      -9.011  64.571  48.374  1.00  0.00    -0.000 C 
BRANCH  17  18
ATOM     18  C   UNL     1      -8.977  63.178  47.725  1.00  0.00    -0.003 C 
ATOM     19  C   UNL     1      -9.346  62.060  48.700  1.00  0.00     0.004 C 
ENDBRANCH  17  18
ENDBRANCH  16  17
ENDBRANCH  15  16
ENDBRANCH  14  15
ENDBRANCH  13  14
ENDBRANCH  12  13
ENDBRANCH   1  12
TORSDOF 14
ENDMDL
MODEL 3
REMARK VINA RESULT:    -5.203     12.006     14.633
REMARK INTER + INTRA:         -10.941
REMARK INTER:                  -9.465
REMARK INTRA:                  -1.476
REMARK UNBOUND:                -1.479
REMARK SMILES CCCCCCCCCCCCCC[C@H](C)C(=O)[O-]
REMARK SMILES IDX 9 1 10 2 11 3 12 4 13 5 14 6 15 7 16 8 17 9 18 10 19 11 8 12
REMARK SMILES IDX 7 13 6 14 5 15 4 16 3 17 2 18 1 19
REMARK H PARENT
REMARK Flexibility Score: inf
ROOT
ATOM      1  C   UNL     1     -10.081  61.957  41.286  1.00  0.00     0.000 C 
ENDROOT
BRANCH   1   2
ATOM      2  C   UNL     1     -11.075  61.101  40.487  1.00  0.00     0.000 C 
BRANCH   2   3
ATOM      3  C   UNL     1     -12.312  60.764  41.330  1.00  0.00     0.000 C 
BRANCH   3   4
ATOM      4  C   UNL     1     -13.259  59.828  40.569  1.00  0.00     0.000 C 
BRANCH   4   5
ATOM      5  C   UNL     1     -13.026  59.921  39.056  1.00  0.00     0.001 C 
BRANCH   5   6
ATOM      6  C   UNL     1     -14.331  60.258  38.317  1.00  0.00     0.009 C 
BRANCH   6   7
ATOM      7  C   UNL     1     -15.175  61.322  39.051  1.00  0.00     0.032 C 
ATOM      8  C   UNL     1     -16.679  61.145  38.805  1.00  0.00     0.014 C 
BRANCH   7   9
ATOM      9  C   UNL     1     -14.752  62.697  38.610  1.00  0.00     0.044 C 
ATOM     10  O   UNL     1     -15.563  63.444  38.001  1.00  0.00    -0.550 OA
ATOM     11  O   UNL     1     -13.466  63.153  38.871  1.00  0.00    -0.550 OA
ENDBRANCH   7   9
ENDBRANCH   6   7
ENDBRANCH   5   6
ENDBRANCH   4   5
ENDBRANCH   3   4
ENDBRANCH   2   3
ENDBRANCH   1   2
BRANCH   1  12
ATOM     12  C   UNL     1      -9.677  63.241  40.545  1.00  0.00     0.000 C 
BRANCH  12  13
ATOM     13  C   UNL     1      -9.822  63.116  39.022  1.00  0.00    -0.000 C 
BRANCH  13  14
ATOM     14  C   UNL     1      -9.640  64.478  38.339  1.00  0.00    -0.000 C 
BRANCH  14  15
ATOM     15  C   UNL     1      -8.151  64.830  38.196  1.00  0.00    -0.000 C 
BRANCH  15  16
ATOM     16  C   UNL     1      -7.907  66.354  38.204  1.00  0.00    -0.000 C 
BRANCH  16  17
ATOM     17  C   UNL     1      -8.364  67.048  39.501  1.00  0.00    -0.000 C 
BRANCH  17  18
ATOM     18  C   UNL     1      -7.690  66.527  40.781  1.00  0.00    -0.003 C 
ATOM     19  C   UNL     1      -8.633  66.512  41.984  1.00  0.00     0.004 C 
ENDBRANCH  17  18
ENDBRANCH  16  17
ENDBRANCH  15  16
ENDBRANCH  14  15
ENDBRANCH  13  14
ENDBRANCH  12  13
ENDBRANCH   1  12
TORSDOF 14
ENDMDL
MODEL 4
REMARK VINA RESULT:    -5.116      3.402      7.913
REMARK INTER + INTRA:         -10.782
REMARK INTER:                  -9.598
REMARK INTRA:                  -1.184
REMARK UNBOUND:                -1.479
REMARK SMILES CCCCCCCCCCCCCC[C@H](C)C(=O)[O-]
REMARK SMILES IDX 9 1 10 2 11 3 12 4 13 5 14 6 15 7 16 8 17 9 18 10 19 11 8 12
REMARK SMILES IDX 7 13 6 14 5 15 4 16 3 17 2 18 1 19
REMARK H PARENT
REMARK Flexibility Score: inf
ROOT
ATOM      1  C   UNL     1      -7.043  65.642  52.029  1.00  0.00     0.000 C 
ENDROOT
BRANCH   1   2
ATOM      2  C   UNL     1      -6.467  64.914  53.252  1.00  0.00     0.000 C 
BRANCH   2   3
ATOM      3  C   UNL     1      -6.679  63.398  53.139  1.00  0.00     0.000 C 
BRANCH   3   4
ATOM      4  C   UNL     1      -7.753  62.918  54.123  1.00  0.00     0.000 C 
BRANCH   4   5
ATOM      5  C   UNL     1      -7.309  61.637  54.840  1.00  0.00     0.001 C 
BRANCH   5   6
ATOM      6  C   UNL     1      -5.785  61.459  54.756  1.00  0.00     0.009 C 
BRANCH   6   7
ATOM      7  C   UNL     1      -5.334  60.020  55.080  1.00  0.00     0.032 C 
ATOM      8  C   UNL     1      -6.223  59.354  56.138  1.00  0.00     0.014 C 
BRANCH   7   9
ATOM      9  C   UNL     1      -3.907  60.031  55.559  1.00  0.00     0.044 C 
ATOM     10  O   UNL     1      -3.275  58.949  55.693  1.00  0.00    -0.550 OA
ATOM     11  O   UNL     1      -3.276  61.233  55.855  1.00  0.00    -0.550 OA
ENDBRANCH   7   9
ENDBRANCH   6   7
ENDBRANCH   5   6
ENDBRANCH   4   5
ENDBRANCH   3   4
ENDBRANCH   2   3
ENDBRANCH   1   2
BRANCH   1  12
ATOM     12  C   UNL     1      -5.981  65.928  50.956  1.00  0.00     0.000 C 
BRANCH  12  13
ATOM     13  C   UNL     1      -6.326  65.301  49.598  1.00  0.00    -0.000 C 
BRANCH  13  14
ATOM     14  C   UNL     1      -6.325  63.769  49.684  1.00  0.00    -0.000 C 
BRANCH  14  15
ATOM     15  C   UNL     1      -7.743  63.205  49.505  1.00  0.00    -0.000 C 
BRANCH  15  16
ATOM     16  C   UNL     1      -8.730  64.261  48.966  1.00  0.00    -0.000 C 
BRANCH  16  17
ATOM     17  C   UNL     1      -9.208  63.987  47.527  1.00  0.00    -0.000 C 
BRANCH  17  18
ATOM     18  C   UNL     1      -8.977  62.547  47.037  1.00  0.00    -0.003 C 
ATOM     19  C   UNL     1      -9.181  62.394  45.531  1.00  0.00     0.004 C 
ENDBRANCH  17  18
ENDBRANCH  16  17
ENDBRANCH  15  16
ENDBRANCH  14  15
ENDBRANCH  13  14
ENDBRANCH  12  13
ENDBRANCH   1  12
TORSDOF 14
ENDMDL
MODEL 5
REMARK VINA RESULT:    -4.929      1.330      2.204
REMARK INTER + INTRA:         -10.442
REMARK INTER:                  -9.183
REMARK INTRA:                  -1.259
REMARK UNBOUND:                -1.479
REMARK SMILES CCCCCCCCCCCCCC[C@H](C)C(=O)[O-]
REMARK SMILES IDX 9 1 10 2 11 3 12 4 13 5 14 6 15 7 16 8 17 9 18 10 19 11 8 12
REMARK SMILES IDX 7 13 6 14 5 15 4 16 3 17 2 18 1 19
REMARK H PARENT
REMARK Flexibility Score: inf
ROOT
ATOM      1  C   UNL     1      -7.755  62.245  54.691  1.00  0.00     0.000 C 
ENDROOT
BRANCH   1   2
ATOM      2  C   UNL     1      -7.901  63.637  54.059  1.00  0.00     0.000 C 
BRANCH   2   3
ATOM      3  C   UNL     1      -6.574  64.107  53.451  1.00  0.00     0.000 C 
BRANCH   3   4
ATOM      4  C   UNL     1      -6.691  65.537  52.908  1.00  0.00     0.000 C 
BRANCH   4   5
ATOM      5  C   UNL     1      -6.252  65.605  51.441  1.00  0.00     0.001 C 
BRANCH   5   6
ATOM      6  C   UNL     1      -7.434  65.332  50.498  1.00  0.00     0.009 C 
BRANCH   6   7
ATOM      7  C   UNL     1      -7.476  63.871  50.001  1.00  0.00     0.032 C 
ATOM      8  C   UNL     1      -6.144  63.427  49.384  1.00  0.00     0.014 C 
BRANCH   7   9
ATOM      9  C   UNL     1      -8.577  63.711  48.988  1.00  0.00     0.044 C 
ATOM     10  O   UNL     1      -9.358  64.670  48.745  1.00  0.00    -0.550 OA
ATOM     11  O   UNL     1      -8.740  62.508  48.313  1.00  0.00    -0.550 OA
ENDBRANCH   7   9
ENDBRANCH   6   7
ENDBRANCH   5   6
ENDBRANCH   4   5
ENDBRANCH   3   4
ENDBRANCH   2   3
ENDBRANCH   1   2
BRANCH   1  12
ATOM     12  C   UNL     1      -7.436  61.156  53.654  1.00  0.00     0.000 C 
BRANCH  12  13
ATOM     13  C   UNL     1      -6.178  60.351  54.008  1.00  0.00    -0.000 C 
BRANCH  13  14
ATOM     14  C   UNL     1      -5.652  60.735  55.397  1.00  0.00    -0.000 C 
BRANCH  14  15
ATOM     15  C   UNL     1      -4.179  61.167  55.330  1.00  0.00    -0.000 C 
BRANCH  15  16
ATOM     16  C   UNL     1      -3.340  60.567  56.479  1.00  0.00    -0.000 C 
BRANCH  16  17
ATOM     17  C   UNL     1      -4.012  59.370  57.178  1.00  0.00    -0.000 C 
BRANCH  17  18
ATOM     18  C   UNL     1      -3.089  58.164  57.415  1.00  0.00    -0.003 C 
ATOM     19  C   UNL     1      -2.877  57.322  56.158  1.00  0.00     0.004 C 
ENDBRANCH  17  18
ENDBRANCH  16  17
ENDBRANCH  15  16
ENDBRANCH  14  15
ENDBRANCH  13  14
ENDBRANCH  12  13
ENDBRANCH   1  12
TORSDOF 14
ENDMDL
MODEL 6
REMARK VINA RESULT:    -4.923      5.460     11.218
REMARK INTER + INTRA:         -10.432
REMARK INTER:                  -9.463
REMARK INTRA:                  -0.969
REMARK UNBOUND:                -1.479
REMARK SMILES CCCCCCCCCCCCCC[C@H](C)C(=O)[O-]
REMARK SMILES IDX 9 1 10 2 11 3 12 4 13 5 14 6 15 7 16 8 17 9 18 10 19 11 8 12
REMARK SMILES IDX 7 13 6 14 5 15 4 16 3 17 2 18 1 19
REMARK H PARENT
REMARK Flexibility Score: inf
ROOT
ATOM      1  C   UNL     1      -9.622  61.502  44.395  1.00  0.00     0.000 C 
ENDROOT
BRANCH   1   2
ATOM      2  C   UNL     1      -9.211  62.719  45.238  1.00  0.00     0.000 C 
BRANCH   2   3
ATOM      3  C   UNL     1      -9.003  62.325  46.706  1.00  0.00     0.000 C 
BRANCH   3   4
ATOM      4  C   UNL     1      -9.204  63.530  47.634  1.00  0.00     0.000 C 
BRANCH   4   5
ATOM      5  C   UNL     1      -8.351  63.395  48.901  1.00  0.00     0.001 C 
BRANCH   5   6
ATOM      6  C   UNL     1      -8.405  64.683  49.740  1.00  0.00     0.009 C 
BRANCH   6   7
ATOM      7  C   UNL     1      -7.036  65.056  50.347  1.00  0.00     0.032 C 
ATOM      8  C   UNL     1      -5.865  64.449  49.563  1.00  0.00     0.014 C 
BRANCH   7   9
ATOM      9  C   UNL     1      -6.974  64.597  51.779  1.00  0.00     0.044 C 
ATOM     10  O   UNL     1      -7.651  65.186  52.663  1.00  0.00    -0.550 OA
ATOM     11  O   UNL     1      -6.172  63.520  52.135  1.00  0.00    -0.550 OA
ENDBRANCH   7   9
ENDBRANCH   6   7
ENDBRANCH   5   6
ENDBRANCH   4   5
ENDBRANCH   3   4
ENDBRANCH   2   3
ENDBRANCH   1   2
BRANCH   1  12
ATOM     12  C   UNL     1     -10.057  61.889  42.972  1.00  0.00     0.000 C 
BRANCH  12  13
ATOM     13  C   UNL     1      -9.838  63.378  42.670  1.00  0.00    -0.000 C 
BRANCH  13  14
ATOM     14  C   UNL     1      -9.330  63.579  41.237  1.00  0.00    -0.000 C 
BRANCH  14  15
ATOM     15  C   UNL     1      -9.661  62.365  40.357  1.00  0.00    -0.000 C 
BRANCH  15  16
ATOM     16  C   UNL     1     -10.687  62.703  39.254  1.00  0.00    -0.000 C 
BRANCH  16  17
ATOM     17  C   UNL     1     -11.984  61.877  39.341  1.00  0.00    -0.000 C 
BRANCH  17  18
ATOM     18  C   UNL     1     -11.864  60.574  40.147  1.00  0.00    -0.003 C 
ATOM     19  C   UNL     1     -13.221  59.997  40.549  1.00  0.00     0.004 C 
ENDBRANCH  17  18
ENDBRANCH  16  17
ENDBRANCH  15  16
ENDBRANCH  14  15
ENDBRANCH  13  14
ENDBRANCH  12  13
ENDBRANCH   1  12
TORSDOF 14
ENDMDL
MODEL 7
REMARK VINA RESULT:    -4.894      5.364      8.268
REMARK INTER + INTRA:         -10.378
REMARK INTER:                  -9.564
REMARK INTRA:                  -0.814
REMARK UNBOUND:                -1.479
REMARK SMILES CCCCCCCCCCCCCC[C@H](C)C(=O)[O-]
REMARK SMILES IDX 9 1 10 2 11 3 12 4 13 5 14 6 15 7 16 8 17 9 18 10 19 11 8 12
REMARK SMILES IDX 7 13 6 14 5 15 4 16 3 17 2 18 1 19
REMARK H PARENT
REMARK Flexibility Score: inf
ROOT
ATOM      1  C   UNL     1      -9.201  62.627  45.492  1.00  0.00     0.000 C 
ENDROOT
BRANCH   1   2
ATOM      2  C   UNL     1      -9.562  61.412  44.622  1.00  0.00     0.000 C 
BRANCH   2   3
ATOM      3  C   UNL     1     -10.259  61.852  43.328  1.00  0.00     0.000 C 
BRANCH   3   4
ATOM      4  C   UNL     1      -9.840  63.273  42.932  1.00  0.00     0.000 C 
BRANCH   4   5
ATOM      5  C   UNL     1      -9.513  63.353  41.436  1.00  0.00     0.001 C 
BRANCH   5   6
ATOM      6  C   UNL     1      -9.627  61.970  40.773  1.00  0.00     0.009 C 
BRANCH   6   7
ATOM      7  C   UNL     1     -10.419  62.007  39.449  1.00  0.00     0.032 C 
ATOM      8  C   UNL     1     -10.492  63.419  38.853  1.00  0.00     0.014 C 
BRANCH   7   9
ATOM      9  C   UNL     1     -11.812  61.486  39.677  1.00  0.00     0.044 C 
ATOM     10  O   UNL     1     -12.000  60.489  40.424  1.00  0.00    -0.550 OA
ATOM     11  O   UNL     1     -12.899  62.099  39.067  1.00  0.00    -0.550 OA
ENDBRANCH   7   9
ENDBRANCH   6   7
ENDBRANCH   5   6
ENDBRANCH   4   5
ENDBRANCH   3   4
ENDBRANCH   2   3
ENDBRANCH   1   2
BRANCH   1  12
ATOM     12  C   UNL     1      -9.060  62.267  46.979  1.00  0.00     0.000 C 
BRANCH  12  13
ATOM     13  C   UNL     1      -9.146  63.496  47.896  1.00  0.00    -0.000 C 
BRANCH  13  14
ATOM     14  C   UNL     1      -8.103  63.420  49.018  1.00  0.00    -0.000 C 
BRANCH  14  15
ATOM     15  C   UNL     1      -8.150  64.674  49.903  1.00  0.00    -0.000 C 
BRANCH  15  16
ATOM     16  C   UNL     1      -6.836  64.890  50.684  1.00  0.00    -0.000 C 
BRANCH  16  17
ATOM     17  C   UNL     1      -6.581  63.831  51.773  1.00  0.00    -0.000 C 
BRANCH  17  18
ATOM     18  C   UNL     1      -7.034  64.239  53.185  1.00  0.00    -0.003 C 
ATOM     19  C   UNL     1      -7.760  63.115  53.923  1.00  0.00     0.004 C 
ENDBRANCH  17  18
ENDBRANCH  16  17
ENDBRANCH  15  16
ENDBRANCH  14  15
ENDBRANCH  13  14
ENDBRANCH  12  13
ENDBRANCH   1  12
TORSDOF 14
ENDMDL
MODEL 8
REMARK VINA RESULT:    -4.842      6.172      9.653
REMARK INTER + INTRA:         -10.284
REMARK INTER:                  -9.411
REMARK INTRA:                  -0.873
REMARK UNBOUND:                -1.479
REMARK SMILES CCCCCCCCCCCCCC[C@H](C)C(=O)[O-]
REMARK SMILES IDX 9 1 10 2 11 3 12 4 13 5 14 6 15 7 16 8 17 9 18 10 19 11 8 12
REMARK SMILES IDX 7 13 6 14 5 15 4 16 3 17 2 18 1 19
REMARK H PARENT
REMARK Flexibility Score: inf
ROOT
ATOM      1  C   UNL     1     -10.016  61.922  43.495  1.00  0.00     0.000 C 
ENDROOT
BRANCH   1   2
ATOM      2  C   UNL     1      -9.676  63.379  43.147  1.00  0.00     0.000 C 
BRANCH   2   3
ATOM      3  C   UNL     1      -9.965  63.673  41.669  1.00  0.00     0.000 C 
BRANCH   3   4
ATOM      4  C   UNL     1      -9.311  62.624  40.761  1.00  0.00     0.000 C 
BRANCH   4   5
ATOM      5  C   UNL     1     -10.250  62.225  39.616  1.00  0.00     0.001 C 
BRANCH   5   6
ATOM      6  C   UNL     1     -11.217  61.116  40.059  1.00  0.00     0.009 C 
BRANCH   6   7
ATOM      7  C   UNL     1     -12.577  61.184  39.332  1.00  0.00     0.032 C 
ATOM      8  C   UNL     1     -12.993  62.624  39.007  1.00  0.00     0.014 C 
BRANCH   7   9
ATOM      9  C   UNL     1     -13.638  60.533  40.178  1.00  0.00     0.044 C 
ATOM     10  O   UNL     1     -13.379  60.184  41.360  1.00  0.00    -0.550 OA
ATOM     11  O   UNL     1     -14.909  60.314  39.663  1.00  0.00    -0.550 OA
ENDBRANCH   7   9
ENDBRANCH   6   7
ENDBRANCH   5   6
ENDBRANCH   4   5
ENDBRANCH   3   4
ENDBRANCH   2   3
ENDBRANCH   1   2
BRANCH   1  12
ATOM     12  C   UNL     1      -9.508  61.511  44.885  1.00  0.00     0.000 C 
BRANCH  12  13
ATOM     13  C   UNL     1      -9.122  62.717  45.754  1.00  0.00    -0.000 C 
BRANCH  13  14
ATOM     14  C   UNL     1      -9.176  62.360  47.245  1.00  0.00    -0.000 C 
BRANCH  14  15
ATOM     15  C   UNL     1      -9.026  63.613  48.120  1.00  0.00    -0.000 C 
BRANCH  15  16
ATOM     16  C   UNL     1      -7.881  63.478  49.146  1.00  0.00    -0.000 C 
BRANCH  16  17
ATOM     17  C   UNL     1      -7.760  64.680  50.102  1.00  0.00    -0.000 C 
BRANCH  17  18
ATOM     18  C   UNL     1      -6.322  65.019  50.529  1.00  0.00    -0.003 C 
ATOM     19  C   UNL     1      -5.527  65.724  49.430  1.00  0.00     0.004 C 
ENDBRANCH  17  18
ENDBRANCH  16  17
ENDBRANCH  15  16
ENDBRANCH  14  15
ENDBRANCH  13  14
ENDBRANCH  12  13
ENDBRANCH   1  12
TORSDOF 14
ENDMDL
MODEL 9
REMARK VINA RESULT:    -4.799     12.271     14.672
REMARK INTER + INTRA:         -10.206
REMARK INTER:                  -8.757
REMARK INTRA:                  -1.449
REMARK UNBOUND:                -1.479
REMARK SMILES CCCCCCCCCCCCCC[C@H](C)C(=O)[O-]
REMARK SMILES IDX 9 1 10 2 11 3 12 4 13 5 14 6 15 7 16 8 17 9 18 10 19 11 8 12
REMARK SMILES IDX 7 13 6 14 5 15 4 16 3 17 2 18 1 19
REMARK H PARENT
REMARK Flexibility Score: inf
ROOT
ATOM      1  C   UNL     1      -9.329  62.868  39.586  1.00  0.00     0.000 C 
ENDROOT
BRANCH   1   2
ATOM      2  C   UNL     1      -9.981  61.482  39.701  1.00  0.00     0.000 C 
BRANCH   2   3
ATOM      3  C   UNL     1     -11.506  61.580  39.575  1.00  0.00     0.000 C 
BRANCH   3   4
ATOM      4  C   UNL     1     -12.204  60.766  40.671  1.00  0.00     0.000 C 
BRANCH   4   5
ATOM      5  C   UNL     1     -13.686  60.552  40.339  1.00  0.00     0.001 C 
BRANCH   5   6
ATOM      6  C   UNL     1     -13.885  60.328  38.831  1.00  0.00     0.009 C 
BRANCH   6   7
ATOM      7  C   UNL     1     -14.951  61.265  38.225  1.00  0.00     0.032 C 
ATOM      8  C   UNL     1     -14.779  62.718  38.684  1.00  0.00     0.014 C 
BRANCH   7   9
ATOM      9  C   UNL     1     -16.325  60.779  38.600  1.00  0.00     0.044 C 
ATOM     10  O   UNL     1     -16.519  59.560  38.853  1.00  0.00    -0.550 OA
ATOM     11  O   UNL     1     -17.389  61.670  38.670  1.00  0.00    -0.550 OA
ENDBRANCH   7   9
ENDBRANCH   6   7
ENDBRANCH   5   6
ENDBRANCH   4   5
ENDBRANCH   3   4
ENDBRANCH   2   3
ENDBRANCH   1   2
BRANCH   1  12
ATOM     12  C   UNL     1     -10.121  63.820  38.677  1.00  0.00     0.000 C 
BRANCH  12  13
ATOM     13  C   UNL     1      -9.222  64.839  37.960  1.00  0.00    -0.000 C 
BRANCH  13  14
ATOM     14  C   UNL     1      -7.802  64.820  38.538  1.00  0.00    -0.000 C 
BRANCH  14  15
ATOM     15  C   UNL     1      -7.354  66.231  38.950  1.00  0.00    -0.000 C 
BRANCH  15  16
ATOM     16  C   UNL     1      -8.505  67.052  39.570  1.00  0.00    -0.000 C 
BRANCH  16  17
ATOM     17  C   UNL     1      -8.490  67.077  41.110  1.00  0.00    -0.000 C 
BRANCH  17  18
ATOM     18  C   UNL     1      -8.790  65.725  41.778  1.00  0.00    -0.003 C 
ATOM     19  C   UNL     1     -10.287  65.436  41.885  1.00  0.00     0.004 C 
ENDBRANCH  17  18
ENDBRANCH  16  17
ENDBRANCH  15  16
ENDBRANCH  14  15
ENDBRANCH  13  14
ENDBRANCH  12  13
ENDBRANCH   1  12
TORSDOF 14
ENDMDL
