MODEL 1
REMARK VINA RESULT:    -4.914      0.000      0.000
REMARK INTER + INTRA:          -7.393
REMARK INTER:                  -7.499
REMARK INTRA:                   0.106
REMARK UNBOUND:                 0.106
REMARK SMILES CC1=CCC[C@H](C)C(=O)C[C@H](C(C)C)C(=O)C1
REMARK SMILES IDX 8 1 9 2 6 3 7 4 5 5 4 6 3 7 2 8 1 9 10 11 11 12 15 13 16 14
REMARK SMILES IDX 17 15 12 17 13 18 14 19
REMARK H PARENT
REMARK Flexibility Score: 70.00
ROOT
ATOM      1  C   UNL     1      -8.647  29.757  41.141  1.00  0.00     0.136 C 
ATOM      2  O   UNL     1      -8.410  29.093  42.141  1.00  0.00    -0.299 OA
ENDROOT
BRANCH   1   3
ATOM      3  C   UNL     1      -8.385  29.117  39.781  1.00  0.00     0.053 C 
ATOM      4  C   UNL     1      -8.749  27.625  39.681  1.00  0.00     0.016 C 
BRANCH   3   5
ATOM      5  C   UNL     1      -9.006  29.929  38.615  1.00  0.00     0.015 C 
BRANCH   5   6
ATOM      6  C   UNL     1      -8.026  30.844  37.854  1.00  0.00     0.028 C 
BRANCH   6   7
ATOM      7  C   UNL     1      -8.734  32.051  37.279  1.00  0.00    -0.028 C 
ATOM      8  C   UNL     1      -8.699  33.301  37.794  1.00  0.00    -0.070 CG0
ATOM      9  C   UNL     1      -9.478  34.380  37.085  1.00  0.00     0.039 C 
ATOM     10  G   UNL     1      -7.917  33.659  39.043  1.00  0.00     0.000 G0
ENDBRANCH   6   7
ENDBRANCH   5   6
ENDBRANCH   3   5
ENDBRANCH   1   3
BRANCH   1  11
ATOM     11  C   UNL     1      -9.250  31.136  41.340  1.00  0.00     0.087 C 
BRANCH  11  12
ATOM     12  C   UNL     1      -8.184  32.255  41.258  1.00  0.00     0.066 C 
BRANCH  12  13
ATOM     13  C   UNL     1      -8.641  33.370  40.327  1.00  0.00     0.140 C 
ATOM     14  O   UNL     1      -9.593  34.068  40.642  1.00  0.00    -0.299 OA
BRANCH  13  15
ATOM     15  C   UNL     1      -7.919  33.675  39.038  1.00  0.00     0.106 CG0
ATOM     16  G   UNL     1      -8.721  33.289  37.810  1.00  0.00     0.000 G0
ENDBRANCH  13  15
ENDBRANCH  12  13
BRANCH  12  17
ATOM     17  C   UNL     1      -7.767  32.777  42.667  1.00  0.00    -0.006 C 
ATOM     18  C   UNL     1      -8.913  32.817  43.694  1.00  0.00     0.008 C 
ATOM     19  C   UNL     1      -7.094  34.155  42.577  1.00  0.00     0.008 C 
ENDBRANCH  12  17
ENDBRANCH  11  12
ENDBRANCH   1  11
TORSDOF 1
ENDMDL
MODEL 2
REMARK VINA RESULT:    -4.740      2.173      5.527
REMARK INTER + INTRA:          -7.128
REMARK INTER:                  -7.320
REMARK INTRA:                   0.192
REMARK UNBOUND:                 0.106
REMARK SMILES CC1=CCC[C@H](C)C(=O)C[C@H](C(C)C)C(=O)C1
REMARK SMILES IDX 8 1 9 2 6 3 7 4 5 5 4 6 3 7 2 8 1 9 10 11 11 12 15 13 16 14
REMARK SMILES IDX 17 15 12 17 13 18 14 19
REMARK H PARENT
REMARK Flexibility Score: 70.00
ROOT
ATOM      1  C   UNL     1      -9.250  33.711  41.073  1.00  0.00     0.136 C 
ATOM      2  O   UNL     1      -9.425  34.900  40.847  1.00  0.00    -0.299 OA
ENDROOT
BRANCH   1   3
ATOM      3  C   UNL     1      -8.334  33.333  42.233  1.00  0.00     0.053 C 
ATOM      4  C   UNL     1      -6.986  34.074  42.269  1.00  0.00     0.016 C 
BRANCH   3   5
ATOM      5  C   UNL     1      -9.055  33.407  43.605  1.00  0.00     0.015 C 
BRANCH   5   6
ATOM      6  C   UNL     1      -9.684  32.086  44.091  1.00  0.00     0.028 C 
BRANCH   6   7
ATOM      7  C   UNL     1      -8.763  30.913  43.841  1.00  0.00    -0.028 C 
ATOM      8  C   UNL     1      -8.840  30.064  42.791  1.00  0.00    -0.070 CG0
ATOM      9  C   UNL     1      -7.836  28.941  42.714  1.00  0.00     0.039 C 
ATOM     10  G   UNL     1      -9.885  30.192  41.699  1.00  0.00     0.000 G0
ENDBRANCH   6   7
ENDBRANCH   5   6
ENDBRANCH   3   5
ENDBRANCH   1   3
BRANCH   1  11
ATOM     11  C   UNL     1     -10.018  32.713  40.224  1.00  0.00     0.087 C 
BRANCH  11  12
ATOM     12  C   UNL     1      -9.091  31.636  39.610  1.00  0.00     0.066 C 
BRANCH  12  13
ATOM     13  C   UNL     1      -9.284  30.296  40.305  1.00  0.00     0.140 C 
ATOM     14  O   UNL     1      -8.911  29.270  39.756  1.00  0.00    -0.299 OA
BRANCH  13  15
ATOM     15  C   UNL     1      -9.885  30.196  41.686  1.00  0.00     0.106 CG0
ATOM     16  G   UNL     1      -8.836  30.070  42.775  1.00  0.00     0.000 G0
ENDBRANCH  13  15
ENDBRANCH  12  13
BRANCH  12  17
ATOM     17  C   UNL     1      -9.245  31.541  38.060  1.00  0.00    -0.006 C 
ATOM     18  C   UNL     1      -7.912  31.459  37.295  1.00  0.00     0.008 C 
ATOM     19  C   UNL     1     -10.097  32.695  37.511  1.00  0.00     0.008 C 
ENDBRANCH  12  17
ENDBRANCH  11  12
ENDBRANCH   1  11
TORSDOF 1
ENDMDL
MODEL 3
REMARK VINA RESULT:    -4.658      2.128      4.407
REMARK INTER + INTRA:          -7.002
REMARK INTER:                  -7.854
REMARK INTRA:                   0.852
REMARK UNBOUND:                 0.106
REMARK SMILES CC1=CCC[C@H](C)C(=O)C[C@H](C(C)C)C(=O)C1
REMARK SMILES IDX 8 1 9 2 6 3 7 4 5 5 4 6 3 7 2 8 1 9 10 11 11 12 15 13 16 14
REMARK SMILES IDX 17 15 12 17 13 18 14 19
REMARK H PARENT
REMARK Flexibility Score: 70.00
ROOT
ATOM      1  C   UNL     1      -8.007  29.419  42.956  1.00  0.00     0.136 C 
ATOM      2  O   UNL     1      -7.626  28.281  43.194  1.00  0.00    -0.299 OA
ENDROOT
BRANCH   1   3
ATOM      3  C   UNL     1      -8.613  30.223  44.102  1.00  0.00     0.053 C 
ATOM      4  C   UNL     1      -7.594  30.901  45.035  1.00  0.00     0.016 C 
BRANCH   3   5
ATOM      5  C   UNL     1      -9.689  31.229  43.616  1.00  0.00     0.015 C 
BRANCH   5   6
ATOM      6  C   UNL     1      -9.347  32.717  43.834  1.00  0.00     0.028 C 
BRANCH   6   7
ATOM      7  C   UNL     1      -8.404  33.228  42.769  1.00  0.00    -0.028 C 
ATOM      8  C   UNL     1      -8.569  33.076  41.435  1.00  0.00    -0.070 CG0
ATOM      9  C   UNL     1      -7.514  33.648  40.522  1.00  0.00     0.039 C 
ATOM     10  G   UNL     1      -9.759  32.361  40.825  1.00  0.00     0.000 G0
ENDBRANCH   6   7
ENDBRANCH   5   6
ENDBRANCH   3   5
ENDBRANCH   1   3
BRANCH   1  11
ATOM     11  C   UNL     1      -7.776  29.958  41.555  1.00  0.00     0.087 C 
BRANCH  11  12
ATOM     12  C   UNL     1      -9.032  29.816  40.662  1.00  0.00     0.066 C 
BRANCH  12  13
ATOM     13  C   UNL     1      -9.383  31.145  40.008  1.00  0.00     0.140 C 
ATOM     14  O   UNL     1      -9.396  31.234  38.789  1.00  0.00    -0.299 OA
BRANCH  13  15
ATOM     15  C   UNL     1      -9.767  32.356  40.822  1.00  0.00     0.106 CG0
ATOM     16  G   UNL     1      -8.567  33.069  41.416  1.00  0.00     0.000 G0
ENDBRANCH  13  15
ENDBRANCH  12  13
BRANCH  12  17
ATOM     17  C   UNL     1      -8.896  28.652  39.633  1.00  0.00    -0.006 C 
ATOM     18  C   UNL     1      -9.588  27.345  40.058  1.00  0.00     0.008 C 
ATOM     19  C   UNL     1      -7.424  28.381  39.288  1.00  0.00     0.008 C 
ENDBRANCH  12  17
ENDBRANCH  11  12
ENDBRANCH   1  11
TORSDOF 1
ENDMDL
MODEL 4
REMARK VINA RESULT:    -4.619      1.938      4.116
REMARK INTER + INTRA:          -6.943
REMARK INTER:                  -7.237
REMARK INTRA:                   0.294
REMARK UNBOUND:                 0.106
REMARK SMILES CC1=CCC[C@H](C)C(=O)C[C@H](C(C)C)C(=O)C1
REMARK SMILES IDX 8 1 9 2 6 3 7 4 5 5 4 6 3 7 2 8 1 9 10 11 11 12 15 13 16 14
REMARK SMILES IDX 17 15 12 17 13 18 14 19
REMARK H PARENT
REMARK Flexibility Score: 70.00
ROOT
ATOM      1  C   UNL     1      -8.607  29.808  39.236  1.00  0.00     0.136 C 
ATOM      2  O   UNL     1      -8.519  29.289  38.132  1.00  0.00    -0.299 OA
ENDROOT
BRANCH   1   3
ATOM      3  C   UNL     1      -8.983  28.916  40.415  1.00  0.00     0.053 C 
ATOM      4  C   UNL     1      -9.374  27.475  40.046  1.00  0.00     0.016 C 
BRANCH   3   5
ATOM      5  C   UNL     1      -7.915  28.941  41.540  1.00  0.00     0.015 C 
BRANCH   5   6
ATOM      6  C   UNL     1      -8.401  29.477  42.901  1.00  0.00     0.028 C 
BRANCH   6   7
ATOM      7  C   UNL     1      -7.905  30.884  43.148  1.00  0.00    -0.028 C 
ATOM      8  C   UNL     1      -8.510  32.017  42.725  1.00  0.00    -0.070 CG0
ATOM      9  C   UNL     1      -7.860  33.335  43.060  1.00  0.00     0.039 C 
ATOM     10  G   UNL     1      -9.804  32.016  41.933  1.00  0.00     0.000 G0
ENDBRANCH   6   7
ENDBRANCH   5   6
ENDBRANCH   3   5
ENDBRANCH   1   3
BRANCH   1  11
ATOM     11  C   UNL     1      -8.264  31.283  39.348  1.00  0.00     0.087 C 
BRANCH  11  12
ATOM     12  C   UNL     1      -9.526  32.178  39.323  1.00  0.00     0.066 C 
BRANCH  12  13
ATOM     13  C   UNL     1      -9.750  32.836  40.678  1.00  0.00     0.140 C 
ATOM     14  O   UNL     1      -9.915  34.044  40.743  1.00  0.00    -0.299 OA
BRANCH  13  15
ATOM     15  C   UNL     1      -9.822  32.029  41.951  1.00  0.00     0.106 CG0
ATOM     16  G   UNL     1      -8.513  32.023  42.718  1.00  0.00     0.000 G0
ENDBRANCH  13  15
ENDBRANCH  12  13
BRANCH  12  17
ATOM     17  C   UNL     1      -9.498  33.206  38.150  1.00  0.00    -0.006 C 
ATOM     18  C   UNL     1      -9.733  32.588  36.760  1.00  0.00     0.008 C 
ATOM     19  C   UNL     1      -8.195  34.019  38.150  1.00  0.00     0.008 C 
ENDBRANCH  12  17
ENDBRANCH  11  12
ENDBRANCH   1  11
TORSDOF 1
ENDMDL
MODEL 5
REMARK VINA RESULT:    -4.524      1.930      4.226
REMARK INTER + INTRA:          -6.798
REMARK INTER:                  -7.523
REMARK INTRA:                   0.726
REMARK UNBOUND:                 0.106
REMARK SMILES CC1=CCC[C@H](C)C(=O)C[C@H](C(C)C)C(=O)C1
REMARK SMILES IDX 8 1 9 2 6 3 7 4 5 5 4 6 3 7 2 8 1 9 10 11 11 12 15 13 16 14
REMARK SMILES IDX 17 15 12 17 13 18 14 19
REMARK H PARENT
REMARK Flexibility Score: 70.00
ROOT
ATOM      1  C   UNL     1      -8.674  30.963  38.357  1.00  0.00     0.136 C 
ATOM      2  O   UNL     1      -8.230  30.003  37.743  1.00  0.00    -0.299 OA
ENDROOT
BRANCH   1   3
ATOM      3  C   UNL     1      -8.551  32.340  37.713  1.00  0.00     0.053 C 
ATOM      4  C   UNL     1      -9.364  32.531  36.421  1.00  0.00     0.016 C 
BRANCH   3   5
ATOM      5  C   UNL     1      -8.813  33.490  38.720  1.00  0.00     0.015 C 
BRANCH   5   6
ATOM      6  C   UNL     1      -7.738  33.670  39.810  1.00  0.00     0.028 C 
BRANCH   6   7
ATOM      7  C   UNL     1      -8.301  34.365  41.030  1.00  0.00    -0.028 C 
ATOM      8  C   UNL     1      -8.383  33.832  42.270  1.00  0.00    -0.070 CG0
ATOM      9  C   UNL     1      -8.986  34.677  43.364  1.00  0.00     0.039 C 
ATOM     10  G   UNL     1      -7.901  32.434  42.602  1.00  0.00     0.000 G0
ENDBRANCH   6   7
ENDBRANCH   5   6
ENDBRANCH   3   5
ENDBRANCH   1   3
BRANCH   1  11
ATOM     11  C   UNL     1      -9.374  30.690  39.677  1.00  0.00     0.087 C 
BRANCH  11  12
ATOM     12  C   UNL     1      -8.371  30.508  40.842  1.00  0.00     0.066 C 
BRANCH  12  13
ATOM     13  C   UNL     1      -8.793  31.330  42.051  1.00  0.00     0.140 C 
ATOM     14  O   UNL     1      -9.857  31.091  42.604  1.00  0.00    -0.299 OA
BRANCH  13  15
ATOM     15  C   UNL     1      -7.910  32.410  42.626  1.00  0.00     0.106 CG0
ATOM     16  G   UNL     1      -8.380  33.806  42.267  1.00  0.00     0.000 G0
ENDBRANCH  13  15
ENDBRANCH  12  13
BRANCH  12  17
ATOM     17  C   UNL     1      -8.133  29.005  41.185  1.00  0.00    -0.006 C 
ATOM     18  C   UNL     1      -9.052  28.028  40.430  1.00  0.00     0.008 C 
ATOM     19  C   UNL     1      -8.228  28.755  42.697  1.00  0.00     0.008 C 
ENDBRANCH  12  17
ENDBRANCH  11  12
ENDBRANCH   1  11
TORSDOF 1
ENDMDL
MODEL 6
REMARK VINA RESULT:    -4.464      2.677      4.609
REMARK INTER + INTRA:          -6.706
REMARK INTER:                  -7.487
REMARK INTRA:                   0.782
REMARK UNBOUND:                 0.106
REMARK SMILES CC1=CCC[C@H](C)C(=O)C[C@H](C(C)C)C(=O)C1
REMARK SMILES IDX 8 1 9 2 6 3 7 4 5 5 4 6 3 7 2 8 1 9 10 11 11 12 15 13 16 14
REMARK SMILES IDX 17 15 12 17 13 18 14 19
REMARK H PARENT
REMARK Flexibility Score: 70.00
ROOT
ATOM      1  C   UNL     1      -8.613  30.741  39.251  1.00  0.00     0.136 C 
ATOM      2  O   UNL     1      -8.864  30.941  38.070  1.00  0.00    -0.299 OA
ENDROOT
BRANCH   1   3
ATOM      3  C   UNL     1      -8.756  29.318  39.779  1.00  0.00     0.053 C 
ATOM      4  C   UNL     1      -8.601  28.210  38.723  1.00  0.00     0.016 C 
BRANCH   3   5
ATOM      5  C   UNL     1      -7.854  29.051  41.013  1.00  0.00     0.015 C 
BRANCH   5   6
ATOM      6  C   UNL     1      -8.599  28.634  42.297  1.00  0.00     0.028 C 
BRANCH   6   7
ATOM      7  C   UNL     1      -7.881  29.125  43.534  1.00  0.00    -0.028 C 
ATOM      8  C   UNL     1      -8.072  30.324  44.129  1.00  0.00    -0.070 CG0
ATOM      9  C   UNL     1      -7.255  30.644  45.355  1.00  0.00     0.039 C 
ATOM     10  G   UNL     1      -9.065  31.351  43.619  1.00  0.00     0.000 G0
ENDBRANCH   6   7
ENDBRANCH   5   6
ENDBRANCH   3   5
ENDBRANCH   1   3
BRANCH   1  11
ATOM     11  C   UNL     1      -8.111  31.917  40.070  1.00  0.00     0.087 C 
BRANCH  11  12
ATOM     12  C   UNL     1      -9.121  32.338  41.165  1.00  0.00     0.066 C 
BRANCH  12  13
ATOM     13  C   UNL     1      -8.489  32.247  42.547  1.00  0.00     0.140 C 
ATOM     14  O   UNL     1      -7.513  32.933  42.812  1.00  0.00    -0.299 OA
BRANCH  13  15
ATOM     15  C   UNL     1      -9.064  31.365  43.628  1.00  0.00     0.106 CG0
ATOM     16  G   UNL     1      -8.077  30.325  44.124  1.00  0.00     0.000 G0
ENDBRANCH  13  15
ENDBRANCH  12  13
BRANCH  12  17
ATOM     17  C   UNL     1      -9.752  33.735  40.879  1.00  0.00    -0.006 C 
ATOM     18  C   UNL     1      -9.912  34.065  39.384  1.00  0.00     0.008 C 
ATOM     19  C   UNL     1      -8.975  34.855  41.585  1.00  0.00     0.008 C 
ENDBRANCH  12  17
ENDBRANCH  11  12
ENDBRANCH   1  11
TORSDOF 1
ENDMDL
MODEL 7
REMARK VINA RESULT:    -4.437      1.713      3.803
REMARK INTER + INTRA:          -6.665
REMARK INTER:                  -6.610
REMARK INTRA:                  -0.055
REMARK UNBOUND:                 0.106
REMARK SMILES CC1=CCC[C@H](C)C(=O)C[C@H](C(C)C)C(=O)C1
REMARK SMILES IDX 8 1 9 2 6 3 7 4 5 5 4 6 3 7 2 8 1 9 10 11 11 12 15 13 16 14
REMARK SMILES IDX 17 15 12 17 13 18 14 19
REMARK H PARENT
REMARK Flexibility Score: 70.00
ROOT
ATOM      1  C   UNL     1      -8.872  32.407  42.007  1.00  0.00     0.136 C 
ATOM      2  O   UNL     1      -9.417  31.691  42.835  1.00  0.00    -0.299 OA
ENDROOT
BRANCH   1   3
ATOM      3  C   UNL     1      -9.160  33.904  42.058  1.00  0.00     0.053 C 
ATOM      4  C   UNL     1      -7.945  34.793  42.379  1.00  0.00     0.016 C 
BRANCH   3   5
ATOM      5  C   UNL     1      -9.909  34.406  40.796  1.00  0.00     0.015 C 
BRANCH   5   6
ATOM      6  C   UNL     1      -9.007  34.905  39.649  1.00  0.00     0.028 C 
BRANCH   6   7
ATOM      7  C   UNL     1      -9.491  34.399  38.309  1.00  0.00    -0.028 C 
ATOM      8  C   UNL     1      -9.018  33.308  37.664  1.00  0.00    -0.070 CG0
ATOM      9  C   UNL     1      -9.619  32.961  36.326  1.00  0.00     0.039 C 
ATOM     10  G   UNL     1      -7.917  32.428  38.227  1.00  0.00     0.000 G0
ENDBRANCH   6   7
ENDBRANCH   5   6
ENDBRANCH   3   5
ENDBRANCH   1   3
BRANCH   1  11
ATOM     11  C   UNL     1      -7.896  31.752  41.045  1.00  0.00     0.087 C 
BRANCH  11  12
ATOM     12  C   UNL     1      -8.590  30.717  40.127  1.00  0.00     0.066 C 
BRANCH  12  13
ATOM     13  C   UNL     1      -8.374  31.064  38.661  1.00  0.00     0.140 C 
ATOM     14  O   UNL     1      -8.625  30.234  37.800  1.00  0.00    -0.299 OA
BRANCH  13  15
ATOM     15  C   UNL     1      -7.900  32.430  38.229  1.00  0.00     0.106 CG0
ATOM     16  G   UNL     1      -9.011  33.278  37.640  1.00  0.00     0.000 G0
ENDBRANCH  13  15
ENDBRANCH  12  13
BRANCH  12  17
ATOM     17  C   UNL     1      -8.174  29.253  40.470  1.00  0.00    -0.006 C 
ATOM     18  C   UNL     1      -9.357  28.303  40.732  1.00  0.00     0.008 C 
ATOM     19  C   UNL     1      -7.194  29.211  41.651  1.00  0.00     0.008 C 
ENDBRANCH  12  17
ENDBRANCH  11  12
ENDBRANCH   1  11
TORSDOF 1
ENDMDL
MODEL 8
REMARK VINA RESULT:    -4.001      1.839      4.357
REMARK INTER + INTRA:          -6.000
REMARK INTER:                  -7.528
REMARK INTRA:                   1.527
REMARK UNBOUND:                 0.106
REMARK SMILES CC1=CCC[C@H](C)C(=O)C[C@H](C(C)C)C(=O)C1
REMARK SMILES IDX 8 1 9 2 6 3 7 4 5 5 4 6 3 7 2 8 1 9 10 11 11 12 15 13 16 14
REMARK SMILES IDX 17 15 12 17 13 18 14 19
REMARK H PARENT
REMARK Flexibility Score: 70.00
ROOT
ATOM      1  C   UNL     1      -8.406  30.147  41.791  1.00  0.00     0.136 C 
ATOM      2  O   UNL     1      -7.332  30.625  41.453  1.00  0.00    -0.299 OA
ENDROOT
BRANCH   1   3
ATOM      3  C   UNL     1      -8.519  29.570  43.199  1.00  0.00     0.053 C 
ATOM      4  C   UNL     1      -7.503  28.464  43.534  1.00  0.00     0.016 C 
BRANCH   3   5
ATOM      5  C   UNL     1      -8.535  30.672  44.290  1.00  0.00     0.015 C 
BRANCH   5   6
ATOM      6  C   UNL     1      -9.505  31.842  44.033  1.00  0.00     0.028 C 
BRANCH   6   7
ATOM      7  C   UNL     1      -8.758  33.110  43.684  1.00  0.00    -0.028 C 
ATOM      8  C   UNL     1      -8.806  33.747  42.492  1.00  0.00    -0.070 CG0
ATOM      9  C   UNL     1      -7.982  34.999  42.325  1.00  0.00     0.039 C 
ATOM     10  G   UNL     1      -9.644  33.258  41.326  1.00  0.00     0.000 G0
ENDBRANCH   6   7
ENDBRANCH   5   6
ENDBRANCH   3   5
ENDBRANCH   1   3
BRANCH   1  11
ATOM     11  C   UNL     1      -9.556  30.234  40.803  1.00  0.00     0.087 C 
BRANCH  11  12
ATOM     12  C   UNL     1      -9.271  31.244  39.665  1.00  0.00     0.066 C 
BRANCH  12  13
ATOM     13  C   UNL     1      -8.854  32.593  40.232  1.00  0.00     0.140 C 
ATOM     14  O   UNL     1      -7.869  33.160  39.783  1.00  0.00    -0.299 OA
BRANCH  13  15
ATOM     15  C   UNL     1      -9.653  33.285  41.309  1.00  0.00     0.106 CG0
ATOM     16  G   UNL     1      -8.799  33.731  42.480  1.00  0.00     0.000 G0
ENDBRANCH  13  15
ENDBRANCH  12  13
BRANCH  12  17
ATOM     17  C   UNL     1      -8.254  30.685  38.623  1.00  0.00    -0.006 C 
ATOM     18  C   UNL     1      -8.362  31.322  37.226  1.00  0.00     0.008 C 
ATOM     19  C   UNL     1      -8.349  29.156  38.512  1.00  0.00     0.008 C 
ENDBRANCH  12  17
ENDBRANCH  11  12
ENDBRANCH   1  11
TORSDOF 1
ENDMDL
MODEL 9
REMARK VINA RESULT:    -3.965      1.987      4.829
REMARK INTER + INTRA:          -5.945
REMARK INTER:                  -6.236
REMARK INTRA:                   0.291
REMARK UNBOUND:                 0.106
REMARK SMILES CC1=CCC[C@H](C)C(=O)C[C@H](C(C)C)C(=O)C1
REMARK SMILES IDX 8 1 9 2 6 3 7 4 5 5 4 6 3 7 2 8 1 9 10 11 11 12 15 13 16 14
REMARK SMILES IDX 17 15 12 17 13 18 14 19
REMARK H PARENT
REMARK Flexibility Score: 70.00
ROOT
ATOM      1  C   UNL     1      -9.069  33.320  41.569  1.00  0.00     0.136 C 
ATOM      2  O   UNL     1      -9.745  33.837  42.448  1.00  0.00    -0.299 OA
ENDROOT
BRANCH   1   3
ATOM      3  C   UNL     1      -7.661  32.859  41.930  1.00  0.00     0.053 C 
ATOM      4  C   UNL     1      -6.692  33.982  42.341  1.00  0.00     0.016 C 
BRANCH   3   5
ATOM      5  C   UNL     1      -7.663  31.707  42.969  1.00  0.00     0.015 C 
BRANCH   5   6
ATOM      6  C   UNL     1      -8.645  30.556  42.676  1.00  0.00     0.028 C 
BRANCH   6   7
ATOM      7  C   UNL     1      -8.031  29.531  41.750  1.00  0.00    -0.028 C 
ATOM      8  C   UNL     1      -8.317  29.388  40.436  1.00  0.00    -0.070 CG0
ATOM      9  C   UNL     1      -7.609  28.299  39.671  1.00  0.00     0.039 C 
ATOM     10  G   UNL     1      -9.312  30.270  39.706  1.00  0.00     0.000 G0
ENDBRANCH   6   7
ENDBRANCH   5   6
ENDBRANCH   3   5
ENDBRANCH   1   3
BRANCH   1  11
ATOM     11  C   UNL     1      -9.719  33.115  40.212  1.00  0.00     0.087 C 
BRANCH  11  12
ATOM     12  C   UNL     1      -8.679  32.808  39.108  1.00  0.00     0.066 C 
BRANCH  12  13
ATOM     13  C   UNL     1      -8.651  31.320  38.790  1.00  0.00     0.140 C 
ATOM     14  O   UNL     1      -8.039  30.922  37.810  1.00  0.00    -0.299 OA
BRANCH  13  15
ATOM     15  C   UNL     1      -9.322  30.304  39.681  1.00  0.00     0.106 CG0
ATOM     16  G   UNL     1      -8.332  29.405  40.397  1.00  0.00     0.000 G0
ENDBRANCH  13  15
ENDBRANCH  12  13
BRANCH  12  17
ATOM     17  C   UNL     1      -8.885  33.694  37.840  1.00  0.00    -0.006 C 
ATOM     18  C   UNL     1      -9.411  35.110  38.134  1.00  0.00     0.008 C 
ATOM     19  C   UNL     1      -9.792  32.999  36.814  1.00  0.00     0.008 C 
ENDBRANCH  12  17
ENDBRANCH  11  12
ENDBRANCH   1  11
TORSDOF 1
ENDMDL
