MODEL 1
REMARK VINA RESULT:    -4.091      0.000      0.000
REMARK INTER + INTRA:         -11.064
REMARK INTER:                  -9.353
REMARK INTRA:                  -1.711
REMARK UNBOUND:                -1.711
REMARK SMILES CCCCCCCCCCCCCCCCCCCCCCCC(=O)[O-]
REMARK SMILES IDX 13 1 14 2 15 3 16 4 17 5 18 6 19 7 20 8 21 9 22 10 23 11
REMARK SMILES IDX 24 12 25 13 26 14 12 15 11 16 10 17 9 18 8 19 7 20 6 21 5 22
REMARK SMILES IDX 4 23 3 24 2 25 1 26
REMARK H PARENT
REMARK Flexibility Score: inf
ROOT
ATOM      1  C   UNL     1      -4.237   1.306   9.911  1.00  0.00     0.000 C 
ENDROOT
BRANCH   1   2
ATOM      2  C   UNL     1      -5.178   0.406   9.097  1.00  0.00     0.000 C 
BRANCH   2   3
ATOM      3  C   UNL     1      -6.646   0.853   9.185  1.00  0.00     0.000 C 
BRANCH   3   4
ATOM      4  C   UNL     1      -6.832   2.120  10.039  1.00  0.00     0.000 C 
BRANCH   4   5
ATOM      5  C   UNL     1      -7.328   3.317   9.200  1.00  0.00     0.000 C 
BRANCH   5   6
ATOM      6  C   UNL     1      -6.715   4.665   9.621  1.00  0.00     0.000 C 
BRANCH   6   7
ATOM      7  C   UNL     1      -5.588   5.129   8.684  1.00  0.00     0.000 C 
BRANCH   7   8
ATOM      8  C   UNL     1      -5.707   6.617   8.317  1.00  0.00     0.000 C 
BRANCH   8   9
ATOM      9  C   UNL     1      -7.081   6.968   7.727  1.00  0.00     0.000 C 
BRANCH   9  10
ATOM     10  C   UNL     1      -7.007   7.085   6.199  1.00  0.00     0.006 C 
BRANCH  10  11
ATOM     11  C   UNL     1      -8.298   7.682   5.630  1.00  0.00     0.053 C 
BRANCH  11  12
ATOM     12  C   UNL     1      -8.072   9.095   5.191  1.00  0.00     0.041 C 
ATOM     13  O   UNL     1      -8.515   9.492   4.081  1.00  0.00    -0.550 OA
ATOM     14  O   UNL     1      -7.335   9.962   5.988  1.00  0.00    -0.550 OA
ENDBRANCH  11  12
ENDBRANCH  10  11
ENDBRANCH   9  10
ENDBRANCH   8   9
ENDBRANCH   7   8
ENDBRANCH   6   7
ENDBRANCH   5   6
ENDBRANCH   4   5
ENDBRANCH   3   4
ENDBRANCH   2   3
ENDBRANCH   1   2
BRANCH   1  15
ATOM     15  C   UNL     1      -3.456   2.254   8.993  1.00  0.00     0.000 C 
BRANCH  15  16
ATOM     16  C   UNL     1      -1.962   2.250   9.341  1.00  0.00     0.000 C 
BRANCH  16  17
ATOM     17  C   UNL     1      -1.527   3.611   9.904  1.00  0.00     0.000 C 
BRANCH  17  18
ATOM     18  C   UNL     1      -1.784   4.773   8.928  1.00  0.00    -0.000 C 
BRANCH  18  19
ATOM     19  C   UNL     1      -1.503   6.180   9.494  1.00  0.00    -0.000 C 
BRANCH  19  20
ATOM     20  C   UNL     1      -0.623   7.083   8.610  1.00  0.00    -0.000 C 
BRANCH  20  21
ATOM     21  C   UNL     1      -0.161   8.360   9.331  1.00  0.00    -0.000 C 
BRANCH  21  22
ATOM     22  C   UNL     1       0.890   9.150   8.530  1.00  0.00    -0.000 C 
BRANCH  22  23
ATOM     23  C   UNL     1       1.528   8.386   7.353  1.00  0.00    -0.000 C 
BRANCH  23  24
ATOM     24  C   UNL     1       3.031   8.082   7.506  1.00  0.00    -0.000 C 
BRANCH  24  25
ATOM     25  C   UNL     1       3.888   9.277   7.960  1.00  0.00    -0.003 C 
ATOM     26  C   UNL     1       5.204   8.853   8.612  1.00  0.00     0.004 C 
ENDBRANCH  24  25
ENDBRANCH  23  24
ENDBRANCH  22  23
ENDBRANCH  21  22
ENDBRANCH  20  21
ENDBRANCH  19  20
ENDBRANCH  18  19
ENDBRANCH  17  18
ENDBRANCH  16  17
ENDBRANCH  15  16
ENDBRANCH   1  15
TORSDOF 22
ENDMDL
MODEL 2
REMARK VINA RESULT:    -4.030      3.654      8.710
REMARK INTER + INTRA:         -10.924
REMARK INTER:                  -8.416
REMARK INTRA:                  -2.509
REMARK UNBOUND:                -1.711
REMARK SMILES CCCCCCCCCCCCCCCCCCCCCCCC(=O)[O-]
REMARK SMILES IDX 13 1 14 2 15 3 16 4 17 5 18 6 19 7 20 8 21 9 22 10 23 11
REMARK SMILES IDX 24 12 25 13 26 14 12 15 11 16 10 17 9 18 8 19 7 20 6 21 5 22
REMARK SMILES IDX 4 23 3 24 2 25 1 26
REMARK H PARENT
REMARK Flexibility Score: inf
ROOT
ATOM      1  C   UNL     1      -2.645   2.176   9.751  1.00  0.00     0.000 C 
ENDROOT
BRANCH   1   2
ATOM      2  C   UNL     1      -1.542   3.009   9.081  1.00  0.00     0.000 C 
BRANCH   2   3
ATOM      3  C   UNL     1      -0.468   3.475  10.076  1.00  0.00     0.000 C 
BRANCH   3   4
ATOM      4  C   UNL     1      -0.291   5.005  10.087  1.00  0.00     0.000 C 
BRANCH   4   5
ATOM      5  C   UNL     1      -1.110   5.692   8.974  1.00  0.00     0.000 C 
BRANCH   5   6
ATOM      6  C   UNL     1      -1.956   6.878   9.470  1.00  0.00     0.000 C 
BRANCH   6   7
ATOM      7  C   UNL     1      -1.245   8.231   9.305  1.00  0.00     0.000 C 
BRANCH   7   8
ATOM      8  C   UNL     1      -0.144   8.187   8.233  1.00  0.00     0.000 C 
BRANCH   8   9
ATOM      9  C   UNL     1       1.088   9.017   8.623  1.00  0.00     0.000 C 
BRANCH   9  10
ATOM     10  C   UNL     1       2.133   8.146   9.332  1.00  0.00     0.006 C 
BRANCH  10  11
ATOM     11  C   UNL     1       3.524   8.783   9.255  1.00  0.00     0.053 C 
BRANCH  11  12
ATOM     12  C   UNL     1       4.260   8.288   8.050  1.00  0.00     0.041 C 
ATOM     13  O   UNL     1       5.472   8.585   7.881  1.00  0.00    -0.550 OA
ATOM     14  O   UNL     1       3.596   7.532   7.091  1.00  0.00    -0.550 OA
ENDBRANCH  11  12
ENDBRANCH  10  11
ENDBRANCH   9  10
ENDBRANCH   8   9
ENDBRANCH   7   8
ENDBRANCH   6   7
ENDBRANCH   5   6
ENDBRANCH   4   5
ENDBRANCH   3   4
ENDBRANCH   2   3
ENDBRANCH   1   2
BRANCH   1  15
ATOM     15  C   UNL     1      -4.025   2.543   9.191  1.00  0.00     0.000 C 
BRANCH  15  16
ATOM     16  C   UNL     1      -4.586   3.791   9.885  1.00  0.00     0.000 C 
BRANCH  16  17
ATOM     17  C   UNL     1      -5.107   4.803   8.855  1.00  0.00     0.000 C 
BRANCH  17  18
ATOM     18  C   UNL     1      -5.722   6.056   9.505  1.00  0.00    -0.000 C 
BRANCH  18  19
ATOM     19  C   UNL     1      -5.410   7.387   8.790  1.00  0.00    -0.000 C 
BRANCH  19  20
ATOM     20  C   UNL     1      -6.475   8.488   8.953  1.00  0.00    -0.000 C 
BRANCH  20  21
ATOM     21  C   UNL     1      -7.456   8.551   7.771  1.00  0.00    -0.000 C 
BRANCH  21  22
ATOM     22  C   UNL     1      -7.061   7.613   6.617  1.00  0.00    -0.000 C 
BRANCH  22  23
ATOM     23  C   UNL     1      -8.224   7.167   5.707  1.00  0.00    -0.000 C 
BRANCH  23  24
ATOM     24  C   UNL     1      -9.482   6.672   6.447  1.00  0.00    -0.000 C 
BRANCH  24  25
ATOM     25  C   UNL     1      -9.403   5.222   6.957  1.00  0.00    -0.003 C 
ATOM     26  C   UNL     1      -9.315   5.130   8.480  1.00  0.00     0.004 C 
ENDBRANCH  24  25
ENDBRANCH  23  24
ENDBRANCH  22  23
ENDBRANCH  21  22
ENDBRANCH  20  21
ENDBRANCH  19  20
ENDBRANCH  18  19
ENDBRANCH  17  18
ENDBRANCH  16  17
ENDBRANCH  15  16
ENDBRANCH   1  15
TORSDOF 22
ENDMDL
MODEL 3
REMARK VINA RESULT:    -3.862      3.498      8.142
REMARK INTER + INTRA:         -10.540
REMARK INTER:                  -8.297
REMARK INTRA:                  -2.244
REMARK UNBOUND:                -1.711
REMARK SMILES CCCCCCCCCCCCCCCCCCCCCCCC(=O)[O-]
REMARK SMILES IDX 13 1 14 2 15 3 16 4 17 5 18 6 19 7 20 8 21 9 22 10 23 11
REMARK SMILES IDX 24 12 25 13 26 14 12 15 11 16 10 17 9 18 8 19 7 20 6 21 5 22
REMARK SMILES IDX 4 23 3 24 2 25 1 26
REMARK H PARENT
REMARK Flexibility Score: inf
ROOT
ATOM      1  C   UNL     1      -3.687   1.682   9.969  1.00  0.00     0.000 C 
ENDROOT
BRANCH   1   2
ATOM      2  C   UNL     1      -2.535   2.014   9.009  1.00  0.00     0.000 C 
BRANCH   2   3
ATOM      3  C   UNL     1      -1.527   3.003   9.615  1.00  0.00     0.000 C 
BRANCH   3   4
ATOM      4  C   UNL     1      -1.610   4.402   8.979  1.00  0.00     0.000 C 
BRANCH   4   5
ATOM      5  C   UNL     1      -2.870   5.170   9.429  1.00  0.00     0.000 C 
BRANCH   5   6
ATOM      6  C   UNL     1      -2.617   6.661   9.716  1.00  0.00     0.000 C 
BRANCH   6   7
ATOM      7  C   UNL     1      -1.122   7.013   9.781  1.00  0.00     0.000 C 
BRANCH   7   8
ATOM      8  C   UNL     1      -0.722   8.069   8.738  1.00  0.00     0.000 C 
BRANCH   8   9
ATOM      9  C   UNL     1      -0.080   9.310   9.376  1.00  0.00     0.000 C 
BRANCH   9  10
ATOM     10  C   UNL     1       1.283   9.609   8.741  1.00  0.00     0.006 C 
BRANCH  10  11
ATOM     11  C   UNL     1       1.675   8.518   7.739  1.00  0.00     0.053 C 
BRANCH  11  12
ATOM     12  C   UNL     1       3.155   8.520   7.516  1.00  0.00     0.041 C 
ATOM     13  O   UNL     1       3.740   7.471   7.135  1.00  0.00    -0.550 OA
ATOM     14  O   UNL     1       3.895   9.668   7.769  1.00  0.00    -0.550 OA
ENDBRANCH  11  12
ENDBRANCH  10  11
ENDBRANCH   9  10
ENDBRANCH   8   9
ENDBRANCH   7   8
ENDBRANCH   6   7
ENDBRANCH   5   6
ENDBRANCH   4   5
ENDBRANCH   3   4
ENDBRANCH   2   3
ENDBRANCH   1   2
BRANCH   1  15
ATOM     15  C   UNL     1      -4.908   1.162   9.201  1.00  0.00     0.000 C 
BRANCH  15  16
ATOM     16  C   UNL     1      -6.201   1.416   9.986  1.00  0.00     0.000 C 
BRANCH  16  17
ATOM     17  C   UNL     1      -7.282   2.021   9.080  1.00  0.00     0.000 C 
BRANCH  17  18
ATOM     18  C   UNL     1      -7.607   3.484   9.432  1.00  0.00    -0.000 C 
BRANCH  18  19
ATOM     19  C   UNL     1      -6.536   4.513   9.014  1.00  0.00    -0.000 C 
BRANCH  19  20
ATOM     20  C   UNL     1      -6.556   5.840   9.795  1.00  0.00    -0.000 C 
BRANCH  20  21
ATOM     21  C   UNL     1      -6.124   7.044   8.942  1.00  0.00    -0.000 C 
BRANCH  21  22
ATOM     22  C   UNL     1      -7.314   7.773   8.292  1.00  0.00    -0.000 C 
BRANCH  22  23
ATOM     23  C   UNL     1      -7.173   8.041   6.780  1.00  0.00    -0.000 C 
BRANCH  23  24
ATOM     24  C   UNL     1      -7.937   7.062   5.867  1.00  0.00    -0.000 C 
BRANCH  24  25
ATOM     25  C   UNL     1      -9.359   6.715   6.340  1.00  0.00    -0.003 C 
ATOM     26  C   UNL     1      -9.497   5.265   6.801  1.00  0.00     0.004 C 
ENDBRANCH  24  25
ENDBRANCH  23  24
ENDBRANCH  22  23
ENDBRANCH  21  22
ENDBRANCH  20  21
ENDBRANCH  19  20
ENDBRANCH  18  19
ENDBRANCH  17  18
ENDBRANCH  16  17
ENDBRANCH  15  16
ENDBRANCH   1  15
TORSDOF 22
ENDMDL
MODEL 4
REMARK VINA RESULT:    -3.804      3.475      7.827
REMARK INTER + INTRA:         -10.407
REMARK INTER:                  -7.841
REMARK INTRA:                  -2.566
REMARK UNBOUND:                -1.711
REMARK SMILES CCCCCCCCCCCCCCCCCCCCCCCC(=O)[O-]
REMARK SMILES IDX 13 1 14 2 15 3 16 4 17 5 18 6 19 7 20 8 21 9 22 10 23 11
REMARK SMILES IDX 24 12 25 13 26 14 12 15 11 16 10 17 9 18 8 19 7 20 6 21 5 22
REMARK SMILES IDX 4 23 3 24 2 25 1 26
REMARK H PARENT
REMARK Flexibility Score: inf
ROOT
ATOM      1  C   UNL     1      -2.586   1.929   9.521  1.00  0.00     0.000 C 
ENDROOT
BRANCH   1   2
ATOM      2  C   UNL     1      -1.676   3.057   9.012  1.00  0.00     0.000 C 
BRANCH   2   3
ATOM      3  C   UNL     1      -1.264   4.033  10.125  1.00  0.00     0.000 C 
BRANCH   3   4
ATOM      4  C   UNL     1      -0.394   5.192   9.608  1.00  0.00     0.000 C 
BRANCH   4   5
ATOM      5  C   UNL     1      -1.240   6.315   8.972  1.00  0.00     0.000 C 
BRANCH   5   6
ATOM      6  C   UNL     1      -2.340   6.862   9.899  1.00  0.00     0.000 C 
BRANCH   6   7
ATOM      7  C   UNL     1      -2.411   8.398   9.903  1.00  0.00     0.000 C 
BRANCH   7   8
ATOM      8  C   UNL     1      -1.477   9.030   8.858  1.00  0.00     0.000 C 
BRANCH   8   9
ATOM      9  C   UNL     1      -0.362   9.869   9.498  1.00  0.00     0.000 C 
BRANCH   9  10
ATOM     10  C   UNL     1       1.003   9.191   9.324  1.00  0.00     0.006 C 
BRANCH  10  11
ATOM     11  C   UNL     1       1.202   8.719   7.881  1.00  0.00     0.053 C 
BRANCH  11  12
ATOM     12  C   UNL     1       2.631   8.883   7.469  1.00  0.00     0.041 C 
ATOM     13  O   UNL     1       3.150  10.030   7.422  1.00  0.00    -0.550 OA
ATOM     14  O   UNL     1       3.379   7.774   7.094  1.00  0.00    -0.550 OA
ENDBRANCH  11  12
ENDBRANCH  10  11
ENDBRANCH   9  10
ENDBRANCH   8   9
ENDBRANCH   7   8
ENDBRANCH   6   7
ENDBRANCH   5   6
ENDBRANCH   4   5
ENDBRANCH   3   4
ENDBRANCH   2   3
ENDBRANCH   1   2
BRANCH   1  15
ATOM     15  C   UNL     1      -4.050   2.198   9.155  1.00  0.00     0.000 C 
BRANCH  15  16
ATOM     16  C   UNL     1      -4.635   3.324  10.018  1.00  0.00     0.000 C 
BRANCH  16  17
ATOM     17  C   UNL     1      -5.594   4.200   9.199  1.00  0.00     0.000 C 
BRANCH  17  18
ATOM     18  C   UNL     1      -7.040   4.160   9.728  1.00  0.00    -0.000 C 
BRANCH  18  19
ATOM     19  C   UNL     1      -8.070   3.520   8.775  1.00  0.00    -0.000 C 
BRANCH  19  20
ATOM     20  C   UNL     1      -9.040   4.504   8.096  1.00  0.00    -0.000 C 
BRANCH  20  21
ATOM     21  C   UNL     1      -8.688   5.976   8.367  1.00  0.00    -0.000 C 
BRANCH  21  22
ATOM     22  C   UNL     1      -8.251   6.728   7.097  1.00  0.00    -0.000 C 
BRANCH  22  23
ATOM     23  C   UNL     1      -6.779   7.189   7.083  1.00  0.00    -0.000 C 
BRANCH  23  24
ATOM     24  C   UNL     1      -6.203   7.586   8.456  1.00  0.00    -0.000 C 
BRANCH  24  25
ATOM     25  C   UNL     1      -5.769   9.058   8.573  1.00  0.00    -0.003 C 
ATOM     26  C   UNL     1      -6.441   9.961   7.539  1.00  0.00     0.004 C 
ENDBRANCH  24  25
ENDBRANCH  23  24
ENDBRANCH  22  23
ENDBRANCH  21  22
ENDBRANCH  20  21
ENDBRANCH  19  20
ENDBRANCH  18  19
ENDBRANCH  17  18
ENDBRANCH  16  17
ENDBRANCH  15  16
ENDBRANCH   1  15
TORSDOF 22
ENDMDL
MODEL 5
REMARK VINA RESULT:    -3.720      1.348      2.780
REMARK INTER + INTRA:         -10.215
REMARK INTER:                  -7.976
REMARK INTRA:                  -2.239
REMARK UNBOUND:                -1.711
REMARK SMILES CCCCCCCCCCCCCCCCCCCCCCCC(=O)[O-]
REMARK SMILES IDX 13 1 14 2 15 3 16 4 17 5 18 6 19 7 20 8 21 9 22 10 23 11
REMARK SMILES IDX 24 12 25 13 26 14 12 15 11 16 10 17 9 18 8 19 7 20 6 21 5 22
REMARK SMILES IDX 4 23 3 24 2 25 1 26
REMARK H PARENT
REMARK Flexibility Score: inf
ROOT
ATOM      1  C   UNL     1      -1.520   2.736   9.491  1.00  0.00     0.000 C 
ENDROOT
BRANCH   1   2
ATOM      2  C   UNL     1      -3.001   2.592   9.871  1.00  0.00     0.000 C 
BRANCH   2   3
ATOM      3  C   UNL     1      -3.707   1.477   9.084  1.00  0.00     0.000 C 
BRANCH   3   4
ATOM      4  C   UNL     1      -4.841   0.811   9.883  1.00  0.00     0.000 C 
BRANCH   4   5
ATOM      5  C   UNL     1      -6.014   0.379   8.978  1.00  0.00     0.000 C 
BRANCH   5   6
ATOM      6  C   UNL     1      -7.260   1.274   9.110  1.00  0.00     0.000 C 
BRANCH   6   7
ATOM      7  C   UNL     1      -7.044   2.464  10.059  1.00  0.00     0.000 C 
BRANCH   7   8
ATOM      8  C   UNL     1      -7.104   3.815   9.328  1.00  0.00     0.000 C 
BRANCH   8   9
ATOM      9  C   UNL     1      -5.765   4.567   9.375  1.00  0.00     0.000 C 
BRANCH   9  10
ATOM     10  C   UNL     1      -5.677   5.599   8.244  1.00  0.00     0.006 C 
BRANCH  10  11
ATOM     11  C   UNL     1      -6.654   6.756   8.477  1.00  0.00     0.053 C 
BRANCH  11  12
ATOM     12  C   UNL     1      -7.521   6.960   7.274  1.00  0.00     0.041 C 
ATOM     13  O   UNL     1      -8.520   6.219   7.080  1.00  0.00    -0.550 OA
ATOM     14  O   UNL     1      -7.199   7.941   6.345  1.00  0.00    -0.550 OA
ENDBRANCH  11  12
ENDBRANCH  10  11
ENDBRANCH   9  10
ENDBRANCH   8   9
ENDBRANCH   7   8
ENDBRANCH   6   7
ENDBRANCH   5   6
ENDBRANCH   4   5
ENDBRANCH   3   4
ENDBRANCH   2   3
ENDBRANCH   1   2
BRANCH   1  15
ATOM     15  C   UNL     1      -1.039   4.178   9.696  1.00  0.00     0.000 C 
BRANCH  15  16
ATOM     16  C   UNL     1      -1.954   5.171   8.969  1.00  0.00     0.000 C 
BRANCH  16  17
ATOM     17  C   UNL     1      -2.555   6.185   9.954  1.00  0.00     0.000 C 
BRANCH  17  18
ATOM     18  C   UNL     1      -1.714   7.468  10.079  1.00  0.00    -0.000 C 
BRANCH  18  19
ATOM     19  C   UNL     1      -2.447   8.773   9.707  1.00  0.00    -0.000 C 
BRANCH  19  20
ATOM     20  C   UNL     1      -1.537   9.969   9.374  1.00  0.00    -0.000 C 
BRANCH  20  21
ATOM     21  C   UNL     1      -0.071   9.737   9.777  1.00  0.00    -0.000 C 
BRANCH  21  22
ATOM     22  C   UNL     1       0.887   9.744   8.572  1.00  0.00    -0.000 C 
BRANCH  22  23
ATOM     23  C   UNL     1       1.261   8.352   8.023  1.00  0.00    -0.000 C 
BRANCH  23  24
ATOM     24  C   UNL     1       2.578   7.765   8.569  1.00  0.00    -0.000 C 
BRANCH  24  25
ATOM     25  C   UNL     1       3.792   7.931   7.638  1.00  0.00    -0.003 C 
ATOM     26  C   UNL     1       5.002   8.547   8.341  1.00  0.00     0.004 C 
ENDBRANCH  24  25
ENDBRANCH  23  24
ENDBRANCH  22  23
ENDBRANCH  21  22
ENDBRANCH  20  21
ENDBRANCH  19  20
ENDBRANCH  18  19
ENDBRANCH  17  18
ENDBRANCH  16  17
ENDBRANCH  15  16
ENDBRANCH   1  15
TORSDOF 22
ENDMDL
MODEL 6
REMARK VINA RESULT:    -3.675      3.747      9.189
REMARK INTER + INTRA:         -10.112
REMARK INTER:                  -7.423
REMARK INTRA:                  -2.689
REMARK UNBOUND:                -1.711
REMARK SMILES CCCCCCCCCCCCCCCCCCCCCCCC(=O)[O-]
REMARK SMILES IDX 13 1 14 2 15 3 16 4 17 5 18 6 19 7 20 8 21 9 22 10 23 11
REMARK SMILES IDX 24 12 25 13 26 14 12 15 11 16 10 17 9 18 8 19 7 20 6 21 5 22
REMARK SMILES IDX 4 23 3 24 2 25 1 26
REMARK H PARENT
REMARK Flexibility Score: inf
ROOT
ATOM      1  C   UNL     1      -5.481   6.321   8.881  1.00  0.00     0.000 C 
ENDROOT
BRANCH   1   2
ATOM      2  C   UNL     1      -4.381   5.269   8.676  1.00  0.00     0.000 C 
BRANCH   2   3
ATOM      3  C   UNL     1      -3.661   4.904   9.984  1.00  0.00     0.000 C 
BRANCH   3   4
ATOM      4  C   UNL     1      -2.226   4.396   9.751  1.00  0.00     0.000 C 
BRANCH   4   5
ATOM      5  C   UNL     1      -1.481   5.227   8.685  1.00  0.00     0.000 C 
BRANCH   5   6
ATOM      6  C   UNL     1      -0.556   6.305   9.276  1.00  0.00     0.000 C 
BRANCH   6   7
ATOM      7  C   UNL     1      -1.133   7.725   9.151  1.00  0.00     0.000 C 
BRANCH   7   8
ATOM      8  C   UNL     1      -0.224   8.657   8.334  1.00  0.00     0.000 C 
BRANCH   8   9
ATOM      9  C   UNL     1       0.551   7.909   7.239  1.00  0.00     0.000 C 
BRANCH   9  10
ATOM     10  C   UNL     1       1.828   8.667   6.857  1.00  0.00     0.006 C 
BRANCH  10  11
ATOM     11  C   UNL     1       2.504   9.265   8.094  1.00  0.00     0.053 C 
BRANCH  11  12
ATOM     12  C   UNL     1       3.465   8.285   8.691  1.00  0.00     0.041 C 
ATOM     13  O   UNL     1       4.653   8.229   8.278  1.00  0.00    -0.550 OA
ATOM     14  O   UNL     1       3.035   7.402   9.674  1.00  0.00    -0.550 OA
ENDBRANCH  11  12
ENDBRANCH  10  11
ENDBRANCH   9  10
ENDBRANCH   8   9
ENDBRANCH   7   8
ENDBRANCH   6   7
ENDBRANCH   5   6
ENDBRANCH   4   5
ENDBRANCH   3   4
ENDBRANCH   2   3
ENDBRANCH   1   2
BRANCH   1  15
ATOM     15  C   UNL     1      -4.918   7.579   9.552  1.00  0.00     0.000 C 
BRANCH  15  16
ATOM     16  C   UNL     1      -5.392   8.847   8.830  1.00  0.00     0.000 C 
BRANCH  16  17
ATOM     17  C   UNL     1      -6.876   8.740   8.452  1.00  0.00     0.000 C 
BRANCH  17  18
ATOM     18  C   UNL     1      -7.144   9.090   6.977  1.00  0.00    -0.000 C 
BRANCH  18  19
ATOM     19  C   UNL     1      -7.467   7.889   6.064  1.00  0.00    -0.000 C 
BRANCH  19  20
ATOM     20  C   UNL     1      -8.948   7.742   5.668  1.00  0.00    -0.000 C 
BRANCH  20  21
ATOM     21  C   UNL     1      -9.788   7.034   6.742  1.00  0.00    -0.000 C 
BRANCH  21  22
ATOM     22  C   UNL     1      -9.072   5.817   7.355  1.00  0.00    -0.000 C 
BRANCH  22  23
ATOM     23  C   UNL     1      -9.003   5.803   8.895  1.00  0.00    -0.000 C 
BRANCH  23  24
ATOM     24  C   UNL     1      -8.855   4.407   9.532  1.00  0.00    -0.000 C 
BRANCH  24  25
ATOM     25  C   UNL     1      -8.360   3.310   8.573  1.00  0.00    -0.003 C 
ATOM     26  C   UNL     1      -7.881   2.054   9.302  1.00  0.00     0.004 C 
ENDBRANCH  24  25
ENDBRANCH  23  24
ENDBRANCH  22  23
ENDBRANCH  21  22
ENDBRANCH  20  21
ENDBRANCH  19  20
ENDBRANCH  18  19
ENDBRANCH  17  18
ENDBRANCH  16  17
ENDBRANCH  15  16
ENDBRANCH   1  15
TORSDOF 22
ENDMDL
MODEL 7
REMARK VINA RESULT:    -3.658      1.631      2.667
REMARK INTER + INTRA:         -10.074
REMARK INTER:                  -8.202
REMARK INTRA:                  -1.872
REMARK UNBOUND:                -1.711
REMARK SMILES CCCCCCCCCCCCCCCCCCCCCCCC(=O)[O-]
REMARK SMILES IDX 13 1 14 2 15 3 16 4 17 5 18 6 19 7 20 8 21 9 22 10 23 11
REMARK SMILES IDX 24 12 25 13 26 14 12 15 11 16 10 17 9 18 8 19 7 20 6 21 5 22
REMARK SMILES IDX 4 23 3 24 2 25 1 26
REMARK H PARENT
REMARK Flexibility Score: inf
ROOT
ATOM      1  C   UNL     1      -2.879   2.857   9.604  1.00  0.00     0.000 C 
ENDROOT
BRANCH   1   2
ATOM      2  C   UNL     1      -3.328   1.520   8.995  1.00  0.00     0.000 C 
BRANCH   2   3
ATOM      3  C   UNL     1      -4.497   0.884   9.763  1.00  0.00     0.000 C 
BRANCH   3   4
ATOM      4  C   UNL     1      -5.569   0.291   8.831  1.00  0.00     0.000 C 
BRANCH   4   5
ATOM      5  C   UNL     1      -6.998   0.673   9.271  1.00  0.00     0.000 C 
BRANCH   5   6
ATOM      6  C   UNL     1      -7.084   2.040   9.974  1.00  0.00     0.000 C 
BRANCH   6   7
ATOM      7  C   UNL     1      -8.445   2.728   9.778  1.00  0.00     0.000 C 
BRANCH   7   8
ATOM      8  C   UNL     1      -8.616   3.297   8.360  1.00  0.00     0.000 C 
BRANCH   8   9
ATOM      9  C   UNL     1      -9.358   4.641   8.352  1.00  0.00     0.000 C 
BRANCH   9  10
ATOM     10  C   UNL     1      -8.505   5.735   7.698  1.00  0.00     0.006 C 
BRANCH  10  11
ATOM     11  C   UNL     1      -7.453   6.269   8.675  1.00  0.00     0.053 C 
BRANCH  11  12
ATOM     12  C   UNL     1      -6.680   7.388   8.051  1.00  0.00     0.041 C 
ATOM     13  O   UNL     1      -6.960   7.781   6.888  1.00  0.00    -0.550 OA
ATOM     14  O   UNL     1      -5.622   7.970   8.739  1.00  0.00    -0.550 OA
ENDBRANCH  11  12
ENDBRANCH  10  11
ENDBRANCH   9  10
ENDBRANCH   8   9
ENDBRANCH   7   8
ENDBRANCH   6   7
ENDBRANCH   5   6
ENDBRANCH   4   5
ENDBRANCH   3   4
ENDBRANCH   2   3
ENDBRANCH   1   2
BRANCH   1  15
ATOM     15  C   UNL     1      -4.008   3.893   9.545  1.00  0.00     0.000 C 
BRANCH  15  16
ATOM     16  C   UNL     1      -3.455   5.293   9.252  1.00  0.00     0.000 C 
BRANCH  16  17
ATOM     17  C   UNL     1      -1.940   5.245   9.008  1.00  0.00     0.000 C 
BRANCH  17  18
ATOM     18  C   UNL     1      -1.189   6.411   9.675  1.00  0.00    -0.000 C 
BRANCH  18  19
ATOM     19  C   UNL     1       0.149   6.795   9.010  1.00  0.00    -0.000 C 
BRANCH  19  20
ATOM     20  C   UNL     1       0.065   7.919   7.961  1.00  0.00    -0.000 C 
BRANCH  20  21
ATOM     21  C   UNL     1       1.190   8.957   8.103  1.00  0.00    -0.000 C 
BRANCH  21  22
ATOM     22  C   UNL     1       2.319   8.758   7.075  1.00  0.00    -0.000 C 
BRANCH  22  23
ATOM     23  C   UNL     1       3.465   7.832   7.531  1.00  0.00    -0.000 C 
BRANCH  23  24
ATOM     24  C   UNL     1       4.000   8.101   8.951  1.00  0.00    -0.000 C 
BRANCH  24  25
ATOM     25  C   UNL     1       4.897   9.344   9.078  1.00  0.00    -0.003 C 
ATOM     26  C   UNL     1       6.019   9.379   8.041  1.00  0.00     0.004 C 
ENDBRANCH  24  25
ENDBRANCH  23  24
ENDBRANCH  22  23
ENDBRANCH  21  22
ENDBRANCH  20  21
ENDBRANCH  19  20
ENDBRANCH  18  19
ENDBRANCH  17  18
ENDBRANCH  16  17
ENDBRANCH  15  16
ENDBRANCH   1  15
TORSDOF 22
ENDMDL
MODEL 8
REMARK VINA RESULT:    -3.591      4.064      9.045
REMARK INTER + INTRA:          -9.921
REMARK INTER:                  -8.104
REMARK INTRA:                  -1.818
REMARK UNBOUND:                -1.711
REMARK SMILES CCCCCCCCCCCCCCCCCCCCCCCC(=O)[O-]
REMARK SMILES IDX 13 1 14 2 15 3 16 4 17 5 18 6 19 7 20 8 21 9 22 10 23 11
REMARK SMILES IDX 24 12 25 13 26 14 12 15 11 16 10 17 9 18 8 19 7 20 6 21 5 22
REMARK SMILES IDX 4 23 3 24 2 25 1 26
REMARK H PARENT
REMARK Flexibility Score: inf
ROOT
ATOM      1  C   UNL     1      -4.284   2.939   9.032  1.00  0.00     0.000 C 
ENDROOT
BRANCH   1   2
ATOM      2  C   UNL     1      -3.199   3.951   9.427  1.00  0.00     0.000 C 
BRANCH   2   3
ATOM      3  C   UNL     1      -3.665   5.407   9.279  1.00  0.00     0.000 C 
BRANCH   3   4
ATOM      4  C   UNL     1      -2.512   6.418   9.415  1.00  0.00     0.000 C 
BRANCH   4   5
ATOM      5  C   UNL     1      -1.152   5.804   9.021  1.00  0.00     0.000 C 
BRANCH   5   6
ATOM      6  C   UNL     1       0.027   6.787   9.135  1.00  0.00     0.000 C 
BRANCH   6   7
ATOM      7  C   UNL     1       0.002   7.879   8.052  1.00  0.00     0.000 C 
BRANCH   7   8
ATOM      8  C   UNL     1       0.468   9.243   8.586  1.00  0.00     0.000 C 
BRANCH   8   9
ATOM      9  C   UNL     1       1.689   9.126   9.511  1.00  0.00     0.000 C 
BRANCH   9  10
ATOM     10  C   UNL     1       2.901   9.849   8.913  1.00  0.00     0.006 C 
BRANCH  10  11
ATOM     11  C   UNL     1       3.639   8.953   7.913  1.00  0.00     0.053 C 
BRANCH  11  12
ATOM     12  C   UNL     1       4.972   8.547   8.459  1.00  0.00     0.041 C 
ATOM     13  O   UNL     1       5.946   8.363   7.682  1.00  0.00    -0.550 OA
ATOM     14  O   UNL     1       5.128   8.330   9.822  1.00  0.00    -0.550 OA
ENDBRANCH  11  12
ENDBRANCH  10  11
ENDBRANCH   9  10
ENDBRANCH   8   9
ENDBRANCH   7   8
ENDBRANCH   6   7
ENDBRANCH   5   6
ENDBRANCH   4   5
ENDBRANCH   3   4
ENDBRANCH   2   3
ENDBRANCH   1   2
BRANCH   1  15
ATOM     15  C   UNL     1      -3.735   1.508   9.055  1.00  0.00     0.000 C 
BRANCH  15  16
ATOM     16  C   UNL     1      -4.873   0.480   9.018  1.00  0.00     0.000 C 
BRANCH  16  17
ATOM     17  C   UNL     1      -6.015   0.893   9.956  1.00  0.00     0.000 C 
BRANCH  17  18
ATOM     18  C   UNL     1      -7.341   1.140   9.213  1.00  0.00    -0.000 C 
BRANCH  18  19
ATOM     19  C   UNL     1      -7.955   2.541   9.413  1.00  0.00    -0.000 C 
BRANCH  19  20
ATOM     20  C   UNL     1      -8.901   3.012   8.293  1.00  0.00    -0.000 C 
BRANCH  20  21
ATOM     21  C   UNL     1      -8.940   4.542   8.146  1.00  0.00    -0.000 C 
BRANCH  21  22
ATOM     22  C   UNL     1      -7.608   5.212   8.528  1.00  0.00    -0.000 C 
BRANCH  22  23
ATOM     23  C   UNL     1      -7.553   6.737   8.305  1.00  0.00    -0.000 C 
BRANCH  23  24
ATOM     24  C   UNL     1      -6.733   7.191   7.081  1.00  0.00    -0.000 C 
BRANCH  24  25
ATOM     25  C   UNL     1      -7.501   7.177   5.748  1.00  0.00    -0.003 C 
ATOM     26  C   UNL     1      -8.982   7.520   5.910  1.00  0.00     0.004 C 
ENDBRANCH  24  25
ENDBRANCH  23  24
ENDBRANCH  22  23
ENDBRANCH  21  22
ENDBRANCH  20  21
ENDBRANCH  19  20
ENDBRANCH  18  19
ENDBRANCH  17  18
ENDBRANCH  16  17
ENDBRANCH  15  16
ENDBRANCH   1  15
TORSDOF 22
ENDMDL
