MODEL 1
REMARK VINA RESULT:    -2.795      0.000      0.000
REMARK INTER + INTRA:          -4.396
REMARK INTER:                  -3.775
REMARK INTRA:                  -0.621
REMARK UNBOUND:                -0.621
REMARK SMILES C[C@@H](O)[C@H](O)[C@@H](O)[C@H](O)C=O
REMARK SMILES IDX 4 1 2 2 1 3 3 4 6 6 8 7 10 8 11 9 9 10 7 12 5 14
REMARK H PARENT 3 5 9 11 7 13 5 15
REMARK Flexibility Score: inf
ROOT
ATOM      1  C   UNL     1      63.761 129.277  -6.391  1.00  0.00     0.174 C 
ENDROOT
BRANCH   1   2
ATOM      2  C   UNL     1      62.664 129.289  -7.486  1.00  0.00     0.142 C 
ATOM      3  C   UNL     1      61.456 128.442  -7.065  1.00  0.00     0.041 C 
BRANCH   2   4
ATOM      4  O   UNL     1      62.249 130.605  -7.751  1.00  0.00    -0.391 OA
ATOM      5  H   UNL     1      62.034 131.021  -6.875  1.00  0.00     0.211 HD
ENDBRANCH   2   4
ENDBRANCH   1   2
BRANCH   1   6
ATOM      6  C   UNL     1      64.704 128.048  -6.517  1.00  0.00     0.181 C 
BRANCH   6   7
ATOM      7  C   UNL     1      65.839 128.055  -5.459  1.00  0.00     0.209 C 
BRANCH   7   8
ATOM      8  C   UNL     1      67.122 128.555  -6.062  1.00  0.00     0.258 C 
ATOM      9  O   UNL     1      67.125 129.542  -6.781  1.00  0.00    -0.300 OA
ENDBRANCH   7   8
BRANCH   7  10
ATOM     10  O   UNL     1      65.503 128.874  -4.369  1.00  0.00    -0.383 OA
ATOM     11  H   UNL     1      65.192 129.743  -4.737  1.00  0.00     0.211 HD
ENDBRANCH   7  10
ENDBRANCH   6   7
BRANCH   6  12
ATOM     12  O   UNL     1      65.210 127.912  -7.824  1.00  0.00    -0.387 OA
ATOM     13  H   UNL     1      65.920 127.219  -7.811  1.00  0.00     0.211 HD
ENDBRANCH   6  12
ENDBRANCH   1   6
BRANCH   1  14
ATOM     14  O   UNL     1      64.484 130.487  -6.364  1.00  0.00    -0.388 OA
ATOM     15  H   UNL     1      63.930 131.188  -6.794  1.00  0.00     0.211 HD
ENDBRANCH   1  14
TORSDOF 8
ENDMDL
MODEL 2
REMARK VINA RESULT:    -2.156      1.529      4.140
REMARK INTER + INTRA:          -3.533
REMARK INTER:                  -2.787
REMARK INTRA:                  -0.746
REMARK UNBOUND:                -0.621
REMARK SMILES C[C@@H](O)[C@H](O)[C@@H](O)[C@H](O)C=O
REMARK SMILES IDX 4 1 2 2 1 3 3 4 6 6 8 7 10 8 11 9 9 10 7 12 5 14
REMARK H PARENT 3 5 9 11 7 13 5 15
REMARK Flexibility Score: inf
ROOT
ATOM      1  C   UNL     1      64.784 129.324  -6.243  1.00  0.00     0.174 C 
ENDROOT
BRANCH   1   2
ATOM      2  C   UNL     1      66.295 129.002  -6.358  1.00  0.00     0.142 C 
ATOM      3  C   UNL     1      66.939 129.777  -7.514  1.00  0.00     0.041 C 
BRANCH   2   4
ATOM      4  O   UNL     1      66.955 129.311  -5.157  1.00  0.00    -0.391 OA
ATOM      5  H   UNL     1      66.812 128.543  -4.543  1.00  0.00     0.211 HD
ENDBRANCH   2   4
ENDBRANCH   1   2
BRANCH   1   6
ATOM      6  C   UNL     1      64.051 129.201  -7.608  1.00  0.00     0.181 C 
BRANCH   6   7
ATOM      7  C   UNL     1      62.586 129.708  -7.548  1.00  0.00     0.209 C 
BRANCH   7   8
ATOM      8  C   UNL     1      61.626 128.552  -7.514  1.00  0.00     0.258 C 
ATOM      9  O   UNL     1      61.508 127.875  -6.505  1.00  0.00    -0.300 OA
ENDBRANCH   7   8
BRANCH   7  10
ATOM     10  O   UNL     1      62.377 130.503  -6.408  1.00  0.00    -0.383 OA
ATOM     11  H   UNL     1      63.207 130.462  -5.864  1.00  0.00     0.211 HD
ENDBRANCH   7  10
ENDBRANCH   6   7
BRANCH   6  12
ATOM     12  O   UNL     1      64.129 127.894  -8.125  1.00  0.00    -0.387 OA
ATOM     13  H   UNL     1      63.246 127.659  -8.510  1.00  0.00     0.211 HD
ENDBRANCH   6  12
ENDBRANCH   1   6
BRANCH   1  14
ATOM     14  O   UNL     1      64.159 128.550  -5.245  1.00  0.00    -0.388 OA
ATOM     15  H   UNL     1      64.779 128.477  -4.475  1.00  0.00     0.211 HD
ENDBRANCH   1  14
TORSDOF 8
ENDMDL
MODEL 3
REMARK VINA RESULT:    -0.647     20.954     21.801
REMARK INTER + INTRA:          -1.495
REMARK INTER:                  -0.990
REMARK INTRA:                  -0.505
REMARK UNBOUND:                -0.621
REMARK SMILES C[C@@H](O)[C@H](O)[C@@H](O)[C@H](O)C=O
REMARK SMILES IDX 4 1 2 2 1 3 3 4 6 6 8 7 10 8 11 9 9 10 7 12 5 14
REMARK H PARENT 3 5 9 11 7 13 5 15
REMARK Flexibility Score: inf
ROOT
ATOM      1  C   UNL     1      54.337 147.720  -4.413  1.00  0.00     0.174 C 
ENDROOT
BRANCH   1   2
ATOM      2  C   UNL     1      53.565 148.115  -5.698  1.00  0.00     0.142 C 
ATOM      3  C   UNL     1      54.476 148.056  -6.930  1.00  0.00     0.041 C 
BRANCH   2   4
ATOM      4  O   UNL     1      52.461 147.267  -5.885  1.00  0.00    -0.391 OA
ATOM      5  H   UNL     1      52.282 146.829  -5.012  1.00  0.00     0.211 HD
ENDBRANCH   2   4
ENDBRANCH   1   2
BRANCH   1   6
ATOM      6  C   UNL     1      53.574 148.123  -3.121  1.00  0.00     0.181 C 
BRANCH   6   7
ATOM      7  C   UNL     1      54.485 148.125  -1.864  1.00  0.00     0.209 C 
BRANCH   7   8
ATOM      8  C   UNL     1      53.781 147.490  -0.698  1.00  0.00     0.258 C 
ATOM      9  O   UNL     1      54.333 147.406   0.388  1.00  0.00    -0.300 OA
ENDBRANCH   7   8
BRANCH   7  10
ATOM     10  O   UNL     1      55.677 147.424  -2.109  1.00  0.00    -0.383 OA
ATOM     11  H   UNL     1      55.437 146.601  -2.613  1.00  0.00     0.211 HD
ENDBRANCH   7  10
ENDBRANCH   6   7
BRANCH   6  12
ATOM     12  O   UNL     1      52.423 147.334  -2.929  1.00  0.00    -0.387 OA
ATOM     13  H   UNL     1      52.668 146.386  -3.081  1.00  0.00     0.211 HD
ENDBRANCH   6  12
ENDBRANCH   1   6
BRANCH   1  14
ATOM     14  O   UNL     1      54.682 146.354  -4.410  1.00  0.00    -0.388 OA
ATOM     15  H   UNL     1      53.846 145.823  -4.368  1.00  0.00     0.211 HD
ENDBRANCH   1  14
TORSDOF 8
ENDMDL
