MODEL 1
REMARK VINA RESULT:    -4.640      0.000      0.000
REMARK INTER + INTRA:          -9.211
REMARK INTER:                  -7.216
REMARK INTRA:                  -1.995
REMARK UNBOUND:                -1.995
REMARK SMILES COc1cc(CNC(=O)CCCCC=CC(C)C)ccc1O
REMARK SMILES IDX 11 1 12 2 13 3 14 4 15 5 16 6 17 7 18 8 10 9 8 10 9 11 7 12
REMARK SMILES IDX 6 14 5 15 4 16 19 17 3 18 20 19 21 20 2 21 1 22 22 23
REMARK H PARENT 7 13 22 24
REMARK Flexibility Score: inf
ROOT
ATOM      1  C   UNL     1      33.508  -3.854 -23.162  1.00  0.00     0.010 C 
ENDROOT
BRANCH   1   2
ATOM      2  C   UNL     1      33.652  -4.724 -21.900  1.00  0.00     0.005 C 
BRANCH   2   3
ATOM      3  C   UNL     1      32.382  -5.504 -21.521  1.00  0.00     0.027 C 
BRANCH   3   4
ATOM      4  C   UNL     1      32.246  -6.770 -22.325  1.00  0.00    -0.031 C 
ATOM      5  C   UNL     1      31.399  -6.854 -23.366  1.00  0.00    -0.028 C 
BRANCH   5   6
ATOM      6  C   UNL     1      31.328  -8.069 -24.264  1.00  0.00     0.005 C 
ATOM      7  C   UNL     1      30.416  -7.805 -25.471  1.00  0.00     0.012 C 
ATOM      8  C   UNL     1      32.723  -8.522 -24.710  1.00  0.00     0.012 C 
ENDBRANCH   5   6
ENDBRANCH   3   4
ENDBRANCH   2   3
ENDBRANCH   1   2
BRANCH   1   9
ATOM      9  C   UNL     1      34.121  -4.503 -24.409  1.00  0.00     0.100 C 
BRANCH   9  10
ATOM     10  C   UNL     1      33.130  -4.496 -25.532  1.00  0.00     0.220 C 
ATOM     11  O   UNL     1      33.134  -5.437 -26.372  1.00  0.00    -0.275 OA
ATOM     12  N   UNL     1      32.148  -3.452 -25.615  1.00  0.00    -0.352 N 
ATOM     13  H   UNL     1      32.147  -2.699 -24.890  1.00  0.00     0.163 HD
BRANCH  12  14
ATOM     14  C   UNL     1      31.129  -3.412 -26.661  1.00  0.00     0.151 C 
BRANCH  14  15
ATOM     15  C   UNL     1      29.870  -4.095 -26.195  1.00  0.00    -0.025 A 
ATOM     16  C   UNL     1      28.984  -4.648 -27.131  1.00  0.00     0.056 A 
ATOM     17  C   UNL     1      29.583  -4.202 -24.827  1.00  0.00     0.009 A 
ATOM     18  C   UNL     1      27.810  -5.303 -26.708  1.00  0.00     0.160 A 
ATOM     19  C   UNL     1      28.423  -4.849 -24.400  1.00  0.00     0.050 A 
ATOM     20  C   UNL     1      27.536  -5.400 -25.331  1.00  0.00     0.157 A 
BRANCH  18  21
ATOM     21  O   UNL     1      26.902  -5.864 -27.620  1.00  0.00    -0.493 OA
ATOM     22  C   UNL     1      26.203  -5.129 -28.620  1.00  0.00     0.278 C 
ENDBRANCH  18  21
BRANCH  20  23
ATOM     23  O   UNL     1      26.386  -6.039 -24.868  1.00  0.00    -0.504 OA
ATOM     24  H   UNL     1      26.125  -6.036 -23.889  1.00  0.00     0.293 HD
ENDBRANCH  20  23
ENDBRANCH  14  15
ENDBRANCH  12  14
ENDBRANCH   9  10
ENDBRANCH   1   9
TORSDOF 10
ENDMDL
MODEL 2
REMARK VINA RESULT:    -4.632      2.518      4.318
REMARK INTER + INTRA:          -9.200
REMARK INTER:                  -7.347
REMARK INTRA:                  -1.852
REMARK UNBOUND:                -1.995
REMARK SMILES COc1cc(CNC(=O)CCCCC=CC(C)C)ccc1O
REMARK SMILES IDX 11 1 12 2 13 3 14 4 15 5 16 6 17 7 18 8 10 9 8 10 9 11 7 12
REMARK SMILES IDX 6 14 5 15 4 16 19 17 3 18 20 19 21 20 2 21 1 22 22 23
REMARK H PARENT 7 13 22 24
REMARK Flexibility Score: inf
ROOT
ATOM      1  C   UNL     1      32.679  -8.369 -23.671  1.00  0.00     0.010 C 
ENDROOT
BRANCH   1   2
ATOM      2  C   UNL     1      32.034  -8.420 -25.068  1.00  0.00     0.005 C 
BRANCH   2   3
ATOM      3  C   UNL     1      30.563  -7.973 -25.103  1.00  0.00     0.027 C 
BRANCH   3   4
ATOM      4  C   UNL     1      30.310  -6.978 -26.204  1.00  0.00    -0.031 C 
ATOM      5  C   UNL     1      29.096  -6.433 -26.395  1.00  0.00    -0.028 C 
BRANCH   5   6
ATOM      6  C   UNL     1      28.840  -5.345 -27.413  1.00  0.00     0.005 C 
ATOM      7  C   UNL     1      29.981  -4.318 -27.417  1.00  0.00     0.012 C 
ATOM      8  C   UNL     1      28.611  -5.927 -28.813  1.00  0.00     0.012 C 
ENDBRANCH   5   6
ENDBRANCH   3   4
ENDBRANCH   2   3
ENDBRANCH   1   2
BRANCH   1   9
ATOM      9  C   UNL     1      33.997  -7.584 -23.649  1.00  0.00     0.100 C 
BRANCH   9  10
ATOM     10  C   UNL     1      33.734  -6.150 -23.305  1.00  0.00     0.220 C 
ATOM     11  O   UNL     1      33.960  -5.740 -22.134  1.00  0.00    -0.275 OA
ATOM     12  N   UNL     1      33.281  -5.240 -24.318  1.00  0.00    -0.352 N 
ATOM     13  H   UNL     1      33.128  -5.598 -25.288  1.00  0.00     0.163 HD
BRANCH  12  14
ATOM     14  C   UNL     1      33.047  -3.823 -24.055  1.00  0.00     0.151 C 
BRANCH  14  15
ATOM     15  C   UNL     1      31.570  -3.534 -24.004  1.00  0.00    -0.025 A 
ATOM     16  C   UNL     1      31.084  -2.283 -24.416  1.00  0.00     0.056 A 
ATOM     17  C   UNL     1      30.668  -4.513 -23.565  1.00  0.00     0.009 A 
ATOM     18  C   UNL     1      29.703  -2.006 -24.386  1.00  0.00     0.160 A 
ATOM     19  C   UNL     1      29.299  -4.246 -23.534  1.00  0.00     0.050 A 
ATOM     20  C   UNL     1      28.812  -3.000 -23.941  1.00  0.00     0.157 A 
BRANCH  18  21
ATOM     21  O   UNL     1      29.186  -0.764 -24.788  1.00  0.00    -0.493 OA
ATOM     22  C   UNL     1      29.332   0.448 -24.055  1.00  0.00     0.278 C 
ENDBRANCH  18  21
BRANCH  20  23
ATOM     23  O   UNL     1      27.437  -2.768 -23.896  1.00  0.00    -0.504 OA
ATOM     24  H   UNL     1      26.842  -3.190 -23.193  1.00  0.00     0.293 HD
ENDBRANCH  20  23
ENDBRANCH  14  15
ENDBRANCH  12  14
ENDBRANCH   9  10
ENDBRANCH   1   9
TORSDOF 10
ENDMDL
MODEL 3
REMARK VINA RESULT:    -4.519      2.772      5.467
REMARK INTER + INTRA:          -9.024
REMARK INTER:                  -7.085
REMARK INTRA:                  -1.939
REMARK UNBOUND:                -1.995
REMARK SMILES COc1cc(CNC(=O)CCCCC=CC(C)C)ccc1O
REMARK SMILES IDX 11 1 12 2 13 3 14 4 15 5 16 6 17 7 18 8 10 9 8 10 9 11 7 12
REMARK SMILES IDX 6 14 5 15 4 16 19 17 3 18 20 19 21 20 2 21 1 22 22 23
REMARK H PARENT 7 13 22 24
REMARK Flexibility Score: inf
ROOT
ATOM      1  C   UNL     1      31.852  -8.171 -24.703  1.00  0.00     0.010 C 
ENDROOT
BRANCH   1   2
ATOM      2  C   UNL     1      30.587  -7.842 -25.517  1.00  0.00     0.005 C 
BRANCH   2   3
ATOM      3  C   UNL     1      29.282  -7.886 -24.705  1.00  0.00     0.027 C 
BRANCH   3   4
ATOM      4  C   UNL     1      28.561  -6.565 -24.740  1.00  0.00    -0.031 C 
ATOM      5  C   UNL     1      29.221  -5.407 -24.915  1.00  0.00    -0.028 C 
BRANCH   5   6
ATOM      6  C   UNL     1      28.514  -4.080 -25.074  1.00  0.00     0.005 C 
ATOM      7  C   UNL     1      29.023  -3.061 -24.044  1.00  0.00     0.012 C 
ATOM      8  C   UNL     1      28.646  -3.540 -26.503  1.00  0.00     0.012 C 
ENDBRANCH   5   6
ENDBRANCH   3   4
ENDBRANCH   2   3
ENDBRANCH   1   2
BRANCH   1   9
ATOM      9  C   UNL     1      31.657  -7.979 -23.193  1.00  0.00     0.100 C 
BRANCH   9  10
ATOM     10  C   UNL     1      32.197  -6.648 -22.771  1.00  0.00     0.220 C 
ATOM     11  O   UNL     1      32.240  -6.355 -21.545  1.00  0.00    -0.275 OA
ATOM     12  N   UNL     1      32.712  -5.737 -23.754  1.00  0.00    -0.352 N 
ATOM     13  H   UNL     1      32.690  -6.015 -24.761  1.00  0.00     0.163 HD
BRANCH  12  14
ATOM     14  C   UNL     1      33.289  -4.443 -23.402  1.00  0.00     0.151 C 
BRANCH  14  15
ATOM     15  C   UNL     1      32.809  -3.377 -24.351  1.00  0.00    -0.025 A 
ATOM     16  C   UNL     1      32.577  -2.074 -23.886  1.00  0.00     0.056 A 
ATOM     17  C   UNL     1      32.608  -3.671 -25.708  1.00  0.00     0.009 A 
ATOM     18  C   UNL     1      32.141  -1.065 -24.767  1.00  0.00     0.160 A 
ATOM     19  C   UNL     1      32.178  -2.676 -26.586  1.00  0.00     0.050 A 
ATOM     20  C   UNL     1      31.943  -1.377 -26.125  1.00  0.00     0.157 A 
BRANCH  18  21
ATOM     21  O   UNL     1      31.898   0.248 -24.332  1.00  0.00    -0.493 OA
ATOM     22  C   UNL     1      30.767   0.647 -23.563  1.00  0.00     0.278 C 
ENDBRANCH  18  21
BRANCH  20  23
ATOM     23  O   UNL     1      31.513  -0.409 -27.032  1.00  0.00    -0.504 OA
ATOM     24  H   UNL     1      31.699   0.578 -26.895  1.00  0.00     0.293 HD
ENDBRANCH  20  23
ENDBRANCH  14  15
ENDBRANCH  12  14
ENDBRANCH   9  10
ENDBRANCH   1   9
TORSDOF 10
ENDMDL
MODEL 4
REMARK VINA RESULT:    -4.507      2.146      3.742
REMARK INTER + INTRA:          -9.005
REMARK INTER:                  -7.151
REMARK INTRA:                  -1.853
REMARK UNBOUND:                -1.995
REMARK SMILES COc1cc(CNC(=O)CCCCC=CC(C)C)ccc1O
REMARK SMILES IDX 11 1 12 2 13 3 14 4 15 5 16 6 17 7 18 8 10 9 8 10 9 11 7 12
REMARK SMILES IDX 6 14 5 15 4 16 19 17 3 18 20 19 21 20 2 21 1 22 22 23
REMARK H PARENT 7 13 22 24
REMARK Flexibility Score: inf
ROOT
ATOM      1  C   UNL     1      34.125  -6.222 -24.184  1.00  0.00     0.010 C 
ENDROOT
BRANCH   1   2
ATOM      2  C   UNL     1      33.744  -5.560 -22.848  1.00  0.00     0.005 C 
BRANCH   2   3
ATOM      3  C   UNL     1      33.704  -4.023 -22.891  1.00  0.00     0.027 C 
BRANCH   3   4
ATOM      4  C   UNL     1      33.014  -3.519 -24.131  1.00  0.00    -0.031 C 
ATOM      5  C   UNL     1      32.318  -2.369 -24.131  1.00  0.00    -0.028 C 
BRANCH   5   6
ATOM      6  C   UNL     1      31.717  -1.779 -25.387  1.00  0.00     0.005 C 
ATOM      7  C   UNL     1      32.673  -0.763 -26.027  1.00  0.00     0.012 C 
ATOM      8  C   UNL     1      31.315  -2.870 -26.385  1.00  0.00     0.012 C 
ENDBRANCH   5   6
ENDBRANCH   3   4
ENDBRANCH   2   3
ENDBRANCH   1   2
BRANCH   1   9
ATOM      9  C   UNL     1      33.783  -7.717 -24.230  1.00  0.00     0.100 C 
BRANCH   9  10
ATOM     10  C   UNL     1      32.298  -7.902 -24.292  1.00  0.00     0.220 C 
ATOM     11  O   UNL     1      31.706  -8.500 -23.352  1.00  0.00    -0.275 OA
ATOM     12  N   UNL     1      31.551  -7.353 -25.388  1.00  0.00    -0.352 N 
ATOM     13  H   UNL     1      32.062  -6.838 -26.140  1.00  0.00     0.163 HD
BRANCH  12  14
ATOM     14  C   UNL     1      30.098  -7.464 -25.484  1.00  0.00     0.151 C 
BRANCH  14  15
ATOM     15  C   UNL     1      29.444  -6.173 -25.070  1.00  0.00    -0.025 A 
ATOM     16  C   UNL     1      28.381  -5.651 -25.821  1.00  0.00     0.056 A 
ATOM     17  C   UNL     1      29.877  -5.492 -23.923  1.00  0.00     0.009 A 
ATOM     18  C   UNL     1      27.751  -4.451 -25.436  1.00  0.00     0.160 A 
ATOM     19  C   UNL     1      29.257  -4.304 -23.535  1.00  0.00     0.050 A 
ATOM     20  C   UNL     1      28.199  -3.780 -24.283  1.00  0.00     0.157 A 
BRANCH  18  21
ATOM     21  O   UNL     1      26.686  -3.902 -26.168  1.00  0.00    -0.493 OA
ATOM     22  C   UNL     1      25.461  -4.576 -26.442  1.00  0.00     0.278 C 
ENDBRANCH  18  21
BRANCH  20  23
ATOM     23  O   UNL     1      27.604  -2.590 -23.865  1.00  0.00    -0.504 OA
ATOM     24  H   UNL     1      26.855  -2.572 -23.182  1.00  0.00     0.293 HD
ENDBRANCH  20  23
ENDBRANCH  14  15
ENDBRANCH  12  14
ENDBRANCH   9  10
ENDBRANCH   1   9
TORSDOF 10
ENDMDL
MODEL 5
REMARK VINA RESULT:    -4.476      2.443      4.397
REMARK INTER + INTRA:          -8.956
REMARK INTER:                  -6.623
REMARK INTRA:                  -2.333
REMARK UNBOUND:                -1.995
REMARK SMILES COc1cc(CNC(=O)CCCCC=CC(C)C)ccc1O
REMARK SMILES IDX 11 1 12 2 13 3 14 4 15 5 16 6 17 7 18 8 10 9 8 10 9 11 7 12
REMARK SMILES IDX 6 14 5 15 4 16 19 17 3 18 20 19 21 20 2 21 1 22 22 23
REMARK H PARENT 7 13 22 24
REMARK Flexibility Score: inf
ROOT
ATOM      1  C   UNL     1      34.015  -7.643 -23.995  1.00  0.00     0.010 C 
ENDROOT
BRANCH   1   2
ATOM      2  C   UNL     1      34.125  -7.558 -25.528  1.00  0.00     0.005 C 
BRANCH   2   3
ATOM      3  C   UNL     1      34.102  -6.125 -26.086  1.00  0.00     0.027 C 
BRANCH   3   4
ATOM      4  C   UNL     1      33.844  -5.111 -25.004  1.00  0.00    -0.031 C 
ATOM      5  C   UNL     1      32.809  -4.257 -25.072  1.00  0.00    -0.028 C 
BRANCH   5   6
ATOM      6  C   UNL     1      32.455  -3.310 -23.947  1.00  0.00     0.005 C 
ATOM      7  C   UNL     1      33.398  -3.503 -22.751  1.00  0.00     0.012 C 
ATOM      8  C   UNL     1      32.447  -1.852 -24.420  1.00  0.00     0.012 C 
ENDBRANCH   5   6
ENDBRANCH   3   4
ENDBRANCH   2   3
ENDBRANCH   1   2
BRANCH   1   9
ATOM      9  C   UNL     1      32.821  -8.484 -23.527  1.00  0.00     0.100 C 
BRANCH   9  10
ATOM     10  C   UNL     1      31.565  -7.670 -23.587  1.00  0.00     0.220 C 
ATOM     11  O   UNL     1      31.435  -6.671 -22.827  1.00  0.00    -0.275 OA
ATOM     12  N   UNL     1      30.544  -7.995 -24.541  1.00  0.00    -0.352 N 
ATOM     13  H   UNL     1      30.688  -8.810 -25.178  1.00  0.00     0.163 HD
BRANCH  12  14
ATOM     14  C   UNL     1      29.316  -7.215 -24.677  1.00  0.00     0.151 C 
BRANCH  14  15
ATOM     15  C   UNL     1      29.532  -6.052 -25.608  1.00  0.00    -0.025 A 
ATOM     16  C   UNL     1      29.144  -4.761 -25.222  1.00  0.00     0.056 A 
ATOM     17  C   UNL     1      30.139  -6.245 -26.858  1.00  0.00     0.009 A 
ATOM     18  C   UNL     1      29.354  -3.662 -26.079  1.00  0.00     0.160 A 
ATOM     19  C   UNL     1      30.350  -5.161 -27.711  1.00  0.00     0.050 A 
ATOM     20  C   UNL     1      29.962  -3.873 -27.330  1.00  0.00     0.157 A 
BRANCH  18  21
ATOM     21  O   UNL     1      28.974  -2.358 -25.722  1.00  0.00    -0.493 OA
ATOM     22  C   UNL     1      28.641  -1.946 -24.400  1.00  0.00     0.278 C 
ENDBRANCH  18  21
BRANCH  20  23
ATOM     23  O   UNL     1      30.189  -2.814 -28.209  1.00  0.00    -0.504 OA
ATOM     24  H   UNL     1      30.725  -1.997 -27.941  1.00  0.00     0.293 HD
ENDBRANCH  20  23
ENDBRANCH  14  15
ENDBRANCH  12  14
ENDBRANCH   9  10
ENDBRANCH   1   9
TORSDOF 10
ENDMDL
MODEL 6
REMARK VINA RESULT:    -4.387      2.772      4.438
REMARK INTER + INTRA:          -8.819
REMARK INTER:                  -6.559
REMARK INTRA:                  -2.259
REMARK UNBOUND:                -1.995
REMARK SMILES COc1cc(CNC(=O)CCCCC=CC(C)C)ccc1O
REMARK SMILES IDX 11 1 12 2 13 3 14 4 15 5 16 6 17 7 18 8 10 9 8 10 9 11 7 12
REMARK SMILES IDX 6 14 5 15 4 16 19 17 3 18 20 19 21 20 2 21 1 22 22 23
REMARK H PARENT 7 13 22 24
REMARK Flexibility Score: inf
ROOT
ATOM      1  C   UNL     1      31.426  -0.011 -23.687  1.00  0.00     0.010 C 
ENDROOT
BRANCH   1   2
ATOM      2  C   UNL     1      32.216  -0.245 -24.988  1.00  0.00     0.005 C 
BRANCH   2   3
ATOM      3  C   UNL     1      32.576  -1.717 -25.254  1.00  0.00     0.027 C 
BRANCH   3   4
ATOM      4  C   UNL     1      32.483  -2.547 -24.001  1.00  0.00    -0.031 C 
ATOM      5  C   UNL     1      33.063  -3.756 -23.914  1.00  0.00    -0.028 C 
BRANCH   5   6
ATOM      6  C   UNL     1      33.089  -4.559 -22.633  1.00  0.00     0.005 C 
ATOM      7  C   UNL     1      33.595  -5.986 -22.890  1.00  0.00     0.012 C 
ATOM      8  C   UNL     1      33.918  -3.862 -21.548  1.00  0.00     0.012 C 
ENDBRANCH   5   6
ENDBRANCH   3   4
ENDBRANCH   2   3
ENDBRANCH   1   2
BRANCH   1   9
ATOM      9  C   UNL     1      30.006   0.512 -23.936  1.00  0.00     0.100 C 
BRANCH   9  10
ATOM     10  C   UNL     1      29.170  -0.555 -24.572  1.00  0.00     0.220 C 
ATOM     11  O   UNL     1      28.726  -0.384 -25.740  1.00  0.00    -0.275 OA
ATOM     12  N   UNL     1      28.924  -1.786 -23.875  1.00  0.00    -0.352 N 
ATOM     13  H   UNL     1      29.327  -1.915 -22.919  1.00  0.00     0.163 HD
BRANCH  12  14
ATOM     14  C   UNL     1      28.153  -2.880 -24.458  1.00  0.00     0.151 C 
BRANCH  14  15
ATOM     15  C   UNL     1      29.061  -4.018 -24.841  1.00  0.00    -0.025 A 
ATOM     16  C   UNL     1      29.726  -4.001 -26.077  1.00  0.00     0.056 A 
ATOM     17  C   UNL     1      29.266  -5.092 -23.963  1.00  0.00     0.009 A 
ATOM     18  C   UNL     1      30.589  -5.053 -26.441  1.00  0.00     0.160 A 
ATOM     19  C   UNL     1      30.120  -6.137 -24.317  1.00  0.00     0.050 A 
ATOM     20  C   UNL     1      30.782  -6.124 -25.549  1.00  0.00     0.157 A 
BRANCH  18  21
ATOM     21  O   UNL     1      31.267  -5.066 -27.671  1.00  0.00    -0.493 OA
ATOM     22  C   UNL     1      30.673  -5.421 -28.917  1.00  0.00     0.278 C 
ENDBRANCH  18  21
BRANCH  20  23
ATOM     23  O   UNL     1      31.629  -7.185 -25.869  1.00  0.00    -0.504 OA
ATOM     24  H   UNL     1      32.060  -7.275 -26.782  1.00  0.00     0.293 HD
ENDBRANCH  20  23
ENDBRANCH  14  15
ENDBRANCH  12  14
ENDBRANCH   9  10
ENDBRANCH   1   9
TORSDOF 10
ENDMDL
MODEL 7
REMARK VINA RESULT:    -4.360      2.135      4.029
REMARK INTER + INTRA:          -8.777
REMARK INTER:                  -6.548
REMARK INTRA:                  -2.228
REMARK UNBOUND:                -1.995
REMARK SMILES COc1cc(CNC(=O)CCCCC=CC(C)C)ccc1O
REMARK SMILES IDX 11 1 12 2 13 3 14 4 15 5 16 6 17 7 18 8 10 9 8 10 9 11 7 12
REMARK SMILES IDX 6 14 5 15 4 16 19 17 3 18 20 19 21 20 2 21 1 22 22 23
REMARK H PARENT 7 13 22 24
REMARK Flexibility Score: inf
ROOT
ATOM      1  C   UNL     1      34.070  -7.180 -24.800  1.00  0.00     0.010 C 
ENDROOT
BRANCH   1   2
ATOM      2  C   UNL     1      33.716  -5.870 -25.526  1.00  0.00     0.005 C 
BRANCH   2   3
ATOM      3  C   UNL     1      34.044  -4.596 -24.729  1.00  0.00     0.027 C 
BRANCH   3   4
ATOM      4  C   UNL     1      32.970  -3.552 -24.882  1.00  0.00    -0.031 C 
ATOM      5  C   UNL     1      31.669  -3.853 -24.726  1.00  0.00    -0.028 C 
BRANCH   5   6
ATOM      6  C   UNL     1      30.579  -2.805 -24.756  1.00  0.00     0.005 C 
ATOM      7  C   UNL     1      30.194  -2.455 -26.200  1.00  0.00     0.012 C 
ATOM      8  C   UNL     1      29.354  -3.245 -23.945  1.00  0.00     0.012 C 
ENDBRANCH   5   6
ENDBRANCH   3   4
ENDBRANCH   2   3
ENDBRANCH   1   2
BRANCH   1   9
ATOM      9  C   UNL     1      33.638  -7.183 -23.328  1.00  0.00     0.100 C 
BRANCH   9  10
ATOM     10  C   UNL     1      32.143  -7.155 -23.231  1.00  0.00     0.220 C 
ATOM     11  O   UNL     1      31.588  -6.384 -22.402  1.00  0.00    -0.275 OA
ATOM     12  N   UNL     1      31.351  -7.961 -24.116  1.00  0.00    -0.352 N 
ATOM     13  H   UNL     1      31.835  -8.570 -24.814  1.00  0.00     0.163 HD
BRANCH  12  14
ATOM     14  C   UNL     1      29.891  -7.946 -24.100  1.00  0.00     0.151 C 
BRANCH  14  15
ATOM     15  C   UNL     1      29.362  -7.065 -25.200  1.00  0.00    -0.025 A 
ATOM     16  C   UNL     1      30.148  -6.807 -26.334  1.00  0.00     0.056 A 
ATOM     17  C   UNL     1      28.077  -6.511 -25.112  1.00  0.00     0.009 A 
ATOM     18  C   UNL     1      29.659  -5.996 -27.377  1.00  0.00     0.160 A 
ATOM     19  C   UNL     1      27.585  -5.707 -26.142  1.00  0.00     0.050 A 
ATOM     20  C   UNL     1      28.367  -5.447 -27.271  1.00  0.00     0.157 A 
BRANCH  18  21
ATOM     21  O   UNL     1      30.421  -5.717 -28.522  1.00  0.00    -0.493 OA
ATOM     22  C   UNL     1      31.632  -4.966 -28.524  1.00  0.00     0.278 C 
ENDBRANCH  18  21
BRANCH  20  23
ATOM     23  O   UNL     1      27.843  -4.639 -28.280  1.00  0.00    -0.504 OA
ATOM     24  H   UNL     1      27.101  -3.971 -28.105  1.00  0.00     0.293 HD
ENDBRANCH  20  23
ENDBRANCH  14  15
ENDBRANCH  12  14
ENDBRANCH   9  10
ENDBRANCH   1   9
TORSDOF 10
ENDMDL
MODEL 8
REMARK VINA RESULT:    -4.356      3.172      4.130
REMARK INTER + INTRA:          -8.770
REMARK INTER:                  -7.165
REMARK INTRA:                  -1.605
REMARK UNBOUND:                -1.995
REMARK SMILES COc1cc(CNC(=O)CCCCC=CC(C)C)ccc1O
REMARK SMILES IDX 11 1 12 2 13 3 14 4 15 5 16 6 17 7 18 8 10 9 8 10 9 11 7 12
REMARK SMILES IDX 6 14 5 15 4 16 19 17 3 18 20 19 21 20 2 21 1 22 22 23
REMARK H PARENT 7 13 22 24
REMARK Flexibility Score: inf
ROOT
ATOM      1  C   UNL     1      34.125  -6.456 -23.997  1.00  0.00     0.010 C 
ENDROOT
BRANCH   1   2
ATOM      2  C   UNL     1      33.109  -7.462 -23.426  1.00  0.00     0.005 C 
BRANCH   2   3
ATOM      3  C   UNL     1      32.220  -8.135 -24.485  1.00  0.00     0.027 C 
BRANCH   3   4
ATOM      4  C   UNL     1      31.066  -7.254 -24.883  1.00  0.00    -0.031 C 
ATOM      5  C   UNL     1      30.503  -6.397 -24.014  1.00  0.00    -0.028 C 
BRANCH   5   6
ATOM      6  C   UNL     1      29.424  -5.416 -24.417  1.00  0.00     0.005 C 
ATOM      7  C   UNL     1      29.361  -4.238 -23.435  1.00  0.00     0.012 C 
ATOM      8  C   UNL     1      29.615  -4.930 -25.858  1.00  0.00     0.012 C 
ENDBRANCH   5   6
ENDBRANCH   3   4
ENDBRANCH   2   3
ENDBRANCH   1   2
BRANCH   1   9
ATOM      9  C   UNL     1      33.880  -5.021 -23.514  1.00  0.00     0.100 C 
BRANCH   9  10
ATOM     10  C   UNL     1      33.413  -4.168 -24.653  1.00  0.00     0.220 C 
ATOM     11  O   UNL     1      33.283  -4.679 -25.799  1.00  0.00    -0.275 OA
ATOM     12  N   UNL     1      33.064  -2.795 -24.427  1.00  0.00    -0.352 N 
ATOM     13  H   UNL     1      33.153  -2.403 -23.462  1.00  0.00     0.163 HD
BRANCH  12  14
ATOM     14  C   UNL     1      32.563  -1.925 -25.487  1.00  0.00     0.151 C 
BRANCH  14  15
ATOM     15  C   UNL     1      31.418  -1.087 -24.982  1.00  0.00    -0.025 A 
ATOM     16  C   UNL     1      30.115  -1.326 -25.444  1.00  0.00     0.056 A 
ATOM     17  C   UNL     1      31.640  -0.075 -24.036  1.00  0.00     0.009 A 
ATOM     18  C   UNL     1      29.034  -0.558 -24.968  1.00  0.00     0.160 A 
ATOM     19  C   UNL     1      30.573   0.688 -23.560  1.00  0.00     0.050 A 
ATOM     20  C   UNL     1      29.274   0.454 -24.020  1.00  0.00     0.157 A 
BRANCH  18  21
ATOM     21  O   UNL     1      27.719  -0.770 -25.413  1.00  0.00    -0.493 OA
ATOM     22  C   UNL     1      26.810  -1.700 -24.831  1.00  0.00     0.278 C 
ENDBRANCH  18  21
BRANCH  20  23
ATOM     23  O   UNL     1      28.233   1.238 -23.522  1.00  0.00    -0.504 OA
ATOM     24  H   UNL     1      27.575   1.710 -24.132  1.00  0.00     0.293 HD
ENDBRANCH  20  23
ENDBRANCH  14  15
ENDBRANCH  12  14
ENDBRANCH   9  10
ENDBRANCH   1   9
TORSDOF 10
ENDMDL
MODEL 9
REMARK VINA RESULT:    -4.297      1.887      3.909
REMARK INTER + INTRA:          -8.678
REMARK INTER:                  -6.381
REMARK INTRA:                  -2.297
REMARK UNBOUND:                -1.995
REMARK SMILES COc1cc(CNC(=O)CCCCC=CC(C)C)ccc1O
REMARK SMILES IDX 11 1 12 2 13 3 14 4 15 5 16 6 17 7 18 8 10 9 8 10 9 11 7 12
REMARK SMILES IDX 6 14 5 15 4 16 19 17 3 18 20 19 21 20 2 21 1 22 22 23
REMARK H PARENT 7 13 22 24
REMARK Flexibility Score: inf
ROOT
ATOM      1  C   UNL     1      33.173  -4.619 -22.537  1.00  0.00     0.010 C 
ENDROOT
BRANCH   1   2
ATOM      2  C   UNL     1      33.942  -4.270 -23.824  1.00  0.00     0.005 C 
BRANCH   2   3
ATOM      3  C   UNL     1      33.061  -3.718 -24.958  1.00  0.00     0.027 C 
BRANCH   3   4
ATOM      4  C   UNL     1      31.659  -3.437 -24.486  1.00  0.00    -0.031 C 
ATOM      5  C   UNL     1      30.764  -2.814 -25.272  1.00  0.00    -0.028 C 
BRANCH   5   6
ATOM      6  C   UNL     1      29.318  -2.625 -24.872  1.00  0.00     0.005 C 
ATOM      7  C   UNL     1      28.946  -3.552 -23.706  1.00  0.00     0.012 C 
ATOM      8  C   UNL     1      29.014  -1.160 -24.536  1.00  0.00     0.012 C 
ENDBRANCH   5   6
ENDBRANCH   3   4
ENDBRANCH   2   3
ENDBRANCH   1   2
BRANCH   1   9
ATOM      9  C   UNL     1      33.346  -6.084 -22.117  1.00  0.00     0.100 C 
BRANCH   9  10
ATOM     10  C   UNL     1      32.552  -6.975 -23.022  1.00  0.00     0.220 C 
ATOM     11  O   UNL     1      33.126  -7.928 -23.616  1.00  0.00    -0.275 OA
ATOM     12  N   UNL     1      31.138  -6.777 -23.165  1.00  0.00    -0.352 N 
ATOM     13  H   UNL     1      30.681  -5.997 -22.639  1.00  0.00     0.163 HD
BRANCH  12  14
ATOM     14  C   UNL     1      30.302  -7.637 -23.999  1.00  0.00     0.151 C 
BRANCH  14  15
ATOM     15  C   UNL     1      29.852  -6.898 -25.231  1.00  0.00    -0.025 A 
ATOM     16  C   UNL     1      28.500  -6.557 -25.391  1.00  0.00     0.056 A 
ATOM     17  C   UNL     1      30.777  -6.528 -26.217  1.00  0.00     0.009 A 
ATOM     18  C   UNL     1      28.068  -5.853 -26.532  1.00  0.00     0.160 A 
ATOM     19  C   UNL     1      30.356  -5.830 -27.350  1.00  0.00     0.050 A 
ATOM     20  C   UNL     1      29.009  -5.491 -27.513  1.00  0.00     0.157 A 
BRANCH  18  21
ATOM     21  O   UNL     1      26.722  -5.500 -26.723  1.00  0.00    -0.493 OA
ATOM     22  C   UNL     1      25.967  -4.684 -25.832  1.00  0.00     0.278 C 
ENDBRANCH  18  21
BRANCH  20  23
ATOM     23  O   UNL     1      28.626  -4.793 -28.658  1.00  0.00    -0.504 OA
ATOM     24  H   UNL     1      28.006  -5.195 -29.352  1.00  0.00     0.293 HD
ENDBRANCH  20  23
ENDBRANCH  14  15
ENDBRANCH  12  14
ENDBRANCH   9  10
ENDBRANCH   1   9
TORSDOF 10
ENDMDL
