MODEL 1
REMARK VINA RESULT:    -1.552      0.000      0.000
REMARK INTER + INTRA:          -1.778
REMARK INTER:                  -1.734
REMARK INTRA:                  -0.044
REMARK UNBOUND:                -0.044
REMARK SMILES CCCC(=O)[O-]
REMARK SMILES IDX 3 1 4 2 5 3 6 4 2 5 1 6
REMARK H PARENT
REMARK Flexibility Score: inf
ROOT
ATOM      1  C   UNL     1     102.273  13.974  13.167  1.00  0.00     0.052 C 
ENDROOT
BRANCH   1   2
ATOM      2  C   UNL     1     102.129  13.709  11.702  1.00  0.00     0.041 C 
ATOM      3  O   UNL     1     103.133  13.389  11.014  1.00  0.00    -0.550 OA
ATOM      4  O   UNL     1     100.875  13.766  11.105  1.00  0.00    -0.550 OA
ENDBRANCH   1   2
BRANCH   1   5
ATOM      5  C   UNL     1     100.946  13.729  13.890  1.00  0.00     0.003 C 
ATOM      6  C   UNL     1     100.877  12.311  14.449  1.00  0.00     0.004 C 
ENDBRANCH   1   5
TORSDOF 2
ENDMDL
MODEL 2
REMARK VINA RESULT:    -1.540     20.824     21.426
REMARK INTER + INTRA:          -1.764
REMARK INTER:                  -1.743
REMARK INTRA:                  -0.021
REMARK UNBOUND:                -0.044
REMARK SMILES CCCC(=O)[O-]
REMARK SMILES IDX 3 1 4 2 5 3 6 4 2 5 1 6
REMARK H PARENT
REMARK Flexibility Score: inf
ROOT
ATOM      1  C   UNL     1     116.717  15.015  26.735  1.00  0.00     0.052 C 
ENDROOT
BRANCH   1   2
ATOM      2  C   UNL     1     117.494  14.880  28.007  1.00  0.00     0.041 C 
ATOM      3  O   UNL     1     117.253  13.931  28.799  1.00  0.00    -0.550 OA
ATOM      4  O   UNL     1     118.518  15.774  28.294  1.00  0.00    -0.550 OA
ENDBRANCH   1   2
BRANCH   1   5
ATOM      5  C   UNL     1     115.988  13.708  26.411  1.00  0.00     0.003 C 
ATOM      6  C   UNL     1     116.238  13.281  24.968  1.00  0.00     0.004 C 
ENDBRANCH   1   5
TORSDOF 2
ENDMDL
MODEL 3
REMARK VINA RESULT:    -1.540      2.393      3.190
REMARK INTER + INTRA:          -1.764
REMARK INTER:                  -1.754
REMARK INTRA:                  -0.010
REMARK UNBOUND:                -0.044
REMARK SMILES CCCC(=O)[O-]
REMARK SMILES IDX 3 1 4 2 5 3 6 4 2 5 1 6
REMARK H PARENT
REMARK Flexibility Score: inf
ROOT
ATOM      1  C   UNL     1     101.284  12.090  15.092  1.00  0.00     0.052 C 
ENDROOT
BRANCH   1   2
ATOM      2  C   UNL     1     102.181  12.781  14.114  1.00  0.00     0.041 C 
ATOM      3  O   UNL     1     101.691  13.492  13.198  1.00  0.00    -0.550 OA
ATOM      4  O   UNL     1     103.560  12.679  14.244  1.00  0.00    -0.550 OA
ENDBRANCH   1   2
BRANCH   1   5
ATOM      5  C   UNL     1     102.006  11.879  16.426  1.00  0.00     0.003 C 
ATOM      6  C   UNL     1     101.033  11.955  17.598  1.00  0.00     0.004 C 
ENDBRANCH   1   5
TORSDOF 2
ENDMDL
MODEL 4
REMARK VINA RESULT:    -1.538     20.739     21.321
REMARK INTER + INTRA:          -1.761
REMARK INTER:                  -1.740
REMARK INTRA:                  -0.021
REMARK UNBOUND:                -0.044
REMARK SMILES CCCC(=O)[O-]
REMARK SMILES IDX 3 1 4 2 5 3 6 4 2 5 1 6
REMARK H PARENT
REMARK Flexibility Score: inf
ROOT
ATOM      1  C   UNL     1     116.674  14.884  26.711  1.00  0.00     0.052 C 
ENDROOT
BRANCH   1   2
ATOM      2  C   UNL     1     117.383  14.710  28.017  1.00  0.00     0.041 C 
ATOM      3  O   UNL     1     118.233  15.558  28.394  1.00  0.00    -0.550 OA
ATOM      4  O   UNL     1     117.067  13.638  28.842  1.00  0.00    -0.550 OA
ENDBRANCH   1   2
BRANCH   1   5
ATOM      5  C   UNL     1     115.889  13.619  26.354  1.00  0.00     0.003 C 
ATOM      6  C   UNL     1     116.210  13.153  24.937  1.00  0.00     0.004 C 
ENDBRANCH   1   5
TORSDOF 2
ENDMDL
MODEL 5
REMARK VINA RESULT:    -1.500     22.023     22.556
REMARK INTER + INTRA:          -1.719
REMARK INTER:                  -1.709
REMARK INTRA:                  -0.010
REMARK UNBOUND:                -0.044
REMARK SMILES CCCC(=O)[O-]
REMARK SMILES IDX 3 1 4 2 5 3 6 4 2 5 1 6
REMARK H PARENT
REMARK Flexibility Score: inf
ROOT
ATOM      1  C   UNL     1     117.194  14.944  27.796  1.00  0.00     0.052 C 
ENDROOT
BRANCH   1   2
ATOM      2  C   UNL     1     118.387  15.845  27.853  1.00  0.00     0.041 C 
ATOM      3  O   UNL     1     118.925  16.114  28.959  1.00  0.00    -0.550 OA
ATOM      4  O   UNL     1     118.936  16.347  26.679  1.00  0.00    -0.550 OA
ENDBRANCH   1   2
BRANCH   1   5
ATOM      5  C   UNL     1     117.171  14.007  29.006  1.00  0.00     0.003 C 
ATOM      6  C   UNL     1     116.078  12.951  28.864  1.00  0.00     0.004 C 
ENDBRANCH   1   5
TORSDOF 2
ENDMDL
MODEL 6
REMARK VINA RESULT:    -1.473     19.390     19.969
REMARK INTER + INTRA:          -1.690
REMARK INTER:                  -1.683
REMARK INTRA:                  -0.007
REMARK UNBOUND:                -0.044
REMARK SMILES CCCC(=O)[O-]
REMARK SMILES IDX 3 1 4 2 5 3 6 4 2 5 1 6
REMARK H PARENT
REMARK Flexibility Score: inf
ROOT
ATOM      1  C   UNL     1     116.263  14.084  26.010  1.00  0.00     0.052 C 
ENDROOT
BRANCH   1   2
ATOM      2  C   UNL     1     115.810  12.830  25.331  1.00  0.00     0.041 C 
ATOM      3  O   UNL     1     114.733  12.277  25.676  1.00  0.00    -0.550 OA
ATOM      4  O   UNL     1     116.553  12.300  24.284  1.00  0.00    -0.550 OA
ENDBRANCH   1   2
BRANCH   1   5
ATOM      5  C   UNL     1     116.273  13.897  27.530  1.00  0.00     0.003 C 
ATOM      6  C   UNL     1     117.305  14.808  28.189  1.00  0.00     0.004 C 
ENDBRANCH   1   5
TORSDOF 2
ENDMDL
MODEL 7
REMARK VINA RESULT:    -1.473      2.694      3.514
REMARK INTER + INTRA:          -1.689
REMARK INTER:                  -1.675
REMARK INTRA:                  -0.013
REMARK UNBOUND:                -0.044
REMARK SMILES CCCC(=O)[O-]
REMARK SMILES IDX 3 1 4 2 5 3 6 4 2 5 1 6
REMARK H PARENT
REMARK Flexibility Score: inf
ROOT
ATOM      1  C   UNL     1     102.174  13.325  13.449  1.00  0.00     0.052 C 
ENDROOT
BRANCH   1   2
ATOM      2  C   UNL     1     101.996  12.415  14.623  1.00  0.00     0.041 C 
ATOM      3  O   UNL     1     100.878  11.881  14.847  1.00  0.00    -0.550 OA
ATOM      4  O   UNL     1     103.078  12.118  15.442  1.00  0.00    -0.550 OA
ENDBRANCH   1   2
BRANCH   1   5
ATOM      5  C   UNL     1     100.897  13.369  12.606  1.00  0.00     0.003 C 
ATOM      6  C   UNL     1     101.183  13.881  11.198  1.00  0.00     0.004 C 
ENDBRANCH   1   5
TORSDOF 2
ENDMDL
MODEL 8
REMARK VINA RESULT:    -1.457      2.115      2.502
REMARK INTER + INTRA:          -1.671
REMARK INTER:                  -1.633
REMARK INTRA:                  -0.039
REMARK UNBOUND:                -0.044
REMARK SMILES CCCC(=O)[O-]
REMARK SMILES IDX 3 1 4 2 5 3 6 4 2 5 1 6
REMARK H PARENT
REMARK Flexibility Score: inf
ROOT
ATOM      1  C   UNL     1     102.143  13.015  14.125  1.00  0.00     0.052 C 
ENDROOT
BRANCH   1   2
ATOM      2  C   UNL     1     101.829  14.460  13.896  1.00  0.00     0.041 C 
ATOM      3  O   UNL     1     101.632  15.228  14.874  1.00  0.00    -0.550 OA
ATOM      4  O   UNL     1     101.804  14.970  12.604  1.00  0.00    -0.550 OA
ENDBRANCH   1   2
BRANCH   1   5
ATOM      5  C   UNL     1     100.875  12.245  14.504  1.00  0.00     0.003 C 
ATOM      6  C   UNL     1     100.876  11.875  15.984  1.00  0.00     0.004 C 
ENDBRANCH   1   5
TORSDOF 2
ENDMDL
MODEL 9
REMARK VINA RESULT:    -1.427      2.263      3.074
REMARK INTER + INTRA:          -1.637
REMARK INTER:                  -1.567
REMARK INTRA:                  -0.070
REMARK UNBOUND:                -0.044
REMARK SMILES CCCC(=O)[O-]
REMARK SMILES IDX 3 1 4 2 5 3 6 4 2 5 1 6
REMARK H PARENT
REMARK Flexibility Score: inf
ROOT
ATOM      1  C   UNL     1     100.875  12.388  14.770  1.00  0.00     0.052 C 
ENDROOT
BRANCH   1   2
ATOM      2  C   UNL     1     100.931  13.812  14.316  1.00  0.00     0.041 C 
ATOM      3  O   UNL     1     100.877  14.747  15.157  1.00  0.00    -0.550 OA
ATOM      4  O   UNL     1     101.093  14.106  12.968  1.00  0.00    -0.550 OA
ENDBRANCH   1   2
BRANCH   1   5
ATOM      5  C   UNL     1     102.082  12.058  15.652  1.00  0.00     0.003 C 
ATOM      6  C   UNL     1     103.366  11.996  14.830  1.00  0.00     0.004 C 
ENDBRANCH   1   5
TORSDOF 2
ENDMDL
