MODEL 1
REMARK VINA RESULT:    -3.228      0.000      0.000
REMARK INTER + INTRA:          -3.434
REMARK INTER:                  -3.417
REMARK INTRA:                  -0.017
REMARK UNBOUND:                -0.017
REMARK SMILES O=C([O-])c1cccnc1
REMARK SMILES IDX 4 1 5 2 9 3 6 4 8 5 7 6 2 7 1 8 3 9
REMARK H PARENT
REMARK Flexibility Score: inf
ROOT
ATOM      1  C   UNL     1      55.945  26.077  50.476  1.00  0.00     0.016 A 
ATOM      2  C   UNL     1      55.802  27.453  50.725  1.00  0.00     0.013 A 
ATOM      3  C   UNL     1      54.830  25.363  50.005  1.00  0.00     0.120 A 
ATOM      4  C   UNL     1      54.576  28.080  50.503  1.00  0.00     0.021 A 
ATOM      5  N   UNL     1      53.646  26.000  49.797  1.00  0.00    -0.264 NA
ATOM      6  C   UNL     1      53.497  27.329  50.034  1.00  0.00     0.111 A 
ENDROOT
BRANCH   1   7
ATOM      7  C   UNL     1      57.240  25.401  50.707  1.00  0.00     0.073 C 
ATOM      8  O   UNL     1      57.378  24.591  51.663  1.00  0.00    -0.545 OA
ATOM      9  O   UNL     1      58.323  25.649  49.872  1.00  0.00    -0.545 OA
ENDBRANCH   1   7
TORSDOF 1
ENDMDL
MODEL 2
REMARK VINA RESULT:    -3.219     14.349     14.946
REMARK INTER + INTRA:          -3.424
REMARK INTER:                  -3.402
REMARK INTRA:                  -0.022
REMARK UNBOUND:                -0.017
REMARK SMILES O=C([O-])c1cccnc1
REMARK SMILES IDX 4 1 5 2 9 3 6 4 8 5 7 6 2 7 1 8 3 9
REMARK H PARENT
REMARK Flexibility Score: inf
ROOT
ATOM      1  C   UNL     1      62.729  34.310  60.845  1.00  0.00     0.016 A 
ATOM      2  C   UNL     1      61.854  33.271  60.487  1.00  0.00     0.013 A 
ATOM      3  C   UNL     1      62.212  35.612  60.954  1.00  0.00     0.120 A 
ATOM      4  C   UNL     1      60.506  33.541  60.250  1.00  0.00     0.021 A 
ATOM      5  N   UNL     1      60.893  35.848  60.717  1.00  0.00    -0.264 NA
ATOM      6  C   UNL     1      60.038  34.851  60.371  1.00  0.00     0.111 A 
ENDROOT
BRANCH   1   7
ATOM      7  C   UNL     1      64.160  34.035  61.099  1.00  0.00     0.073 C 
ATOM      8  O   UNL     1      64.737  33.068  60.534  1.00  0.00    -0.545 OA
ATOM      9  O   UNL     1      64.889  34.842  61.965  1.00  0.00    -0.545 OA
ENDBRANCH   1   7
TORSDOF 1
ENDMDL
MODEL 3
REMARK VINA RESULT:    -3.190      1.660      2.146
REMARK INTER + INTRA:          -3.393
REMARK INTER:                  -3.371
REMARK INTRA:                  -0.022
REMARK UNBOUND:                -0.017
REMARK SMILES O=C([O-])c1cccnc1
REMARK SMILES IDX 4 1 5 2 9 3 6 4 8 5 7 6 2 7 1 8 3 9
REMARK H PARENT
REMARK Flexibility Score: inf
ROOT
ATOM      1  C   UNL     1      55.305  26.956  50.372  1.00  0.00     0.016 A 
ATOM      2  C   UNL     1      54.121  27.710  50.302  1.00  0.00     0.013 A 
ATOM      3  C   UNL     1      55.252  25.594  50.032  1.00  0.00     0.120 A 
ATOM      4  C   UNL     1      52.929  27.105  49.901  1.00  0.00     0.021 A 
ATOM      5  N   UNL     1      54.076  25.029  49.644  1.00  0.00    -0.264 NA
ATOM      6  C   UNL     1      52.926  25.748  49.573  1.00  0.00     0.111 A 
ENDROOT
BRANCH   1   7
ATOM      7  C   UNL     1      56.574  27.586  50.796  1.00  0.00     0.073 C 
ATOM      8  O   UNL     1      57.681  27.114  50.419  1.00  0.00    -0.545 OA
ATOM      9  O   UNL     1      56.565  28.709  51.615  1.00  0.00    -0.545 OA
ENDBRANCH   1   7
TORSDOF 1
ENDMDL
MODEL 4
REMARK VINA RESULT:    -3.171      1.100      1.982
REMARK INTER + INTRA:          -3.373
REMARK INTER:                  -3.357
REMARK INTRA:                  -0.017
REMARK UNBOUND:                -0.017
REMARK SMILES O=C([O-])c1cccnc1
REMARK SMILES IDX 4 1 5 2 9 3 6 4 8 5 7 6 2 7 1 8 3 9
REMARK H PARENT
REMARK Flexibility Score: inf
ROOT
ATOM      1  C   UNL     1      56.298  26.230  50.522  1.00  0.00     0.016 A 
ATOM      2  C   UNL     1      55.092  25.645  50.102  1.00  0.00     0.013 A 
ATOM      3  C   UNL     1      56.313  27.609  50.797  1.00  0.00     0.120 A 
ATOM      4  C   UNL     1      53.944  26.426  49.967  1.00  0.00     0.021 A 
ATOM      5  N   UNL     1      55.179  28.348  50.656  1.00  0.00    -0.264 NA
ATOM      6  C   UNL     1      54.008  27.791  50.251  1.00  0.00     0.111 A 
ENDROOT
BRANCH   1   7
ATOM      7  C   UNL     1      57.522  25.412  50.669  1.00  0.00     0.073 C 
ATOM      8  O   UNL     1      58.486  25.552  49.869  1.00  0.00    -0.545 OA
ATOM      9  O   UNL     1      57.626  24.479  51.694  1.00  0.00    -0.545 OA
ENDBRANCH   1   7
TORSDOF 1
ENDMDL
MODEL 5
REMARK VINA RESULT:    -3.168     14.743     15.455
REMARK INTER + INTRA:          -3.370
REMARK INTER:                  -3.348
REMARK INTRA:                  -0.023
REMARK UNBOUND:                -0.017
REMARK SMILES O=C([O-])c1cccnc1
REMARK SMILES IDX 4 1 5 2 9 3 6 4 8 5 7 6 2 7 1 8 3 9
REMARK H PARENT
REMARK Flexibility Score: inf
ROOT
ATOM      1  C   UNL     1      62.185  34.642  60.792  1.00  0.00     0.016 A 
ATOM      2  C   UNL     1      62.661  35.887  61.237  1.00  0.00     0.013 A 
ATOM      3  C   UNL     1      63.081  33.560  60.747  1.00  0.00     0.120 A 
ATOM      4  C   UNL     1      63.995  36.029  61.622  1.00  0.00     0.021 A 
ATOM      5  N   UNL     1      64.376  33.726  61.129  1.00  0.00    -0.264 NA
ATOM      6  C   UNL     1      64.847  34.925  61.560  1.00  0.00     0.111 A 
ENDROOT
BRANCH   1   7
ATOM      7  C   UNL     1      60.773  34.479  60.381  1.00  0.00     0.073 C 
ATOM      8  O   UNL     1      60.249  33.334  60.332  1.00  0.00    -0.545 OA
ATOM      9  O   UNL     1      60.005  35.588  60.046  1.00  0.00    -0.545 OA
ENDBRANCH   1   7
TORSDOF 1
ENDMDL
MODEL 6
REMARK VINA RESULT:    -3.148      8.905      9.566
REMARK INTER + INTRA:          -3.349
REMARK INTER:                  -3.325
REMARK INTRA:                  -0.024
REMARK UNBOUND:                -0.017
REMARK SMILES O=C([O-])c1cccnc1
REMARK SMILES IDX 4 1 5 2 9 3 6 4 8 5 7 6 2 7 1 8 3 9
REMARK H PARENT
REMARK Flexibility Score: inf
ROOT
ATOM      1  C   UNL     1      58.132  17.068  50.639  1.00  0.00     0.016 A 
ATOM      2  C   UNL     1      58.713  17.025  51.917  1.00  0.00     0.013 A 
ATOM      3  C   UNL     1      56.934  17.784  50.472  1.00  0.00     0.120 A 
ATOM      4  C   UNL     1      58.104  17.684  52.985  1.00  0.00     0.021 A 
ATOM      5  N   UNL     1      56.361  18.418  51.530  1.00  0.00    -0.264 NA
ATOM      6  C   UNL     1      56.915  18.383  52.770  1.00  0.00     0.111 A 
ENDROOT
BRANCH   1   7
ATOM      7  C   UNL     1      58.768  16.373  49.498  1.00  0.00     0.073 C 
ATOM      8  O   UNL     1      59.950  15.943  49.589  1.00  0.00    -0.545 OA
ATOM      9  O   UNL     1      58.071  16.183  48.311  1.00  0.00    -0.545 OA
ENDBRANCH   1   7
TORSDOF 1
ENDMDL
MODEL 7
REMARK VINA RESULT:    -3.133      1.611      2.400
REMARK INTER + INTRA:          -3.333
REMARK INTER:                  -3.310
REMARK INTRA:                  -0.022
REMARK UNBOUND:                -0.017
REMARK SMILES O=C([O-])c1cccnc1
REMARK SMILES IDX 4 1 5 2 9 3 6 4 8 5 7 6 2 7 1 8 3 9
REMARK H PARENT
REMARK Flexibility Score: inf
ROOT
ATOM      1  C   UNL     1      55.395  26.968  50.388  1.00  0.00     0.016 A 
ATOM      2  C   UNL     1      55.242  25.625  50.005  1.00  0.00     0.013 A 
ATOM      3  C   UNL     1      54.263  27.800  50.375  1.00  0.00     0.120 A 
ATOM      4  C   UNL     1      53.989  25.143  49.625  1.00  0.00     0.021 A 
ATOM      5  N   UNL     1      53.052  27.305  50.000  1.00  0.00    -0.264 NA
ATOM      6  C   UNL     1      52.893  26.008  49.629  1.00  0.00     0.111 A 
ENDROOT
BRANCH   1   7
ATOM      7  C   UNL     1      56.719  27.490  50.792  1.00  0.00     0.073 C 
ATOM      8  O   UNL     1      57.776  26.947  50.374  1.00  0.00    -0.545 OA
ATOM      9  O   UNL     1      56.814  28.589  51.639  1.00  0.00    -0.545 OA
ENDBRANCH   1   7
TORSDOF 1
ENDMDL
MODEL 8
REMARK VINA RESULT:    -3.104      2.456      3.136
REMARK INTER + INTRA:          -3.303
REMARK INTER:                  -3.286
REMARK INTRA:                  -0.016
REMARK UNBOUND:                -0.017
REMARK SMILES O=C([O-])c1cccnc1
REMARK SMILES IDX 4 1 5 2 9 3 6 4 8 5 7 6 2 7 1 8 3 9
REMARK H PARENT
REMARK Flexibility Score: inf
ROOT
ATOM      1  C   UNL     1      57.279  27.575  50.505  1.00  0.00     0.016 A 
ATOM      2  C   UNL     1      55.908  27.875  50.582  1.00  0.00     0.013 A 
ATOM      3  C   UNL     1      57.672  26.227  50.556  1.00  0.00     0.120 A 
ATOM      4  C   UNL     1      54.972  26.848  50.706  1.00  0.00     0.021 A 
ATOM      5  N   UNL     1      56.739  25.244  50.677  1.00  0.00    -0.264 NA
ATOM      6  C   UNL     1      55.412  25.523  50.752  1.00  0.00     0.111 A 
ENDROOT
BRANCH   1   7
ATOM      7  C   UNL     1      58.280  28.656  50.374  1.00  0.00     0.073 C 
ATOM      8  O   UNL     1      58.792  28.922  49.253  1.00  0.00    -0.545 OA
ATOM      9  O   UNL     1      58.669  29.394  51.486  1.00  0.00    -0.545 OA
ENDBRANCH   1   7
TORSDOF 1
ENDMDL
MODEL 9
REMARK VINA RESULT:    -3.034      2.900      3.681
REMARK INTER + INTRA:          -3.228
REMARK INTER:                  -3.212
REMARK INTRA:                  -0.017
REMARK UNBOUND:                -0.017
REMARK SMILES O=C([O-])c1cccnc1
REMARK SMILES IDX 4 1 5 2 9 3 6 4 8 5 7 6 2 7 1 8 3 9
REMARK H PARENT
REMARK Flexibility Score: inf
ROOT
ATOM      1  C   UNL     1      57.475  26.366  50.398  1.00  0.00     0.016 A 
ATOM      2  C   UNL     1      57.309  27.761  50.424  1.00  0.00     0.013 A 
ATOM      3  C   UNL     1      58.724  25.847  50.018  1.00  0.00     0.120 A 
ATOM      4  C   UNL     1      58.371  28.598  50.078  1.00  0.00     0.021 A 
ATOM      5  N   UNL     1      59.743  26.686  49.686  1.00  0.00    -0.264 NA
ATOM      6  C   UNL     1      59.594  28.036  49.708  1.00  0.00     0.111 A 
ENDROOT
BRANCH   1   7
ATOM      7  C   UNL     1      56.357  25.469  50.762  1.00  0.00     0.073 C 
ATOM      8  O   UNL     1      56.394  24.799  51.829  1.00  0.00    -0.545 OA
ATOM      9  O   UNL     1      55.248  25.352  49.931  1.00  0.00    -0.545 OA
ENDBRANCH   1   7
TORSDOF 1
ENDMDL
