MODEL 1
REMARK VINA RESULT:    -5.709      0.000      0.000
REMARK INTER + INTRA:          -6.338
REMARK INTER:                  -6.210
REMARK INTRA:                  -0.127
REMARK UNBOUND:                -0.127
REMARK SMILES Cc1ccc(C(C)C)cc1O
REMARK SMILES IDX 1 1 2 2 10 3 9 4 5 5 4 6 3 7 11 8 6 10 7 11 8 12
REMARK H PARENT 11 9
REMARK Flexibility Score: inf
ROOT
ATOM      1  C   UNL     1      57.883 155.413   1.143  1.00  0.00     0.048 C 
ATOM      2  C   UNL     1      58.819 154.392   1.726  1.00  0.00    -0.009 A 
ATOM      3  C   UNL     1      59.872 153.873   0.954  1.00  0.00     0.118 A 
ATOM      4  C   UNL     1      60.742 152.921   1.506  1.00  0.00     0.050 A 
ATOM      5  C   UNL     1      60.573 152.477   2.830  1.00  0.00    -0.042 A 
ATOM      6  C   UNL     1      59.517 153.002   3.594  1.00  0.00     0.004 A 
ATOM      7  C   UNL     1      58.648 153.950   3.047  1.00  0.00     0.007 A 
ENDROOT
BRANCH   3   8
ATOM      8  O   UNL     1      60.052 154.304  -0.360  1.00  0.00    -0.508 OA
ATOM      9  H   UNL     1      59.423 154.022  -1.103  1.00  0.00     0.293 HD
ENDBRANCH   3   8
BRANCH   5  10
ATOM     10  C   UNL     1      61.509 151.447   3.436  1.00  0.00     0.013 C 
ATOM     11  C   UNL     1      61.273 151.307   4.944  1.00  0.00     0.012 C 
ATOM     12  C   UNL     1      62.973 151.785   3.135  1.00  0.00     0.012 C 
ENDBRANCH   5  10
TORSDOF 2
ENDMDL
MODEL 2
REMARK VINA RESULT:    -5.591      5.191      6.248
REMARK INTER + INTRA:          -6.208
REMARK INTER:                  -6.081
REMARK INTRA:                  -0.128
REMARK UNBOUND:                -0.127
REMARK SMILES Cc1ccc(C(C)C)cc1O
REMARK SMILES IDX 1 1 2 2 10 3 9 4 5 5 4 6 3 7 11 8 6 10 7 11 8 12
REMARK H PARENT 11 9
REMARK Flexibility Score: inf
ROOT
ATOM      1  C   UNL     1      65.641 152.518   5.455  1.00  0.00     0.048 C 
ATOM      2  C   UNL     1      64.593 151.441   5.458  1.00  0.00    -0.009 A 
ATOM      3  C   UNL     1      63.255 151.755   5.753  1.00  0.00     0.118 A 
ATOM      4  C   UNL     1      62.282 150.744   5.753  1.00  0.00     0.050 A 
ATOM      5  C   UNL     1      62.630 149.413   5.459  1.00  0.00    -0.042 A 
ATOM      6  C   UNL     1      63.969 149.109   5.166  1.00  0.00     0.004 A 
ATOM      7  C   UNL     1      64.942 150.113   5.166  1.00  0.00     0.007 A 
ENDROOT
BRANCH   3   8
ATOM      8  O   UNL     1      62.895 153.070   6.045  1.00  0.00    -0.508 OA
ATOM      9  H   UNL     1      63.425 153.858   5.691  1.00  0.00     0.293 HD
ENDBRANCH   3   8
BRANCH   5  10
ATOM     10  C   UNL     1      61.585 148.312   5.458  1.00  0.00     0.013 C 
ATOM     11  C   UNL     1      60.775 148.318   6.758  1.00  0.00     0.012 C 
ATOM     12  C   UNL     1      62.225 146.942   5.211  1.00  0.00     0.012 C 
ENDBRANCH   5  10
TORSDOF 2
ENDMDL
MODEL 3
REMARK VINA RESULT:    -5.514      2.450      3.829
REMARK INTER + INTRA:          -6.125
REMARK INTER:                  -5.997
REMARK INTRA:                  -0.128
REMARK UNBOUND:                -0.127
REMARK SMILES Cc1ccc(C(C)C)cc1O
REMARK SMILES IDX 1 1 2 2 10 3 9 4 5 5 4 6 3 7 11 8 6 10 7 11 8 12
REMARK H PARENT 11 9
REMARK Flexibility Score: inf
ROOT
ATOM      1  C   UNL     1      59.171 152.726   2.677  1.00  0.00     0.048 C 
ATOM      2  C   UNL     1      60.505 152.321   3.239  1.00  0.00    -0.009 A 
ATOM      3  C   UNL     1      60.687 152.219   4.629  1.00  0.00     0.118 A 
ATOM      4  C   UNL     1      61.934 151.841   5.146  1.00  0.00     0.050 A 
ATOM      5  C   UNL     1      63.012 151.560   4.287  1.00  0.00    -0.042 A 
ATOM      6  C   UNL     1      62.820 151.665   2.899  1.00  0.00     0.004 A 
ATOM      7  C   UNL     1      61.579 152.043   2.380  1.00  0.00     0.007 A 
ENDROOT
BRANCH   3   8
ATOM      8  O   UNL     1      59.627 152.494   5.494  1.00  0.00    -0.508 OA
ATOM      9  H   UNL     1      59.726 153.141   6.268  1.00  0.00     0.293 HD
ENDBRANCH   3   8
BRANCH   5  10
ATOM     10  C   UNL     1      64.366 151.151   4.837  1.00  0.00     0.013 C 
ATOM     11  C   UNL     1      65.302 152.358   4.955  1.00  0.00     0.012 C 
ATOM     12  C   UNL     1      64.997 150.044   3.984  1.00  0.00     0.012 C 
ENDBRANCH   5  10
TORSDOF 2
ENDMDL
MODEL 4
REMARK VINA RESULT:    -5.484      3.411      6.143
REMARK INTER + INTRA:          -6.092
REMARK INTER:                  -5.965
REMARK INTRA:                  -0.127
REMARK UNBOUND:                -0.127
REMARK SMILES Cc1ccc(C(C)C)cc1O
REMARK SMILES IDX 1 1 2 2 10 3 9 4 5 5 4 6 3 7 11 8 6 10 7 11 8 12
REMARK H PARENT 11 9
REMARK Flexibility Score: inf
ROOT
ATOM      1  C   UNL     1      65.428 149.291   5.697  1.00  0.00     0.048 C 
ATOM      2  C   UNL     1      64.245 149.943   5.039  1.00  0.00    -0.009 A 
ATOM      3  C   UNL     1      62.939 149.613   5.440  1.00  0.00     0.118 A 
ATOM      4  C   UNL     1      61.840 150.226   4.822  1.00  0.00     0.050 A 
ATOM      5  C   UNL     1      62.028 151.173   3.798  1.00  0.00    -0.042 A 
ATOM      6  C   UNL     1      63.337 151.496   3.404  1.00  0.00     0.004 A 
ATOM      7  C   UNL     1      64.435 150.887   4.018  1.00  0.00     0.007 A 
ENDROOT
BRANCH   3   8
ATOM      8  O   UNL     1      62.736 148.677   6.454  1.00  0.00    -0.508 OA
ATOM      9  H   UNL     1      63.509 148.300   6.991  1.00  0.00     0.293 HD
ENDBRANCH   3   8
BRANCH   5  10
ATOM     10  C   UNL     1      60.845 151.842   3.122  1.00  0.00     0.013 C 
ATOM     11  C   UNL     1      61.274 152.547   1.831  1.00  0.00     0.012 C 
ATOM     12  C   UNL     1      60.141 152.814   4.075  1.00  0.00     0.012 C 
ENDBRANCH   5  10
TORSDOF 2
ENDMDL
MODEL 5
REMARK VINA RESULT:    -5.260      5.813      6.471
REMARK INTER + INTRA:          -5.848
REMARK INTER:                  -5.722
REMARK INTRA:                  -0.126
REMARK UNBOUND:                -0.127
REMARK SMILES Cc1ccc(C(C)C)cc1O
REMARK SMILES IDX 1 1 2 2 10 3 9 4 5 5 4 6 3 7 11 8 6 10 7 11 8 12
REMARK H PARENT 11 9
REMARK Flexibility Score: inf
ROOT
ATOM      1  C   UNL     1      59.712 148.674   7.104  1.00  0.00     0.048 C 
ATOM      2  C   UNL     1      61.051 149.093   6.566  1.00  0.00    -0.009 A 
ATOM      3  C   UNL     1      61.922 148.140   6.010  1.00  0.00     0.118 A 
ATOM      4  C   UNL     1      63.169 148.538   5.509  1.00  0.00     0.050 A 
ATOM      5  C   UNL     1      63.564 149.888   5.557  1.00  0.00    -0.042 A 
ATOM      6  C   UNL     1      62.688 150.833   6.116  1.00  0.00     0.004 A 
ATOM      7  C   UNL     1      61.444 150.439   6.616  1.00  0.00     0.007 A 
ENDROOT
BRANCH   3   8
ATOM      8  O   UNL     1      61.544 146.798   5.955  1.00  0.00    -0.508 OA
ATOM      9  H   UNL     1      60.757 146.445   6.487  1.00  0.00     0.293 HD
ENDBRANCH   3   8
BRANCH   5  10
ATOM     10  C   UNL     1      64.913 150.330   5.018  1.00  0.00     0.013 C 
ATOM     11  C   UNL     1      64.888 151.806   4.610  1.00  0.00     0.012 C 
ATOM     12  C   UNL     1      65.360 149.441   3.853  1.00  0.00     0.012 C 
ENDBRANCH   5  10
TORSDOF 2
ENDMDL
MODEL 6
REMARK VINA RESULT:    -5.251      6.133      6.675
REMARK INTER + INTRA:          -5.838
REMARK INTER:                  -5.712
REMARK INTRA:                  -0.126
REMARK UNBOUND:                -0.127
REMARK SMILES Cc1ccc(C(C)C)cc1O
REMARK SMILES IDX 1 1 2 2 10 3 9 4 5 5 4 6 3 7 11 8 6 10 7 11 8 12
REMARK H PARENT 11 9
REMARK Flexibility Score: inf
ROOT
ATOM      1  C   UNL     1      59.709 148.144   7.102  1.00  0.00     0.048 C 
ATOM      2  C   UNL     1      61.054 148.609   6.618  1.00  0.00    -0.009 A 
ATOM      3  C   UNL     1      61.543 149.873   6.993  1.00  0.00     0.118 A 
ATOM      4  C   UNL     1      62.799 150.301   6.538  1.00  0.00     0.050 A 
ATOM      5  C   UNL     1      63.580 149.477   5.707  1.00  0.00    -0.042 A 
ATOM      6  C   UNL     1      63.082 148.216   5.338  1.00  0.00     0.004 A 
ATOM      7  C   UNL     1      61.831 147.787   5.789  1.00  0.00     0.007 A 
ENDROOT
BRANCH   3   8
ATOM      8  O   UNL     1      60.780 150.701   7.817  1.00  0.00    -0.508 OA
ATOM      9  H   UNL     1      60.943 151.700   7.864  1.00  0.00     0.293 HD
ENDBRANCH   3   8
BRANCH   5  10
ATOM     10  C   UNL     1      64.940 149.931   5.208  1.00  0.00     0.013 C 
ATOM     11  C   UNL     1      65.017 151.459   5.129  1.00  0.00     0.012 C 
ATOM     12  C   UNL     1      65.276 149.289   3.858  1.00  0.00     0.012 C 
ENDBRANCH   5  10
TORSDOF 2
ENDMDL
MODEL 7
REMARK VINA RESULT:    -5.132      2.175      4.754
REMARK INTER + INTRA:          -5.709
REMARK INTER:                  -5.584
REMARK INTRA:                  -0.126
REMARK UNBOUND:                -0.127
REMARK SMILES Cc1ccc(C(C)C)cc1O
REMARK SMILES IDX 1 1 2 2 10 3 9 4 5 5 4 6 3 7 11 8 6 10 7 11 8 12
REMARK H PARENT 11 9
REMARK Flexibility Score: inf
ROOT
ATOM      1  C   UNL     1      62.328 150.889   5.420  1.00  0.00     0.048 C 
ATOM      2  C   UNL     1      61.548 151.586   4.341  1.00  0.00    -0.009 A 
ATOM      3  C   UNL     1      60.341 152.238   4.647  1.00  0.00     0.118 A 
ATOM      4  C   UNL     1      59.619 152.887   3.635  1.00  0.00     0.050 A 
ATOM      5  C   UNL     1      60.089 152.894   2.309  1.00  0.00    -0.042 A 
ATOM      6  C   UNL     1      61.297 152.239   2.013  1.00  0.00     0.004 A 
ATOM      7  C   UNL     1      62.019 151.591   3.019  1.00  0.00     0.007 A 
ENDROOT
BRANCH   3   8
ATOM      8  O   UNL     1      59.862 152.240   5.958  1.00  0.00    -0.508 OA
ATOM      9  H   UNL     1      59.099 152.842   6.244  1.00  0.00     0.293 HD
ENDBRANCH   3   8
BRANCH   5  10
ATOM     10  C   UNL     1      59.315 153.592   1.207  1.00  0.00     0.013 C 
ATOM     11  C   UNL     1      60.255 154.101   0.109  1.00  0.00     0.012 C 
ATOM     12  C   UNL     1      58.456 154.729   1.770  1.00  0.00     0.012 C 
ENDBRANCH   5  10
TORSDOF 2
ENDMDL
MODEL 8
REMARK VINA RESULT:    -5.067     19.554     21.428
REMARK INTER + INTRA:          -5.638
REMARK INTER:                  -5.511
REMARK INTRA:                  -0.127
REMARK UNBOUND:                -0.127
REMARK SMILES Cc1ccc(C(C)C)cc1O
REMARK SMILES IDX 1 1 2 2 10 3 9 4 5 5 4 6 3 7 11 8 6 10 7 11 8 12
REMARK H PARENT 11 9
REMARK Flexibility Score: inf
ROOT
ATOM      1  C   UNL     1      69.319 137.550  -5.128  1.00  0.00     0.048 C 
ATOM      2  C   UNL     1      70.200 137.844  -6.309  1.00  0.00    -0.009 A 
ATOM      3  C   UNL     1      70.024 139.026  -7.048  1.00  0.00     0.118 A 
ATOM      4  C   UNL     1      70.850 139.294  -8.149  1.00  0.00     0.050 A 
ATOM      5  C   UNL     1      71.860 138.389  -8.525  1.00  0.00    -0.042 A 
ATOM      6  C   UNL     1      72.028 137.210  -7.780  1.00  0.00     0.004 A 
ATOM      7  C   UNL     1      71.206 136.940  -6.683  1.00  0.00     0.007 A 
ENDROOT
BRANCH   3   8
ATOM      8  O   UNL     1      69.027 139.933  -6.687  1.00  0.00    -0.508 OA
ATOM      9  H   UNL     1      68.063 139.803  -6.969  1.00  0.00     0.293 HD
ENDBRANCH   3   8
BRANCH   5  10
ATOM     10  C   UNL     1      72.760 138.669  -9.715  1.00  0.00     0.013 C 
ATOM     11  C   UNL     1      71.969 139.295 -10.869  1.00  0.00     0.012 C 
ATOM     12  C   UNL     1      73.488 137.399 -10.169  1.00  0.00     0.012 C 
ENDBRANCH   5  10
TORSDOF 2
ENDMDL
MODEL 9
REMARK VINA RESULT:    -4.917      4.844      5.993
REMARK INTER + INTRA:          -5.475
REMARK INTER:                  -5.369
REMARK INTRA:                  -0.106
REMARK UNBOUND:                -0.127
REMARK SMILES Cc1ccc(C(C)C)cc1O
REMARK SMILES IDX 1 1 2 2 10 3 9 4 5 5 4 6 3 7 11 8 6 10 7 11 8 12
REMARK H PARENT 11 9
REMARK Flexibility Score: inf
ROOT
ATOM      1  C   UNL     1      59.908 150.681   8.066  1.00  0.00     0.048 C 
ATOM      2  C   UNL     1      61.007 150.779   7.046  1.00  0.00    -0.009 A 
ATOM      3  C   UNL     1      62.203 150.061   7.220  1.00  0.00     0.118 A 
ATOM      4  C   UNL     1      63.223 150.158   6.264  1.00  0.00     0.050 A 
ATOM      5  C   UNL     1      63.066 150.970   5.125  1.00  0.00    -0.042 A 
ATOM      6  C   UNL     1      61.867 151.684   4.960  1.00  0.00     0.004 A 
ATOM      7  C   UNL     1      60.848 151.590   5.912  1.00  0.00     0.007 A 
ENDROOT
BRANCH   3   8
ATOM      8  O   UNL     1      62.373 149.252   8.344  1.00  0.00    -0.508 OA
ATOM      9  H   UNL     1      62.963 148.428   8.321  1.00  0.00     0.293 HD
ENDBRANCH   3   8
BRANCH   5  10
ATOM     10  C   UNL     1      64.165 151.082   4.084  1.00  0.00     0.013 C 
ATOM     11  C   UNL     1      65.027 149.816   4.053  1.00  0.00     0.012 C 
ATOM     12  C   UNL     1      65.023 152.329   4.319  1.00  0.00     0.012 C 
ENDBRANCH   5  10
TORSDOF 2
ENDMDL
