MODEL 1
REMARK VINA RESULT:    -2.949      0.000      0.000
REMARK INTER + INTRA:          -8.622
REMARK INTER:                  -5.534
REMARK INTRA:                  -3.088
REMARK UNBOUND:                -3.088
REMARK SMILES CCCCCCCCC=CCCCCCCCC(=O)[O-]
REMARK SMILES IDX 10 1 9 2 11 3 12 4 13 5 14 6 15 7 16 8 17 9 18 10 19 11
REMARK SMILES IDX 20 12 8 13 7 14 6 15 5 16 4 17 3 18 2 19 1 20
REMARK H PARENT
REMARK Flexibility Score: inf
ROOT
ATOM      1  C   UNL     1     -32.204   4.401 -37.980  1.00  0.00    -0.031 C 
ATOM      2  C   UNL     1     -31.100   4.421 -38.742  1.00  0.00    -0.031 C 
ENDROOT
BRANCH   1   3
ATOM      3  C   UNL     1     -33.232   3.314 -38.118  1.00  0.00     0.027 C 
BRANCH   3   4
ATOM      4  C   UNL     1     -32.772   2.242 -39.116  1.00  0.00     0.004 C 
BRANCH   4   5
ATOM      5  C   UNL     1     -33.110   0.813 -38.654  1.00  0.00     0.000 C 
BRANCH   5   6
ATOM      6  C   UNL     1     -31.923  -0.172 -38.673  1.00  0.00     0.000 C 
BRANCH   6   7
ATOM      7  C   UNL     1     -30.594   0.412 -39.193  1.00  0.00     0.000 C 
BRANCH   7   8
ATOM      8  C   UNL     1     -29.625  -0.619 -39.798  1.00  0.00     0.006 C 
BRANCH   8   9
ATOM      9  C   UNL     1     -28.462  -0.965 -38.860  1.00  0.00     0.053 C 
BRANCH   9  10
ATOM     10  C   UNL     1     -28.694  -2.292 -38.208  1.00  0.00     0.041 C 
ATOM     11  O   UNL     1     -29.197  -2.352 -37.055  1.00  0.00    -0.550 OA
ATOM     12  O   UNL     1     -28.305  -3.461 -38.850  1.00  0.00    -0.550 OA
ENDBRANCH   9  10
ENDBRANCH   8   9
ENDBRANCH   7   8
ENDBRANCH   6   7
ENDBRANCH   5   6
ENDBRANCH   4   5
ENDBRANCH   3   4
ENDBRANCH   1   3
BRANCH   2  13
ATOM     13  C   UNL     1     -30.099   5.542 -38.655  1.00  0.00     0.027 C 
BRANCH  13  14
ATOM     14  C   UNL     1     -28.655   5.015 -38.630  1.00  0.00     0.004 C 
BRANCH  14  15
ATOM     15  C   UNL     1     -28.537   3.480 -38.665  1.00  0.00     0.000 C 
BRANCH  15  16
ATOM     16  C   UNL     1     -27.678   2.923 -37.516  1.00  0.00     0.000 C 
BRANCH  16  17
ATOM     17  C   UNL     1     -28.474   2.002 -36.579  1.00  0.00    -0.000 C 
BRANCH  17  18
ATOM     18  C   UNL     1     -29.620   2.735 -35.860  1.00  0.00    -0.000 C 
BRANCH  18  19
ATOM     19  C   UNL     1     -30.858   1.845 -35.664  1.00  0.00    -0.003 C 
ATOM     20  C   UNL     1     -30.500   0.397 -35.327  1.00  0.00     0.004 C 
ENDBRANCH  18  19
ENDBRANCH  17  18
ENDBRANCH  16  17
ENDBRANCH  15  16
ENDBRANCH  14  15
ENDBRANCH  13  14
ENDBRANCH   2  13
TORSDOF 15
ENDMDL
MODEL 2
REMARK VINA RESULT:    -2.915      3.808      6.090
REMARK INTER + INTRA:          -8.558
REMARK INTER:                  -6.228
REMARK INTRA:                  -2.330
REMARK UNBOUND:                -3.088
REMARK SMILES CCCCCCCCC=CCCCCCCCC(=O)[O-]
REMARK SMILES IDX 10 1 9 2 11 3 12 4 13 5 14 6 15 7 16 8 17 9 18 10 19 11
REMARK SMILES IDX 20 12 8 13 7 14 6 15 5 16 4 17 3 18 2 19 1 20
REMARK H PARENT
REMARK Flexibility Score: inf
ROOT
ATOM      1  C   UNL     1     -30.980   3.223 -38.418  1.00  0.00    -0.031 C 
ATOM      2  C   UNL     1     -32.163   2.675 -38.098  1.00  0.00    -0.031 C 
ENDROOT
BRANCH   1   3
ATOM      3  C   UNL     1     -30.364   4.304 -37.574  1.00  0.00     0.027 C 
BRANCH   3   4
ATOM      4  C   UNL     1     -29.085   4.850 -38.225  1.00  0.00     0.004 C 
BRANCH   4   5
ATOM      5  C   UNL     1     -27.803   4.303 -37.571  1.00  0.00     0.000 C 
BRANCH   5   6
ATOM      6  C   UNL     1     -26.840   5.380 -37.032  1.00  0.00     0.000 C 
BRANCH   6   7
ATOM      7  C   UNL     1     -26.608   5.350 -35.508  1.00  0.00     0.000 C 
BRANCH   7   8
ATOM      8  C   UNL     1     -26.268   3.964 -34.931  1.00  0.00     0.006 C 
BRANCH   8   9
ATOM      9  C   UNL     1     -25.804   4.026 -33.471  1.00  0.00     0.053 C 
BRANCH   9  10
ATOM     10  C   UNL     1     -24.468   4.691 -33.374  1.00  0.00     0.041 C 
ATOM     11  O   UNL     1     -24.316   5.702 -32.638  1.00  0.00    -0.550 OA
ATOM     12  O   UNL     1     -23.403   4.229 -34.137  1.00  0.00    -0.550 OA
ENDBRANCH   9  10
ENDBRANCH   8   9
ENDBRANCH   7   8
ENDBRANCH   6   7
ENDBRANCH   5   6
ENDBRANCH   4   5
ENDBRANCH   3   4
ENDBRANCH   1   3
BRANCH   2  13
ATOM     13  C   UNL     1     -32.816   1.639 -38.974  1.00  0.00     0.027 C 
BRANCH  13  14
ATOM     14  C   UNL     1     -32.674   0.226 -38.387  1.00  0.00     0.004 C 
BRANCH  14  15
ATOM     15  C   UNL     1     -31.425  -0.538 -38.864  1.00  0.00     0.000 C 
BRANCH  15  16
ATOM     16  C   UNL     1     -30.462  -0.880 -37.713  1.00  0.00     0.000 C 
BRANCH  16  17
ATOM     17  C   UNL     1     -29.055  -0.301 -37.930  1.00  0.00    -0.000 C 
BRANCH  17  18
ATOM     18  C   UNL     1     -28.704   0.800 -36.914  1.00  0.00    -0.000 C 
BRANCH  18  19
ATOM     19  C   UNL     1     -29.744   0.916 -35.789  1.00  0.00    -0.003 C 
ATOM     20  C   UNL     1     -29.468   2.085 -34.842  1.00  0.00     0.004 C 
ENDBRANCH  18  19
ENDBRANCH  17  18
ENDBRANCH  16  17
ENDBRANCH  15  16
ENDBRANCH  14  15
ENDBRANCH  13  14
ENDBRANCH   2  13
TORSDOF 15
ENDMDL
MODEL 3
REMARK VINA RESULT:    -2.894      3.506      5.877
REMARK INTER + INTRA:          -8.520
REMARK INTER:                  -6.021
REMARK INTRA:                  -2.499
REMARK UNBOUND:                -3.088
REMARK SMILES CCCCCCCCC=CCCCCCCCC(=O)[O-]
REMARK SMILES IDX 10 1 9 2 11 3 12 4 13 5 14 6 15 7 16 8 17 9 18 10 19 11
REMARK SMILES IDX 20 12 8 13 7 14 6 15 5 16 4 17 3 18 2 19 1 20
REMARK H PARENT
REMARK Flexibility Score: inf
ROOT
ATOM      1  C   UNL     1     -29.888   2.955 -39.609  1.00  0.00    -0.031 C 
ATOM      2  C   UNL     1     -31.041   3.150 -38.951  1.00  0.00    -0.031 C 
ENDROOT
BRANCH   1   3
ATOM      3  C   UNL     1     -28.635   3.695 -39.230  1.00  0.00     0.027 C 
BRANCH   3   4
ATOM      4  C   UNL     1     -28.799   4.401 -37.877  1.00  0.00     0.004 C 
BRANCH   4   5
ATOM      5  C   UNL     1     -27.525   5.143 -37.434  1.00  0.00     0.000 C 
BRANCH   5   6
ATOM      6  C   UNL     1     -26.779   4.499 -36.248  1.00  0.00     0.000 C 
BRANCH   6   7
ATOM      7  C   UNL     1     -25.642   3.532 -36.636  1.00  0.00     0.000 C 
BRANCH   7   8
ATOM      8  C   UNL     1     -25.322   2.453 -35.587  1.00  0.00     0.006 C 
BRANCH   8   9
ATOM      9  C   UNL     1     -25.344   2.993 -34.152  1.00  0.00     0.053 C 
BRANCH   9  10
ATOM     10  C   UNL     1     -23.952   3.241 -33.665  1.00  0.00     0.041 C 
ATOM     11  O   UNL     1     -23.340   4.289 -34.001  1.00  0.00    -0.550 OA
ATOM     12  O   UNL     1     -23.308   2.290 -32.882  1.00  0.00    -0.550 OA
ENDBRANCH   9  10
ENDBRANCH   8   9
ENDBRANCH   7   8
ENDBRANCH   6   7
ENDBRANCH   5   6
ENDBRANCH   4   5
ENDBRANCH   3   4
ENDBRANCH   1   3
BRANCH   2  13
ATOM     13  C   UNL     1     -32.314   2.463 -39.368  1.00  0.00     0.027 C 
BRANCH  13  14
ATOM     14  C   UNL     1     -32.984   1.741 -38.187  1.00  0.00     0.004 C 
BRANCH  14  15
ATOM     15  C   UNL     1     -33.118   0.217 -38.368  1.00  0.00     0.000 C 
BRANCH  15  16
ATOM     16  C   UNL     1     -31.769  -0.470 -38.645  1.00  0.00     0.000 C 
BRANCH  16  17
ATOM     17  C   UNL     1     -30.848  -0.476 -37.415  1.00  0.00    -0.000 C 
BRANCH  17  18
ATOM     18  C   UNL     1     -29.378  -0.196 -37.775  1.00  0.00    -0.000 C 
BRANCH  18  19
ATOM     19  C   UNL     1     -28.707   0.776 -36.791  1.00  0.00    -0.003 C 
ATOM     20  C   UNL     1     -29.706   1.468 -35.864  1.00  0.00     0.004 C 
ENDBRANCH  18  19
ENDBRANCH  17  18
ENDBRANCH  16  17
ENDBRANCH  15  16
ENDBRANCH  14  15
ENDBRANCH  13  14
ENDBRANCH   2  13
TORSDOF 15
ENDMDL
MODEL 4
REMARK VINA RESULT:    -2.885      3.014      5.242
REMARK INTER + INTRA:          -8.502
REMARK INTER:                  -5.867
REMARK INTRA:                  -2.635
REMARK UNBOUND:                -3.088
REMARK SMILES CCCCCCCCC=CCCCCCCCC(=O)[O-]
REMARK SMILES IDX 10 1 9 2 11 3 12 4 13 5 14 6 15 7 16 8 17 9 18 10 19 11
REMARK SMILES IDX 20 12 8 13 7 14 6 15 5 16 4 17 3 18 2 19 1 20
REMARK H PARENT
REMARK Flexibility Score: inf
ROOT
ATOM      1  C   UNL     1     -31.748   3.047 -39.622  1.00  0.00    -0.031 C 
ATOM      2  C   UNL     1     -32.570   2.585 -38.668  1.00  0.00    -0.031 C 
ENDROOT
BRANCH   1   3
ATOM      3  C   UNL     1     -31.303   4.483 -39.645  1.00  0.00     0.027 C 
BRANCH   3   4
ATOM      4  C   UNL     1     -29.771   4.585 -39.685  1.00  0.00     0.004 C 
BRANCH   4   5
ATOM      5  C   UNL     1     -29.178   5.165 -38.388  1.00  0.00     0.000 C 
BRANCH   5   6
ATOM      6  C   UNL     1     -27.898   4.465 -37.891  1.00  0.00     0.000 C 
BRANCH   6   7
ATOM      7  C   UNL     1     -26.998   5.318 -36.973  1.00  0.00     0.000 C 
BRANCH   7   8
ATOM      8  C   UNL     1     -26.692   4.691 -35.601  1.00  0.00     0.006 C 
BRANCH   8   9
ATOM      9  C   UNL     1     -26.051   3.303 -35.711  1.00  0.00     0.053 C 
BRANCH   9  10
ATOM     10  C   UNL     1     -24.559   3.417 -35.739  1.00  0.00     0.041 C 
ATOM     11  O   UNL     1     -23.932   3.775 -34.707  1.00  0.00    -0.550 OA
ATOM     12  O   UNL     1     -23.865   3.181 -36.918  1.00  0.00    -0.550 OA
ENDBRANCH   9  10
ENDBRANCH   8   9
ENDBRANCH   7   8
ENDBRANCH   6   7
ENDBRANCH   5   6
ENDBRANCH   4   5
ENDBRANCH   3   4
ENDBRANCH   1   3
BRANCH   2  13
ATOM     13  C   UNL     1     -33.073   1.166 -38.677  1.00  0.00     0.027 C 
BRANCH  13  14
ATOM     14  C   UNL     1     -31.941   0.163 -38.954  1.00  0.00     0.004 C 
BRANCH  14  15
ATOM     15  C   UNL     1     -31.385  -0.531 -37.697  1.00  0.00     0.000 C 
BRANCH  15  16
ATOM     16  C   UNL     1     -29.850  -0.461 -37.608  1.00  0.00     0.000 C 
BRANCH  16  17
ATOM     17  C   UNL     1     -29.331   0.982 -37.506  1.00  0.00    -0.000 C 
BRANCH  17  18
ATOM     18  C   UNL     1     -29.406   1.537 -36.072  1.00  0.00    -0.000 C 
BRANCH  18  19
ATOM     19  C   UNL     1     -30.464   2.642 -35.924  1.00  0.00    -0.003 C 
ATOM     20  C   UNL     1     -30.116   3.656 -34.834  1.00  0.00     0.004 C 
ENDBRANCH  18  19
ENDBRANCH  17  18
ENDBRANCH  16  17
ENDBRANCH  15  16
ENDBRANCH  14  15
ENDBRANCH  13  14
ENDBRANCH   2  13
TORSDOF 15
ENDMDL
MODEL 5
REMARK VINA RESULT:    -2.879      2.825      5.101
REMARK INTER + INTRA:          -8.491
REMARK INTER:                  -5.408
REMARK INTRA:                  -3.083
REMARK UNBOUND:                -3.088
REMARK SMILES CCCCCCCCC=CCCCCCCCC(=O)[O-]
REMARK SMILES IDX 10 1 9 2 11 3 12 4 13 5 14 6 15 7 16 8 17 9 18 10 19 11
REMARK SMILES IDX 20 12 8 13 7 14 6 15 5 16 4 17 3 18 2 19 1 20
REMARK H PARENT
REMARK Flexibility Score: inf
ROOT
ATOM      1  C   UNL     1     -31.899   3.945 -36.866  1.00  0.00    -0.031 C 
ATOM      2  C   UNL     1     -30.993   3.664 -35.916  1.00  0.00    -0.031 C 
ENDROOT
BRANCH   1   3
ATOM      3  C   UNL     1     -31.645   5.007 -37.900  1.00  0.00     0.027 C 
BRANCH   3   4
ATOM      4  C   UNL     1     -31.739   4.428 -39.319  1.00  0.00     0.004 C 
BRANCH   4   5
ATOM      5  C   UNL     1     -30.422   4.558 -40.105  1.00  0.00     0.000 C 
BRANCH   5   6
ATOM      6  C   UNL     1     -29.171   4.803 -39.237  1.00  0.00     0.000 C 
BRANCH   6   7
ATOM      7  C   UNL     1     -28.305   3.555 -38.967  1.00  0.00     0.000 C 
BRANCH   7   8
ATOM      8  C   UNL     1     -27.711   3.472 -37.550  1.00  0.00     0.006 C 
BRANCH   8   9
ATOM      9  C   UNL     1     -27.541   4.848 -36.894  1.00  0.00     0.053 C 
BRANCH   9  10
ATOM     10  C   UNL     1     -26.489   4.795 -35.832  1.00  0.00     0.041 C 
ATOM     11  O   UNL     1     -26.287   5.793 -35.090  1.00  0.00    -0.550 OA
ATOM     12  O   UNL     1     -25.695   3.664 -35.694  1.00  0.00    -0.550 OA
ENDBRANCH   9  10
ENDBRANCH   8   9
ENDBRANCH   7   8
ENDBRANCH   6   7
ENDBRANCH   5   6
ENDBRANCH   4   5
ENDBRANCH   3   4
ENDBRANCH   1   3
BRANCH   2  13
ATOM     13  C   UNL     1     -31.268   2.649 -34.839  1.00  0.00     0.027 C 
BRANCH  13  14
ATOM     14  C   UNL     1     -30.357   1.418 -34.970  1.00  0.00     0.004 C 
BRANCH  14  15
ATOM     15  C   UNL     1     -31.107   0.096 -35.217  1.00  0.00     0.000 C 
BRANCH  15  16
ATOM     16  C   UNL     1     -30.726  -0.562 -36.555  1.00  0.00     0.000 C 
BRANCH  16  17
ATOM     17  C   UNL     1     -29.917   0.376 -37.464  1.00  0.00    -0.000 C 
BRANCH  17  18
ATOM     18  C   UNL     1     -30.724   0.862 -38.682  1.00  0.00    -0.000 C 
BRANCH  18  19
ATOM     19  C   UNL     1     -32.079   0.149 -38.812  1.00  0.00    -0.003 C 
ATOM     20  C   UNL     1     -33.267   1.081 -38.568  1.00  0.00     0.004 C 
ENDBRANCH  18  19
ENDBRANCH  17  18
ENDBRANCH  16  17
ENDBRANCH  15  16
ENDBRANCH  14  15
ENDBRANCH  13  14
ENDBRANCH   2  13
TORSDOF 15
ENDMDL
MODEL 6
REMARK VINA RESULT:    -2.864      3.111      5.537
REMARK INTER + INTRA:          -8.463
REMARK INTER:                  -6.059
REMARK INTRA:                  -2.404
REMARK UNBOUND:                -3.088
REMARK SMILES CCCCCCCCC=CCCCCCCCC(=O)[O-]
REMARK SMILES IDX 10 1 9 2 11 3 12 4 13 5 14 6 15 7 16 8 17 9 18 10 19 11
REMARK SMILES IDX 20 12 8 13 7 14 6 15 5 16 4 17 3 18 2 19 1 20
REMARK H PARENT
REMARK Flexibility Score: inf
ROOT
ATOM      1  C   UNL     1     -30.823   3.311 -38.891  1.00  0.00    -0.031 C 
ATOM      2  C   UNL     1     -31.841   2.689 -39.505  1.00  0.00    -0.031 C 
ENDROOT
BRANCH   1   3
ATOM      3  C   UNL     1     -29.630   3.808 -39.658  1.00  0.00     0.027 C 
BRANCH   3   4
ATOM      4  C   UNL     1     -28.470   4.152 -38.713  1.00  0.00     0.004 C 
BRANCH   4   5
ATOM      5  C   UNL     1     -28.842   3.988 -37.228  1.00  0.00     0.000 C 
BRANCH   5   6
ATOM      6  C   UNL     1     -27.711   4.326 -36.236  1.00  0.00     0.000 C 
BRANCH   6   7
ATOM      7  C   UNL     1     -26.281   4.132 -36.780  1.00  0.00     0.000 C 
BRANCH   7   8
ATOM      8  C   UNL     1     -25.324   3.384 -35.836  1.00  0.00     0.006 C 
BRANCH   8   9
ATOM      9  C   UNL     1     -24.825   2.058 -36.423  1.00  0.00     0.053 C 
BRANCH   9  10
ATOM     10  C   UNL     1     -23.419   2.200 -36.915  1.00  0.00     0.041 C 
ATOM     11  O   UNL     1     -22.625   1.224 -36.855  1.00  0.00    -0.550 OA
ATOM     12  O   UNL     1     -22.969   3.425 -37.393  1.00  0.00    -0.550 OA
ENDBRANCH   9  10
ENDBRANCH   8   9
ENDBRANCH   7   8
ENDBRANCH   6   7
ENDBRANCH   5   6
ENDBRANCH   4   5
ENDBRANCH   3   4
ENDBRANCH   1   3
BRANCH   2  13
ATOM     13  C   UNL     1     -33.007   2.131 -38.734  1.00  0.00     0.027 C 
BRANCH  13  14
ATOM     14  C   UNL     1     -32.918   0.603 -38.593  1.00  0.00     0.004 C 
BRANCH  14  15
ATOM     15  C   UNL     1     -32.094   0.124 -37.384  1.00  0.00     0.000 C 
BRANCH  15  16
ATOM     16  C   UNL     1     -30.936  -0.806 -37.784  1.00  0.00     0.000 C 
BRANCH  16  17
ATOM     17  C   UNL     1     -30.726  -0.864 -39.306  1.00  0.00    -0.000 C 
BRANCH  17  18
ATOM     18  C   UNL     1     -29.471  -0.097 -39.760  1.00  0.00    -0.000 C 
BRANCH  18  19
ATOM     19  C   UNL     1     -28.598   0.356 -38.579  1.00  0.00    -0.003 C 
ATOM     20  C   UNL     1     -27.159   0.668 -38.989  1.00  0.00     0.004 C 
ENDBRANCH  18  19
ENDBRANCH  17  18
ENDBRANCH  16  17
ENDBRANCH  15  16
ENDBRANCH  14  15
ENDBRANCH  13  14
ENDBRANCH   2  13
TORSDOF 15
ENDMDL
MODEL 7
REMARK VINA RESULT:    -2.856      2.785      3.977
REMARK INTER + INTRA:          -8.449
REMARK INTER:                  -5.616
REMARK INTRA:                  -2.833
REMARK UNBOUND:                -3.088
REMARK SMILES CCCCCCCCC=CCCCCCCCC(=O)[O-]
REMARK SMILES IDX 10 1 9 2 11 3 12 4 13 5 14 6 15 7 16 8 17 9 18 10 19 11
REMARK SMILES IDX 20 12 8 13 7 14 6 15 5 16 4 17 3 18 2 19 1 20
REMARK H PARENT
REMARK Flexibility Score: inf
ROOT
ATOM      1  C   UNL     1     -31.439   2.100 -39.426  1.00  0.00    -0.031 C 
ATOM      2  C   UNL     1     -31.242   3.383 -39.766  1.00  0.00    -0.031 C 
ENDROOT
BRANCH   1   3
ATOM      3  C   UNL     1     -32.798   1.594 -39.030  1.00  0.00     0.027 C 
BRANCH   3   4
ATOM      4  C   UNL     1     -32.704   0.198 -38.398  1.00  0.00     0.004 C 
BRANCH   4   5
ATOM      5  C   UNL     1     -31.349  -0.484 -38.657  1.00  0.00     0.000 C 
BRANCH   5   6
ATOM      6  C   UNL     1     -30.502  -0.744 -37.394  1.00  0.00     0.000 C 
BRANCH   6   7
ATOM      7  C   UNL     1     -29.479   0.358 -37.052  1.00  0.00     0.000 C 
BRANCH   7   8
ATOM      8  C   UNL     1     -29.728   1.083 -35.718  1.00  0.00     0.006 C 
BRANCH   8   9
ATOM      9  C   UNL     1     -30.988   1.957 -35.741  1.00  0.00     0.053 C 
BRANCH   9  10
ATOM     10  C   UNL     1     -30.624   3.402 -35.616  1.00  0.00     0.041 C 
ATOM     11  O   UNL     1     -29.740   3.764 -34.795  1.00  0.00    -0.550 OA
ATOM     12  O   UNL     1     -31.297   4.358 -36.367  1.00  0.00    -0.550 OA
ENDBRANCH   9  10
ENDBRANCH   8   9
ENDBRANCH   7   8
ENDBRANCH   6   7
ENDBRANCH   5   6
ENDBRANCH   4   5
ENDBRANCH   3   4
ENDBRANCH   1   3
BRANCH   2  13
ATOM     13  C   UNL     1     -29.872   3.911 -40.100  1.00  0.00     0.027 C 
BRANCH  13  14
ATOM     14  C   UNL     1     -28.876   3.675 -38.953  1.00  0.00     0.004 C 
BRANCH  14  15
ATOM     15  C   UNL     1     -28.384   4.962 -38.265  1.00  0.00     0.000 C 
BRANCH  15  16
ATOM     16  C   UNL     1     -27.311   4.691 -37.195  1.00  0.00     0.000 C 
BRANCH  16  17
ATOM     17  C   UNL     1     -26.991   3.196 -37.048  1.00  0.00    -0.000 C 
BRANCH  17  18
ATOM     18  C   UNL     1     -26.417   2.846 -35.663  1.00  0.00    -0.000 C 
BRANCH  18  19
ATOM     19  C   UNL     1     -25.925   1.393 -35.580  1.00  0.00    -0.003 C 
ATOM     20  C   UNL     1     -25.723   0.754 -36.954  1.00  0.00     0.004 C 
ENDBRANCH  18  19
ENDBRANCH  17  18
ENDBRANCH  16  17
ENDBRANCH  15  16
ENDBRANCH  14  15
ENDBRANCH  13  14
ENDBRANCH   2  13
TORSDOF 15
ENDMDL
MODEL 8
REMARK VINA RESULT:    -2.761      2.846      5.666
REMARK INTER + INTRA:          -8.270
REMARK INTER:                  -5.366
REMARK INTRA:                  -2.904
REMARK UNBOUND:                -3.088
REMARK SMILES CCCCCCCCC=CCCCCCCCC(=O)[O-]
REMARK SMILES IDX 10 1 9 2 11 3 12 4 13 5 14 6 15 7 16 8 17 9 18 10 19 11
REMARK SMILES IDX 20 12 8 13 7 14 6 15 5 16 4 17 3 18 2 19 1 20
REMARK H PARENT
REMARK Flexibility Score: inf
ROOT
ATOM      1  C   UNL     1     -28.285   4.712 -37.920  1.00  0.00    -0.031 C 
ATOM      2  C   UNL     1     -28.330   3.558 -38.603  1.00  0.00    -0.031 C 
ENDROOT
BRANCH   1   3
ATOM      3  C   UNL     1     -27.143   5.030 -36.995  1.00  0.00     0.027 C 
BRANCH   3   4
ATOM      4  C   UNL     1     -26.249   3.801 -36.779  1.00  0.00     0.004 C 
BRANCH   4   5
ATOM      5  C   UNL     1     -26.334   3.247 -35.345  1.00  0.00     0.000 C 
BRANCH   5   6
ATOM      6  C   UNL     1     -27.758   3.190 -34.756  1.00  0.00     0.000 C 
BRANCH   6   7
ATOM      7  C   UNL     1     -28.592   1.961 -35.173  1.00  0.00     0.000 C 
BRANCH   7   8
ATOM      8  C   UNL     1     -30.046   2.269 -35.570  1.00  0.00     0.006 C 
BRANCH   8   9
ATOM      9  C   UNL     1     -30.463   3.707 -35.235  1.00  0.00     0.053 C 
BRANCH   9  10
ATOM     10  C   UNL     1     -31.624   3.708 -34.293  1.00  0.00     0.041 C 
ATOM     11  O   UNL     1     -31.566   3.060 -33.214  1.00  0.00    -0.550 OA
ATOM     12  O   UNL     1     -32.793   4.381 -34.628  1.00  0.00    -0.550 OA
ENDBRANCH   9  10
ENDBRANCH   8   9
ENDBRANCH   7   8
ENDBRANCH   6   7
ENDBRANCH   5   6
ENDBRANCH   4   5
ENDBRANCH   3   4
ENDBRANCH   1   3
BRANCH   2  13
ATOM     13  C   UNL     1     -29.502   3.204 -39.480  1.00  0.00     0.027 C 
BRANCH  13  14
ATOM     14  C   UNL     1     -30.725   4.084 -39.177  1.00  0.00     0.004 C 
BRANCH  14  15
ATOM     15  C   UNL     1     -31.918   3.325 -38.567  1.00  0.00     0.000 C 
BRANCH  15  16
ATOM     16  C   UNL     1     -32.422   2.184 -39.469  1.00  0.00     0.000 C 
BRANCH  16  17
ATOM     17  C   UNL     1     -33.164   1.093 -38.681  1.00  0.00    -0.000 C 
BRANCH  17  18
ATOM     18  C   UNL     1     -32.215   0.023 -38.114  1.00  0.00    -0.000 C 
BRANCH  18  19
ATOM     19  C   UNL     1     -31.032  -0.271 -39.051  1.00  0.00    -0.003 C 
ATOM     20  C   UNL     1     -29.693  -0.332 -38.315  1.00  0.00     0.004 C 
ENDBRANCH  18  19
ENDBRANCH  17  18
ENDBRANCH  16  17
ENDBRANCH  15  16
ENDBRANCH  14  15
ENDBRANCH  13  14
ENDBRANCH   2  13
TORSDOF 15
ENDMDL
