MODEL 1
REMARK VINA RESULT:    -4.723      0.000      0.000
REMARK INTER + INTRA:         -13.763
REMARK INTER:                 -10.245
REMARK INTRA:                  -3.518
REMARK UNBOUND:                -3.518
REMARK SMILES CCCCCCCCCCCCCCCCCCCCCC(=O)[O-]
REMARK SMILES IDX 12 1 11 2 10 3 9 4 8 5 7 6 6 7 5 8 4 9 3 10 2 11 1 12 13 13
REMARK SMILES IDX 14 14 15 15 16 16 17 17 18 18 19 19 20 20 21 21 22 22 23 23
REMARK SMILES IDX 24 24
REMARK H PARENT
REMARK Flexibility Score: inf
ROOT
ATOM      1  C   UNL     1     -26.264 -60.365   4.120  1.00  0.00     0.000 C 
ENDROOT
BRANCH   1   2
ATOM      2  C   UNL     1     -26.707 -61.763   3.650  1.00  0.00     0.000 C 
BRANCH   2   3
ATOM      3  C   UNL     1     -26.823 -62.838   4.753  1.00  0.00     0.000 C 
BRANCH   3   4
ATOM      4  C   UNL     1     -26.001 -64.124   4.514  1.00  0.00    -0.000 C 
BRANCH   4   5
ATOM      5  C   UNL     1     -24.781 -63.934   3.595  1.00  0.00    -0.000 C 
BRANCH   5   6
ATOM      6  C   UNL     1     -23.441 -63.977   4.349  1.00  0.00    -0.000 C 
BRANCH   6   7
ATOM      7  C   UNL     1     -22.758 -62.597   4.415  1.00  0.00    -0.000 C 
BRANCH   7   8
ATOM      8  C   UNL     1     -23.285 -61.695   5.546  1.00  0.00    -0.000 C 
BRANCH   8   9
ATOM      9  C   UNL     1     -22.438 -60.422   5.727  1.00  0.00    -0.000 C 
BRANCH   9  10
ATOM     10  C   UNL     1     -23.296 -59.179   6.021  1.00  0.00    -0.000 C 
BRANCH  10  11
ATOM     11  C   UNL     1     -22.659 -57.884   5.497  1.00  0.00    -0.003 C 
ATOM     12  C   UNL     1     -23.704 -56.982   4.845  1.00  0.00     0.004 C 
ENDBRANCH  10  11
ENDBRANCH   9  10
ENDBRANCH   8   9
ENDBRANCH   7   8
ENDBRANCH   6   7
ENDBRANCH   5   6
ENDBRANCH   4   5
ENDBRANCH   3   4
ENDBRANCH   2   3
ENDBRANCH   1   2
BRANCH   1  13
ATOM     13  C   UNL     1     -25.626 -59.523   3.004  1.00  0.00     0.000 C 
BRANCH  13  14
ATOM     14  C   UNL     1     -25.118 -60.414   1.865  1.00  0.00     0.000 C 
BRANCH  14  15
ATOM     15  C   UNL     1     -23.594 -60.568   1.922  1.00  0.00     0.000 C 
BRANCH  15  16
ATOM     16  C   UNL     1     -22.910 -59.200   2.061  1.00  0.00     0.000 C 
BRANCH  16  17
ATOM     17  C   UNL     1     -21.933 -58.903   0.913  1.00  0.00     0.000 C 
BRANCH  17  18
ATOM     18  C   UNL     1     -21.958 -59.982  -0.180  1.00  0.00     0.000 C 
BRANCH  18  19
ATOM     19  C   UNL     1     -22.548 -59.433  -1.485  1.00  0.00     0.000 C 
BRANCH  19  20
ATOM     20  C   UNL     1     -24.067 -59.635  -1.528  1.00  0.00     0.006 C 
BRANCH  20  21
ATOM     21  C   UNL     1     -24.789 -58.325  -1.860  1.00  0.00     0.053 C 
BRANCH  21  22
ATOM     22  C   UNL     1     -25.874 -58.564  -2.862  1.00  0.00     0.041 C 
ATOM     23  O   UNL     1     -25.873 -59.614  -3.559  1.00  0.00    -0.550 OA
ATOM     24  O   UNL     1     -26.863 -57.608  -3.058  1.00  0.00    -0.550 OA
ENDBRANCH  21  22
ENDBRANCH  20  21
ENDBRANCH  19  20
ENDBRANCH  18  19
ENDBRANCH  17  18
ENDBRANCH  16  17
ENDBRANCH  15  16
ENDBRANCH  14  15
ENDBRANCH  13  14
ENDBRANCH   1  13
TORSDOF 20
ENDMDL
MODEL 2
REMARK VINA RESULT:    -4.700      1.354      2.585
REMARK INTER + INTRA:         -13.713
REMARK INTER:                 -10.317
REMARK INTRA:                  -3.395
REMARK UNBOUND:                -3.518
REMARK SMILES CCCCCCCCCCCCCCCCCCCCCC(=O)[O-]
REMARK SMILES IDX 12 1 11 2 10 3 9 4 8 5 7 6 6 7 5 8 4 9 3 10 2 11 1 12 13 13
REMARK SMILES IDX 14 14 15 15 16 16 17 17 18 18 19 19 20 20 21 21 22 22 23 23
REMARK SMILES IDX 24 24
REMARK H PARENT
REMARK Flexibility Score: inf
ROOT
ATOM      1  C   UNL     1     -25.591 -63.548   4.071  1.00  0.00     0.000 C 
ENDROOT
BRANCH   1   2
ATOM      2  C   UNL     1     -24.866 -64.596   4.937  1.00  0.00     0.000 C 
BRANCH   2   3
ATOM      3  C   UNL     1     -24.049 -64.037   6.123  1.00  0.00     0.000 C 
BRANCH   3   4
ATOM      4  C   UNL     1     -22.541 -63.836   5.852  1.00  0.00    -0.000 C 
BRANCH   4   5
ATOM      5  C   UNL     1     -22.150 -62.391   5.492  1.00  0.00    -0.000 C 
BRANCH   5   6
ATOM      6  C   UNL     1     -23.140 -61.343   6.029  1.00  0.00    -0.000 C 
BRANCH   6   7
ATOM      7  C   UNL     1     -22.898 -59.944   5.432  1.00  0.00    -0.000 C 
BRANCH   7   8
ATOM      8  C   UNL     1     -24.188 -59.215   5.012  1.00  0.00    -0.000 C 
BRANCH   8   9
ATOM      9  C   UNL     1     -23.960 -57.713   4.764  1.00  0.00    -0.000 C 
BRANCH   9  10
ATOM     10  C   UNL     1     -22.648 -57.431   4.012  1.00  0.00    -0.000 C 
BRANCH  10  11
ATOM     11  C   UNL     1     -22.792 -57.595   2.491  1.00  0.00    -0.003 C 
ATOM     12  C   UNL     1     -23.917 -56.718   1.948  1.00  0.00     0.004 C 
ENDBRANCH  10  11
ENDBRANCH   9  10
ENDBRANCH   8   9
ENDBRANCH   7   8
ENDBRANCH   6   7
ENDBRANCH   5   6
ENDBRANCH   4   5
ENDBRANCH   3   4
ENDBRANCH   2   3
ENDBRANCH   1   2
BRANCH   1  13
ATOM     13  C   UNL     1     -24.702 -62.951   2.969  1.00  0.00     0.000 C 
BRANCH  13  14
ATOM     14  C   UNL     1     -25.205 -61.565   2.548  1.00  0.00     0.000 C 
BRANCH  14  15
ATOM     15  C   UNL     1     -24.165 -60.836   1.690  1.00  0.00     0.000 C 
BRANCH  15  16
ATOM     16  C   UNL     1     -22.751 -61.362   1.981  1.00  0.00     0.000 C 
BRANCH  16  17
ATOM     17  C   UNL     1     -21.875 -61.444   0.722  1.00  0.00     0.000 C 
BRANCH  17  18
ATOM     18  C   UNL     1     -22.629 -61.029  -0.552  1.00  0.00     0.000 C 
BRANCH  18  19
ATOM     19  C   UNL     1     -22.122 -59.682  -1.079  1.00  0.00     0.000 C 
BRANCH  19  20
ATOM     20  C   UNL     1     -23.247 -58.642  -1.099  1.00  0.00     0.006 C 
BRANCH  20  21
ATOM     21  C   UNL     1     -24.562 -59.260  -1.583  1.00  0.00     0.053 C 
BRANCH  21  22
ATOM     22  C   UNL     1     -25.339 -58.270  -2.394  1.00  0.00     0.041 C 
ATOM     23  O   UNL     1     -26.431 -58.605  -2.926  1.00  0.00    -0.550 OA
ATOM     24  O   UNL     1     -24.835 -56.991  -2.598  1.00  0.00    -0.550 OA
ENDBRANCH  21  22
ENDBRANCH  20  21
ENDBRANCH  19  20
ENDBRANCH  18  19
ENDBRANCH  17  18
ENDBRANCH  16  17
ENDBRANCH  15  16
ENDBRANCH  14  15
ENDBRANCH  13  14
ENDBRANCH   1  13
TORSDOF 20
ENDMDL
MODEL 3
REMARK VINA RESULT:    -4.635      1.541      2.622
REMARK INTER + INTRA:         -13.572
REMARK INTER:                 -10.101
REMARK INTRA:                  -3.471
REMARK UNBOUND:                -3.518
REMARK SMILES CCCCCCCCCCCCCCCCCCCCCC(=O)[O-]
REMARK SMILES IDX 12 1 11 2 10 3 9 4 8 5 7 6 6 7 5 8 4 9 3 10 2 11 1 12 13 13
REMARK SMILES IDX 14 14 15 15 16 16 17 17 18 18 19 19 20 20 21 21 22 22 23 23
REMARK SMILES IDX 24 24
REMARK H PARENT
REMARK Flexibility Score: inf
ROOT
ATOM      1  C   UNL     1     -22.618 -60.939   1.916  1.00  0.00     0.000 C 
ENDROOT
BRANCH   1   2
ATOM      2  C   UNL     1     -24.130 -61.166   1.730  1.00  0.00     0.000 C 
BRANCH   2   3
ATOM      3  C   UNL     1     -24.836 -61.943   2.863  1.00  0.00     0.000 C 
BRANCH   3   4
ATOM      4  C   UNL     1     -24.113 -63.222   3.339  1.00  0.00    -0.000 C 
BRANCH   4   5
ATOM      5  C   UNL     1     -23.757 -63.228   4.837  1.00  0.00    -0.000 C 
BRANCH   5   6
ATOM      6  C   UNL     1     -22.376 -62.620   5.134  1.00  0.00    -0.000 C 
BRANCH   6   7
ATOM      7  C   UNL     1     -22.473 -61.222   5.775  1.00  0.00    -0.000 C 
BRANCH   7   8
ATOM      8  C   UNL     1     -23.892 -60.848   6.242  1.00  0.00    -0.000 C 
BRANCH   8   9
ATOM      9  C   UNL     1     -24.300 -59.429   5.806  1.00  0.00    -0.000 C 
BRANCH   9  10
ATOM     10  C   UNL     1     -23.422 -58.887   4.664  1.00  0.00    -0.000 C 
BRANCH  10  11
ATOM     11  C   UNL     1     -22.614 -57.648   5.077  1.00  0.00    -0.003 C 
ATOM     12  C   UNL     1     -23.536 -56.479   5.416  1.00  0.00     0.004 C 
ENDBRANCH  10  11
ENDBRANCH   9  10
ENDBRANCH   8   9
ENDBRANCH   7   8
ENDBRANCH   6   7
ENDBRANCH   5   6
ENDBRANCH   4   5
ENDBRANCH   3   4
ENDBRANCH   2   3
ENDBRANCH   1   2
BRANCH   1  13
ATOM     13  C   UNL     1     -21.875 -60.683   0.595  1.00  0.00     0.000 C 
BRANCH  13  14
ATOM     14  C   UNL     1     -22.072 -59.237   0.125  1.00  0.00     0.000 C 
BRANCH  14  15
ATOM     15  C   UNL     1     -22.036 -58.262   1.307  1.00  0.00     0.000 C 
BRANCH  15  16
ATOM     16  C   UNL     1     -23.284 -57.367   1.317  1.00  0.00     0.000 C 
BRANCH  16  17
ATOM     17  C   UNL     1     -24.138 -57.523   0.050  1.00  0.00     0.000 C 
BRANCH  17  18
ATOM     18  C   UNL     1     -25.578 -57.965   0.356  1.00  0.00     0.000 C 
BRANCH  18  19
ATOM     19  C   UNL     1     -25.969 -59.189  -0.480  1.00  0.00     0.000 C 
BRANCH  19  20
ATOM     20  C   UNL     1     -25.109 -59.289  -1.744  1.00  0.00     0.006 C 
BRANCH  20  21
ATOM     21  C   UNL     1     -25.953 -59.076  -3.005  1.00  0.00     0.053 C 
BRANCH  21  22
ATOM     22  C   UNL     1     -26.248 -57.621  -3.198  1.00  0.00     0.041 C 
ATOM     23  O   UNL     1     -27.439 -57.211  -3.200  1.00  0.00    -0.550 OA
ATOM     24  O   UNL     1     -25.209 -56.725  -3.421  1.00  0.00    -0.550 OA
ENDBRANCH  21  22
ENDBRANCH  20  21
ENDBRANCH  19  20
ENDBRANCH  18  19
ENDBRANCH  17  18
ENDBRANCH  16  17
ENDBRANCH  15  16
ENDBRANCH  14  15
ENDBRANCH  13  14
ENDBRANCH   1  13
TORSDOF 20
ENDMDL
MODEL 4
REMARK VINA RESULT:    -4.591      1.944      2.543
REMARK INTER + INTRA:         -13.477
REMARK INTER:                  -9.467
REMARK INTRA:                  -4.010
REMARK UNBOUND:                -3.518
REMARK SMILES CCCCCCCCCCCCCCCCCCCCCC(=O)[O-]
REMARK SMILES IDX 12 1 11 2 10 3 9 4 8 5 7 6 6 7 5 8 4 9 3 10 2 11 1 12 13 13
REMARK SMILES IDX 14 14 15 15 16 16 17 17 18 18 19 19 20 20 21 21 22 22 23 23
REMARK SMILES IDX 24 24
REMARK H PARENT
REMARK Flexibility Score: inf
ROOT
ATOM      1  C   UNL     1     -24.857 -62.062   2.908  1.00  0.00     0.000 C 
ENDROOT
BRANCH   1   2
ATOM      2  C   UNL     1     -25.817 -63.019   3.640  1.00  0.00     0.000 C 
BRANCH   2   3
ATOM      3  C   UNL     1     -25.253 -64.421   3.960  1.00  0.00     0.000 C 
BRANCH   3   4
ATOM      4  C   UNL     1     -24.598 -64.569   5.351  1.00  0.00    -0.000 C 
BRANCH   4   5
ATOM      5  C   UNL     1     -23.100 -64.919   5.311  1.00  0.00    -0.000 C 
BRANCH   5   6
ATOM      6  C   UNL     1     -22.187 -63.702   5.536  1.00  0.00    -0.000 C 
BRANCH   6   7
ATOM      7  C   UNL     1     -22.963 -62.469   6.038  1.00  0.00    -0.000 C 
BRANCH   7   8
ATOM      8  C   UNL     1     -22.292 -61.128   5.688  1.00  0.00    -0.000 C 
BRANCH   8   9
ATOM      9  C   UNL     1     -23.227 -59.926   5.915  1.00  0.00    -0.000 C 
BRANCH   9  10
ATOM     10  C   UNL     1     -24.682 -60.352   6.176  1.00  0.00    -0.000 C 
BRANCH  10  11
ATOM     11  C   UNL     1     -25.694 -59.256   5.808  1.00  0.00    -0.003 C 
ATOM     12  C   UNL     1     -25.401 -58.680   4.425  1.00  0.00     0.004 C 
ENDBRANCH  10  11
ENDBRANCH   9  10
ENDBRANCH   8   9
ENDBRANCH   7   8
ENDBRANCH   6   7
ENDBRANCH   5   6
ENDBRANCH   4   5
ENDBRANCH   3   4
ENDBRANCH   2   3
ENDBRANCH   1   2
BRANCH   1  13
ATOM     13  C   UNL     1     -23.699 -62.786   2.202  1.00  0.00     0.000 C 
BRANCH  13  14
ATOM     14  C   UNL     1     -22.634 -61.788   1.730  1.00  0.00     0.000 C 
BRANCH  14  15
ATOM     15  C   UNL     1     -22.998 -60.357   2.139  1.00  0.00     0.000 C 
BRANCH  15  16
ATOM     16  C   UNL     1     -22.234 -59.332   1.287  1.00  0.00     0.000 C 
BRANCH  16  17
ATOM     17  C   UNL     1     -21.875 -59.867  -0.107  1.00  0.00     0.000 C 
BRANCH  17  18
ATOM     18  C   UNL     1     -22.700 -59.210  -1.225  1.00  0.00     0.000 C 
BRANCH  18  19
ATOM     19  C   UNL     1     -24.083 -59.860  -1.346  1.00  0.00     0.000 C 
BRANCH  19  20
ATOM     20  C   UNL     1     -25.195 -58.813  -1.220  1.00  0.00     0.006 C 
BRANCH  20  21
ATOM     21  C   UNL     1     -25.757 -58.772   0.205  1.00  0.00     0.053 C 
BRANCH  21  22
ATOM     22  C   UNL     1     -25.601 -57.403   0.790  1.00  0.00     0.041 C 
ATOM     23  O   UNL     1     -24.509 -56.785   0.674  1.00  0.00    -0.550 OA
ATOM     24  O   UNL     1     -26.647 -56.829   1.503  1.00  0.00    -0.550 OA
ENDBRANCH  21  22
ENDBRANCH  20  21
ENDBRANCH  19  20
ENDBRANCH  18  19
ENDBRANCH  17  18
ENDBRANCH  16  17
ENDBRANCH  15  16
ENDBRANCH  14  15
ENDBRANCH  13  14
ENDBRANCH   1  13
TORSDOF 20
ENDMDL
MODEL 5
REMARK VINA RESULT:    -4.549      1.387      1.969
REMARK INTER + INTRA:         -13.385
REMARK INTER:                  -9.437
REMARK INTRA:                  -3.949
REMARK UNBOUND:                -3.518
REMARK SMILES CCCCCCCCCCCCCCCCCCCCCC(=O)[O-]
REMARK SMILES IDX 12 1 11 2 10 3 9 4 8 5 7 6 6 7 5 8 4 9 3 10 2 11 1 12 13 13
REMARK SMILES IDX 14 14 15 15 16 16 17 17 18 18 19 19 20 20 21 21 22 22 23 23
REMARK SMILES IDX 24 24
REMARK H PARENT
REMARK Flexibility Score: inf
ROOT
ATOM      1  C   UNL     1     -25.641 -61.199   2.973  1.00  0.00     0.000 C 
ENDROOT
BRANCH   1   2
ATOM      2  C   UNL     1     -26.507 -61.857   4.063  1.00  0.00     0.000 C 
BRANCH   2   3
ATOM      3  C   UNL     1     -25.925 -63.138   4.701  1.00  0.00     0.000 C 
BRANCH   3   4
ATOM      4  C   UNL     1     -25.920 -63.164   6.246  1.00  0.00    -0.000 C 
BRANCH   4   5
ATOM      5  C   UNL     1     -24.587 -62.731   6.882  1.00  0.00    -0.000 C 
BRANCH   5   6
ATOM      6  C   UNL     1     -23.405 -62.771   5.899  1.00  0.00    -0.000 C 
BRANCH   6   7
ATOM      7  C   UNL     1     -22.614 -61.449   5.875  1.00  0.00    -0.000 C 
BRANCH   7   8
ATOM      8  C   UNL     1     -23.503 -60.192   5.908  1.00  0.00    -0.000 C 
BRANCH   8   9
ATOM      9  C   UNL     1     -22.985 -59.080   4.978  1.00  0.00    -0.000 C 
BRANCH   9  10
ATOM     10  C   UNL     1     -24.065 -58.034   4.649  1.00  0.00    -0.000 C 
BRANCH  10  11
ATOM     11  C   UNL     1     -23.470 -56.681   4.232  1.00  0.00    -0.003 C 
ATOM     12  C   UNL     1     -24.491 -55.846   3.463  1.00  0.00     0.004 C 
ENDBRANCH  10  11
ENDBRANCH   9  10
ENDBRANCH   8   9
ENDBRANCH   7   8
ENDBRANCH   6   7
ENDBRANCH   5   6
ENDBRANCH   4   5
ENDBRANCH   3   4
ENDBRANCH   2   3
ENDBRANCH   1   2
BRANCH   1  13
ATOM     13  C   UNL     1     -24.503 -62.103   2.472  1.00  0.00     0.000 C 
BRANCH  13  14
ATOM     14  C   UNL     1     -23.188 -61.322   2.364  1.00  0.00     0.000 C 
BRANCH  14  15
ATOM     15  C   UNL     1     -22.605 -61.417   0.950  1.00  0.00     0.000 C 
BRANCH  15  16
ATOM     16  C   UNL     1     -21.877 -60.119   0.570  1.00  0.00     0.000 C 
BRANCH  16  17
ATOM     17  C   UNL     1     -22.422 -58.891   1.316  1.00  0.00     0.000 C 
BRANCH  17  18
ATOM     18  C   UNL     1     -23.362 -58.039   0.448  1.00  0.00     0.000 C 
BRANCH  18  19
ATOM     19  C   UNL     1     -24.830 -58.384   0.723  1.00  0.00     0.000 C 
BRANCH  19  20
ATOM     20  C   UNL     1     -25.411 -59.248  -0.401  1.00  0.00     0.006 C 
BRANCH  20  21
ATOM     21  C   UNL     1     -24.722 -58.952  -1.737  1.00  0.00     0.053 C 
BRANCH  21  22
ATOM     22  C   UNL     1     -25.521 -57.966  -2.531  1.00  0.00     0.041 C 
ATOM     23  O   UNL     1     -26.740 -58.181  -2.766  1.00  0.00    -0.550 OA
ATOM     24  O   UNL     1     -24.907 -56.833  -3.050  1.00  0.00    -0.550 OA
ENDBRANCH  21  22
ENDBRANCH  20  21
ENDBRANCH  19  20
ENDBRANCH  18  19
ENDBRANCH  17  18
ENDBRANCH  16  17
ENDBRANCH  15  16
ENDBRANCH  14  15
ENDBRANCH  13  14
ENDBRANCH   1  13
TORSDOF 20
ENDMDL
MODEL 6
REMARK VINA RESULT:    -4.521      1.520      3.690
REMARK INTER + INTRA:         -13.325
REMARK INTER:                 -10.101
REMARK INTRA:                  -3.224
REMARK UNBOUND:                -3.518
REMARK SMILES CCCCCCCCCCCCCCCCCCCCCC(=O)[O-]
REMARK SMILES IDX 12 1 11 2 10 3 9 4 8 5 7 6 6 7 5 8 4 9 3 10 2 11 1 12 13 13
REMARK SMILES IDX 14 14 15 15 16 16 17 17 18 18 19 19 20 20 21 21 22 22 23 23
REMARK SMILES IDX 24 24
REMARK H PARENT
REMARK Flexibility Score: inf
ROOT
ATOM      1  C   UNL     1     -27.126 -60.702   3.413  1.00  0.00     0.000 C 
ENDROOT
BRANCH   1   2
ATOM      2  C   UNL     1     -27.619 -59.543   2.527  1.00  0.00     0.000 C 
BRANCH   2   3
ATOM      3  C   UNL     1     -26.544 -58.864   1.650  1.00  0.00     0.000 C 
BRANCH   3   4
ATOM      4  C   UNL     1     -25.989 -57.530   2.197  1.00  0.00    -0.000 C 
BRANCH   4   5
ATOM      5  C   UNL     1     -24.480 -57.547   2.496  1.00  0.00    -0.000 C 
BRANCH   5   6
ATOM      6  C   UNL     1     -24.159 -57.773   3.983  1.00  0.00    -0.000 C 
BRANCH   6   7
ATOM      7  C   UNL     1     -23.146 -58.914   4.201  1.00  0.00    -0.000 C 
BRANCH   7   8
ATOM      8  C   UNL     1     -22.919 -59.269   5.682  1.00  0.00    -0.000 C 
BRANCH   8   9
ATOM      9  C   UNL     1     -22.280 -60.658   5.861  1.00  0.00    -0.000 C 
BRANCH   9  10
ATOM     10  C   UNL     1     -23.327 -61.784   5.940  1.00  0.00    -0.000 C 
BRANCH  10  11
ATOM     11  C   UNL     1     -22.693 -63.183   5.921  1.00  0.00    -0.003 C 
ATOM     12  C   UNL     1     -23.262 -64.059   7.035  1.00  0.00     0.004 C 
ENDBRANCH  10  11
ENDBRANCH   9  10
ENDBRANCH   8   9
ENDBRANCH   7   8
ENDBRANCH   6   7
ENDBRANCH   5   6
ENDBRANCH   4   5
ENDBRANCH   3   4
ENDBRANCH   2   3
ENDBRANCH   1   2
BRANCH   1  13
ATOM     13  C   UNL     1     -25.668 -61.101   3.137  1.00  0.00     0.000 C 
BRANCH  13  14
ATOM     14  C   UNL     1     -25.486 -62.620   3.233  1.00  0.00     0.000 C 
BRANCH  14  15
ATOM     15  C   UNL     1     -24.197 -63.067   2.536  1.00  0.00     0.000 C 
BRANCH  15  16
ATOM     16  C   UNL     1     -23.395 -61.855   2.038  1.00  0.00     0.000 C 
BRANCH  16  17
ATOM     17  C   UNL     1     -22.176 -62.254   1.192  1.00  0.00     0.000 C 
BRANCH  17  18
ATOM     18  C   UNL     1     -21.929 -61.294   0.018  1.00  0.00     0.000 C 
BRANCH  18  19
ATOM     19  C   UNL     1     -22.809 -60.044   0.132  1.00  0.00     0.000 C 
BRANCH  19  20
ATOM     20  C   UNL     1     -23.636 -59.836  -1.141  1.00  0.00     0.006 C 
BRANCH  20  21
ATOM     21  C   UNL     1     -24.373 -58.494  -1.108  1.00  0.00     0.053 C 
BRANCH  21  22
ATOM     22  C   UNL     1     -25.100 -58.264  -2.396  1.00  0.00     0.041 C 
ATOM     23  O   UNL     1     -25.021 -57.149  -2.978  1.00  0.00    -0.550 OA
ATOM     24  O   UNL     1     -25.902 -59.265  -2.930  1.00  0.00    -0.550 OA
ENDBRANCH  21  22
ENDBRANCH  20  21
ENDBRANCH  19  20
ENDBRANCH  18  19
ENDBRANCH  17  18
ENDBRANCH  16  17
ENDBRANCH  15  16
ENDBRANCH  14  15
ENDBRANCH  13  14
ENDBRANCH   1  13
TORSDOF 20
ENDMDL
MODEL 7
REMARK VINA RESULT:    -4.483      1.408      3.875
REMARK INTER + INTRA:         -13.243
REMARK INTER:                  -9.817
REMARK INTRA:                  -3.426
REMARK UNBOUND:                -3.518
REMARK SMILES CCCCCCCCCCCCCCCCCCCCCC(=O)[O-]
REMARK SMILES IDX 12 1 11 2 10 3 9 4 8 5 7 6 6 7 5 8 4 9 3 10 2 11 1 12 13 13
REMARK SMILES IDX 14 14 15 15 16 16 17 17 18 18 19 19 20 20 21 21 22 22 23 23
REMARK SMILES IDX 24 24
REMARK H PARENT
REMARK Flexibility Score: inf
ROOT
ATOM      1  C   UNL     1     -25.443 -62.502   6.060  1.00  0.00     0.000 C 
ENDROOT
BRANCH   1   2
ATOM      2  C   UNL     1     -23.989 -62.712   6.524  1.00  0.00     0.000 C 
BRANCH   2   3
ATOM      3  C   UNL     1     -22.965 -61.676   6.012  1.00  0.00     0.000 C 
BRANCH   3   4
ATOM      4  C   UNL     1     -23.567 -60.449   5.292  1.00  0.00    -0.000 C 
BRANCH   4   5
ATOM      5  C   UNL     1     -23.536 -59.151   6.119  1.00  0.00    -0.000 C 
BRANCH   5   6
ATOM      6  C   UNL     1     -22.632 -58.066   5.510  1.00  0.00    -0.000 C 
BRANCH   6   7
ATOM      7  C   UNL     1     -23.404 -56.775   5.177  1.00  0.00    -0.000 C 
BRANCH   7   8
ATOM      8  C   UNL     1     -23.349 -56.384   3.689  1.00  0.00    -0.000 C 
BRANCH   8   9
ATOM      9  C   UNL     1     -23.082 -57.592   2.773  1.00  0.00    -0.000 C 
BRANCH   9  10
ATOM     10  C   UNL     1     -24.293 -57.941   1.889  1.00  0.00    -0.000 C 
BRANCH  10  11
ATOM     11  C   UNL     1     -25.439 -58.584   2.684  1.00  0.00    -0.003 C 
ATOM     12  C   UNL     1     -26.298 -59.472   1.788  1.00  0.00     0.004 C 
ENDBRANCH  10  11
ENDBRANCH   9  10
ENDBRANCH   8   9
ENDBRANCH   7   8
ENDBRANCH   6   7
ENDBRANCH   5   6
ENDBRANCH   4   5
ENDBRANCH   3   4
ENDBRANCH   2   3
ENDBRANCH   1   2
BRANCH   1  13
ATOM     13  C   UNL     1     -25.867 -63.461   4.937  1.00  0.00     0.000 C 
BRANCH  13  14
ATOM     14  C   UNL     1     -25.743 -62.788   3.564  1.00  0.00     0.000 C 
BRANCH  14  15
ATOM     15  C   UNL     1     -24.442 -63.198   2.864  1.00  0.00     0.000 C 
BRANCH  15  16
ATOM     16  C   UNL     1     -23.845 -62.018   2.082  1.00  0.00     0.000 C 
BRANCH  16  17
ATOM     17  C   UNL     1     -22.351 -62.200   1.779  1.00  0.00     0.000 C 
BRANCH  17  18
ATOM     18  C   UNL     1     -21.987 -61.814   0.336  1.00  0.00     0.000 C 
BRANCH  18  19
ATOM     19  C   UNL     1     -21.875 -60.293   0.183  1.00  0.00     0.000 C 
BRANCH  19  20
ATOM     20  C   UNL     1     -22.488 -59.827  -1.141  1.00  0.00     0.006 C 
BRANCH  20  21
ATOM     21  C   UNL     1     -24.008 -60.024  -1.146  1.00  0.00     0.053 C 
BRANCH  21  22
ATOM     22  C   UNL     1     -24.692 -58.802  -1.673  1.00  0.00     0.041 C 
ATOM     23  O   UNL     1     -24.025 -57.766  -1.938  1.00  0.00    -0.550 OA
ATOM     24  O   UNL     1     -26.073 -58.792  -1.830  1.00  0.00    -0.550 OA
ENDBRANCH  21  22
ENDBRANCH  20  21
ENDBRANCH  19  20
ENDBRANCH  18  19
ENDBRANCH  17  18
ENDBRANCH  16  17
ENDBRANCH  15  16
ENDBRANCH  14  15
ENDBRANCH  13  14
ENDBRANCH   1  13
TORSDOF 20
ENDMDL
MODEL 8
REMARK VINA RESULT:    -4.469      1.414      2.199
REMARK INTER + INTRA:         -13.211
REMARK INTER:                  -9.910
REMARK INTRA:                  -3.301
REMARK UNBOUND:                -3.518
REMARK SMILES CCCCCCCCCCCCCCCCCCCCCC(=O)[O-]
REMARK SMILES IDX 12 1 11 2 10 3 9 4 8 5 7 6 6 7 5 8 4 9 3 10 2 11 1 12 13 13
REMARK SMILES IDX 14 14 15 15 16 16 17 17 18 18 19 19 20 20 21 21 22 22 23 23
REMARK SMILES IDX 24 24
REMARK H PARENT
REMARK Flexibility Score: inf
ROOT
ATOM      1  C   UNL     1     -25.534 -61.338   3.061  1.00  0.00     0.000 C 
ENDROOT
BRANCH   1   2
ATOM      2  C   UNL     1     -24.883 -62.722   3.242  1.00  0.00     0.000 C 
BRANCH   2   3
ATOM      3  C   UNL     1     -25.728 -63.767   4.003  1.00  0.00     0.000 C 
BRANCH   3   4
ATOM      4  C   UNL     1     -26.728 -63.190   5.029  1.00  0.00    -0.000 C 
BRANCH   4   5
ATOM      5  C   UNL     1     -26.318 -63.393   6.498  1.00  0.00    -0.000 C 
BRANCH   5   6
ATOM      6  C   UNL     1     -25.314 -62.340   6.998  1.00  0.00    -0.000 C 
BRANCH   6   7
ATOM      7  C   UNL     1     -25.907 -60.918   7.006  1.00  0.00    -0.000 C 
BRANCH   7   8
ATOM      8  C   UNL     1     -24.987 -59.857   6.373  1.00  0.00    -0.000 C 
BRANCH   8   9
ATOM      9  C   UNL     1     -23.560 -60.383   6.134  1.00  0.00    -0.000 C 
BRANCH   9  10
ATOM     10  C   UNL     1     -22.640 -59.324   5.500  1.00  0.00    -0.000 C 
BRANCH  10  11
ATOM     11  C   UNL     1     -23.401 -58.062   5.068  1.00  0.00    -0.003 C 
ATOM     12  C   UNL     1     -22.632 -57.297   3.994  1.00  0.00     0.004 C 
ENDBRANCH  10  11
ENDBRANCH   9  10
ENDBRANCH   8   9
ENDBRANCH   7   8
ENDBRANCH   6   7
ENDBRANCH   5   6
ENDBRANCH   4   5
ENDBRANCH   3   4
ENDBRANCH   2   3
ENDBRANCH   1   2
BRANCH   1  13
ATOM     13  C   UNL     1     -24.630 -60.333   2.330  1.00  0.00     0.000 C 
BRANCH  13  14
ATOM     14  C   UNL     1     -23.181 -60.830   2.282  1.00  0.00     0.000 C 
BRANCH  14  15
ATOM     15  C   UNL     1     -22.350 -60.015   1.285  1.00  0.00     0.000 C 
BRANCH  15  16
ATOM     16  C   UNL     1     -21.892 -60.890   0.109  1.00  0.00     0.000 C 
BRANCH  16  17
ATOM     17  C   UNL     1     -22.134 -60.228  -1.256  1.00  0.00     0.000 C 
BRANCH  17  18
ATOM     18  C   UNL     1     -23.135 -59.064  -1.181  1.00  0.00     0.000 C 
BRANCH  18  19
ATOM     19  C   UNL     1     -24.533 -59.509  -1.624  1.00  0.00     0.000 C 
BRANCH  19  20
ATOM     20  C   UNL     1     -25.619 -58.791  -0.816  1.00  0.00     0.006 C 
BRANCH  20  21
ATOM     21  C   UNL     1     -25.621 -57.287  -1.107  1.00  0.00     0.053 C 
BRANCH  21  22
ATOM     22  C   UNL     1     -25.915 -57.033  -2.552  1.00  0.00     0.041 C 
ATOM     23  O   UNL     1     -25.070 -56.442  -3.277  1.00  0.00    -0.550 OA
ATOM     24  O   UNL     1     -27.141 -57.407  -3.088  1.00  0.00    -0.550 OA
ENDBRANCH  21  22
ENDBRANCH  20  21
ENDBRANCH  19  20
ENDBRANCH  18  19
ENDBRANCH  17  18
ENDBRANCH  16  17
ENDBRANCH  15  16
ENDBRANCH  14  15
ENDBRANCH  13  14
ENDBRANCH   1  13
TORSDOF 20
ENDMDL
MODEL 9
REMARK VINA RESULT:    -4.416      1.628      3.572
REMARK INTER + INTRA:         -13.097
REMARK INTER:                  -9.486
REMARK INTRA:                  -3.611
REMARK UNBOUND:                -3.518
REMARK SMILES CCCCCCCCCCCCCCCCCCCCCC(=O)[O-]
REMARK SMILES IDX 12 1 11 2 10 3 9 4 8 5 7 6 6 7 5 8 4 9 3 10 2 11 1 12 13 13
REMARK SMILES IDX 14 14 15 15 16 16 17 17 18 18 19 19 20 20 21 21 22 22 23 23
REMARK SMILES IDX 24 24
REMARK H PARENT
REMARK Flexibility Score: inf
ROOT
ATOM      1  C   UNL     1     -26.660 -62.188   4.135  1.00  0.00     0.000 C 
ENDROOT
BRANCH   1   2
ATOM      2  C   UNL     1     -26.497 -61.503   5.504  1.00  0.00     0.000 C 
BRANCH   2   3
ATOM      3  C   UNL     1     -25.044 -61.324   5.997  1.00  0.00     0.000 C 
BRANCH   3   4
ATOM      4  C   UNL     1     -24.764 -60.018   6.773  1.00  0.00    -0.000 C 
BRANCH   4   5
ATOM      5  C   UNL     1     -23.810 -59.047   6.056  1.00  0.00    -0.000 C 
BRANCH   5   6
ATOM      6  C   UNL     1     -23.072 -59.688   4.869  1.00  0.00    -0.000 C 
BRANCH   6   7
ATOM      7  C   UNL     1     -23.400 -58.999   3.530  1.00  0.00    -0.000 C 
BRANCH   7   8
ATOM      8  C   UNL     1     -24.748 -58.254   3.528  1.00  0.00    -0.000 C 
BRANCH   8   9
ATOM      9  C   UNL     1     -24.940 -57.390   2.269  1.00  0.00    -0.000 C 
BRANCH   9  10
ATOM     10  C   UNL     1     -26.188 -57.791   1.462  1.00  0.00    -0.000 C 
BRANCH  10  11
ATOM     11  C   UNL     1     -26.643 -59.228   1.755  1.00  0.00    -0.003 C 
ATOM     12  C   UNL     1     -28.100 -59.261   2.210  1.00  0.00     0.004 C 
ENDBRANCH  10  11
ENDBRANCH   9  10
ENDBRANCH   8   9
ENDBRANCH   7   8
ENDBRANCH   6   7
ENDBRANCH   5   6
ENDBRANCH   4   5
ENDBRANCH   3   4
ENDBRANCH   2   3
ENDBRANCH   1   2
BRANCH   1  13
ATOM     13  C   UNL     1     -25.369 -62.194   3.300  1.00  0.00     0.000 C 
BRANCH  13  14
ATOM     14  C   UNL     1     -24.795 -63.611   3.186  1.00  0.00     0.000 C 
BRANCH  14  15
ATOM     15  C   UNL     1     -23.409 -63.594   2.533  1.00  0.00     0.000 C 
BRANCH  15  16
ATOM     16  C   UNL     1     -23.074 -62.194   1.996  1.00  0.00     0.000 C 
BRANCH  16  17
ATOM     17  C   UNL     1     -22.031 -62.223   0.868  1.00  0.00     0.000 C 
BRANCH  17  18
ATOM     18  C   UNL     1     -22.183 -61.047  -0.110  1.00  0.00     0.000 C 
BRANCH  18  19
ATOM     19  C   UNL     1     -23.527 -60.337   0.086  1.00  0.00     0.000 C 
BRANCH  19  20
ATOM     20  C   UNL     1     -23.742 -59.263  -0.986  1.00  0.00     0.006 C 
BRANCH  20  21
ATOM     21  C   UNL     1     -25.097 -59.437  -1.680  1.00  0.00     0.053 C 
BRANCH  21  22
ATOM     22  C   UNL     1     -25.460 -58.200  -2.439  1.00  0.00     0.041 C 
ATOM     23  O   UNL     1     -24.640 -57.247  -2.527  1.00  0.00    -0.550 OA
ATOM     24  O   UNL     1     -26.720 -58.082  -3.013  1.00  0.00    -0.550 OA
ENDBRANCH  21  22
ENDBRANCH  20  21
ENDBRANCH  19  20
ENDBRANCH  18  19
ENDBRANCH  17  18
ENDBRANCH  16  17
ENDBRANCH  15  16
ENDBRANCH  14  15
ENDBRANCH  13  14
ENDBRANCH   1  13
TORSDOF 20
ENDMDL
