MODEL 1
REMARK VINA RESULT:    -4.912      0.000      0.000
REMARK INTER + INTRA:          -7.046
REMARK INTER:                  -6.635
REMARK INTRA:                  -0.411
REMARK UNBOUND:                -0.411
REMARK SMILES CCCCCCCC(=O)[O-]
REMARK SMILES IDX 5 1 6 2 7 3 8 4 9 5 10 6 4 7 3 8 2 9 1 10
REMARK H PARENT
REMARK Flexibility Score: inf
ROOT
ATOM      1  C   UNL     1     -17.913  -8.992 -21.800  1.00  0.00     0.000 C 
ENDROOT
BRANCH   1   2
ATOM      2  C   UNL     1     -18.017  -8.940 -23.328  1.00  0.00     0.006 C 
BRANCH   2   3
ATOM      3  C   UNL     1     -16.686  -9.323 -23.983  1.00  0.00     0.053 C 
BRANCH   3   4
ATOM      4  C   UNL     1     -16.130  -8.167 -24.752  1.00  0.00     0.041 C 
ATOM      5  O   UNL     1     -14.921  -8.161 -25.102  1.00  0.00    -0.550 OA
ATOM      6  O   UNL     1     -16.959  -7.116 -25.125  1.00  0.00    -0.550 OA
ENDBRANCH   3   4
ENDBRANCH   2   3
ENDBRANCH   1   2
BRANCH   1   7
ATOM      7  C   UNL     1     -16.493  -9.363 -21.357  1.00  0.00     0.000 C 
BRANCH   7   8
ATOM      8  C   UNL     1     -15.851  -8.226 -20.551  1.00  0.00    -0.000 C 
BRANCH   8   9
ATOM      9  C   UNL     1     -16.551  -6.891 -20.831  1.00  0.00    -0.003 C 
ATOM     10  C   UNL     1     -15.824  -6.106 -21.918  1.00  0.00     0.004 C 
ENDBRANCH   8   9
ENDBRANCH   7   8
ENDBRANCH   1   7
TORSDOF 6
ENDMDL
MODEL 2
REMARK VINA RESULT:    -4.761      0.794      1.706
REMARK INTER + INTRA:          -6.843
REMARK INTER:                  -6.514
REMARK INTRA:                  -0.328
REMARK UNBOUND:                -0.411
REMARK SMILES CCCCCCCC(=O)[O-]
REMARK SMILES IDX 5 1 6 2 7 3 8 4 9 5 10 6 4 7 3 8 2 9 1 10
REMARK H PARENT
REMARK Flexibility Score: inf
ROOT
ATOM      1  C   UNL     1     -16.811  -9.328 -21.150  1.00  0.00     0.000 C 
ENDROOT
BRANCH   1   2
ATOM      2  C   UNL     1     -17.929  -8.619 -21.922  1.00  0.00     0.006 C 
BRANCH   2   3
ATOM      3  C   UNL     1     -18.092  -9.214 -23.324  1.00  0.00     0.053 C 
BRANCH   3   4
ATOM      4  C   UNL     1     -17.021  -8.706 -24.236  1.00  0.00     0.041 C 
ATOM      5  O   UNL     1     -17.181  -7.623 -24.859  1.00  0.00    -0.550 OA
ATOM      6  O   UNL     1     -15.826  -9.403 -24.362  1.00  0.00    -0.550 OA
ENDBRANCH   3   4
ENDBRANCH   2   3
ENDBRANCH   1   2
BRANCH   1   7
ATOM      7  C   UNL     1     -15.759  -8.326 -20.659  1.00  0.00     0.000 C 
BRANCH   7   8
ATOM      8  C   UNL     1     -16.237  -6.882 -20.859  1.00  0.00    -0.000 C 
BRANCH   8   9
ATOM      9  C   UNL     1     -15.562  -6.243 -22.077  1.00  0.00    -0.003 C 
ATOM     10  C   UNL     1     -16.201  -4.900 -22.419  1.00  0.00     0.004 C 
ENDBRANCH   8   9
ENDBRANCH   7   8
ENDBRANCH   1   7
TORSDOF 6
ENDMDL
MODEL 3
REMARK VINA RESULT:    -4.651      1.886      3.599
REMARK INTER + INTRA:          -6.693
REMARK INTER:                  -6.258
REMARK INTRA:                  -0.435
REMARK UNBOUND:                -0.411
REMARK SMILES CCCCCCCC(=O)[O-]
REMARK SMILES IDX 5 1 6 2 7 3 8 4 9 5 10 6 4 7 3 8 2 9 1 10
REMARK H PARENT
REMARK Flexibility Score: inf
ROOT
ATOM      1  C   UNL     1     -17.575  -9.178 -22.019  1.00  0.00     0.000 C 
ENDROOT
BRANCH   1   2
ATOM      2  C   UNL     1     -16.136  -9.272 -21.499  1.00  0.00     0.006 C 
BRANCH   2   3
ATOM      3  C   UNL     1     -15.818  -8.111 -20.552  1.00  0.00     0.053 C 
BRANCH   3   4
ATOM      4  C   UNL     1     -16.286  -6.816 -21.136  1.00  0.00     0.041 C 
ATOM      5  O   UNL     1     -17.340  -6.274 -20.712  1.00  0.00    -0.550 OA
ATOM      6  O   UNL     1     -15.533  -6.183 -22.117  1.00  0.00    -0.550 OA
ENDBRANCH   3   4
ENDBRANCH   2   3
ENDBRANCH   1   2
BRANCH   1   7
ATOM      7  C   UNL     1     -17.602  -9.090 -23.550  1.00  0.00     0.000 C 
BRANCH   7   8
ATOM      8  C   UNL     1     -16.196  -9.258 -24.137  1.00  0.00    -0.000 C 
BRANCH   8   9
ATOM      9  C   UNL     1     -15.855  -8.104 -25.087  1.00  0.00    -0.003 C 
ATOM     10  C   UNL     1     -16.978  -7.072 -25.125  1.00  0.00     0.004 C 
ENDBRANCH   8   9
ENDBRANCH   7   8
ENDBRANCH   1   7
TORSDOF 6
ENDMDL
MODEL 4
REMARK VINA RESULT:    -4.511      2.203      3.953
REMARK INTER + INTRA:          -6.505
REMARK INTER:                  -6.153
REMARK INTRA:                  -0.352
REMARK UNBOUND:                -0.411
REMARK SMILES CCCCCCCC(=O)[O-]
REMARK SMILES IDX 5 1 6 2 7 3 8 4 9 5 10 6 4 7 3 8 2 9 1 10
REMARK H PARENT
REMARK Flexibility Score: inf
ROOT
ATOM      1  C   UNL     1     -15.746  -6.240 -21.963  1.00  0.00     0.000 C 
ENDROOT
BRANCH   1   2
ATOM      2  C   UNL     1     -16.264  -6.982 -20.725  1.00  0.00     0.006 C 
BRANCH   2   3
ATOM      3  C   UNL     1     -16.167  -8.499 -20.914  1.00  0.00     0.053 C 
BRANCH   3   4
ATOM      4  C   UNL     1     -17.500  -9.065 -21.290  1.00  0.00     0.041 C 
ATOM      5  O   UNL     1     -17.713 -10.302 -21.193  1.00  0.00    -0.550 OA
ATOM      6  O   UNL     1     -18.522  -8.221 -21.705  1.00  0.00    -0.550 OA
ENDBRANCH   3   4
ENDBRANCH   2   3
ENDBRANCH   1   2
BRANCH   1   7
ATOM      7  C   UNL     1     -15.503  -7.210 -23.125  1.00  0.00     0.000 C 
BRANCH   7   8
ATOM      8  C   UNL     1     -16.433  -6.900 -24.305  1.00  0.00    -0.000 C 
BRANCH   8   9
ATOM      9  C   UNL     1     -16.839  -8.184 -25.038  1.00  0.00    -0.003 C 
ATOM     10  C   UNL     1     -15.984  -9.366 -24.593  1.00  0.00     0.004 C 
ENDBRANCH   8   9
ENDBRANCH   7   8
ENDBRANCH   1   7
TORSDOF 6
ENDMDL
MODEL 5
REMARK VINA RESULT:    -4.416      2.037      3.014
REMARK INTER + INTRA:          -6.375
REMARK INTER:                  -6.080
REMARK INTRA:                  -0.296
REMARK UNBOUND:                -0.411
REMARK SMILES CCCCCCCC(=O)[O-]
REMARK SMILES IDX 5 1 6 2 7 3 8 4 9 5 10 6 4 7 3 8 2 9 1 10
REMARK H PARENT
REMARK Flexibility Score: inf
ROOT
ATOM      1  C   UNL     1     -16.314  -6.813 -24.217  1.00  0.00     0.000 C 
ENDROOT
BRANCH   1   2
ATOM      2  C   UNL     1     -17.062  -8.064 -24.691  1.00  0.00     0.006 C 
BRANCH   2   3
ATOM      3  C   UNL     1     -16.818  -9.242 -23.744  1.00  0.00     0.053 C 
BRANCH   3   4
ATOM      4  C   UNL     1     -18.004  -9.456 -22.858  1.00  0.00     0.041 C 
ATOM      5  O   UNL     1     -19.163  -9.203 -23.279  1.00  0.00    -0.550 OA
ATOM      6  O   UNL     1     -17.835  -9.980 -21.583  1.00  0.00    -0.550 OA
ENDBRANCH   3   4
ENDBRANCH   2   3
ENDBRANCH   1   2
BRANCH   1   7
ATOM      7  C   UNL     1     -15.500  -7.105 -22.951  1.00  0.00     0.000 C 
BRANCH   7   8
ATOM      8  C   UNL     1     -15.963  -6.226 -21.782  1.00  0.00    -0.000 C 
BRANCH   8   9
ATOM      9  C   UNL     1     -16.351  -7.081 -20.571  1.00  0.00    -0.003 C 
ATOM     10  C   UNL     1     -15.410  -8.272 -20.414  1.00  0.00     0.004 C 
ENDBRANCH   8   9
ENDBRANCH   7   8
ENDBRANCH   1   7
TORSDOF 6
ENDMDL
MODEL 6
REMARK VINA RESULT:    -4.308      1.315      1.970
REMARK INTER + INTRA:          -6.230
REMARK INTER:                  -5.658
REMARK INTRA:                  -0.572
REMARK UNBOUND:                -0.411
REMARK SMILES CCCCCCCC(=O)[O-]
REMARK SMILES IDX 5 1 6 2 7 3 8 4 9 5 10 6 4 7 3 8 2 9 1 10
REMARK H PARENT
REMARK Flexibility Score: inf
ROOT
ATOM      1  C   UNL     1     -18.218  -9.248 -23.079  1.00  0.00     0.000 C 
ENDROOT
BRANCH   1   2
ATOM      2  C   UNL     1     -17.563  -8.277 -24.068  1.00  0.00     0.006 C 
BRANCH   2   3
ATOM      3  C   UNL     1     -16.424  -8.957 -24.833  1.00  0.00     0.053 C 
BRANCH   3   4
ATOM      4  C   UNL     1     -15.137  -8.824 -24.082  1.00  0.00     0.041 C 
ATOM      5  O   UNL     1     -14.739  -7.691 -23.704  1.00  0.00    -0.550 OA
ATOM      6  O   UNL     1     -14.400  -9.956 -23.758  1.00  0.00    -0.550 OA
ENDBRANCH   3   4
ENDBRANCH   2   3
ENDBRANCH   1   2
BRANCH   1   7
ATOM      7  C   UNL     1     -17.683  -9.030 -21.658  1.00  0.00     0.000 C 
BRANCH   7   8
ATOM      8  C   UNL     1     -17.455  -7.540 -21.377  1.00  0.00    -0.000 C 
BRANCH   8   9
ATOM      9  C   UNL     1     -16.182  -7.324 -20.551  1.00  0.00    -0.003 C 
ATOM     10  C   UNL     1     -15.363  -8.607 -20.457  1.00  0.00     0.004 C 
ENDBRANCH   8   9
ENDBRANCH   7   8
ENDBRANCH   1   7
TORSDOF 6
ENDMDL
MODEL 7
REMARK VINA RESULT:    -4.294      2.369      3.617
REMARK INTER + INTRA:          -6.211
REMARK INTER:                  -5.655
REMARK INTRA:                  -0.556
REMARK UNBOUND:                -0.411
REMARK SMILES CCCCCCCC(=O)[O-]
REMARK SMILES IDX 5 1 6 2 7 3 8 4 9 5 10 6 4 7 3 8 2 9 1 10
REMARK H PARENT
REMARK Flexibility Score: inf
ROOT
ATOM      1  C   UNL     1     -18.561  -8.912 -23.075  1.00  0.00     0.000 C 
ENDROOT
BRANCH   1   2
ATOM      2  C   UNL     1     -18.099  -8.318 -21.739  1.00  0.00     0.006 C 
BRANCH   2   3
ATOM      3  C   UNL     1     -17.014  -9.187 -21.097  1.00  0.00     0.053 C 
BRANCH   3   4
ATOM      4  C   UNL     1     -15.875  -8.340 -20.627  1.00  0.00     0.041 C 
ATOM      5  O   UNL     1     -14.777  -8.871 -20.312  1.00  0.00    -0.550 OA
ATOM      6  O   UNL     1     -16.009  -6.958 -20.579  1.00  0.00    -0.550 OA
ENDBRANCH   3   4
ENDBRANCH   2   3
ENDBRANCH   1   2
BRANCH   1   7
ATOM      7  C   UNL     1     -17.366  -9.204 -23.990  1.00  0.00     0.000 C 
BRANCH   7   8
ATOM      8  C   UNL     1     -16.682  -7.905 -24.435  1.00  0.00    -0.000 C 
BRANCH   8   9
ATOM      9  C   UNL     1     -15.156  -8.029 -24.350  1.00  0.00    -0.003 C 
ATOM     10  C   UNL     1     -14.743  -9.421 -23.882  1.00  0.00     0.004 C 
ENDBRANCH   8   9
ENDBRANCH   7   8
ENDBRANCH   1   7
TORSDOF 6
ENDMDL
MODEL 8
REMARK VINA RESULT:    -3.823      1.071      2.530
REMARK INTER + INTRA:          -5.575
REMARK INTER:                  -5.282
REMARK INTRA:                  -0.293
REMARK UNBOUND:                -0.411
REMARK SMILES CCCCCCCC(=O)[O-]
REMARK SMILES IDX 5 1 6 2 7 3 8 4 9 5 10 6 4 7 3 8 2 9 1 10
REMARK H PARENT
REMARK Flexibility Score: inf
ROOT
ATOM      1  C   UNL     1     -16.337  -6.696 -21.488  1.00  0.00     0.000 C 
ENDROOT
BRANCH   1   2
ATOM      2  C   UNL     1     -15.378  -6.671 -22.684  1.00  0.00     0.006 C 
BRANCH   2   3
ATOM      3  C   UNL     1     -16.114  -7.009 -23.984  1.00  0.00     0.053 C 
BRANCH   3   4
ATOM      4  C   UNL     1     -15.509  -8.216 -24.629  1.00  0.00     0.041 C 
ATOM      5  O   UNL     1     -14.258  -8.327 -24.718  1.00  0.00    -0.550 OA
ATOM      6  O   UNL     1     -16.325  -9.242 -25.090  1.00  0.00    -0.550 OA
ENDBRANCH   3   4
ENDBRANCH   2   3
ENDBRANCH   1   2
BRANCH   1   7
ATOM      7  C   UNL     1     -16.091  -7.930 -20.610  1.00  0.00     0.000 C 
BRANCH   7   8
ATOM      8  C   UNL     1     -16.807  -9.162 -21.177  1.00  0.00    -0.000 C 
BRANCH   8   9
ATOM      9  C   UNL     1     -18.228  -8.811 -21.632  1.00  0.00    -0.003 C 
ATOM     10  C   UNL     1     -18.560  -9.477 -22.964  1.00  0.00     0.004 C 
ENDBRANCH   8   9
ENDBRANCH   7   8
ENDBRANCH   1   7
TORSDOF 6
ENDMDL
MODEL 9
REMARK VINA RESULT:    -3.780      1.590      2.704
REMARK INTER + INTRA:          -5.517
REMARK INTER:                  -4.979
REMARK INTRA:                  -0.538
REMARK UNBOUND:                -0.411
REMARK SMILES CCCCCCCC(=O)[O-]
REMARK SMILES IDX 5 1 6 2 7 3 8 4 9 5 10 6 4 7 3 8 2 9 1 10
REMARK H PARENT
REMARK Flexibility Score: inf
ROOT
ATOM      1  C   UNL     1     -16.199  -5.810 -23.145  1.00  0.00     0.000 C 
ENDROOT
BRANCH   1   2
ATOM      2  C   UNL     1     -16.790  -6.859 -24.094  1.00  0.00     0.006 C 
BRANCH   2   3
ATOM      3  C   UNL     1     -15.695  -7.774 -24.651  1.00  0.00     0.053 C 
BRANCH   3   4
ATOM      4  C   UNL     1     -15.812  -9.146 -24.067  1.00  0.00     0.041 C 
ATOM      5  O   UNL     1     -16.945  -9.623 -23.792  1.00  0.00    -0.550 OA
ATOM      6  O   UNL     1     -14.674  -9.917 -23.868  1.00  0.00    -0.550 OA
ENDBRANCH   3   4
ENDBRANCH   2   3
ENDBRANCH   1   2
BRANCH   1   7
ATOM      7  C   UNL     1     -15.708  -6.457 -21.844  1.00  0.00     0.000 C 
BRANCH   7   8
ATOM      8  C   UNL     1     -16.883  -7.002 -21.023  1.00  0.00    -0.000 C 
BRANCH   8   9
ATOM      9  C   UNL     1     -16.613  -8.440 -20.564  1.00  0.00    -0.003 C 
ATOM     10  C   UNL     1     -15.117  -8.741 -20.548  1.00  0.00     0.004 C 
ENDBRANCH   8   9
ENDBRANCH   7   8
ENDBRANCH   1   7
TORSDOF 6
ENDMDL
