MODEL 1
REMARK VINA RESULT:    -4.040      0.000      0.000
REMARK INTER + INTRA:         -11.155
REMARK INTER:                  -8.764
REMARK INTRA:                  -2.391
REMARK UNBOUND:                -2.391
REMARK SMILES CCCCCCCCCCCCCCCCCCCCCC(=O)[O-]
REMARK SMILES IDX 12 1 11 2 10 3 9 4 8 5 7 6 6 7 5 8 4 9 3 10 2 11 1 12 13 13
REMARK SMILES IDX 14 14 15 15 16 16 17 17 18 18 19 19 20 20 21 21 22 22 23 23
REMARK SMILES IDX 24 24
REMARK H PARENT
REMARK Flexibility Score: inf
ROOT
ATOM      1  C   UNL     1      48.324  46.892  11.961  1.00  0.00     0.000 C 
ENDROOT
BRANCH   1   2
ATOM      2  C   UNL     1      48.549  46.280  13.352  1.00  0.00     0.000 C 
BRANCH   2   3
ATOM      3  C   UNL     1      47.367  45.416  13.820  1.00  0.00     0.000 C 
BRANCH   3   4
ATOM      4  C   UNL     1      46.228  45.363  12.787  1.00  0.00    -0.000 C 
BRANCH   4   5
ATOM      5  C   UNL     1      46.006  43.952  12.213  1.00  0.00    -0.000 C 
BRANCH   5   6
ATOM      6  C   UNL     1      45.676  43.897  10.708  1.00  0.00    -0.000 C 
BRANCH   6   7
ATOM      7  C   UNL     1      44.558  44.850  10.249  1.00  0.00    -0.000 C 
BRANCH   7   8
ATOM      8  C   UNL     1      44.925  45.630   8.978  1.00  0.00    -0.000 C 
BRANCH   8   9
ATOM      9  C   UNL     1      43.743  46.492   8.506  1.00  0.00    -0.000 C 
BRANCH   9  10
ATOM     10  C   UNL     1      43.631  47.819   9.274  1.00  0.00    -0.000 C 
BRANCH  10  11
ATOM     11  C   UNL     1      44.971  48.272   9.870  1.00  0.00    -0.003 C 
ATOM     12  C   UNL     1      44.864  48.461  11.381  1.00  0.00     0.004 C 
ENDBRANCH  10  11
ENDBRANCH   9  10
ENDBRANCH   8   9
ENDBRANCH   7   8
ENDBRANCH   6   7
ENDBRANCH   5   6
ENDBRANCH   4   5
ENDBRANCH   3   4
ENDBRANCH   2   3
ENDBRANCH   1   2
BRANCH   1  13
ATOM     13  C   UNL     1      48.602  48.402  11.973  1.00  0.00     0.000 C 
BRANCH  13  14
ATOM     14  C   UNL     1      49.786  48.799  11.074  1.00  0.00     0.000 C 
BRANCH  14  15
ATOM     15  C   UNL     1      50.866  49.658  11.762  1.00  0.00     0.000 C 
BRANCH  15  16
ATOM     16  C   UNL     1      51.166  49.284  13.228  1.00  0.00     0.000 C 
BRANCH  16  17
ATOM     17  C   UNL     1      52.425  48.421  13.438  1.00  0.00     0.000 C 
BRANCH  17  18
ATOM     18  C   UNL     1      52.094  46.991  13.899  1.00  0.00     0.000 C 
BRANCH  18  19
ATOM     19  C   UNL     1      52.389  45.927  12.825  1.00  0.00     0.000 C 
BRANCH  19  20
ATOM     20  C   UNL     1      53.843  45.892  12.317  1.00  0.00     0.006 C 
BRANCH  20  21
ATOM     21  C   UNL     1      54.396  44.468  12.179  1.00  0.00     0.053 C 
BRANCH  21  22
ATOM     22  C   UNL     1      54.262  43.989  10.768  1.00  0.00     0.041 C 
ATOM     23  O   UNL     1      54.264  44.812   9.813  1.00  0.00    -0.550 OA
ATOM     24  O   UNL     1      54.186  42.626  10.502  1.00  0.00    -0.550 OA
ENDBRANCH  21  22
ENDBRANCH  20  21
ENDBRANCH  19  20
ENDBRANCH  18  19
ENDBRANCH  17  18
ENDBRANCH  16  17
ENDBRANCH  15  16
ENDBRANCH  14  15
ENDBRANCH  13  14
ENDBRANCH   1  13
TORSDOF 20
ENDMDL
MODEL 2
REMARK VINA RESULT:    -3.996      2.525      3.618
REMARK INTER + INTRA:         -11.059
REMARK INTER:                  -9.179
REMARK INTRA:                  -1.880
REMARK UNBOUND:                -2.391
REMARK SMILES CCCCCCCCCCCCCCCCCCCCCC(=O)[O-]
REMARK SMILES IDX 12 1 11 2 10 3 9 4 8 5 7 6 6 7 5 8 4 9 3 10 2 11 1 12 13 13
REMARK SMILES IDX 14 14 15 15 16 16 17 17 18 18 19 19 20 20 21 21 22 22 23 23
REMARK SMILES IDX 24 24
REMARK H PARENT
REMARK Flexibility Score: inf
ROOT
ATOM      1  C   UNL     1      47.838  46.748  12.278  1.00  0.00     0.000 C 
ENDROOT
BRANCH   1   2
ATOM      2  C   UNL     1      46.911  45.525  12.202  1.00  0.00     0.000 C 
BRANCH   2   3
ATOM      3  C   UNL     1      45.763  45.710  11.197  1.00  0.00     0.000 C 
BRANCH   3   4
ATOM      4  C   UNL     1      44.841  44.481  11.119  1.00  0.00    -0.000 C 
BRANCH   4   5
ATOM      5  C   UNL     1      45.404  43.367  10.216  1.00  0.00    -0.000 C 
BRANCH   5   6
ATOM      6  C   UNL     1      45.625  42.007  10.907  1.00  0.00    -0.000 C 
BRANCH   6   7
ATOM      7  C   UNL     1      44.770  40.850  10.361  1.00  0.00    -0.000 C 
BRANCH   7   8
ATOM      8  C   UNL     1      45.304  40.288   9.035  1.00  0.00    -0.000 C 
BRANCH   8   9
ATOM      9  C   UNL     1      44.163  39.691   8.196  1.00  0.00    -0.000 C 
BRANCH   9  10
ATOM     10  C   UNL     1      43.475  40.734   7.300  1.00  0.00    -0.000 C 
BRANCH  10  11
ATOM     11  C   UNL     1      44.401  41.904   6.938  1.00  0.00    -0.003 C 
ATOM     12  C   UNL     1      43.610  43.199   6.775  1.00  0.00     0.004 C 
ENDBRANCH  10  11
ENDBRANCH   9  10
ENDBRANCH   8   9
ENDBRANCH   7   8
ENDBRANCH   6   7
ENDBRANCH   5   6
ENDBRANCH   4   5
ENDBRANCH   3   4
ENDBRANCH   2   3
ENDBRANCH   1   2
BRANCH   1  13
ATOM     13  C   UNL     1      47.342  47.870  11.355  1.00  0.00     0.000 C 
BRANCH  13  14
ATOM     14  C   UNL     1      48.481  48.769  10.842  1.00  0.00     0.000 C 
BRANCH  14  15
ATOM     15  C   UNL     1      49.335  49.429  11.943  1.00  0.00     0.000 C 
BRANCH  15  16
ATOM     16  C   UNL     1      50.819  49.009  11.963  1.00  0.00     0.000 C 
BRANCH  16  17
ATOM     17  C   UNL     1      51.240  48.153  13.172  1.00  0.00     0.000 C 
BRANCH  17  18
ATOM     18  C   UNL     1      51.589  46.706  12.783  1.00  0.00     0.000 C 
BRANCH  18  19
ATOM     19  C   UNL     1      51.362  46.412  11.288  1.00  0.00     0.000 C 
BRANCH  19  20
ATOM     20  C   UNL     1      52.635  46.101  10.478  1.00  0.00     0.006 C 
BRANCH  20  21
ATOM     21  C   UNL     1      53.345  44.823  10.942  1.00  0.00     0.053 C 
BRANCH  21  22
ATOM     22  C   UNL     1      54.499  45.160  11.833  1.00  0.00     0.041 C 
ATOM     23  O   UNL     1      55.188  46.193  11.618  1.00  0.00    -0.550 OA
ATOM     24  O   UNL     1      54.783  44.359  12.933  1.00  0.00    -0.550 OA
ENDBRANCH  21  22
ENDBRANCH  20  21
ENDBRANCH  19  20
ENDBRANCH  18  19
ENDBRANCH  17  18
ENDBRANCH  16  17
ENDBRANCH  15  16
ENDBRANCH  14  15
ENDBRANCH  13  14
ENDBRANCH   1  13
TORSDOF 20
ENDMDL
MODEL 3
REMARK VINA RESULT:    -3.923      2.881      4.520
REMARK INTER + INTRA:         -10.900
REMARK INTER:                  -9.103
REMARK INTRA:                  -1.797
REMARK UNBOUND:                -2.391
REMARK SMILES CCCCCCCCCCCCCCCCCCCCCC(=O)[O-]
REMARK SMILES IDX 12 1 11 2 10 3 9 4 8 5 7 6 6 7 5 8 4 9 3 10 2 11 1 12 13 13
REMARK SMILES IDX 14 14 15 15 16 16 17 17 18 18 19 19 20 20 21 21 22 22 23 23
REMARK SMILES IDX 24 24
REMARK H PARENT
REMARK Flexibility Score: inf
ROOT
ATOM      1  C   UNL     1      44.885  45.677   9.275  1.00  0.00     0.000 C 
ENDROOT
BRANCH   1   2
ATOM      2  C   UNL     1      45.298  44.863  10.511  1.00  0.00     0.000 C 
BRANCH   2   3
ATOM      3  C   UNL     1      45.530  43.377  10.195  1.00  0.00     0.000 C 
BRANCH   3   4
ATOM      4  C   UNL     1      44.541  42.455  10.928  1.00  0.00    -0.000 C 
BRANCH   4   5
ATOM      5  C   UNL     1      44.116  41.240  10.083  1.00  0.00    -0.000 C 
BRANCH   5   6
ATOM      6  C   UNL     1      44.984  40.968   8.838  1.00  0.00    -0.000 C 
BRANCH   6   7
ATOM      7  C   UNL     1      44.230  41.002   7.496  1.00  0.00    -0.000 C 
BRANCH   7   8
ATOM      8  C   UNL     1      44.557  42.248   6.660  1.00  0.00    -0.000 C 
BRANCH   8   9
ATOM      9  C   UNL     1      43.392  43.250   6.694  1.00  0.00    -0.000 C 
BRANCH   9  10
ATOM     10  C   UNL     1      42.054  42.593   7.070  1.00  0.00    -0.000 C 
BRANCH  10  11
ATOM     11  C   UNL     1      41.086  42.503   5.881  1.00  0.00    -0.003 C 
ATOM     12  C   UNL     1      41.472  41.362   4.944  1.00  0.00     0.004 C 
ENDBRANCH  10  11
ENDBRANCH   9  10
ENDBRANCH   8   9
ENDBRANCH   7   8
ENDBRANCH   6   7
ENDBRANCH   5   6
ENDBRANCH   4   5
ENDBRANCH   3   4
ENDBRANCH   2   3
ENDBRANCH   1   2
BRANCH   1  13
ATOM     13  C   UNL     1      44.819  47.175   9.600  1.00  0.00     0.000 C 
BRANCH  13  14
ATOM     14  C   UNL     1      45.653  47.556  10.836  1.00  0.00     0.000 C 
BRANCH  14  15
ATOM     15  C   UNL     1      46.926  48.372  10.536  1.00  0.00     0.000 C 
BRANCH  15  16
ATOM     16  C   UNL     1      48.183  47.942  11.320  1.00  0.00     0.000 C 
BRANCH  16  17
ATOM     17  C   UNL     1      49.429  48.817  11.088  1.00  0.00     0.000 C 
BRANCH  17  18
ATOM     18  C   UNL     1      50.648  48.003  10.620  1.00  0.00     0.000 C 
BRANCH  18  19
ATOM     19  C   UNL     1      51.580  47.594  11.775  1.00  0.00     0.000 C 
BRANCH  19  20
ATOM     20  C   UNL     1      51.822  46.079  11.920  1.00  0.00     0.006 C 
BRANCH  20  21
ATOM     21  C   UNL     1      52.445  45.448  10.669  1.00  0.00     0.053 C 
BRANCH  21  22
ATOM     22  C   UNL     1      53.743  44.787  11.007  1.00  0.00     0.041 C 
ATOM     23  O   UNL     1      54.065  43.699  10.458  1.00  0.00    -0.550 OA
ATOM     24  O   UNL     1      54.624  45.399  11.892  1.00  0.00    -0.550 OA
ENDBRANCH  21  22
ENDBRANCH  20  21
ENDBRANCH  19  20
ENDBRANCH  18  19
ENDBRANCH  17  18
ENDBRANCH  16  17
ENDBRANCH  15  16
ENDBRANCH  14  15
ENDBRANCH  13  14
ENDBRANCH   1  13
TORSDOF 20
ENDMDL
MODEL 4
REMARK VINA RESULT:    -3.894      2.730      4.787
REMARK INTER + INTRA:         -10.838
REMARK INTER:                  -8.877
REMARK INTRA:                  -1.961
REMARK UNBOUND:                -2.391
REMARK SMILES CCCCCCCCCCCCCCCCCCCCCC(=O)[O-]
REMARK SMILES IDX 12 1 11 2 10 3 9 4 8 5 7 6 6 7 5 8 4 9 3 10 2 11 1 12 13 13
REMARK SMILES IDX 14 14 15 15 16 16 17 17 18 18 19 19 20 20 21 21 22 22 23 23
REMARK SMILES IDX 24 24
REMARK H PARENT
REMARK Flexibility Score: inf
ROOT
ATOM      1  C   UNL     1      44.964  44.883  11.344  1.00  0.00     0.000 C 
ENDROOT
BRANCH   1   2
ATOM      2  C   UNL     1      45.088  44.032  10.070  1.00  0.00     0.000 C 
BRANCH   2   3
ATOM      3  C   UNL     1      44.978  44.868   8.785  1.00  0.00     0.000 C 
BRANCH   3   4
ATOM      4  C   UNL     1      43.789  45.844   8.813  1.00  0.00    -0.000 C 
BRANCH   4   5
ATOM      5  C   UNL     1      43.062  45.940   7.460  1.00  0.00    -0.000 C 
BRANCH   5   6
ATOM      6  C   UNL     1      41.775  45.099   7.342  1.00  0.00    -0.000 C 
BRANCH   6   7
ATOM      7  C   UNL     1      41.308  44.816   5.903  1.00  0.00    -0.000 C 
BRANCH   7   8
ATOM      8  C   UNL     1      42.210  43.814   5.169  1.00  0.00    -0.000 C 
BRANCH   8   9
ATOM      9  C   UNL     1      41.648  42.388   5.282  1.00  0.00    -0.000 C 
BRANCH   9  10
ATOM     10  C   UNL     1      42.612  41.424   5.991  1.00  0.00    -0.000 C 
BRANCH  10  11
ATOM     11  C   UNL     1      43.895  42.117   6.472  1.00  0.00    -0.003 C 
ATOM     12  C   UNL     1      44.554  41.330   7.601  1.00  0.00     0.004 C 
ENDBRANCH  10  11
ENDBRANCH   9  10
ENDBRANCH   8   9
ENDBRANCH   7   8
ENDBRANCH   6   7
ENDBRANCH   5   6
ENDBRANCH   4   5
ENDBRANCH   3   4
ENDBRANCH   2   3
ENDBRANCH   1   2
BRANCH   1  13
ATOM     13  C   UNL     1      46.266  45.645  11.624  1.00  0.00     0.000 C 
BRANCH  13  14
ATOM     14  C   UNL     1      46.070  47.171  11.664  1.00  0.00     0.000 C 
BRANCH  14  15
ATOM     15  C   UNL     1      46.673  47.935  10.468  1.00  0.00     0.000 C 
BRANCH  15  16
ATOM     16  C   UNL     1      47.821  48.904  10.819  1.00  0.00     0.000 C 
BRANCH  16  17
ATOM     17  C   UNL     1      48.725  48.452  11.981  1.00  0.00     0.000 C 
BRANCH  17  18
ATOM     18  C   UNL     1      50.113  47.987  11.507  1.00  0.00     0.000 C 
BRANCH  18  19
ATOM     19  C   UNL     1      50.558  46.662  12.153  1.00  0.00     0.000 C 
BRANCH  19  20
ATOM     20  C   UNL     1      51.909  46.110  11.658  1.00  0.00     0.006 C 
BRANCH  20  21
ATOM     21  C   UNL     1      52.921  45.895  12.790  1.00  0.00     0.053 C 
BRANCH  21  22
ATOM     22  C   UNL     1      54.224  45.404  12.241  1.00  0.00     0.041 C 
ATOM     23  O   UNL     1      54.585  44.212  12.432  1.00  0.00    -0.550 OA
ATOM     24  O   UNL     1      55.015  46.250  11.472  1.00  0.00    -0.550 OA
ENDBRANCH  21  22
ENDBRANCH  20  21
ENDBRANCH  19  20
ENDBRANCH  18  19
ENDBRANCH  17  18
ENDBRANCH  16  17
ENDBRANCH  15  16
ENDBRANCH  14  15
ENDBRANCH  13  14
ENDBRANCH   1  13
TORSDOF 20
ENDMDL
MODEL 5
REMARK VINA RESULT:    -3.889      2.377      4.080
REMARK INTER + INTRA:         -10.826
REMARK INTER:                  -8.726
REMARK INTRA:                  -2.100
REMARK UNBOUND:                -2.391
REMARK SMILES CCCCCCCCCCCCCCCCCCCCCC(=O)[O-]
REMARK SMILES IDX 12 1 11 2 10 3 9 4 8 5 7 6 6 7 5 8 4 9 3 10 2 11 1 12 13 13
REMARK SMILES IDX 14 14 15 15 16 16 17 17 18 18 19 19 20 20 21 21 22 22 23 23
REMARK SMILES IDX 24 24
REMARK H PARENT
REMARK Flexibility Score: inf
ROOT
ATOM      1  C   UNL     1      45.676  47.425  10.000  1.00  0.00     0.000 C 
ENDROOT
BRANCH   1   2
ATOM      2  C   UNL     1      44.202  47.227   9.614  1.00  0.00     0.000 C 
BRANCH   2   3
ATOM      3  C   UNL     1      43.892  45.788   9.170  1.00  0.00     0.000 C 
BRANCH   3   4
ATOM      4  C   UNL     1      45.162  44.943   8.974  1.00  0.00    -0.000 C 
BRANCH   4   5
ATOM      5  C   UNL     1      45.253  43.762   9.957  1.00  0.00    -0.000 C 
BRANCH   5   6
ATOM      6  C   UNL     1      44.341  42.562   9.632  1.00  0.00    -0.000 C 
BRANCH   6   7
ATOM      7  C   UNL     1      45.035  41.390   8.915  1.00  0.00    -0.000 C 
BRANCH   7   8
ATOM      8  C   UNL     1      44.311  40.964   7.630  1.00  0.00    -0.000 C 
BRANCH   8   9
ATOM      9  C   UNL     1      44.364  42.082   6.577  1.00  0.00    -0.000 C 
BRANCH   9  10
ATOM     10  C   UNL     1      42.971  42.495   6.077  1.00  0.00    -0.000 C 
BRANCH  10  11
ATOM     11  C   UNL     1      42.702  43.998   6.250  1.00  0.00    -0.003 C 
ATOM     12  C   UNL     1      41.319  44.243   6.845  1.00  0.00     0.004 C 
ENDBRANCH  10  11
ENDBRANCH   9  10
ENDBRANCH   8   9
ENDBRANCH   7   8
ENDBRANCH   6   7
ENDBRANCH   5   6
ENDBRANCH   4   5
ENDBRANCH   3   4
ENDBRANCH   2   3
ENDBRANCH   1   2
BRANCH   1  13
ATOM     13  C   UNL     1      45.817  48.475  11.110  1.00  0.00     0.000 C 
BRANCH  13  14
ATOM     14  C   UNL     1      46.531  47.932  12.361  1.00  0.00     0.000 C 
BRANCH  14  15
ATOM     15  C   UNL     1      47.191  46.550  12.183  1.00  0.00     0.000 C 
BRANCH  15  16
ATOM     16  C   UNL     1      48.729  46.538  12.300  1.00  0.00     0.000 C 
BRANCH  16  17
ATOM     17  C   UNL     1      49.413  47.899  12.072  1.00  0.00     0.000 C 
BRANCH  17  18
ATOM     18  C   UNL     1      50.450  47.860  10.936  1.00  0.00     0.000 C 
BRANCH  18  19
ATOM     19  C   UNL     1      51.784  47.216  11.359  1.00  0.00     0.000 C 
BRANCH  19  20
ATOM     20  C   UNL     1      52.063  45.825  10.758  1.00  0.00     0.006 C 
BRANCH  20  21
ATOM     21  C   UNL     1      53.545  45.594  10.440  1.00  0.00     0.053 C 
BRANCH  21  22
ATOM     22  C   UNL     1      54.131  44.585  11.377  1.00  0.00     0.041 C 
ATOM     23  O   UNL     1      54.364  44.892  12.576  1.00  0.00    -0.550 OA
ATOM     24  O   UNL     1      54.370  43.288  10.938  1.00  0.00    -0.550 OA
ENDBRANCH  21  22
ENDBRANCH  20  21
ENDBRANCH  19  20
ENDBRANCH  18  19
ENDBRANCH  17  18
ENDBRANCH  16  17
ENDBRANCH  15  16
ENDBRANCH  14  15
ENDBRANCH  13  14
ENDBRANCH   1  13
TORSDOF 20
ENDMDL
MODEL 6
REMARK VINA RESULT:    -3.873     13.183     16.108
REMARK INTER + INTRA:         -10.793
REMARK INTER:                  -8.940
REMARK INTRA:                  -1.853
REMARK UNBOUND:                -2.391
REMARK SMILES CCCCCCCCCCCCCCCCCCCCCC(=O)[O-]
REMARK SMILES IDX 12 1 11 2 10 3 9 4 8 5 7 6 6 7 5 8 4 9 3 10 2 11 1 12 13 13
REMARK SMILES IDX 14 14 15 15 16 16 17 17 18 18 19 19 20 20 21 21 22 22 23 23
REMARK SMILES IDX 24 24
REMARK H PARENT
REMARK Flexibility Score: inf
ROOT
ATOM      1  C   UNL     1      50.458  33.902   2.026  1.00  0.00     0.000 C 
ENDROOT
BRANCH   1   2
ATOM      2  C   UNL     1      51.463  32.994   2.752  1.00  0.00     0.000 C 
BRANCH   2   3
ATOM      3  C   UNL     1      51.223  32.935   4.269  1.00  0.00     0.000 C 
BRANCH   3   4
ATOM      4  C   UNL     1      49.800  33.367   4.660  1.00  0.00    -0.000 C 
BRANCH   4   5
ATOM      5  C   UNL     1      49.517  33.204   6.164  1.00  0.00    -0.000 C 
BRANCH   5   6
ATOM      6  C   UNL     1      49.649  34.491   7.003  1.00  0.00    -0.000 C 
BRANCH   6   7
ATOM      7  C   UNL     1      49.280  34.343   8.490  1.00  0.00    -0.000 C 
BRANCH   7   8
ATOM      8  C   UNL     1      50.106  35.259   9.404  1.00  0.00    -0.000 C 
BRANCH   8   9
ATOM      9  C   UNL     1      50.274  34.633  10.797  1.00  0.00    -0.000 C 
BRANCH   9  10
ATOM     10  C   UNL     1      49.128  33.677  11.162  1.00  0.00    -0.000 C 
BRANCH  10  11
ATOM     11  C   UNL     1      47.992  34.378  11.921  1.00  0.00    -0.003 C 
ATOM     12  C   UNL     1      48.524  35.116  13.147  1.00  0.00     0.004 C 
ENDBRANCH  10  11
ENDBRANCH   9  10
ENDBRANCH   8   9
ENDBRANCH   7   8
ENDBRANCH   6   7
ENDBRANCH   5   6
ENDBRANCH   4   5
ENDBRANCH   3   4
ENDBRANCH   2   3
ENDBRANCH   1   2
BRANCH   1  13
ATOM     13  C   UNL     1      50.160  33.375   0.616  1.00  0.00     0.000 C 
BRANCH  13  14
ATOM     14  C   UNL     1      50.964  32.109   0.268  1.00  0.00     0.000 C 
BRANCH  14  15
ATOM     15  C   UNL     1      51.573  32.094  -1.148  1.00  0.00     0.000 C 
BRANCH  15  16
ATOM     16  C   UNL     1      53.104  32.272  -1.207  1.00  0.00     0.000 C 
BRANCH  16  17
ATOM     17  C   UNL     1      53.854  31.911   0.089  1.00  0.00     0.000 C 
BRANCH  17  18
ATOM     18  C   UNL     1      54.577  33.116   0.713  1.00  0.00     0.000 C 
BRANCH  18  19
ATOM     19  C   UNL     1      53.888  34.459   0.405  1.00  0.00     0.000 C 
BRANCH  19  20
ATOM     20  C   UNL     1      54.836  35.660   0.230  1.00  0.00     0.006 C 
BRANCH  20  21
ATOM     21  C   UNL     1      54.556  36.467  -1.044  1.00  0.00     0.053 C 
BRANCH  21  22
ATOM     22  C   UNL     1      54.346  37.911  -0.713  1.00  0.00     0.041 C 
ATOM     23  O   UNL     1      54.882  38.413   0.311  1.00  0.00    -0.550 OA
ATOM     24  O   UNL     1      53.600  38.717  -1.566  1.00  0.00    -0.550 OA
ENDBRANCH  21  22
ENDBRANCH  20  21
ENDBRANCH  19  20
ENDBRANCH  18  19
ENDBRANCH  17  18
ENDBRANCH  16  17
ENDBRANCH  15  16
ENDBRANCH  14  15
ENDBRANCH  13  14
ENDBRANCH   1  13
TORSDOF 20
ENDMDL
MODEL 7
REMARK VINA RESULT:    -3.855      3.476      8.433
REMARK INTER + INTRA:         -10.752
REMARK INTER:                  -7.652
REMARK INTRA:                  -3.100
REMARK UNBOUND:                -2.391
REMARK SMILES CCCCCCCCCCCCCCCCCCCCCC(=O)[O-]
REMARK SMILES IDX 12 1 11 2 10 3 9 4 8 5 7 6 6 7 5 8 4 9 3 10 2 11 1 12 13 13
REMARK SMILES IDX 14 14 15 15 16 16 17 17 18 18 19 19 20 20 21 21 22 22 23 23
REMARK SMILES IDX 24 24
REMARK H PARENT
REMARK Flexibility Score: inf
ROOT
ATOM      1  C   UNL     1      47.952  47.122  11.866  1.00  0.00     0.000 C 
ENDROOT
BRANCH   1   2
ATOM      2  C   UNL     1      48.589  48.440  12.333  1.00  0.00     0.000 C 
BRANCH   2   3
ATOM      3  C   UNL     1      49.332  49.173  11.204  1.00  0.00     0.000 C 
BRANCH   3   4
ATOM      4  C   UNL     1      50.660  49.791  11.675  1.00  0.00    -0.000 C 
BRANCH   4   5
ATOM      5  C   UNL     1      51.020  49.405  13.121  1.00  0.00    -0.000 C 
BRANCH   5   6
ATOM      6  C   UNL     1      52.221  48.449  13.269  1.00  0.00    -0.000 C 
BRANCH   6   7
ATOM      7  C   UNL     1      51.867  47.020  13.717  1.00  0.00    -0.000 C 
BRANCH   7   8
ATOM      8  C   UNL     1      51.420  46.123  12.554  1.00  0.00    -0.000 C 
BRANCH   8   9
ATOM      9  C   UNL     1      52.235  46.425  11.287  1.00  0.00    -0.000 C 
BRANCH   9  10
ATOM     10  C   UNL     1      52.810  45.158  10.634  1.00  0.00    -0.000 C 
BRANCH  10  11
ATOM     11  C   UNL     1      54.304  44.963  10.935  1.00  0.00    -0.003 C 
ATOM     12  C   UNL     1      54.946  46.270  11.391  1.00  0.00     0.004 C 
ENDBRANCH  10  11
ENDBRANCH   9  10
ENDBRANCH   8   9
ENDBRANCH   7   8
ENDBRANCH   6   7
ENDBRANCH   5   6
ENDBRANCH   4   5
ENDBRANCH   3   4
ENDBRANCH   2   3
ENDBRANCH   1   2
BRANCH   1  13
ATOM     13  C   UNL     1      47.714  46.178  13.052  1.00  0.00     0.000 C 
BRANCH  13  14
ATOM     14  C   UNL     1      46.902  44.927  12.668  1.00  0.00     0.000 C 
BRANCH  14  15
ATOM     15  C   UNL     1      45.567  45.214  11.953  1.00  0.00     0.000 C 
BRANCH  15  16
ATOM     16  C   UNL     1      45.451  44.643  10.525  1.00  0.00     0.000 C 
BRANCH  16  17
ATOM     17  C   UNL     1      45.127  45.678   9.431  1.00  0.00     0.000 C 
BRANCH  17  18
ATOM     18  C   UNL     1      43.908  46.549   9.779  1.00  0.00     0.000 C 
BRANCH  18  19
ATOM     19  C   UNL     1      44.133  48.045   9.491  1.00  0.00     0.000 C 
BRANCH  19  20
ATOM     20  C   UNL     1      45.420  48.643  10.090  1.00  0.00     0.006 C 
BRANCH  20  21
ATOM     21  C   UNL     1      45.153  49.824  11.031  1.00  0.00     0.053 C 
BRANCH  21  22
ATOM     22  C   UNL     1      44.391  49.371  12.237  1.00  0.00     0.041 C 
ATOM     23  O   UNL     1      44.868  48.482  12.993  1.00  0.00    -0.550 OA
ATOM     24  O   UNL     1      43.177  49.968  12.556  1.00  0.00    -0.550 OA
ENDBRANCH  21  22
ENDBRANCH  20  21
ENDBRANCH  19  20
ENDBRANCH  18  19
ENDBRANCH  17  18
ENDBRANCH  16  17
ENDBRANCH  15  16
ENDBRANCH  14  15
ENDBRANCH  13  14
ENDBRANCH   1  13
TORSDOF 20
ENDMDL
MODEL 8
REMARK VINA RESULT:    -3.836      2.179      3.579
REMARK INTER + INTRA:         -10.711
REMARK INTER:                  -8.703
REMARK INTRA:                  -2.008
REMARK UNBOUND:                -2.391
REMARK SMILES CCCCCCCCCCCCCCCCCCCCCC(=O)[O-]
REMARK SMILES IDX 12 1 11 2 10 3 9 4 8 5 7 6 6 7 5 8 4 9 3 10 2 11 1 12 13 13
REMARK SMILES IDX 14 14 15 15 16 16 17 17 18 18 19 19 20 20 21 21 22 22 23 23
REMARK SMILES IDX 24 24
REMARK H PARENT
REMARK Flexibility Score: inf
ROOT
ATOM      1  C   UNL     1      47.167  47.216  11.466  1.00  0.00     0.000 C 
ENDROOT
BRANCH   1   2
ATOM      2  C   UNL     1      46.196  48.030  10.597  1.00  0.00     0.000 C 
BRANCH   2   3
ATOM      3  C   UNL     1      44.944  47.232  10.198  1.00  0.00     0.000 C 
BRANCH   3   4
ATOM      4  C   UNL     1      45.222  45.725  10.059  1.00  0.00    -0.000 C 
BRANCH   4   5
ATOM      5  C   UNL     1      44.889  45.182   8.658  1.00  0.00    -0.000 C 
BRANCH   5   6
ATOM      6  C   UNL     1      43.410  45.306   8.238  1.00  0.00    -0.000 C 
BRANCH   6   7
ATOM      7  C   UNL     1      43.030  44.546   6.954  1.00  0.00    -0.000 C 
BRANCH   7   8
ATOM      8  C   UNL     1      41.986  43.447   7.199  1.00  0.00    -0.000 C 
BRANCH   8   9
ATOM      9  C   UNL     1      42.485  42.092   6.672  1.00  0.00    -0.000 C 
BRANCH   9  10
ATOM     10  C   UNL     1      44.019  42.001   6.626  1.00  0.00    -0.000 C 
BRANCH  10  11
ATOM     11  C   UNL     1      44.584  41.017   7.661  1.00  0.00    -0.003 C 
ATOM     12  C   UNL     1      44.754  41.689   9.020  1.00  0.00     0.004 C 
ENDBRANCH  10  11
ENDBRANCH   9  10
ENDBRANCH   8   9
ENDBRANCH   7   8
ENDBRANCH   6   7
ENDBRANCH   5   6
ENDBRANCH   4   5
ENDBRANCH   3   4
ENDBRANCH   2   3
ENDBRANCH   1   2
BRANCH   1  13
ATOM     13  C   UNL     1      48.265  48.115  12.051  1.00  0.00     0.000 C 
BRANCH  13  14
ATOM     14  C   UNL     1      49.131  48.783  10.968  1.00  0.00     0.000 C 
BRANCH  14  15
ATOM     15  C   UNL     1      50.402  49.481  11.491  1.00  0.00     0.000 C 
BRANCH  15  16
ATOM     16  C   UNL     1      50.668  49.316  13.002  1.00  0.00     0.000 C 
BRANCH  16  17
ATOM     17  C   UNL     1      52.154  49.314  13.407  1.00  0.00     0.000 C 
BRANCH  17  18
ATOM     18  C   UNL     1      52.808  47.929  13.264  1.00  0.00     0.000 C 
BRANCH  18  19
ATOM     19  C   UNL     1      51.783  46.782  13.204  1.00  0.00     0.000 C 
BRANCH  19  20
ATOM     20  C   UNL     1      51.748  45.999  11.877  1.00  0.00     0.006 C 
BRANCH  20  21
ATOM     21  C   UNL     1      52.928  46.328  10.955  1.00  0.00     0.053 C 
BRANCH  21  22
ATOM     22  C   UNL     1      53.911  45.199  10.940  1.00  0.00     0.041 C 
ATOM     23  O   UNL     1      54.253  44.668   9.849  1.00  0.00    -0.550 OA
ATOM     24  O   UNL     1      54.490  44.768  12.128  1.00  0.00    -0.550 OA
ENDBRANCH  21  22
ENDBRANCH  20  21
ENDBRANCH  19  20
ENDBRANCH  18  19
ENDBRANCH  17  18
ENDBRANCH  16  17
ENDBRANCH  15  16
ENDBRANCH  14  15
ENDBRANCH  13  14
ENDBRANCH   1  13
TORSDOF 20
ENDMDL
MODEL 9
REMARK VINA RESULT:    -3.829      2.072      3.217
REMARK INTER + INTRA:         -10.698
REMARK INTER:                  -8.621
REMARK INTRA:                  -2.077
REMARK UNBOUND:                -2.391
REMARK SMILES CCCCCCCCCCCCCCCCCCCCCC(=O)[O-]
REMARK SMILES IDX 12 1 11 2 10 3 9 4 8 5 7 6 6 7 5 8 4 9 3 10 2 11 1 12 13 13
REMARK SMILES IDX 14 14 15 15 16 16 17 17 18 18 19 19 20 20 21 21 22 22 23 23
REMARK SMILES IDX 24 24
REMARK H PARENT
REMARK Flexibility Score: inf
ROOT
ATOM      1  C   UNL     1      48.253  48.960  11.914  1.00  0.00     0.000 C 
ENDROOT
BRANCH   1   2
ATOM      2  C   UNL     1      47.956  47.478  12.190  1.00  0.00     0.000 C 
BRANCH   2   3
ATOM      3  C   UNL     1      46.566  47.256  12.807  1.00  0.00     0.000 C 
BRANCH   3   4
ATOM      4  C   UNL     1      45.600  46.539  11.847  1.00  0.00    -0.000 C 
BRANCH   4   5
ATOM      5  C   UNL     1      45.840  46.910  10.372  1.00  0.00    -0.000 C 
BRANCH   5   6
ATOM      6  C   UNL     1      44.743  46.450   9.391  1.00  0.00    -0.000 C 
BRANCH   6   7
ATOM      7  C   UNL     1      44.915  45.023   8.841  1.00  0.00    -0.000 C 
BRANCH   7   8
ATOM      8  C   UNL     1      44.242  43.959   9.721  1.00  0.00    -0.000 C 
BRANCH   8   9
ATOM      9  C   UNL     1      43.463  42.952   8.861  1.00  0.00    -0.000 C 
BRANCH   9  10
ATOM     10  C   UNL     1      43.458  43.322   7.369  1.00  0.00    -0.000 C 
BRANCH  10  11
ATOM     11  C   UNL     1      44.241  42.319   6.509  1.00  0.00    -0.003 C 
ATOM     12  C   UNL     1      43.369  41.125   6.128  1.00  0.00     0.004 C 
ENDBRANCH  10  11
ENDBRANCH   9  10
ENDBRANCH   8   9
ENDBRANCH   7   8
ENDBRANCH   6   7
ENDBRANCH   5   6
ENDBRANCH   4   5
ENDBRANCH   3   4
ENDBRANCH   2   3
ENDBRANCH   1   2
BRANCH   1  13
ATOM     13  C   UNL     1      49.482  49.114  11.008  1.00  0.00     0.000 C 
BRANCH  13  14
ATOM     14  C   UNL     1      50.584  49.986  11.636  1.00  0.00     0.000 C 
BRANCH  14  15
ATOM     15  C   UNL     1      50.847  49.723  13.132  1.00  0.00     0.000 C 
BRANCH  15  16
ATOM     16  C   UNL     1      52.317  49.435  13.499  1.00  0.00     0.000 C 
BRANCH  16  17
ATOM     17  C   UNL     1      52.668  47.945  13.675  1.00  0.00     0.000 C 
BRANCH  17  18
ATOM     18  C   UNL     1      51.425  47.039  13.680  1.00  0.00     0.000 C 
BRANCH  18  19
ATOM     19  C   UNL     1      51.347  46.115  12.451  1.00  0.00     0.000 C 
BRANCH  19  20
ATOM     20  C   UNL     1      52.178  46.567  11.235  1.00  0.00     0.006 C 
BRANCH  20  21
ATOM     21  C   UNL     1      53.201  45.518  10.782  1.00  0.00     0.053 C 
BRANCH  21  22
ATOM     22  C   UNL     1      54.467  45.649  11.569  1.00  0.00     0.041 C 
ATOM     23  O   UNL     1      55.342  46.492  11.232  1.00  0.00    -0.550 OA
ATOM     24  O   UNL     1      54.659  44.876  12.708  1.00  0.00    -0.550 OA
ENDBRANCH  21  22
ENDBRANCH  20  21
ENDBRANCH  19  20
ENDBRANCH  18  19
ENDBRANCH  17  18
ENDBRANCH  16  17
ENDBRANCH  15  16
ENDBRANCH  14  15
ENDBRANCH  13  14
ENDBRANCH   1  13
TORSDOF 20
ENDMDL
