MODEL 1
REMARK VINA RESULT:    -4.391      0.000      0.000
REMARK INTER + INTRA:          -4.811
REMARK INTER:                  -4.776
REMARK INTRA:                  -0.034
REMARK UNBOUND:                -0.034
REMARK SMILES O=C([O-])c1ccc(O)cc1
REMARK SMILES IDX 4 1 5 2 10 3 6 4 9 5 7 6 2 7 1 8 3 9 8 10
REMARK H PARENT 8 11
REMARK Flexibility Score: inf
ROOT
ATOM      1  C   UNL     1       3.856  10.989   4.719  1.00  0.00    -0.003 A 
ATOM      2  C   UNL     1       4.315   9.837   4.055  1.00  0.00     0.014 A 
ATOM      3  C   UNL     1       4.491  12.218   4.469  1.00  0.00     0.014 A 
ATOM      4  C   UNL     1       5.386   9.916   3.159  1.00  0.00     0.047 A 
ATOM      5  C   UNL     1       5.561  12.294   3.572  1.00  0.00     0.047 A 
ATOM      6  C   UNL     1       6.012  11.143   2.915  1.00  0.00     0.115 A 
ENDROOT
BRANCH   1   7
ATOM      7  C   UNL     1       2.724  10.911   5.668  1.00  0.00     0.071 C 
ATOM      8  O   UNL     1       1.875   9.986   5.579  1.00  0.00    -0.545 OA
ATOM      9  O   UNL     1       2.581  11.862   6.673  1.00  0.00    -0.545 OA
ENDBRANCH   1   7
BRANCH   6  10
ATOM     10  O   UNL     1       7.077  11.205   2.020  1.00  0.00    -0.508 OA
ATOM     11  H   UNL     1       6.957  11.560   1.078  1.00  0.00     0.293 HD
ENDBRANCH   6  10
TORSDOF 2
ENDMDL
MODEL 2
REMARK VINA RESULT:    -4.326     11.895     12.779
REMARK INTER + INTRA:          -4.740
REMARK INTER:                  -4.707
REMARK INTRA:                  -0.033
REMARK UNBOUND:                -0.034
REMARK SMILES O=C([O-])c1ccc(O)cc1
REMARK SMILES IDX 4 1 5 2 10 3 6 4 9 5 7 6 2 7 1 8 3 9 8 10
REMARK H PARENT 8 11
REMARK Flexibility Score: inf
ROOT
ATOM      1  C   UNL     1      11.491   1.197   0.857  1.00  0.00    -0.003 A 
ATOM      2  C   UNL     1      11.609   2.457   1.471  1.00  0.00     0.014 A 
ATOM      3  C   UNL     1      12.267   0.918  -0.282  1.00  0.00     0.014 A 
ATOM      4  C   UNL     1      12.486   3.416   0.954  1.00  0.00     0.047 A 
ATOM      5  C   UNL     1      13.143   1.880  -0.796  1.00  0.00     0.047 A 
ATOM      6  C   UNL     1      13.254   3.132  -0.179  1.00  0.00     0.115 A 
ENDROOT
BRANCH   1   7
ATOM      7  C   UNL     1      10.565   0.178   1.399  1.00  0.00     0.071 C 
ATOM      8  O   UNL     1      10.326   0.121   2.634  1.00  0.00    -0.545 OA
ATOM      9  O   UNL     1       9.945  -0.731   0.550  1.00  0.00    -0.545 OA
ENDBRANCH   1   7
BRANCH   6  10
ATOM     10  O   UNL     1      14.123   4.098  -0.682  1.00  0.00    -0.508 OA
ATOM     11  H   UNL     1      14.206   5.010  -0.249  1.00  0.00     0.293 HD
ENDBRANCH   6  10
TORSDOF 2
ENDMDL
MODEL 3
REMARK VINA RESULT:    -4.299     11.512     12.837
REMARK INTER + INTRA:          -4.710
REMARK INTER:                  -4.675
REMARK INTRA:                  -0.036
REMARK UNBOUND:                -0.034
REMARK SMILES O=C([O-])c1ccc(O)cc1
REMARK SMILES IDX 4 1 5 2 10 3 6 4 9 5 7 6 2 7 1 8 3 9 8 10
REMARK H PARENT 8 11
REMARK Flexibility Score: inf
ROOT
ATOM      1  C   UNL     1      12.741   3.337  -0.417  1.00  0.00    -0.003 A 
ATOM      2  C   UNL     1      12.793   1.964  -0.717  1.00  0.00     0.014 A 
ATOM      3  C   UNL     1      12.100   3.753   0.763  1.00  0.00     0.014 A 
ATOM      4  C   UNL     1      12.215   1.028   0.147  1.00  0.00     0.047 A 
ATOM      5  C   UNL     1      11.524   2.815   1.625  1.00  0.00     0.047 A 
ATOM      6  C   UNL     1      11.580   1.450   1.319  1.00  0.00     0.115 A 
ENDROOT
BRANCH   1   7
ATOM      7  C   UNL     1      13.350   4.332  -1.328  1.00  0.00     0.071 C 
ATOM      8  O   UNL     1      14.122   3.966  -2.253  1.00  0.00    -0.545 OA
ATOM      9  O   UNL     1      13.079   5.686  -1.173  1.00  0.00    -0.545 OA
ENDBRANCH   1   7
BRANCH   6  10
ATOM     10  O   UNL     1      11.009   0.506   2.169  1.00  0.00    -0.508 OA
ATOM     11  H   UNL     1      10.188   0.721   2.724  1.00  0.00     0.293 HD
ENDBRANCH   6  10
TORSDOF 2
ENDMDL
MODEL 4
REMARK VINA RESULT:    -4.233      8.404      9.902
REMARK INTER + INTRA:          -4.638
REMARK INTER:                  -4.610
REMARK INTRA:                  -0.028
REMARK UNBOUND:                -0.034
REMARK SMILES O=C([O-])c1ccc(O)cc1
REMARK SMILES IDX 4 1 5 2 10 3 6 4 9 5 7 6 2 7 1 8 3 9 8 10
REMARK H PARENT 8 11
REMARK Flexibility Score: inf
ROOT
ATOM      1  C   UNL     1       3.626   3.059  -1.392  1.00  0.00    -0.003 A 
ATOM      2  C   UNL     1       2.741   4.148  -1.495  1.00  0.00     0.014 A 
ATOM      3  C   UNL     1       4.485   2.981  -0.281  1.00  0.00     0.014 A 
ATOM      4  C   UNL     1       2.717   5.136  -0.506  1.00  0.00     0.047 A 
ATOM      5  C   UNL     1       4.457   3.971   0.706  1.00  0.00     0.047 A 
ATOM      6  C   UNL     1       3.573   5.051   0.596  1.00  0.00     0.115 A 
ENDROOT
BRANCH   1   7
ATOM      7  C   UNL     1       3.657   2.011  -2.436  1.00  0.00     0.071 C 
ATOM      8  O   UNL     1       4.671   1.865  -3.169  1.00  0.00    -0.545 OA
ATOM      9  O   UNL     1       2.565   1.172  -2.623  1.00  0.00    -0.545 OA
ENDBRANCH   1   7
BRANCH   6  10
ATOM     10  O   UNL     1       3.537   6.043   1.574  1.00  0.00    -0.508 OA
ATOM     11  H   UNL     1       3.024   6.906   1.433  1.00  0.00     0.293 HD
ENDBRANCH   6  10
TORSDOF 2
ENDMDL
MODEL 5
REMARK VINA RESULT:    -4.193      7.411      8.683
REMARK INTER + INTRA:          -4.595
REMARK INTER:                  -4.566
REMARK INTRA:                  -0.029
REMARK UNBOUND:                -0.034
REMARK SMILES O=C([O-])c1ccc(O)cc1
REMARK SMILES IDX 4 1 5 2 10 3 6 4 9 5 7 6 2 7 1 8 3 9 8 10
REMARK H PARENT 8 11
REMARK Flexibility Score: inf
ROOT
ATOM      1  C   UNL     1       4.087   4.709   0.254  1.00  0.00    -0.003 A 
ATOM      2  C   UNL     1       2.993   5.054  -0.560  1.00  0.00     0.014 A 
ATOM      3  C   UNL     1       4.744   3.486   0.031  1.00  0.00     0.014 A 
ATOM      4  C   UNL     1       2.568   4.192  -1.575  1.00  0.00     0.047 A 
ATOM      5  C   UNL     1       4.316   2.627  -0.986  1.00  0.00     0.047 A 
ATOM      6  C   UNL     1       3.226   2.978  -1.792  1.00  0.00     0.115 A 
ENDROOT
BRANCH   1   7
ATOM      7  C   UNL     1       4.542   5.617   1.331  1.00  0.00     0.071 C 
ATOM      8  O   UNL     1       3.765   5.941   2.267  1.00  0.00    -0.545 OA
ATOM      9  O   UNL     1       5.836   6.125   1.323  1.00  0.00    -0.545 OA
ENDBRANCH   1   7
BRANCH   6  10
ATOM     10  O   UNL     1       2.790   2.130  -2.807  1.00  0.00    -0.508 OA
ATOM     11  H   UNL     1       2.261   1.290  -2.604  1.00  0.00     0.293 HD
ENDBRANCH   6  10
TORSDOF 2
ENDMDL
MODEL 6
REMARK VINA RESULT:    -4.160      3.696      4.831
REMARK INTER + INTRA:          -4.559
REMARK INTER:                  -4.532
REMARK INTRA:                  -0.027
REMARK UNBOUND:                -0.034
REMARK SMILES O=C([O-])c1ccc(O)cc1
REMARK SMILES IDX 4 1 5 2 10 3 6 4 9 5 7 6 2 7 1 8 3 9 8 10
REMARK H PARENT 8 11
REMARK Flexibility Score: inf
ROOT
ATOM      1  C   UNL     1       5.308   7.237   1.929  1.00  0.00    -0.003 A 
ATOM      2  C   UNL     1       6.449   7.456   1.137  1.00  0.00     0.014 A 
ATOM      3  C   UNL     1       4.805   8.294   2.708  1.00  0.00     0.014 A 
ATOM      4  C   UNL     1       7.074   8.707   1.127  1.00  0.00     0.047 A 
ATOM      5  C   UNL     1       5.432   9.545   2.695  1.00  0.00     0.047 A 
ATOM      6  C   UNL     1       6.568   9.754   1.904  1.00  0.00     0.115 A 
ENDROOT
BRANCH   1   7
ATOM      7  C   UNL     1       4.643   5.915   1.945  1.00  0.00     0.071 C 
ATOM      8  O   UNL     1       3.960   5.529   0.960  1.00  0.00    -0.545 OA
ATOM      9  O   UNL     1       4.764   5.080   3.050  1.00  0.00    -0.545 OA
ENDBRANCH   1   7
BRANCH   6  10
ATOM     10  O   UNL     1       7.201  10.995   1.883  1.00  0.00    -0.508 OA
ATOM     11  H   UNL     1       8.131  11.107   1.496  1.00  0.00     0.293 HD
ENDBRANCH   6  10
TORSDOF 2
ENDMDL
MODEL 7
REMARK VINA RESULT:    -4.099      5.134      7.098
REMARK INTER + INTRA:          -4.493
REMARK INTER:                  -4.464
REMARK INTRA:                  -0.029
REMARK UNBOUND:                -0.034
REMARK SMILES O=C([O-])c1ccc(O)cc1
REMARK SMILES IDX 4 1 5 2 10 3 6 4 9 5 7 6 2 7 1 8 3 9 8 10
REMARK H PARENT 8 11
REMARK Flexibility Score: inf
ROOT
ATOM      1  C   UNL     1       5.024   6.715   0.825  1.00  0.00    -0.003 A 
ATOM      2  C   UNL     1       4.977   5.793   1.886  1.00  0.00     0.014 A 
ATOM      3  C   UNL     1       4.156   6.540  -0.268  1.00  0.00     0.014 A 
ATOM      4  C   UNL     1       4.081   4.720   1.853  1.00  0.00     0.047 A 
ATOM      5  C   UNL     1       3.261   5.466  -0.298  1.00  0.00     0.047 A 
ATOM      6  C   UNL     1       3.222   4.553   0.763  1.00  0.00     0.115 A 
ENDROOT
BRANCH   1   7
ATOM      7  C   UNL     1       5.970   7.852   0.854  1.00  0.00     0.071 C 
ATOM      8  O   UNL     1       5.924   8.701   1.784  1.00  0.00    -0.545 OA
ATOM      9  O   UNL     1       6.924   8.000  -0.146  1.00  0.00    -0.545 OA
ENDBRANCH   1   7
BRANCH   6  10
ATOM     10  O   UNL     1       2.335   3.479   0.744  1.00  0.00    -0.508 OA
ATOM     11  H   UNL     1       2.465   2.697   0.112  1.00  0.00     0.293 HD
ENDBRANCH   6  10
TORSDOF 2
ENDMDL
MODEL 8
REMARK VINA RESULT:    -4.032      2.193      2.749
REMARK INTER + INTRA:          -4.420
REMARK INTER:                  -4.393
REMARK INTRA:                  -0.027
REMARK UNBOUND:                -0.034
REMARK SMILES O=C([O-])c1ccc(O)cc1
REMARK SMILES IDX 4 1 5 2 10 3 6 4 9 5 7 6 2 7 1 8 3 9 8 10
REMARK H PARENT 8 11
REMARK Flexibility Score: inf
ROOT
ATOM      1  C   UNL     1       4.579   9.497   3.962  1.00  0.00    -0.003 A 
ATOM      2  C   UNL     1       5.632   9.796   3.079  1.00  0.00     0.014 A 
ATOM      3  C   UNL     1       3.947  10.549   4.650  1.00  0.00     0.014 A 
ATOM      4  C   UNL     1       6.043  11.119   2.889  1.00  0.00     0.047 A 
ATOM      5  C   UNL     1       4.360  11.871   4.457  1.00  0.00     0.047 A 
ATOM      6  C   UNL     1       5.409  12.159   3.576  1.00  0.00     0.115 A 
ENDROOT
BRANCH   1   7
ATOM      7  C   UNL     1       4.140   8.099   4.168  1.00  0.00     0.071 C 
ATOM      8  O   UNL     1       3.250   7.592   3.435  1.00  0.00    -0.545 OA
ATOM      9  O   UNL     1       4.706   7.325   5.174  1.00  0.00    -0.545 OA
ENDBRANCH   1   7
BRANCH   6  10
ATOM     10  O   UNL     1       5.830  13.472   3.376  1.00  0.00    -0.508 OA
ATOM     11  H   UNL     1       5.399  14.065   2.677  1.00  0.00     0.293 HD
ENDBRANCH   6  10
TORSDOF 2
ENDMDL
MODEL 9
REMARK VINA RESULT:    -4.003      2.662      3.395
REMARK INTER + INTRA:          -4.388
REMARK INTER:                  -4.352
REMARK INTRA:                  -0.036
REMARK UNBOUND:                -0.034
REMARK SMILES O=C([O-])c1ccc(O)cc1
REMARK SMILES IDX 4 1 5 2 10 3 6 4 9 5 7 6 2 7 1 8 3 9 8 10
REMARK H PARENT 8 11
REMARK Flexibility Score: inf
ROOT
ATOM      1  C   UNL     1       4.993   8.655   2.759  1.00  0.00    -0.003 A 
ATOM      2  C   UNL     1       4.918   7.575   1.861  1.00  0.00     0.014 A 
ATOM      3  C   UNL     1       6.047   9.577   2.629  1.00  0.00     0.014 A 
ATOM      4  C   UNL     1       5.877   7.423   0.855  1.00  0.00     0.047 A 
ATOM      5  C   UNL     1       7.004   9.422   1.622  1.00  0.00     0.047 A 
ATOM      6  C   UNL     1       6.922   8.344   0.732  1.00  0.00     0.115 A 
ENDROOT
BRANCH   1   7
ATOM      7  C   UNL     1       3.980   8.821   3.825  1.00  0.00     0.071 C 
ATOM      8  O   UNL     1       2.999   8.036   3.906  1.00  0.00    -0.545 OA
ATOM      9  O   UNL     1       4.099   9.848   4.754  1.00  0.00    -0.545 OA
ENDBRANCH   1   7
BRANCH   6  10
ATOM     10  O   UNL     1       7.870   8.179  -0.275  1.00  0.00    -0.508 OA
ATOM     11  H   UNL     1       7.816   8.698  -1.143  1.00  0.00     0.293 HD
ENDBRANCH   6  10
TORSDOF 2
ENDMDL
