MODEL 1
REMARK VINA RESULT:    -3.073      0.000      0.000
REMARK INTER + INTRA:          -5.757
REMARK INTER:                  -5.229
REMARK INTRA:                  -0.528
REMARK UNBOUND:                -0.528
REMARK SMILES CCCCCCCCCCCCCC(=O)[O-]
REMARK SMILES IDX 8 1 9 2 10 3 11 4 12 5 13 6 14 7 15 8 16 9 7 10 6 11 5 12
REMARK SMILES IDX 4 13 3 14 2 15 1 16
REMARK H PARENT
REMARK Flexibility Score: inf
ROOT
ATOM      1  C   UNL     1      32.598  37.865   1.985  1.00  0.00     0.000 C 
ENDROOT
BRANCH   1   2
ATOM      2  C   UNL     1      33.240  38.990   1.155  1.00  0.00     0.000 C 
BRANCH   2   3
ATOM      3  C   UNL     1      34.447  38.502   0.337  1.00  0.00     0.000 C 
BRANCH   3   4
ATOM      4  C   UNL     1      34.386  38.946  -1.135  1.00  0.00     0.000 C 
BRANCH   4   5
ATOM      5  C   UNL     1      33.135  38.419  -1.862  1.00  0.00     0.006 C 
BRANCH   5   6
ATOM      6  C   UNL     1      32.988  36.889  -1.834  1.00  0.00     0.053 C 
BRANCH   6   7
ATOM      7  C   UNL     1      32.364  36.364  -3.090  1.00  0.00     0.041 C 
ATOM      8  O   UNL     1      31.678  35.308  -3.064  1.00  0.00    -0.550 OA
ATOM      9  O   UNL     1      32.514  37.058  -4.284  1.00  0.00    -0.550 OA
ENDBRANCH   6   7
ENDBRANCH   5   6
ENDBRANCH   4   5
ENDBRANCH   3   4
ENDBRANCH   2   3
ENDBRANCH   1   2
BRANCH   1  10
ATOM     10  C   UNL     1      33.616  36.810   2.459  1.00  0.00     0.000 C 
BRANCH  10  11
ATOM     11  C   UNL     1      34.611  37.288   3.533  1.00  0.00    -0.000 C 
BRANCH  11  12
ATOM     12  C   UNL     1      34.012  38.340   4.481  1.00  0.00    -0.000 C 
BRANCH  12  13
ATOM     13  C   UNL     1      34.636  38.304   5.888  1.00  0.00    -0.000 C 
BRANCH  13  14
ATOM     14  C   UNL     1      33.726  38.814   7.026  1.00  0.00    -0.000 C 
BRANCH  14  15
ATOM     15  C   UNL     1      34.357  38.780   8.429  1.00  0.00    -0.003 C 
ATOM     16  C   UNL     1      33.318  38.751   9.548  1.00  0.00     0.004 C 
ENDBRANCH  14  15
ENDBRANCH  13  14
ENDBRANCH  12  13
ENDBRANCH  11  12
ENDBRANCH  10  11
ENDBRANCH   1  10
TORSDOF 12
ENDMDL
MODEL 2
REMARK VINA RESULT:    -3.063      4.500      8.824
REMARK INTER + INTRA:          -5.740
REMARK INTER:                  -5.156
REMARK INTRA:                  -0.584
REMARK UNBOUND:                -0.528
REMARK SMILES CCCCCCCCCCCCCC(=O)[O-]
REMARK SMILES IDX 8 1 9 2 10 3 11 4 12 5 13 6 14 7 15 8 16 9 7 10 6 11 5 12
REMARK SMILES IDX 4 13 3 14 2 15 1 16
REMARK H PARENT
REMARK Flexibility Score: inf
ROOT
ATOM      1  C   UNL     1      33.246  36.276   1.231  1.00  0.00     0.000 C 
ENDROOT
BRANCH   1   2
ATOM      2  C   UNL     1      33.408  37.369   2.301  1.00  0.00     0.000 C 
BRANCH   2   3
ATOM      3  C   UNL     1      34.599  37.105   3.236  1.00  0.00     0.000 C 
BRANCH   3   4
ATOM      4  C   UNL     1      35.023  38.356   4.027  1.00  0.00     0.000 C 
BRANCH   4   5
ATOM      5  C   UNL     1      34.827  38.192   5.545  1.00  0.00     0.006 C 
BRANCH   5   6
ATOM      6  C   UNL     1      33.756  39.117   6.146  1.00  0.00     0.053 C 
BRANCH   6   7
ATOM      7  C   UNL     1      33.619  38.929   7.625  1.00  0.00     0.041 C 
ATOM      8  O   UNL     1      34.617  39.076   8.378  1.00  0.00    -0.550 OA
ATOM      9  O   UNL     1      32.381  38.622   8.175  1.00  0.00    -0.550 OA
ENDBRANCH   6   7
ENDBRANCH   5   6
ENDBRANCH   4   5
ENDBRANCH   3   4
ENDBRANCH   2   3
ENDBRANCH   1   2
BRANCH   1  10
ATOM     10  C   UNL     1      33.669  36.741  -0.174  1.00  0.00     0.000 C 
BRANCH  10  11
ATOM     11  C   UNL     1      34.407  38.091  -0.228  1.00  0.00    -0.000 C 
BRANCH  11  12
ATOM     12  C   UNL     1      33.706  39.125  -1.125  1.00  0.00    -0.000 C 
BRANCH  12  13
ATOM     13  C   UNL     1      33.387  38.582  -2.530  1.00  0.00    -0.000 C 
BRANCH  13  14
ATOM     14  C   UNL     1      34.389  38.980  -3.634  1.00  0.00    -0.000 C 
BRANCH  14  15
ATOM     15  C   UNL     1      34.008  38.528  -5.054  1.00  0.00    -0.003 C 
ATOM     16  C   UNL     1      32.617  37.900  -5.125  1.00  0.00     0.004 C 
ENDBRANCH  14  15
ENDBRANCH  13  14
ENDBRANCH  12  13
ENDBRANCH  11  12
ENDBRANCH  10  11
ENDBRANCH   1  10
TORSDOF 12
ENDMDL
MODEL 3
REMARK VINA RESULT:    -2.284      1.626      2.109
REMARK INTER + INTRA:          -4.415
REMARK INTER:                  -4.248
REMARK INTRA:                  -0.167
REMARK UNBOUND:                -0.528
REMARK SMILES CCCCCCCCCCCCCC(=O)[O-]
REMARK SMILES IDX 8 1 9 2 10 3 11 4 12 5 13 6 14 7 15 8 16 9 7 10 6 11 5 12
REMARK SMILES IDX 4 13 3 14 2 15 1 16
REMARK H PARENT
REMARK Flexibility Score: inf
ROOT
ATOM      1  C   UNL     1      32.700  36.480   1.796  1.00  0.00     0.000 C 
ENDROOT
BRANCH   1   2
ATOM      2  C   UNL     1      33.761  36.441   0.682  1.00  0.00     0.000 C 
BRANCH   2   3
ATOM      3  C   UNL     1      33.469  37.447  -0.443  1.00  0.00     0.000 C 
BRANCH   3   4
ATOM      4  C   UNL     1      34.591  38.486  -0.618  1.00  0.00     0.000 C 
BRANCH   4   5
ATOM      5  C   UNL     1      34.645  39.067  -2.044  1.00  0.00     0.006 C 
BRANCH   5   6
ATOM      6  C   UNL     1      33.331  38.929  -2.831  1.00  0.00     0.053 C 
BRANCH   6   7
ATOM      7  C   UNL     1      33.569  38.510  -4.248  1.00  0.00     0.041 C 
ATOM      8  O   UNL     1      32.642  37.983  -4.918  1.00  0.00    -0.550 OA
ATOM      9  O   UNL     1      34.806  38.730  -4.840  1.00  0.00    -0.550 OA
ENDBRANCH   6   7
ENDBRANCH   5   6
ENDBRANCH   4   5
ENDBRANCH   3   4
ENDBRANCH   2   3
ENDBRANCH   1   2
BRANCH   1  10
ATOM     10  C   UNL     1      32.743  37.779   2.622  1.00  0.00     0.000 C 
BRANCH  10  11
ATOM     11  C   UNL     1      33.980  38.667   2.393  1.00  0.00    -0.000 C 
BRANCH  11  12
ATOM     12  C   UNL     1      34.849  38.824   3.652  1.00  0.00    -0.000 C 
BRANCH  12  13
ATOM     13  C   UNL     1      34.928  37.536   4.491  1.00  0.00    -0.000 C 
BRANCH  13  14
ATOM     14  C   UNL     1      35.124  37.747   6.007  1.00  0.00    -0.000 C 
BRANCH  14  15
ATOM     15  C   UNL     1      34.667  39.117   6.538  1.00  0.00    -0.003 C 
ATOM     16  C   UNL     1      33.236  39.101   7.072  1.00  0.00     0.004 C 
ENDBRANCH  14  15
ENDBRANCH  13  14
ENDBRANCH  12  13
ENDBRANCH  11  12
ENDBRANCH  10  11
ENDBRANCH   1  10
TORSDOF 12
ENDMDL
MODEL 4
REMARK VINA RESULT:    -1.110      3.089      7.308
REMARK INTER + INTRA:          -2.418
REMARK INTER:                  -2.030
REMARK INTRA:                  -0.388
REMARK UNBOUND:                -0.528
REMARK SMILES CCCCCCCCCCCCCC(=O)[O-]
REMARK SMILES IDX 8 1 9 2 10 3 11 4 12 5 13 6 14 7 15 8 16 9 7 10 6 11 5 12
REMARK SMILES IDX 4 13 3 14 2 15 1 16
REMARK H PARENT
REMARK Flexibility Score: inf
ROOT
ATOM      1  C   UNL     1      32.845  36.008   1.491  1.00  0.00     0.000 C 
ENDROOT
BRANCH   1   2
ATOM      2  C   UNL     1      34.249  35.447   1.777  1.00  0.00     0.000 C 
BRANCH   2   3
ATOM      3  C   UNL     1      35.122  36.428   2.577  1.00  0.00     0.000 C 
BRANCH   3   4
ATOM      4  C   UNL     1      34.472  36.857   3.904  1.00  0.00     0.000 C 
BRANCH   4   5
ATOM      5  C   UNL     1      34.395  38.387   4.059  1.00  0.00     0.006 C 
BRANCH   5   6
ATOM      6  C   UNL     1      33.889  39.123   2.807  1.00  0.00     0.053 C 
BRANCH   6   7
ATOM      7  C   UNL     1      32.407  38.992   2.641  1.00  0.00     0.041 C 
ATOM      8  O   UNL     1      31.667  38.844   3.649  1.00  0.00    -0.550 OA
ATOM      9  O   UNL     1      31.840  39.068   1.375  1.00  0.00    -0.550 OA
ENDBRANCH   6   7
ENDBRANCH   5   6
ENDBRANCH   4   5
ENDBRANCH   3   4
ENDBRANCH   2   3
ENDBRANCH   1   2
BRANCH   1  10
ATOM     10  C   UNL     1      32.513  36.062  -0.011  1.00  0.00     0.000 C 
BRANCH  10  11
ATOM     11  C   UNL     1      33.584  36.721  -0.901  1.00  0.00    -0.000 C 
BRANCH  11  12
ATOM     12  C   UNL     1      33.625  38.251  -0.759  1.00  0.00    -0.000 C 
BRANCH  12  13
ATOM     13  C   UNL     1      33.462  38.983  -2.104  1.00  0.00    -0.000 C 
BRANCH  13  14
ATOM     14  C   UNL     1      34.743  39.083  -2.959  1.00  0.00    -0.000 C 
BRANCH  14  15
ATOM     15  C   UNL     1      34.550  38.791  -4.457  1.00  0.00    -0.003 C 
ATOM     16  C   UNL     1      33.143  39.123  -4.952  1.00  0.00     0.004 C 
ENDBRANCH  14  15
ENDBRANCH  13  14
ENDBRANCH  12  13
ENDBRANCH  11  12
ENDBRANCH  10  11
ENDBRANCH   1  10
TORSDOF 12
ENDMDL
MODEL 5
REMARK VINA RESULT:    -0.801      3.355      6.969
REMARK INTER + INTRA:          -1.891
REMARK INTER:                  -2.056
REMARK INTRA:                   0.166
REMARK UNBOUND:                -0.528
REMARK SMILES CCCCCCCCCCCCCC(=O)[O-]
REMARK SMILES IDX 8 1 9 2 10 3 11 4 12 5 13 6 14 7 15 8 16 9 7 10 6 11 5 12
REMARK SMILES IDX 4 13 3 14 2 15 1 16
REMARK H PARENT
REMARK Flexibility Score: inf
ROOT
ATOM      1  C   UNL     1      34.949  37.623   0.712  1.00  0.00     0.000 C 
ENDROOT
BRANCH   1   2
ATOM      2  C   UNL     1      35.046  38.235   2.119  1.00  0.00     0.000 C 
BRANCH   2   3
ATOM      3  C   UNL     1      34.023  37.630   3.096  1.00  0.00     0.000 C 
BRANCH   3   4
ATOM      4  C   UNL     1      32.699  37.250   2.410  1.00  0.00     0.000 C 
BRANCH   4   5
ATOM      5  C   UNL     1      32.801  35.941   1.606  1.00  0.00     0.006 C 
BRANCH   5   6
ATOM      6  C   UNL     1      33.849  34.952   2.143  1.00  0.00     0.053 C 
BRANCH   6   7
ATOM      7  C   UNL     1      33.393  33.532   2.022  1.00  0.00     0.041 C 
ATOM      8  O   UNL     1      34.057  32.604   2.555  1.00  0.00    -0.550 OA
ATOM      9  O   UNL     1      32.215  33.235   1.348  1.00  0.00    -0.550 OA
ENDBRANCH   6   7
ENDBRANCH   5   6
ENDBRANCH   4   5
ENDBRANCH   3   4
ENDBRANCH   2   3
ENDBRANCH   1   2
BRANCH   1  10
ATOM     10  C   UNL     1      34.693  38.673  -0.385  1.00  0.00     0.000 C 
BRANCH  10  11
ATOM     11  C   UNL     1      33.229  39.125  -0.538  1.00  0.00    -0.000 C 
BRANCH  11  12
ATOM     12  C   UNL     1      32.740  39.099  -1.995  1.00  0.00    -0.000 C 
BRANCH  12  13
ATOM     13  C   UNL     1      33.144  37.813  -2.741  1.00  0.00    -0.000 C 
BRANCH  13  14
ATOM     14  C   UNL     1      32.917  36.500  -1.963  1.00  0.00    -0.000 C 
BRANCH  14  15
ATOM     15  C   UNL     1      32.238  35.377  -2.766  1.00  0.00    -0.003 C 
ATOM     16  C   UNL     1      31.205  35.899  -3.764  1.00  0.00     0.004 C 
ENDBRANCH  14  15
ENDBRANCH  13  14
ENDBRANCH  12  13
ENDBRANCH  11  12
ENDBRANCH  10  11
ENDBRANCH   1  10
TORSDOF 12
ENDMDL
