MODEL 1
REMARK VINA RESULT:    -5.866      0.000      0.000
REMARK INTER + INTRA:         -10.047
REMARK INTER:                  -9.296
REMARK INTRA:                  -0.751
REMARK UNBOUND:                -0.751
REMARK SMILES CCCCCCCCCCCC(=O)[O-]
REMARK SMILES IDX 7 1 8 2 9 3 10 4 11 5 12 6 13 7 14 8 6 9 5 10 4 11 3 12 2 13
REMARK SMILES IDX 1 14
REMARK H PARENT
REMARK Flexibility Score: inf
ROOT
ATOM      1  C   UNL     1      29.282  -0.637  39.921  1.00  0.00     0.000 C 
ENDROOT
BRANCH   1   2
ATOM      2  C   UNL     1      28.522  -0.540  41.256  1.00  0.00     0.000 C 
BRANCH   2   3
ATOM      3  C   UNL     1      28.944  -1.559  42.329  1.00  0.00     0.000 C 
BRANCH   3   4
ATOM      4  C   UNL     1      28.545  -1.135  43.752  1.00  0.00     0.006 C 
BRANCH   4   5
ATOM      5  C   UNL     1      29.106  -2.084  44.819  1.00  0.00     0.053 C 
BRANCH   5   6
ATOM      6  C   UNL     1      30.250  -1.467  45.566  1.00  0.00     0.041 C 
ATOM      7  O   UNL     1      31.010  -0.643  44.994  1.00  0.00    -0.550 OA
ATOM      8  O   UNL     1      30.459  -1.784  46.902  1.00  0.00    -0.550 OA
ENDBRANCH   5   6
ENDBRANCH   4   5
ENDBRANCH   3   4
ENDBRANCH   2   3
ENDBRANCH   1   2
BRANCH   1   9
ATOM      9  C   UNL     1      28.748   0.335  38.855  1.00  0.00     0.000 C 
BRANCH   9  10
ATOM     10  C   UNL     1      29.747   0.566  37.711  1.00  0.00    -0.000 C 
BRANCH  10  11
ATOM     11  C   UNL     1      31.186   0.163  38.085  1.00  0.00    -0.000 C 
BRANCH  11  12
ATOM     12  C   UNL     1      32.066   1.389  38.410  1.00  0.00    -0.000 C 
BRANCH  12  13
ATOM     13  C   UNL     1      32.125   1.724  39.910  1.00  0.00    -0.003 C 
ATOM     14  C   UNL     1      31.095   2.769  40.331  1.00  0.00     0.004 C 
ENDBRANCH  12  13
ENDBRANCH  11  12
ENDBRANCH  10  11
ENDBRANCH   9  10
ENDBRANCH   1   9
TORSDOF 10
ENDMDL
MODEL 2
REMARK VINA RESULT:    -5.843      1.021      2.184
REMARK INTER + INTRA:         -10.010
REMARK INTER:                  -9.294
REMARK INTRA:                  -0.716
REMARK UNBOUND:                -0.751
REMARK SMILES CCCCCCCCCCCC(=O)[O-]
REMARK SMILES IDX 7 1 8 2 9 3 10 4 11 5 12 6 13 7 14 8 6 9 5 10 4 11 3 12 2 13
REMARK SMILES IDX 1 14
REMARK H PARENT
REMARK Flexibility Score: inf
ROOT
ATOM      1  C   UNL     1      29.978  -0.133  41.583  1.00  0.00     0.000 C 
ENDROOT
BRANCH   1   2
ATOM      2  C   UNL     1      28.613  -0.827  41.418  1.00  0.00     0.000 C 
BRANCH   2   3
ATOM      3  C   UNL     1      28.257  -1.844  42.517  1.00  0.00     0.000 C 
BRANCH   3   4
ATOM      4  C   UNL     1      28.272  -1.234  43.929  1.00  0.00     0.006 C 
BRANCH   4   5
ATOM      5  C   UNL     1      29.024  -2.116  44.933  1.00  0.00     0.053 C 
BRANCH   5   6
ATOM      6  C   UNL     1      30.211  -1.410  45.515  1.00  0.00     0.041 C 
ATOM      7  O   UNL     1      30.489  -1.537  46.736  1.00  0.00    -0.550 OA
ATOM      8  O   UNL     1      31.025  -0.633  44.700  1.00  0.00    -0.550 OA
ENDBRANCH   5   6
ENDBRANCH   4   5
ENDBRANCH   3   4
ENDBRANCH   2   3
ENDBRANCH   1   2
BRANCH   1   9
ATOM      9  C   UNL     1      31.151  -0.991  41.079  1.00  0.00     0.000 C 
BRANCH   9  10
ATOM     10  C   UNL     1      32.078  -0.223  40.123  1.00  0.00    -0.000 C 
BRANCH  10  11
ATOM     11  C   UNL     1      31.462   1.100  39.630  1.00  0.00    -0.000 C 
BRANCH  11  12
ATOM     12  C   UNL     1      31.592   1.267  38.101  1.00  0.00    -0.000 C 
BRANCH  12  13
ATOM     13  C   UNL     1      30.324   0.867  37.329  1.00  0.00    -0.003 C 
ATOM     14  C   UNL     1      29.144   0.539  38.241  1.00  0.00     0.004 C 
ENDBRANCH  12  13
ENDBRANCH  11  12
ENDBRANCH  10  11
ENDBRANCH   9  10
ENDBRANCH   1   9
TORSDOF 10
ENDMDL
MODEL 3
REMARK VINA RESULT:    -5.651      3.015      6.239
REMARK INTER + INTRA:          -9.706
REMARK INTER:                  -8.988
REMARK INTRA:                  -0.718
REMARK UNBOUND:                -0.751
REMARK SMILES CCCCCCCCCCCC(=O)[O-]
REMARK SMILES IDX 7 1 8 2 9 3 10 4 11 5 12 6 13 7 14 8 6 9 5 10 4 11 3 12 2 13
REMARK SMILES IDX 1 14
REMARK H PARENT
REMARK Flexibility Score: inf
ROOT
ATOM      1  C   UNL     1      31.828  -0.521  40.569  1.00  0.00     0.000 C 
ENDROOT
BRANCH   1   2
ATOM      2  C   UNL     1      32.084   0.996  40.515  1.00  0.00     0.000 C 
BRANCH   2   3
ATOM      3  C   UNL     1      31.923   1.641  39.127  1.00  0.00     0.000 C 
BRANCH   3   4
ATOM      4  C   UNL     1      31.661   0.613  38.013  1.00  0.00     0.006 C 
BRANCH   4   5
ATOM      5  C   UNL     1      30.277   0.791  37.374  1.00  0.00     0.053 C 
BRANCH   5   6
ATOM      6  C   UNL     1      29.175   0.497  38.345  1.00  0.00     0.041 C 
ATOM      7  O   UNL     1      28.508   1.436  38.851  1.00  0.00    -0.550 OA
ATOM      8  O   UNL     1      28.867  -0.819  38.670  1.00  0.00    -0.550 OA
ENDBRANCH   5   6
ENDBRANCH   4   5
ENDBRANCH   3   4
ENDBRANCH   2   3
ENDBRANCH   1   2
BRANCH   1   9
ATOM      9  C   UNL     1      31.051  -0.953  41.824  1.00  0.00     0.000 C 
BRANCH   9  10
ATOM     10  C   UNL     1      29.571  -0.538  41.775  1.00  0.00    -0.000 C 
BRANCH  10  11
ATOM     11  C   UNL     1      28.657  -1.500  42.555  1.00  0.00    -0.000 C 
BRANCH  11  12
ATOM     12  C   UNL     1      28.556  -1.123  44.049  1.00  0.00    -0.000 C 
BRANCH  12  13
ATOM     13  C   UNL     1      29.405  -2.016  44.968  1.00  0.00    -0.003 C 
ATOM     14  C   UNL     1      30.488  -1.246  45.720  1.00  0.00     0.004 C 
ENDBRANCH  12  13
ENDBRANCH  11  12
ENDBRANCH  10  11
ENDBRANCH   9  10
ENDBRANCH   1   9
TORSDOF 10
ENDMDL
MODEL 4
REMARK VINA RESULT:    -5.533      3.233      6.509
REMARK INTER + INTRA:          -9.518
REMARK INTER:                  -9.189
REMARK INTRA:                  -0.329
REMARK UNBOUND:                -0.751
REMARK SMILES CCCCCCCCCCCC(=O)[O-]
REMARK SMILES IDX 7 1 8 2 9 3 10 4 11 5 12 6 13 7 14 8 6 9 5 10 4 11 3 12 2 13
REMARK SMILES IDX 1 14
REMARK H PARENT
REMARK Flexibility Score: inf
ROOT
ATOM      1  C   UNL     1      29.095  -0.416  41.024  1.00  0.00     0.000 C 
ENDROOT
BRANCH   1   2
ATOM      2  C   UNL     1      30.440  -1.121  40.772  1.00  0.00     0.000 C 
BRANCH   2   3
ATOM      3  C   UNL     1      31.658  -0.188  40.644  1.00  0.00     0.000 C 
BRANCH   3   4
ATOM      4  C   UNL     1      31.347   1.102  39.865  1.00  0.00     0.006 C 
BRANCH   4   5
ATOM      5  C   UNL     1      31.217   0.851  38.357  1.00  0.00     0.053 C 
BRANCH   5   6
ATOM      6  C   UNL     1      29.785   0.841  37.917  1.00  0.00     0.041 C 
ATOM      7  O   UNL     1      29.420   0.103  36.965  1.00  0.00    -0.550 OA
ATOM      8  O   UNL     1      28.849   1.627  38.577  1.00  0.00    -0.550 OA
ENDBRANCH   5   6
ENDBRANCH   4   5
ENDBRANCH   3   4
ENDBRANCH   2   3
ENDBRANCH   1   2
BRANCH   1   9
ATOM      9  C   UNL     1      28.204  -1.167  42.028  1.00  0.00     0.000 C 
BRANCH   9  10
ATOM     10  C   UNL     1      28.342  -0.628  43.461  1.00  0.00    -0.000 C 
BRANCH  10  11
ATOM     11  C   UNL     1      28.449  -1.748  44.511  1.00  0.00    -0.000 C 
BRANCH  11  12
ATOM     12  C   UNL     1      29.917  -2.090  44.848  1.00  0.00    -0.000 C 
BRANCH  12  13
ATOM     13  C   UNL     1      30.523  -1.192  45.939  1.00  0.00    -0.003 C 
ATOM     14  C   UNL     1      30.485  -1.826  47.327  1.00  0.00     0.004 C 
ENDBRANCH  12  13
ENDBRANCH  11  12
ENDBRANCH  10  11
ENDBRANCH   9  10
ENDBRANCH   1   9
TORSDOF 10
ENDMDL
MODEL 5
REMARK VINA RESULT:    -5.461      2.415      6.079
REMARK INTER + INTRA:          -9.405
REMARK INTER:                  -9.079
REMARK INTRA:                  -0.326
REMARK UNBOUND:                -0.751
REMARK SMILES CCCCCCCCCCCC(=O)[O-]
REMARK SMILES IDX 7 1 8 2 9 3 10 4 11 5 12 6 13 7 14 8 6 9 5 10 4 11 3 12 2 13
REMARK SMILES IDX 1 14
REMARK H PARENT
REMARK Flexibility Score: inf
ROOT
ATOM      1  C   UNL     1      28.712  -0.025  40.209  1.00  0.00     0.000 C 
ENDROOT
BRANCH   1   2
ATOM      2  C   UNL     1      29.216  -0.522  38.842  1.00  0.00     0.000 C 
BRANCH   2   3
ATOM      3  C   UNL     1      29.667   0.579  37.867  1.00  0.00     0.000 C 
BRANCH   3   4
ATOM      4  C   UNL     1      31.168   0.512  37.535  1.00  0.00     0.006 C 
BRANCH   4   5
ATOM      5  C   UNL     1      31.960   1.643  38.203  1.00  0.00     0.053 C 
BRANCH   5   6
ATOM      6  C   UNL     1      31.816   1.618  39.694  1.00  0.00     0.041 C 
ATOM      7  O   UNL     1      32.124   0.585  40.343  1.00  0.00    -0.550 OA
ATOM      8  O   UNL     1      31.367   2.747  40.368  1.00  0.00    -0.550 OA
ENDBRANCH   5   6
ENDBRANCH   4   5
ENDBRANCH   3   4
ENDBRANCH   2   3
ENDBRANCH   1   2
BRANCH   1   9
ATOM      9  C   UNL     1      28.156  -1.156  41.090  1.00  0.00     0.000 C 
BRANCH   9  10
ATOM     10  C   UNL     1      29.173  -1.648  42.133  1.00  0.00    -0.000 C 
BRANCH  10  11
ATOM     11  C   UNL     1      28.943  -1.033  43.526  1.00  0.00    -0.000 C 
BRANCH  11  12
ATOM     12  C   UNL     1      29.477  -1.939  44.656  1.00  0.00    -0.000 C 
BRANCH  12  13
ATOM     13  C   UNL     1      30.398  -1.208  45.647  1.00  0.00    -0.003 C 
ATOM     14  C   UNL     1      30.361  -1.805  47.052  1.00  0.00     0.004 C 
ENDBRANCH  12  13
ENDBRANCH  11  12
ENDBRANCH  10  11
ENDBRANCH   9  10
ENDBRANCH   1   9
TORSDOF 10
ENDMDL
MODEL 6
REMARK VINA RESULT:    -5.160      2.093      3.235
REMARK INTER + INTRA:          -8.927
REMARK INTER:                  -8.435
REMARK INTRA:                  -0.493
REMARK UNBOUND:                -0.751
REMARK SMILES CCCCCCCCCCCC(=O)[O-]
REMARK SMILES IDX 7 1 8 2 9 3 10 4 11 5 12 6 13 7 14 8 6 9 5 10 4 11 3 12 2 13
REMARK SMILES IDX 1 14
REMARK H PARENT
REMARK Flexibility Score: inf
ROOT
ATOM      1  C   UNL     1      32.041  -0.193  40.303  1.00  0.00     0.000 C 
ENDROOT
BRANCH   1   2
ATOM      2  C   UNL     1      31.881  -0.780  41.717  1.00  0.00     0.000 C 
BRANCH   2   3
ATOM      3  C   UNL     1      30.522  -0.517  42.388  1.00  0.00     0.000 C 
BRANCH   3   4
ATOM      4  C   UNL     1      30.466  -1.007  43.846  1.00  0.00     0.006 C 
BRANCH   4   5
ATOM      5  C   UNL     1      29.073  -1.524  44.230  1.00  0.00     0.053 C 
BRANCH   5   6
ATOM      6  C   UNL     1      28.065  -1.260  43.153  1.00  0.00     0.041 C 
ATOM      7  O   UNL     1      27.325  -0.244  43.212  1.00  0.00    -0.550 OA
ATOM      8  O   UNL     1      27.963  -2.125  42.071  1.00  0.00    -0.550 OA
ENDBRANCH   5   6
ENDBRANCH   4   5
ENDBRANCH   3   4
ENDBRANCH   2   3
ENDBRANCH   1   2
BRANCH   1   9
ATOM      9  C   UNL     1      32.125   1.343  40.297  1.00  0.00     0.000 C 
BRANCH   9  10
ATOM     10  C   UNL     1      31.577   1.960  39.001  1.00  0.00    -0.000 C 
BRANCH  10  11
ATOM     11  C   UNL     1      31.259   0.905  37.925  1.00  0.00    -0.000 C 
BRANCH  11  12
ATOM     12  C   UNL     1      29.747   0.814  37.628  1.00  0.00    -0.000 C 
BRANCH  12  13
ATOM     13  C   UNL     1      28.887   0.580  38.881  1.00  0.00    -0.003 C 
ATOM     14  C   UNL     1      28.669  -0.900  39.190  1.00  0.00     0.004 C 
ENDBRANCH  12  13
ENDBRANCH  11  12
ENDBRANCH  10  11
ENDBRANCH   9  10
ENDBRANCH   1   9
TORSDOF 10
ENDMDL
MODEL 7
REMARK VINA RESULT:    -4.481      1.467      3.033
REMARK INTER + INTRA:          -7.852
REMARK INTER:                  -7.610
REMARK INTRA:                  -0.242
REMARK UNBOUND:                -0.751
REMARK SMILES CCCCCCCCCCCC(=O)[O-]
REMARK SMILES IDX 7 1 8 2 9 3 10 4 11 5 12 6 13 7 14 8 6 9 5 10 4 11 3 12 2 13
REMARK SMILES IDX 1 14
REMARK H PARENT
REMARK Flexibility Score: inf
ROOT
ATOM      1  C   UNL     1      31.827   0.228  39.553  1.00  0.00     0.000 C 
ENDROOT
BRANCH   1   2
ATOM      2  C   UNL     1      31.376   0.357  41.020  1.00  0.00     0.000 C 
BRANCH   2   3
ATOM      3  C   UNL     1      31.393  -0.951  41.831  1.00  0.00     0.000 C 
BRANCH   3   4
ATOM      4  C   UNL     1      30.260  -1.030  42.868  1.00  0.00     0.006 C 
BRANCH   4   5
ATOM      5  C   UNL     1      30.771  -0.829  44.301  1.00  0.00     0.053 C 
BRANCH   5   6
ATOM      6  C   UNL     1      29.905  -1.530  45.303  1.00  0.00     0.041 C 
ATOM      7  O   UNL     1      28.833  -2.080  44.941  1.00  0.00    -0.550 OA
ATOM      8  O   UNL     1      30.298  -1.596  46.634  1.00  0.00    -0.550 OA
ENDBRANCH   5   6
ENDBRANCH   4   5
ENDBRANCH   3   4
ENDBRANCH   2   3
ENDBRANCH   1   2
BRANCH   1   9
ATOM      9  C   UNL     1      31.055   1.161  38.605  1.00  0.00     0.000 C 
BRANCH   9  10
ATOM     10  C   UNL     1      29.801   0.497  38.013  1.00  0.00    -0.000 C 
BRANCH  10  11
ATOM     11  C   UNL     1      28.717   0.220  39.071  1.00  0.00    -0.000 C 
BRANCH  11  12
ATOM     12  C   UNL     1      28.585  -1.285  39.387  1.00  0.00    -0.000 C 
BRANCH  12  13
ATOM     13  C   UNL     1      27.584  -1.592  40.513  1.00  0.00    -0.003 C 
ATOM     14  C   UNL     1      27.655  -0.594  41.666  1.00  0.00     0.004 C 
ENDBRANCH  12  13
ENDBRANCH  11  12
ENDBRANCH  10  11
ENDBRANCH   9  10
ENDBRANCH   1   9
TORSDOF 10
ENDMDL
MODEL 8
REMARK VINA RESULT:    -4.261      3.164      6.305
REMARK INTER + INTRA:          -7.503
REMARK INTER:                  -7.433
REMARK INTRA:                  -0.070
REMARK UNBOUND:                -0.751
REMARK SMILES CCCCCCCCCCCC(=O)[O-]
REMARK SMILES IDX 7 1 8 2 9 3 10 4 11 5 12 6 13 7 14 8 6 9 5 10 4 11 3 12 2 13
REMARK SMILES IDX 1 14
REMARK H PARENT
REMARK Flexibility Score: inf
ROOT
ATOM      1  C   UNL     1      31.157  -0.195  41.556  1.00  0.00     0.000 C 
ENDROOT
BRANCH   1   2
ATOM      2  C   UNL     1      32.125  -0.628  40.439  1.00  0.00     0.000 C 
BRANCH   2   3
ATOM      3  C   UNL     1      32.007   0.163  39.124  1.00  0.00     0.000 C 
BRANCH   3   4
ATOM      4  C   UNL     1      31.389   1.559  39.315  1.00  0.00     0.006 C 
BRANCH   4   5
ATOM      5  C   UNL     1      29.858   1.532  39.214  1.00  0.00     0.053 C 
BRANCH   5   6
ATOM      6  C   UNL     1      29.379   0.458  38.287  1.00  0.00     0.041 C 
ATOM      7  O   UNL     1      29.565   0.562  37.046  1.00  0.00    -0.550 OA
ATOM      8  O   UNL     1      28.752  -0.672  38.797  1.00  0.00    -0.550 OA
ENDBRANCH   5   6
ENDBRANCH   4   5
ENDBRANCH   3   4
ENDBRANCH   2   3
ENDBRANCH   1   2
BRANCH   1   9
ATOM      9  C   UNL     1      31.037  -1.237  42.681  1.00  0.00     0.000 C 
BRANCH   9  10
ATOM     10  C   UNL     1      30.597  -0.617  44.016  1.00  0.00    -0.000 C 
BRANCH  10  11
ATOM     11  C   UNL     1      29.767  -1.585  44.879  1.00  0.00    -0.000 C 
BRANCH  11  12
ATOM     12  C   UNL     1      28.330  -1.756  44.342  1.00  0.00    -0.000 C 
BRANCH  12  13
ATOM     13  C   UNL     1      27.877  -0.611  43.421  1.00  0.00    -0.003 C 
ATOM     14  C   UNL     1      27.626  -1.061  41.984  1.00  0.00     0.004 C 
ENDBRANCH  12  13
ENDBRANCH  11  12
ENDBRANCH  10  11
ENDBRANCH   9  10
ENDBRANCH   1   9
TORSDOF 10
ENDMDL
