MODEL 1
REMARK VINA RESULT:    -4.127      0.000      0.000
REMARK INTER + INTRA:          -6.906
REMARK INTER:                  -5.575
REMARK INTRA:                  -1.331
REMARK UNBOUND:                -1.331
REMARK SMILES CC(=O)CCC=C(C)CCC=C(C)C
REMARK SMILES IDX 7 1 6 2 8 3 9 4 10 5 11 6 13 7 12 8 14 9 5 10 4 11 2 12 3 13
REMARK SMILES IDX 1 14
REMARK H PARENT
REMARK Flexibility Score: inf
ROOT
ATOM      1  C   UNL     1       9.808 -25.630  40.654  1.00  0.00    -0.077 C 
ATOM      2  C   UNL     1      11.050 -26.150  40.797  1.00  0.00    -0.028 C 
ATOM      3  C   UNL     1       8.656 -26.371  41.283  1.00  0.00     0.039 C 
ENDROOT
BRANCH   1   4
ATOM      4  C   UNL     1       9.518 -24.349  39.886  1.00  0.00     0.034 C 
BRANCH   4   5
ATOM      5  C   UNL     1       9.513 -23.108  40.791  1.00  0.00     0.032 C 
BRANCH   5   6
ATOM      6  C   UNL     1      10.760 -22.274  40.612  1.00  0.00    -0.028 C 
ATOM      7  C   UNL     1      12.912 -21.257  41.217  1.00  0.00     0.039 C 
ATOM      8  C   UNL     1      11.695 -22.074  41.566  1.00  0.00    -0.080 C 
ATOM      9  C   UNL     1      11.545 -22.626  42.964  1.00  0.00     0.039 C 
ENDBRANCH   5   6
ENDBRANCH   4   5
ENDBRANCH   1   4
BRANCH   2  10
ATOM     10  C   UNL     1      12.329 -25.546  40.263  1.00  0.00     0.035 C 
BRANCH  10  11
ATOM     11  C   UNL     1      12.639 -26.061  38.851  1.00  0.00     0.079 C 
BRANCH  11  12
ATOM     12  C   UNL     1      13.520 -25.108  38.087  1.00  0.00     0.130 C 
ATOM     13  O   UNL     1      14.309 -25.542  37.261  1.00  0.00    -0.300 OA
ATOM     14  C   UNL     1      13.420 -23.627  38.298  1.00  0.00     0.087 C 
ENDBRANCH  11  12
ENDBRANCH  10  11
ENDBRANCH   2  10
TORSDOF 6
ENDMDL
MODEL 2
REMARK VINA RESULT:    -4.066      0.922      1.153
REMARK INTER + INTRA:          -6.823
REMARK INTER:                  -5.783
REMARK INTRA:                  -1.041
REMARK UNBOUND:                -1.331
REMARK SMILES CC(=O)CCC=C(C)CCC=C(C)C
REMARK SMILES IDX 7 1 6 2 8 3 9 4 10 5 11 6 13 7 12 8 14 9 5 10 4 11 2 12 3 13
REMARK SMILES IDX 1 14
REMARK H PARENT
REMARK Flexibility Score: inf
ROOT
ATOM      1  C   UNL     1      10.263 -25.867  40.765  1.00  0.00    -0.077 C 
ATOM      2  C   UNL     1      11.554 -26.220  40.558  1.00  0.00    -0.028 C 
ATOM      3  C   UNL     1       9.497 -26.595  41.841  1.00  0.00     0.039 C 
ENDROOT
BRANCH   1   4
ATOM      4  C   UNL     1       9.549 -24.788  39.966  1.00  0.00     0.034 C 
BRANCH   4   5
ATOM      5  C   UNL     1       9.457 -23.455  40.724  1.00  0.00     0.032 C 
BRANCH   5   6
ATOM      6  C   UNL     1      10.634 -22.555  40.427  1.00  0.00    -0.028 C 
ATOM      7  C   UNL     1      12.733 -21.354  40.855  1.00  0.00     0.039 C 
ATOM      8  C   UNL     1      11.592 -22.222  41.319  1.00  0.00    -0.080 C 
ATOM      9  C   UNL     1      11.542 -22.679  42.758  1.00  0.00     0.039 C 
ENDBRANCH   5   6
ENDBRANCH   4   5
ENDBRANCH   1   4
BRANCH   2  10
ATOM     10  C   UNL     1      12.490 -25.596  39.547  1.00  0.00     0.035 C 
BRANCH  10  11
ATOM     11  C   UNL     1      12.864 -26.596  38.445  1.00  0.00     0.079 C 
BRANCH  11  12
ATOM     12  C   UNL     1      13.964 -26.071  37.560  1.00  0.00     0.130 C 
ATOM     13  O   UNL     1      13.723 -25.181  36.758  1.00  0.00    -0.300 OA
ATOM     14  C   UNL     1      15.363 -26.599  37.672  1.00  0.00     0.087 C 
ENDBRANCH  11  12
ENDBRANCH  10  11
ENDBRANCH   2  10
TORSDOF 6
ENDMDL
MODEL 3
REMARK VINA RESULT:    -3.941      9.691     12.779
REMARK INTER + INTRA:          -6.653
REMARK INTER:                  -5.622
REMARK INTRA:                  -1.032
REMARK UNBOUND:                -1.331
REMARK SMILES CC(=O)CCC=C(C)CCC=C(C)C
REMARK SMILES IDX 7 1 6 2 8 3 9 4 10 5 11 6 13 7 12 8 14 9 5 10 4 11 2 12 3 13
REMARK SMILES IDX 1 14
REMARK H PARENT
REMARK Flexibility Score: inf
ROOT
ATOM      1  C   UNL     1       2.220 -32.010  38.753  1.00  0.00    -0.077 C 
ATOM      2  C   UNL     1       2.712 -30.762  38.938  1.00  0.00    -0.028 C 
ATOM      3  C   UNL     1       3.129 -33.043  38.137  1.00  0.00     0.039 C 
ENDROOT
BRANCH   1   4
ATOM      4  C   UNL     1       0.802 -32.416  39.123  1.00  0.00     0.034 C 
BRANCH   4   5
ATOM      5  C   UNL     1      -0.131 -32.479  37.904  1.00  0.00     0.032 C 
BRANCH   5   6
ATOM      6  C   UNL     1      -1.116 -31.334  37.888  1.00  0.00    -0.028 C 
ATOM      7  C   UNL     1      -2.074 -29.178  37.204  1.00  0.00     0.039 C 
ATOM      8  C   UNL     1      -0.977 -30.209  37.152  1.00  0.00    -0.080 C 
ATOM      9  C   UNL     1       0.245 -29.954  36.301  1.00  0.00     0.039 C 
ENDBRANCH   5   6
ENDBRANCH   4   5
ENDBRANCH   1   4
BRANCH   2  10
ATOM     10  C   UNL     1       1.969 -29.600  39.557  1.00  0.00     0.035 C 
BRANCH  10  11
ATOM     11  C   UNL     1       2.787 -28.305  39.466  1.00  0.00     0.079 C 
BRANCH  11  12
ATOM     12  C   UNL     1       2.340 -27.286  40.482  1.00  0.00     0.130 C 
ATOM     13  O   UNL     1       1.151 -27.160  40.729  1.00  0.00    -0.300 OA
ATOM     14  C   UNL     1       3.337 -26.447  41.223  1.00  0.00     0.087 C 
ENDBRANCH  11  12
ENDBRANCH  10  11
ENDBRANCH   2  10
TORSDOF 6
ENDMDL
MODEL 4
REMARK VINA RESULT:    -3.889      1.150      3.403
REMARK INTER + INTRA:          -6.584
REMARK INTER:                  -5.236
REMARK INTRA:                  -1.348
REMARK UNBOUND:                -1.331
REMARK SMILES CC(=O)CCC=C(C)CCC=C(C)C
REMARK SMILES IDX 7 1 6 2 8 3 9 4 10 5 11 6 13 7 12 8 14 9 5 10 4 11 2 12 3 13
REMARK SMILES IDX 1 14
REMARK H PARENT
REMARK Flexibility Score: inf
ROOT
ATOM      1  C   UNL     1      12.045 -22.792  41.441  1.00  0.00    -0.077 C 
ATOM      2  C   UNL     1      13.038 -23.511  40.868  1.00  0.00    -0.028 C 
ATOM      3  C   UNL     1      12.087 -22.597  42.935  1.00  0.00     0.039 C 
ENDROOT
BRANCH   1   4
ATOM      4  C   UNL     1      10.891 -22.183  40.659  1.00  0.00     0.034 C 
BRANCH   4   5
ATOM      5  C   UNL     1       9.581 -22.965  40.835  1.00  0.00     0.032 C 
BRANCH   5   6
ATOM      6  C   UNL     1       9.439 -24.064  39.808  1.00  0.00    -0.028 C 
ATOM      7  C   UNL     1       9.352 -26.362  38.945  1.00  0.00     0.039 C 
ATOM      8  C   UNL     1       9.575 -25.383  40.068  1.00  0.00    -0.080 C 
ATOM      9  C   UNL     1       9.959 -25.894  41.436  1.00  0.00     0.039 C 
ENDBRANCH   5   6
ENDBRANCH   4   5
ENDBRANCH   1   4
BRANCH   2  10
ATOM     10  C   UNL     1      13.185 -23.796  39.390  1.00  0.00     0.035 C 
BRANCH  10  11
ATOM     11  C   UNL     1      13.138 -25.304  39.107  1.00  0.00     0.079 C 
BRANCH  11  12
ATOM     12  C   UNL     1      13.912 -25.667  37.867  1.00  0.00     0.130 C 
ATOM     13  O   UNL     1      13.680 -25.087  36.817  1.00  0.00    -0.300 OA
ATOM     14  C   UNL     1      14.991 -26.707  37.908  1.00  0.00     0.087 C 
ENDBRANCH  11  12
ENDBRANCH  10  11
ENDBRANCH   2  10
TORSDOF 6
ENDMDL
MODEL 5
REMARK VINA RESULT:    -3.869      3.942      6.135
REMARK INTER + INTRA:          -6.557
REMARK INTER:                  -5.647
REMARK INTRA:                  -0.910
REMARK UNBOUND:                -1.331
REMARK SMILES CC(=O)CCC=C(C)CCC=C(C)C
REMARK SMILES IDX 7 1 6 2 8 3 9 4 10 5 11 6 13 7 12 8 14 9 5 10 4 11 2 12 3 13
REMARK SMILES IDX 1 14
REMARK H PARENT
REMARK Flexibility Score: inf
ROOT
ATOM      1  C   UNL     1      14.329 -20.083  38.154  1.00  0.00    -0.077 C 
ATOM      2  C   UNL     1      15.148 -19.486  37.255  1.00  0.00    -0.028 C 
ATOM      3  C   UNL     1      14.039 -19.350  39.439  1.00  0.00     0.039 C 
ENDROOT
BRANCH   1   4
ATOM      4  C   UNL     1      13.701 -21.451  37.937  1.00  0.00     0.034 C 
BRANCH   4   5
ATOM      5  C   UNL     1      13.554 -22.246  39.243  1.00  0.00     0.032 C 
BRANCH   5   6
ATOM      6  C   UNL     1      12.116 -22.622  39.515  1.00  0.00    -0.028 C 
ATOM      7  C   UNL     1       9.992 -22.715  40.744  1.00  0.00     0.039 C 
ATOM      8  C   UNL     1      11.440 -22.313  40.642  1.00  0.00    -0.080 C 
ATOM      9  C   UNL     1      12.096 -21.597  41.800  1.00  0.00     0.039 C 
ENDBRANCH   5   6
ENDBRANCH   4   5
ENDBRANCH   1   4
BRANCH   2  10
ATOM     10  C   UNL     1      15.539 -20.046  35.906  1.00  0.00     0.035 C 
BRANCH  10  11
ATOM     11  C   UNL     1      14.947 -19.210  34.764  1.00  0.00     0.079 C 
BRANCH  11  12
ATOM     12  C   UNL     1      13.494 -19.531  34.528  1.00  0.00     0.130 C 
ATOM     13  O   UNL     1      13.159 -20.682  34.292  1.00  0.00    -0.300 OA
ATOM     14  C   UNL     1      12.444 -18.465  34.614  1.00  0.00     0.087 C 
ENDBRANCH  11  12
ENDBRANCH  10  11
ENDBRANCH   2  10
TORSDOF 6
ENDMDL
MODEL 6
REMARK VINA RESULT:    -3.858      1.784      4.692
REMARK INTER + INTRA:          -6.541
REMARK INTER:                  -5.038
REMARK INTRA:                  -1.503
REMARK UNBOUND:                -1.331
REMARK SMILES CC(=O)CCC=C(C)CCC=C(C)C
REMARK SMILES IDX 7 1 6 2 8 3 9 4 10 5 11 6 13 7 12 8 14 9 5 10 4 11 2 12 3 13
REMARK SMILES IDX 1 14
REMARK H PARENT
REMARK Flexibility Score: inf
ROOT
ATOM      1  C   UNL     1      12.359 -21.614  41.307  1.00  0.00    -0.077 C 
ATOM      2  C   UNL     1      11.217 -22.246  41.667  1.00  0.00    -0.028 C 
ATOM      3  C   UNL     1      13.268 -21.120  42.403  1.00  0.00     0.039 C 
ENDROOT
BRANCH   1   4
ATOM      4  C   UNL     1      12.762 -21.370  39.861  1.00  0.00     0.034 C 
BRANCH   4   5
ATOM      5  C   UNL     1      13.883 -22.311  39.394  1.00  0.00     0.032 C 
BRANCH   5   6
ATOM      6  C   UNL     1      13.336 -23.562  38.748  1.00  0.00    -0.028 C 
ATOM      7  C   UNL     1      12.686 -25.925  38.575  1.00  0.00     0.039 C 
ATOM      8  C   UNL     1      13.313 -24.781  39.329  1.00  0.00    -0.080 C 
ATOM      9  C   UNL     1      13.909 -25.029  40.695  1.00  0.00     0.039 C 
ENDBRANCH   5   6
ENDBRANCH   4   5
ENDBRANCH   1   4
BRANCH   2  10
ATOM     10  C   UNL     1      10.192 -22.830  40.721  1.00  0.00     0.035 C 
BRANCH  10  11
ATOM     11  C   UNL     1      10.026 -24.340  40.945  1.00  0.00     0.079 C 
BRANCH  11  12
ATOM     12  C   UNL     1       9.374 -25.014  39.766  1.00  0.00     0.130 C 
ATOM     13  O   UNL     1       9.340 -24.444  38.686  1.00  0.00    -0.300 OA
ATOM     14  C   UNL     1       8.795 -26.391  39.888  1.00  0.00     0.087 C 
ENDBRANCH  11  12
ENDBRANCH  10  11
ENDBRANCH   2  10
TORSDOF 6
ENDMDL
MODEL 7
REMARK VINA RESULT:    -3.844      1.104      3.909
REMARK INTER + INTRA:          -6.523
REMARK INTER:                  -5.569
REMARK INTRA:                  -0.954
REMARK UNBOUND:                -1.331
REMARK SMILES CC(=O)CCC=C(C)CCC=C(C)C
REMARK SMILES IDX 7 1 6 2 8 3 9 4 10 5 11 6 13 7 12 8 14 9 5 10 4 11 2 12 3 13
REMARK SMILES IDX 1 14
REMARK H PARENT
REMARK Flexibility Score: inf
ROOT
ATOM      1  C   UNL     1      11.659 -22.260  41.504  1.00  0.00    -0.077 C 
ATOM      2  C   UNL     1      12.778 -21.853  40.861  1.00  0.00    -0.028 C 
ATOM      3  C   UNL     1      11.766 -22.577  42.974  1.00  0.00     0.039 C 
ENDROOT
BRANCH   1   4
ATOM      4  C   UNL     1      10.310 -22.423  40.820  1.00  0.00     0.034 C 
BRANCH   4   5
ATOM      5  C   UNL     1      10.240 -23.686  39.948  1.00  0.00     0.032 C 
BRANCH   5   6
ATOM      6  C   UNL     1       9.308 -24.722  40.532  1.00  0.00    -0.028 C 
ATOM      7  C   UNL     1       8.648 -26.848  41.570  1.00  0.00     0.039 C 
ATOM      8  C   UNL     1       9.689 -25.944  40.964  1.00  0.00    -0.080 C 
ATOM      9  C   UNL     1      11.115 -26.429  40.840  1.00  0.00     0.039 C 
ENDBRANCH   5   6
ENDBRANCH   4   5
ENDBRANCH   1   4
BRANCH   2  10
ATOM     10  C   UNL     1      12.870 -21.468  39.401  1.00  0.00     0.035 C 
BRANCH  10  11
ATOM     11  C   UNL     1      14.110 -22.086  38.740  1.00  0.00     0.079 C 
BRANCH  11  12
ATOM     12  C   UNL     1      13.751 -23.242  37.843  1.00  0.00     0.130 C 
ATOM     13  O   UNL     1      13.707 -23.077  36.633  1.00  0.00    -0.300 OA
ATOM     14  C   UNL     1      13.479 -24.603  38.409  1.00  0.00     0.087 C 
ENDBRANCH  11  12
ENDBRANCH  10  11
ENDBRANCH   2  10
TORSDOF 6
ENDMDL
MODEL 8
REMARK VINA RESULT:    -3.832      2.799      4.347
REMARK INTER + INTRA:          -6.507
REMARK INTER:                  -5.660
REMARK INTRA:                  -0.846
REMARK UNBOUND:                -1.331
REMARK SMILES CC(=O)CCC=C(C)CCC=C(C)C
REMARK SMILES IDX 7 1 6 2 8 3 9 4 10 5 11 6 13 7 12 8 14 9 5 10 4 11 2 12 3 13
REMARK SMILES IDX 1 14
REMARK H PARENT
REMARK Flexibility Score: inf
ROOT
ATOM      1  C   UNL     1      10.832 -24.941  40.143  1.00  0.00    -0.077 C 
ATOM      2  C   UNL     1      10.902 -26.107  40.827  1.00  0.00    -0.028 C 
ATOM      3  C   UNL     1      11.971 -24.597  39.217  1.00  0.00     0.039 C 
ENDROOT
BRANCH   1   4
ATOM      4  C   UNL     1       9.675 -23.962  40.270  1.00  0.00     0.034 C 
BRANCH   4   5
ATOM      5  C   UNL     1      10.129 -22.567  40.726  1.00  0.00     0.032 C 
BRANCH   5   6
ATOM      6  C   UNL     1      10.948 -22.628  41.994  1.00  0.00    -0.028 C 
ATOM      7  C   UNL     1      12.828 -22.155  43.502  1.00  0.00     0.039 C 
ATOM      8  C   UNL     1      12.157 -22.048  42.158  1.00  0.00    -0.080 C 
ATOM      9  C   UNL     1      12.855 -21.319  41.034  1.00  0.00     0.039 C 
ENDBRANCH   5   6
ENDBRANCH   4   5
ENDBRANCH   1   4
BRANCH   2  10
ATOM     10  C   UNL     1       9.856 -26.638  41.781  1.00  0.00     0.035 C 
BRANCH  10  11
ATOM     11  C   UNL     1       8.802 -27.473  41.042  1.00  0.00     0.079 C 
BRANCH  11  12
ATOM     12  C   UNL     1       8.670 -28.856  41.625  1.00  0.00     0.130 C 
ATOM     13  O   UNL     1       8.378 -28.990  42.804  1.00  0.00    -0.300 OA
ATOM     14  C   UNL     1       8.858 -30.074  40.773  1.00  0.00     0.087 C 
ENDBRANCH  11  12
ENDBRANCH  10  11
ENDBRANCH   2  10
TORSDOF 6
ENDMDL
MODEL 9
REMARK VINA RESULT:    -3.789      2.256      4.522
REMARK INTER + INTRA:          -6.449
REMARK INTER:                  -4.940
REMARK INTRA:                  -1.509
REMARK UNBOUND:                -1.331
REMARK SMILES CC(=O)CCC=C(C)CCC=C(C)C
REMARK SMILES IDX 7 1 6 2 8 3 9 4 10 5 11 6 13 7 12 8 14 9 5 10 4 11 2 12 3 13
REMARK SMILES IDX 1 14
REMARK H PARENT
REMARK Flexibility Score: inf
ROOT
ATOM      1  C   UNL     1       8.899 -26.275  41.064  1.00  0.00    -0.077 C 
ATOM      2  C   UNL     1       8.736 -25.256  40.187  1.00  0.00    -0.028 C 
ATOM      3  C   UNL     1       7.708 -27.150  41.358  1.00  0.00     0.039 C 
ENDROOT
BRANCH   1   4
ATOM      4  C   UNL     1      10.213 -26.571  41.770  1.00  0.00     0.034 C 
BRANCH   4   5
ATOM      5  C   UNL     1      11.002 -27.704  41.098  1.00  0.00     0.032 C 
BRANCH   5   6
ATOM      6  C   UNL     1      12.122 -27.175  40.233  1.00  0.00    -0.028 C 
ATOM      7  C   UNL     1      13.249 -26.459  38.172  1.00  0.00     0.039 C 
ATOM      8  C   UNL     1      12.066 -27.053  38.889  1.00  0.00    -0.080 C 
ATOM      9  C   UNL     1      10.865 -27.509  38.094  1.00  0.00     0.039 C 
ENDBRANCH   5   6
ENDBRANCH   4   5
ENDBRANCH   1   4
BRANCH   2  10
ATOM     10  C   UNL     1       9.809 -24.286  39.747  1.00  0.00     0.035 C 
BRANCH  10  11
ATOM     11  C   UNL     1       9.777 -23.002  40.586  1.00  0.00     0.079 C 
BRANCH  11  12
ATOM     12  C   UNL     1      11.147 -22.618  41.079  1.00  0.00     0.130 C 
ATOM     13  O   UNL     1      11.316 -21.534  41.615  1.00  0.00    -0.300 OA
ATOM     14  C   UNL     1      12.305 -23.563  40.953  1.00  0.00     0.087 C 
ENDBRANCH  11  12
ENDBRANCH  10  11
ENDBRANCH   2  10
TORSDOF 6
ENDMDL
