MODEL 1
REMARK VINA RESULT:    -4.811      0.000      0.000
REMARK INTER + INTRA:          -9.465
REMARK INTER:                  -7.343
REMARK INTRA:                  -2.122
REMARK UNBOUND:                -2.122
REMARK SMILES CC(=O)CCC=C(C)CCC=C(C)CCC=C(C)C
REMARK SMILES IDX 10 1 11 2 12 3 13 4 14 5 15 6 16 7 18 8 17 9 19 10 9 11 7 12
REMARK SMILES IDX 6 13 8 14 5 15 4 16 2 17 3 18 1 19
REMARK H PARENT
REMARK Flexibility Score: inf
ROOT
ATOM      1  C   UNL     1      19.141  30.975  29.462  1.00  0.00     0.032 C 
ENDROOT
BRANCH   1   2
ATOM      2  C   UNL     1      18.615  29.890  28.556  1.00  0.00    -0.028 C 
ATOM      3  C   UNL     1      18.711  28.566  28.816  1.00  0.00    -0.077 C 
ATOM      4  C   UNL     1      19.447  28.042  30.027  1.00  0.00     0.039 C 
BRANCH   3   5
ATOM      5  C   UNL     1      18.067  27.579  27.862  1.00  0.00     0.034 C 
BRANCH   5   6
ATOM      6  C   UNL     1      18.277  26.127  28.314  1.00  0.00     0.032 C 
BRANCH   6   7
ATOM      7  C   UNL     1      18.926  25.291  27.236  1.00  0.00    -0.028 C 
ATOM      8  C   UNL     1      20.674  23.943  26.159  1.00  0.00     0.039 C 
ATOM      9  C   UNL     1      20.186  24.805  27.295  1.00  0.00    -0.080 C 
ATOM     10  C   UNL     1      21.112  25.116  28.446  1.00  0.00     0.039 C 
ENDBRANCH   6   7
ENDBRANCH   5   6
ENDBRANCH   3   5
ENDBRANCH   1   2
BRANCH   1  11
ATOM     11  C   UNL     1      18.032  31.484  30.391  1.00  0.00     0.034 C 
BRANCH  11  12
ATOM     12  C   UNL     1      17.078  32.405  29.653  1.00  0.00    -0.077 C 
ATOM     13  C   UNL     1      15.733  32.245  29.663  1.00  0.00    -0.028 C 
ATOM     14  C   UNL     1      17.647  33.561  28.871  1.00  0.00     0.039 C 
BRANCH  13  15
ATOM     15  C   UNL     1      14.979  31.142  30.367  1.00  0.00     0.035 C 
BRANCH  15  16
ATOM     16  C   UNL     1      14.811  29.938  29.430  1.00  0.00     0.079 C 
BRANCH  16  17
ATOM     17  C   UNL     1      15.196  28.608  30.041  1.00  0.00     0.130 C 
ATOM     18  O   UNL     1      14.861  27.586  29.463  1.00  0.00    -0.300 OA
ATOM     19  C   UNL     1      15.977  28.491  31.321  1.00  0.00     0.087 C 
ENDBRANCH  16  17
ENDBRANCH  15  16
ENDBRANCH  13  15
ENDBRANCH  11  12
ENDBRANCH   1  11
TORSDOF 9
ENDMDL
MODEL 2
REMARK VINA RESULT:    -4.744      2.953      8.045
REMARK INTER + INTRA:          -9.363
REMARK INTER:                  -8.136
REMARK INTRA:                  -1.226
REMARK UNBOUND:                -2.122
REMARK SMILES CC(=O)CCC=C(C)CCC=C(C)CCC=C(C)C
REMARK SMILES IDX 10 1 11 2 12 3 13 4 14 5 15 6 16 7 18 8 17 9 19 10 9 11 7 12
REMARK SMILES IDX 6 13 8 14 5 15 4 16 2 17 3 18 1 19
REMARK H PARENT
REMARK Flexibility Score: inf
ROOT
ATOM      1  C   UNL     1      18.438  26.560  27.290  1.00  0.00     0.032 C 
ENDROOT
BRANCH   1   2
ATOM      2  C   UNL     1      17.208  27.068  27.998  1.00  0.00    -0.028 C 
ATOM      3  C   UNL     1      17.230  27.781  29.148  1.00  0.00    -0.077 C 
ATOM      4  C   UNL     1      18.517  28.065  29.886  1.00  0.00     0.039 C 
BRANCH   3   5
ATOM      5  C   UNL     1      15.924  28.303  29.715  1.00  0.00     0.034 C 
BRANCH   5   6
ATOM      6  C   UNL     1      16.134  29.570  30.558  1.00  0.00     0.032 C 
BRANCH   6   7
ATOM      7  C   UNL     1      15.917  30.825  29.748  1.00  0.00    -0.028 C 
ATOM      8  C   UNL     1      16.470  32.998  28.744  1.00  0.00     0.039 C 
ATOM      9  C   UNL     1      16.813  31.830  29.633  1.00  0.00    -0.080 C 
ATOM     10  C   UNL     1      18.126  31.821  30.379  1.00  0.00     0.039 C 
ENDBRANCH   6   7
ENDBRANCH   5   6
ENDBRANCH   3   5
ENDBRANCH   1   2
BRANCH   1  11
ATOM     11  C   UNL     1      18.660  25.074  27.597  1.00  0.00     0.034 C 
BRANCH  11  12
ATOM     12  C   UNL     1      20.125  24.780  27.860  1.00  0.00    -0.077 C 
ATOM     13  C   UNL     1      20.934  24.167  26.963  1.00  0.00    -0.028 C 
ATOM     14  C   UNL     1      20.720  25.194  29.182  1.00  0.00     0.039 C 
BRANCH  13  15
ATOM     15  C   UNL     1      20.521  23.662  25.601  1.00  0.00     0.035 C 
BRANCH  15  16
ATOM     16  C   UNL     1      21.380  24.321  24.512  1.00  0.00     0.079 C 
BRANCH  16  17
ATOM     17  C   UNL     1      21.916  23.363  23.471  1.00  0.00     0.130 C 
ATOM     18  O   UNL     1      23.126  23.287  23.322  1.00  0.00    -0.300 OA
ATOM     19  C   UNL     1      21.028  22.499  22.618  1.00  0.00     0.087 C 
ENDBRANCH  16  17
ENDBRANCH  15  16
ENDBRANCH  13  15
ENDBRANCH  11  12
ENDBRANCH   1  11
TORSDOF 9
ENDMDL
MODEL 3
REMARK VINA RESULT:    -4.702      1.958      6.680
REMARK INTER + INTRA:          -9.298
REMARK INTER:                  -7.311
REMARK INTRA:                  -1.987
REMARK UNBOUND:                -2.122
REMARK SMILES CC(=O)CCC=C(C)CCC=C(C)CCC=C(C)C
REMARK SMILES IDX 10 1 11 2 12 3 13 4 14 5 15 6 16 7 18 8 17 9 19 10 9 11 7 12
REMARK SMILES IDX 6 13 8 14 5 15 4 16 2 17 3 18 1 19
REMARK H PARENT
REMARK Flexibility Score: inf
ROOT
ATOM      1  C   UNL     1      19.118  28.651  28.444  1.00  0.00     0.032 C 
ENDROOT
BRANCH   1   2
ATOM      2  C   UNL     1      18.760  30.116  28.473  1.00  0.00    -0.028 C 
ATOM      3  C   UNL     1      18.558  30.829  29.604  1.00  0.00    -0.077 C 
ATOM      4  C   UNL     1      18.591  30.186  30.970  1.00  0.00     0.039 C 
BRANCH   3   5
ATOM      5  C   UNL     1      18.284  32.316  29.497  1.00  0.00     0.034 C 
BRANCH   5   6
ATOM      6  C   UNL     1      16.875  32.600  28.955  1.00  0.00     0.032 C 
BRANCH   6   7
ATOM      7  C   UNL     1      15.835  32.567  30.050  1.00  0.00    -0.028 C 
ATOM      8  C   UNL     1      14.036  31.635  31.438  1.00  0.00     0.039 C 
ATOM      9  C   UNL     1      14.984  31.541  30.271  1.00  0.00    -0.080 C 
ATOM     10  C   UNL     1      14.947  30.325  29.376  1.00  0.00     0.039 C 
ENDBRANCH   6   7
ENDBRANCH   5   6
ENDBRANCH   3   5
ENDBRANCH   1   2
BRANCH   1  11
ATOM     11  C   UNL     1      18.051  27.852  27.685  1.00  0.00     0.034 C 
BRANCH  11  12
ATOM     12  C   UNL     1      17.534  26.695  28.519  1.00  0.00    -0.077 C 
ATOM     13  C   UNL     1      17.846  25.401  28.272  1.00  0.00    -0.028 C 
ATOM     14  C   UNL     1      16.630  26.994  29.688  1.00  0.00     0.039 C 
BRANCH  13  15
ATOM     15  C   UNL     1      18.714  24.902  27.141  1.00  0.00     0.035 C 
BRANCH  15  16
ATOM     16  C   UNL     1      20.031  24.340  27.696  1.00  0.00     0.079 C 
BRANCH  16  17
ATOM     17  C   UNL     1      20.929  25.370  28.345  1.00  0.00     0.130 C 
ATOM     18  O   UNL     1      21.648  26.047  27.626  1.00  0.00    -0.300 OA
ATOM     19  C   UNL     1      20.968  25.602  29.831  1.00  0.00     0.087 C 
ENDBRANCH  16  17
ENDBRANCH  15  16
ENDBRANCH  13  15
ENDBRANCH  11  12
ENDBRANCH   1  11
TORSDOF 9
ENDMDL
MODEL 4
REMARK VINA RESULT:    -4.669      2.141      3.512
REMARK INTER + INTRA:          -9.247
REMARK INTER:                  -7.993
REMARK INTRA:                  -1.254
REMARK UNBOUND:                -2.122
REMARK SMILES CC(=O)CCC=C(C)CCC=C(C)CCC=C(C)C
REMARK SMILES IDX 10 1 11 2 12 3 13 4 14 5 15 6 16 7 18 8 17 9 19 10 9 11 7 12
REMARK SMILES IDX 6 13 8 14 5 15 4 16 2 17 3 18 1 19
REMARK H PARENT
REMARK Flexibility Score: inf
ROOT
ATOM      1  C   UNL     1      16.131  29.233  30.039  1.00  0.00     0.032 C 
ENDROOT
BRANCH   1   2
ATOM      2  C   UNL     1      16.682  28.253  29.034  1.00  0.00    -0.028 C 
ATOM      3  C   UNL     1      17.871  28.394  28.405  1.00  0.00    -0.077 C 
ATOM      4  C   UNL     1      18.735  29.618  28.596  1.00  0.00     0.039 C 
BRANCH   3   5
ATOM      5  C   UNL     1      18.348  27.295  27.476  1.00  0.00     0.034 C 
BRANCH   5   6
ATOM      6  C   UNL     1      18.781  26.040  28.250  1.00  0.00     0.032 C 
BRANCH   6   7
ATOM      7  C   UNL     1      18.408  24.773  27.518  1.00  0.00    -0.028 C 
ATOM      8  C   UNL     1      18.763  22.730  26.200  1.00  0.00     0.039 C 
ATOM      9  C   UNL     1      19.279  23.995  26.837  1.00  0.00    -0.080 C 
ATOM     10  C   UNL     1      20.734  24.366  26.685  1.00  0.00     0.039 C 
ENDBRANCH   6   7
ENDBRANCH   5   6
ENDBRANCH   3   5
ENDBRANCH   1   2
BRANCH   1  11
ATOM     11  C   UNL     1      15.190  30.233  29.354  1.00  0.00     0.034 C 
BRANCH  11  12
ATOM     12  C   UNL     1      15.039  31.497  30.179  1.00  0.00    -0.077 C 
ATOM     13  C   UNL     1      15.742  32.630  29.941  1.00  0.00    -0.028 C 
ATOM     14  C   UNL     1      14.053  31.503  31.319  1.00  0.00     0.039 C 
BRANCH  13  15
ATOM     15  C   UNL     1      16.785  32.812  28.863  1.00  0.00     0.035 C 
BRANCH  15  16
ATOM     16  C   UNL     1      17.824  33.852  29.306  1.00  0.00     0.079 C 
BRANCH  16  17
ATOM     17  C   UNL     1      19.100  33.265  29.868  1.00  0.00     0.130 C 
ATOM     18  O   UNL     1      20.158  33.556  29.331  1.00  0.00    -0.300 OA
ATOM     19  C   UNL     1      19.124  32.347  31.059  1.00  0.00     0.087 C 
ENDBRANCH  16  17
ENDBRANCH  15  16
ENDBRANCH  13  15
ENDBRANCH  11  12
ENDBRANCH   1  11
TORSDOF 9
ENDMDL
MODEL 5
REMARK VINA RESULT:    -4.658      1.351      1.985
REMARK INTER + INTRA:          -9.230
REMARK INTER:                  -7.702
REMARK INTRA:                  -1.528
REMARK UNBOUND:                -2.122
REMARK SMILES CC(=O)CCC=C(C)CCC=C(C)CCC=C(C)C
REMARK SMILES IDX 10 1 11 2 12 3 13 4 14 5 15 6 16 7 18 8 17 9 19 10 9 11 7 12
REMARK SMILES IDX 6 13 8 14 5 15 4 16 2 17 3 18 1 19
REMARK H PARENT
REMARK Flexibility Score: inf
ROOT
ATOM      1  C   UNL     1      19.916  30.747  29.299  1.00  0.00     0.032 C 
ENDROOT
BRANCH   1   2
ATOM      2  C   UNL     1      19.114  29.727  28.530  1.00  0.00    -0.028 C 
ATOM      3  C   UNL     1      18.970  28.434  28.900  1.00  0.00    -0.077 C 
ATOM      4  C   UNL     1      19.687  27.863  30.100  1.00  0.00     0.039 C 
BRANCH   3   5
ATOM      5  C   UNL     1      18.068  27.531  28.082  1.00  0.00     0.034 C 
BRANCH   5   6
ATOM      6  C   UNL     1      18.263  26.050  28.442  1.00  0.00     0.032 C 
BRANCH   6   7
ATOM      7  C   UNL     1      18.864  25.269  27.299  1.00  0.00    -0.028 C 
ATOM      8  C   UNL     1      20.545  23.935  26.102  1.00  0.00     0.039 C 
ATOM      9  C   UNL     1      20.106  24.734  27.302  1.00  0.00    -0.080 C 
ATOM     10  C   UNL     1      21.059  24.930  28.457  1.00  0.00     0.039 C 
ENDBRANCH   6   7
ENDBRANCH   5   6
ENDBRANCH   3   5
ENDBRANCH   1   2
BRANCH   1  11
ATOM     11  C   UNL     1      18.992  31.635  30.140  1.00  0.00     0.034 C 
BRANCH  11  12
ATOM     12  C   UNL     1      18.993  33.065  29.633  1.00  0.00    -0.077 C 
ATOM     13  C   UNL     1      17.930  33.640  29.023  1.00  0.00    -0.028 C 
ATOM     14  C   UNL     1      20.236  33.897  29.820  1.00  0.00     0.039 C 
BRANCH  13  15
ATOM     15  C   UNL     1      16.610  32.966  28.728  1.00  0.00     0.035 C 
BRANCH  15  16
ATOM     16  C   UNL     1      15.732  32.954  29.987  1.00  0.00     0.079 C 
BRANCH  16  17
ATOM     17  C   UNL     1      15.145  31.602  30.330  1.00  0.00     0.130 C 
ATOM     18  O   UNL     1      14.317  31.541  31.226  1.00  0.00    -0.300 OA
ATOM     19  C   UNL     1      15.530  30.337  29.614  1.00  0.00     0.087 C 
ENDBRANCH  16  17
ENDBRANCH  15  16
ENDBRANCH  13  15
ENDBRANCH  11  12
ENDBRANCH   1  11
TORSDOF 9
ENDMDL
MODEL 6
REMARK VINA RESULT:    -4.583      1.872      5.981
REMARK INTER + INTRA:          -9.116
REMARK INTER:                  -6.760
REMARK INTRA:                  -2.355
REMARK UNBOUND:                -2.122
REMARK SMILES CC(=O)CCC=C(C)CCC=C(C)CCC=C(C)C
REMARK SMILES IDX 10 1 11 2 12 3 13 4 14 5 15 6 16 7 18 8 17 9 19 10 9 11 7 12
REMARK SMILES IDX 6 13 8 14 5 15 4 16 2 17 3 18 1 19
REMARK H PARENT
REMARK Flexibility Score: inf
ROOT
ATOM      1  C   UNL     1      20.315  30.446  30.168  1.00  0.00     0.032 C 
ENDROOT
BRANCH   1   2
ATOM      2  C   UNL     1      19.442  31.393  29.385  1.00  0.00    -0.028 C 
ATOM      3  C   UNL     1      18.745  32.416  29.932  1.00  0.00    -0.077 C 
ATOM      4  C   UNL     1      18.715  32.654  31.423  1.00  0.00     0.039 C 
BRANCH   3   5
ATOM      5  C   UNL     1      17.968  33.347  29.022  1.00  0.00     0.034 C 
BRANCH   5   6
ATOM      6  C   UNL     1      16.466  33.334  29.340  1.00  0.00     0.032 C 
BRANCH   6   7
ATOM      7  C   UNL     1      15.858  31.968  29.129  1.00  0.00    -0.028 C 
ATOM      8  C   UNL     1      14.589  29.941  29.690  1.00  0.00     0.039 C 
ATOM      9  C   UNL     1      15.181  31.274  30.070  1.00  0.00    -0.080 C 
ATOM     10  C   UNL     1      15.021  31.786  31.482  1.00  0.00     0.039 C 
ENDBRANCH   6   7
ENDBRANCH   5   6
ENDBRANCH   3   5
ENDBRANCH   1   2
BRANCH   1  11
ATOM     11  C   UNL     1      19.991  28.991  29.804  1.00  0.00     0.034 C 
BRANCH  11  12
ATOM     12  C   UNL     1      18.542  28.659  30.111  1.00  0.00    -0.077 C 
ATOM     13  C   UNL     1      17.704  28.086  29.215  1.00  0.00    -0.028 C 
ATOM     14  C   UNL     1      18.003  28.974  31.483  1.00  0.00     0.039 C 
BRANCH  13  15
ATOM     15  C   UNL     1      18.050  27.716  27.792  1.00  0.00     0.035 C 
BRANCH  15  16
ATOM     16  C   UNL     1      18.005  26.192  27.617  1.00  0.00     0.079 C 
BRANCH  16  17
ATOM     17  C   UNL     1      19.348  25.506  27.735  1.00  0.00     0.130 C 
ATOM     18  O   UNL     1      19.914  25.162  26.708  1.00  0.00    -0.300 OA
ATOM     19  C   UNL     1      20.018  25.237  29.054  1.00  0.00     0.087 C 
ENDBRANCH  16  17
ENDBRANCH  15  16
ENDBRANCH  13  15
ENDBRANCH  11  12
ENDBRANCH   1  11
TORSDOF 9
ENDMDL
MODEL 7
REMARK VINA RESULT:    -4.526      1.894      5.797
REMARK INTER + INTRA:          -9.029
REMARK INTER:                  -6.462
REMARK INTRA:                  -2.568
REMARK UNBOUND:                -2.122
REMARK SMILES CC(=O)CCC=C(C)CCC=C(C)CCC=C(C)C
REMARK SMILES IDX 10 1 11 2 12 3 13 4 14 5 15 6 16 7 18 8 17 9 19 10 9 11 7 12
REMARK SMILES IDX 6 13 8 14 5 15 4 16 2 17 3 18 1 19
REMARK H PARENT
REMARK Flexibility Score: inf
ROOT
ATOM      1  C   UNL     1      14.476  29.511  30.096  1.00  0.00     0.032 C 
ENDROOT
BRANCH   1   2
ATOM      2  C   UNL     1      15.058  30.708  29.388  1.00  0.00    -0.028 C 
ATOM      3  C   UNL     1      15.426  31.854  30.005  1.00  0.00    -0.077 C 
ATOM      4  C   UNL     1      15.202  32.072  31.483  1.00  0.00     0.039 C 
BRANCH   3   5
ATOM      5  C   UNL     1      16.075  32.954  29.189  1.00  0.00     0.034 C 
BRANCH   5   6
ATOM      6  C   UNL     1      17.404  33.416  29.805  1.00  0.00     0.032 C 
BRANCH   6   7
ATOM      7  C   UNL     1      18.568  32.589  29.313  1.00  0.00    -0.028 C 
ATOM      8  C   UNL     1      20.349  30.900  29.409  1.00  0.00     0.039 C 
ATOM      9  C   UNL     1      19.239  31.685  30.060  1.00  0.00    -0.080 C 
ATOM     10  C   UNL     1      18.922  31.458  31.519  1.00  0.00     0.039 C 
ENDBRANCH   6   7
ENDBRANCH   5   6
ENDBRANCH   3   5
ENDBRANCH   1   2
BRANCH   1  11
ATOM     11  C   UNL     1      15.312  28.258  29.809  1.00  0.00     0.034 C 
BRANCH  11  12
ATOM     12  C   UNL     1      16.671  28.339  30.479  1.00  0.00    -0.077 C 
ATOM     13  C   UNL     1      17.840  28.304  29.796  1.00  0.00    -0.028 C 
ATOM     14  C   UNL     1      16.731  28.471  31.979  1.00  0.00     0.039 C 
BRANCH  13  15
ATOM     15  C   UNL     1      17.986  28.155  28.301  1.00  0.00     0.035 C 
BRANCH  15  16
ATOM     16  C   UNL     1      19.099  27.149  27.977  1.00  0.00     0.079 C 
BRANCH  16  17
ATOM     17  C   UNL     1      18.643  25.708  27.913  1.00  0.00     0.130 C 
ATOM     18  O   UNL     1      19.485  24.828  28.016  1.00  0.00    -0.300 OA
ATOM     19  C   UNL     1      17.203  25.311  27.736  1.00  0.00     0.087 C 
ENDBRANCH  16  17
ENDBRANCH  15  16
ENDBRANCH  13  15
ENDBRANCH  11  12
ENDBRANCH   1  11
TORSDOF 9
ENDMDL
MODEL 8
REMARK VINA RESULT:    -4.512      3.050      5.203
REMARK INTER + INTRA:          -9.008
REMARK INTER:                  -7.065
REMARK INTRA:                  -1.943
REMARK UNBOUND:                -2.122
REMARK SMILES CC(=O)CCC=C(C)CCC=C(C)CCC=C(C)C
REMARK SMILES IDX 10 1 11 2 12 3 13 4 14 5 15 6 16 7 18 8 17 9 19 10 9 11 7 12
REMARK SMILES IDX 6 13 8 14 5 15 4 16 2 17 3 18 1 19
REMARK H PARENT
REMARK Flexibility Score: inf
ROOT
ATOM      1  C   UNL     1      18.547  29.811  28.942  1.00  0.00     0.032 C 
ENDROOT
BRANCH   1   2
ATOM      2  C   UNL     1      18.088  28.662  28.081  1.00  0.00    -0.028 C 
ATOM      3  C   UNL     1      17.472  27.554  28.553  1.00  0.00    -0.077 C 
ATOM      4  C   UNL     1      17.260  27.328  30.032  1.00  0.00     0.039 C 
BRANCH   3   5
ATOM      5  C   UNL     1      16.986  26.506  27.571  1.00  0.00     0.034 C 
BRANCH   5   6
ATOM      6  C   UNL     1      17.564  25.118  27.884  1.00  0.00     0.032 C 
BRANCH   6   7
ATOM      7  C   UNL     1      18.993  24.986  27.413  1.00  0.00    -0.028 C 
ATOM      8  C   UNL     1      20.916  23.976  26.266  1.00  0.00     0.039 C 
ATOM      9  C   UNL     1      19.476  23.938  26.709  1.00  0.00    -0.080 C 
ATOM     10  C   UNL     1      18.625  22.737  26.375  1.00  0.00     0.039 C 
ENDBRANCH   6   7
ENDBRANCH   5   6
ENDBRANCH   3   5
ENDBRANCH   1   2
BRANCH   1  11
ATOM     11  C   UNL     1      20.079  29.882  28.971  1.00  0.00     0.034 C 
BRANCH  11  12
ATOM     12  C   UNL     1      20.642  29.101  30.144  1.00  0.00    -0.077 C 
ATOM     13  C   UNL     1      21.141  27.847  30.033  1.00  0.00    -0.028 C 
ATOM     14  C   UNL     1      20.657  29.750  31.504  1.00  0.00     0.039 C 
BRANCH  13  15
ATOM     15  C   UNL     1      21.194  27.026  28.766  1.00  0.00     0.035 C 
BRANCH  15  16
ATOM     16  C   UNL     1      22.632  26.561  28.499  1.00  0.00     0.079 C 
BRANCH  16  17
ATOM     17  C   UNL     1      23.628  27.682  28.300  1.00  0.00     0.130 C 
ATOM     18  O   UNL     1      23.460  28.446  27.361  1.00  0.00    -0.300 OA
ATOM     19  C   UNL     1      24.807  27.902  29.207  1.00  0.00     0.087 C 
ENDBRANCH  16  17
ENDBRANCH  15  16
ENDBRANCH  13  15
ENDBRANCH  11  12
ENDBRANCH   1  11
TORSDOF 9
ENDMDL
MODEL 9
REMARK VINA RESULT:    -4.453      2.025      5.690
REMARK INTER + INTRA:          -8.918
REMARK INTER:                  -6.489
REMARK INTRA:                  -2.429
REMARK UNBOUND:                -2.122
REMARK SMILES CC(=O)CCC=C(C)CCC=C(C)CCC=C(C)C
REMARK SMILES IDX 10 1 11 2 12 3 13 4 14 5 15 6 16 7 18 8 17 9 19 10 9 11 7 12
REMARK SMILES IDX 6 13 8 14 5 15 4 16 2 17 3 18 1 19
REMARK H PARENT
REMARK Flexibility Score: inf
ROOT
ATOM      1  C   UNL     1      14.273  29.557  30.198  1.00  0.00     0.032 C 
ENDROOT
BRANCH   1   2
ATOM      2  C   UNL     1      14.894  30.736  29.492  1.00  0.00    -0.028 C 
ATOM      3  C   UNL     1      15.293  31.871  30.111  1.00  0.00    -0.077 C 
ATOM      4  C   UNL     1      15.069  32.095  31.588  1.00  0.00     0.039 C 
BRANCH   3   5
ATOM      5  C   UNL     1      15.979  32.951  29.298  1.00  0.00     0.034 C 
BRANCH   5   6
ATOM      6  C   UNL     1      17.440  33.148  29.727  1.00  0.00     0.032 C 
BRANCH   6   7
ATOM      7  C   UNL     1      18.353  32.121  29.100  1.00  0.00    -0.028 C 
ATOM      8  C   UNL     1      19.780  30.124  28.991  1.00  0.00     0.039 C 
ATOM      9  C   UNL     1      18.933  31.100  29.769  1.00  0.00    -0.080 C 
ATOM     10  C   UNL     1      18.773  30.924  31.259  1.00  0.00     0.039 C 
ENDBRANCH   6   7
ENDBRANCH   5   6
ENDBRANCH   3   5
ENDBRANCH   1   2
BRANCH   1  11
ATOM     11  C   UNL     1      14.926  28.249  29.733  1.00  0.00     0.034 C 
BRANCH  11  12
ATOM     12  C   UNL     1      16.245  28.010  30.444  1.00  0.00    -0.077 C 
ATOM     13  C   UNL     1      17.360  27.566  29.816  1.00  0.00    -0.028 C 
ATOM     14  C   UNL     1      16.329  28.287  31.924  1.00  0.00     0.039 C 
BRANCH  13  15
ATOM     15  C   UNL     1      17.468  27.215  28.351  1.00  0.00     0.035 C 
BRANCH  15  16
ATOM     16  C   UNL     1      17.850  25.737  28.189  1.00  0.00     0.079 C 
BRANCH  16  17
ATOM     17  C   UNL     1      16.791  24.884  27.527  1.00  0.00     0.130 C 
ATOM     18  O   UNL     1      17.150  23.910  26.883  1.00  0.00    -0.300 OA
ATOM     19  C   UNL     1      15.319  25.176  27.632  1.00  0.00     0.087 C 
ENDBRANCH  16  17
ENDBRANCH  15  16
ENDBRANCH  13  15
ENDBRANCH  11  12
ENDBRANCH   1  11
TORSDOF 9
ENDMDL
