MODEL 1
REMARK VINA RESULT:    -4.757      0.000      0.000
REMARK INTER + INTRA:         -17.876
REMARK INTER:                 -12.544
REMARK INTRA:                  -5.332
REMARK UNBOUND:                -5.332
REMARK SMILES CCCCCCCCCCCCCCCCCCCCCCCCCCCCCC(=O)[O-]
REMARK SMILES IDX 16 1 17 2 18 3 19 4 20 5 21 6 22 7 23 8 24 9 25 10 26 11
REMARK SMILES IDX 27 12 28 13 29 14 30 15 31 16 32 17 15 18 14 19 13 20 12 21
REMARK SMILES IDX 11 22 10 23 9 24 8 25 7 26 6 27 5 28 4 29 3 30 2 31 1 32
REMARK H PARENT
REMARK Flexibility Score: inf
ROOT
ATOM      1  C   UNL     1      31.973  55.212  27.673  1.00  0.00     0.000 C 
ENDROOT
BRANCH   1   2
ATOM      2  C   UNL     1      32.689  53.867  27.432  1.00  0.00     0.000 C 
BRANCH   2   3
ATOM      3  C   UNL     1      33.584  53.461  28.618  1.00  0.00     0.000 C 
BRANCH   3   4
ATOM      4  C   UNL     1      32.851  52.574  29.640  1.00  0.00     0.000 C 
BRANCH   4   5
ATOM      5  C   UNL     1      33.751  51.975  30.735  1.00  0.00     0.000 C 
BRANCH   5   6
ATOM      6  C   UNL     1      33.348  52.432  32.149  1.00  0.00     0.000 C 
BRANCH   6   7
ATOM      7  C   UNL     1      31.857  52.791  32.254  1.00  0.00     0.000 C 
BRANCH   7   8
ATOM      8  C   UNL     1      31.030  51.673  32.912  1.00  0.00     0.000 C 
BRANCH   8   9
ATOM      9  C   UNL     1      30.015  51.031  31.947  1.00  0.00     0.000 C 
BRANCH   9  10
ATOM     10  C   UNL     1      30.215  49.524  31.693  1.00  0.00     0.000 C 
BRANCH  10  11
ATOM     11  C   UNL     1      31.029  49.231  30.423  1.00  0.00     0.000 C 
BRANCH  11  12
ATOM     12  C   UNL     1      32.453  48.777  30.774  1.00  0.00     0.000 C 
BRANCH  12  13
ATOM     13  C   UNL     1      32.567  48.191  32.195  1.00  0.00     0.006 C 
BRANCH  13  14
ATOM     14  C   UNL     1      33.570  48.932  33.096  1.00  0.00     0.053 C 
BRANCH  14  15
ATOM     15  C   UNL     1      34.842  48.168  33.299  1.00  0.00     0.041 C 
ATOM     16  O   UNL     1      35.178  47.263  32.490  1.00  0.00    -0.550 OA
ATOM     17  O   UNL     1      35.670  48.468  34.374  1.00  0.00    -0.550 OA
ENDBRANCH  14  15
ENDBRANCH  13  14
ENDBRANCH  12  13
ENDBRANCH  11  12
ENDBRANCH  10  11
ENDBRANCH   9  10
ENDBRANCH   8   9
ENDBRANCH   7   8
ENDBRANCH   6   7
ENDBRANCH   5   6
ENDBRANCH   4   5
ENDBRANCH   3   4
ENDBRANCH   2   3
ENDBRANCH   1   2
BRANCH   1  18
ATOM     18  C   UNL     1      32.224  56.254  26.567  1.00  0.00     0.000 C 
BRANCH  18  19
ATOM     19  C   UNL     1      33.685  56.279  26.088  1.00  0.00     0.000 C 
BRANCH  19  20
ATOM     20  C   UNL     1      34.579  57.181  26.952  1.00  0.00     0.000 C 
BRANCH  20  21
ATOM     21  C   UNL     1      35.893  56.498  27.358  1.00  0.00     0.000 C 
BRANCH  21  22
ATOM     22  C   UNL     1      36.362  56.992  28.731  1.00  0.00     0.000 C 
BRANCH  22  23
ATOM     23  C   UNL     1      35.249  57.767  29.453  1.00  0.00     0.000 C 
BRANCH  23  24
ATOM     24  C   UNL     1      34.942  57.198  30.854  1.00  0.00    -0.000 C 
BRANCH  24  25
ATOM     25  C   UNL     1      34.078  55.924  30.830  1.00  0.00    -0.000 C 
BRANCH  25  26
ATOM     26  C   UNL     1      32.642  56.098  31.361  1.00  0.00    -0.000 C 
BRANCH  26  27
ATOM     27  C   UNL     1      32.529  56.820  32.717  1.00  0.00    -0.000 C 
BRANCH  27  28
ATOM     28  C   UNL     1      32.221  55.866  33.881  1.00  0.00    -0.000 C 
BRANCH  28  29
ATOM     29  C   UNL     1      33.418  55.757  34.838  1.00  0.00    -0.000 C 
BRANCH  29  30
ATOM     30  C   UNL     1      34.576  56.699  34.442  1.00  0.00    -0.000 C 
BRANCH  30  31
ATOM     31  C   UNL     1      35.965  56.040  34.522  1.00  0.00    -0.003 C 
ATOM     32  C   UNL     1      36.093  54.798  33.645  1.00  0.00     0.004 C 
ENDBRANCH  30  31
ENDBRANCH  29  30
ENDBRANCH  28  29
ENDBRANCH  27  28
ENDBRANCH  26  27
ENDBRANCH  25  26
ENDBRANCH  24  25
ENDBRANCH  23  24
ENDBRANCH  22  23
ENDBRANCH  21  22
ENDBRANCH  20  21
ENDBRANCH  19  20
ENDBRANCH  18  19
ENDBRANCH   1  18
TORSDOF 28
ENDMDL
MODEL 2
REMARK VINA RESULT:    -4.603      2.325      7.549
REMARK INTER + INTRA:         -17.470
REMARK INTER:                 -12.339
REMARK INTRA:                  -5.132
REMARK UNBOUND:                -5.332
REMARK SMILES CCCCCCCCCCCCCCCCCCCCCCCCCCCCCC(=O)[O-]
REMARK SMILES IDX 16 1 17 2 18 3 19 4 20 5 21 6 22 7 23 8 24 9 25 10 26 11
REMARK SMILES IDX 27 12 28 13 29 14 30 15 31 16 32 17 15 18 14 19 13 20 12 21
REMARK SMILES IDX 11 22 10 23 9 24 8 25 7 26 6 27 5 28 4 29 3 30 2 31 1 32
REMARK H PARENT
REMARK Flexibility Score: inf
ROOT
ATOM      1  C   UNL     1      32.921  52.477  29.757  1.00  0.00     0.000 C 
ENDROOT
BRANCH   1   2
ATOM      2  C   UNL     1      33.522  53.639  28.939  1.00  0.00     0.000 C 
BRANCH   2   3
ATOM      3  C   UNL     1      32.677  53.978  27.697  1.00  0.00     0.000 C 
BRANCH   3   4
ATOM      4  C   UNL     1      32.047  55.380  27.769  1.00  0.00     0.000 C 
BRANCH   4   5
ATOM      5  C   UNL     1      32.295  56.262  26.533  1.00  0.00     0.000 C 
BRANCH   5   6
ATOM      6  C   UNL     1      33.743  56.170  26.020  1.00  0.00     0.000 C 
BRANCH   6   7
ATOM      7  C   UNL     1      34.656  57.249  26.626  1.00  0.00     0.000 C 
BRANCH   7   8
ATOM      8  C   UNL     1      35.945  56.658  27.224  1.00  0.00     0.000 C 
BRANCH   8   9
ATOM      9  C   UNL     1      36.166  57.064  28.693  1.00  0.00     0.000 C 
BRANCH   9  10
ATOM     10  C   UNL     1      34.893  57.098  29.561  1.00  0.00     0.000 C 
BRANCH  10  11
ATOM     11  C   UNL     1      35.183  56.914  31.060  1.00  0.00     0.000 C 
BRANCH  11  12
ATOM     12  C   UNL     1      34.285  55.824  31.664  1.00  0.00     0.000 C 
BRANCH  12  13
ATOM     13  C   UNL     1      32.851  56.311  31.947  1.00  0.00     0.006 C 
BRANCH  13  14
ATOM     14  C   UNL     1      32.362  56.013  33.375  1.00  0.00     0.053 C 
BRANCH  14  15
ATOM     15  C   UNL     1      33.377  56.359  34.420  1.00  0.00     0.041 C 
ATOM     16  O   UNL     1      33.770  55.487  35.240  1.00  0.00    -0.550 OA
ATOM     17  O   UNL     1      33.907  57.643  34.479  1.00  0.00    -0.550 OA
ENDBRANCH  14  15
ENDBRANCH  13  14
ENDBRANCH  12  13
ENDBRANCH  11  12
ENDBRANCH  10  11
ENDBRANCH   9  10
ENDBRANCH   8   9
ENDBRANCH   7   8
ENDBRANCH   6   7
ENDBRANCH   5   6
ENDBRANCH   4   5
ENDBRANCH   3   4
ENDBRANCH   2   3
ENDBRANCH   1   2
BRANCH   1  18
ATOM     18  C   UNL     1      33.855  51.948  30.860  1.00  0.00     0.000 C 
BRANCH  18  19
ATOM     19  C   UNL     1      33.382  52.319  32.275  1.00  0.00     0.000 C 
BRANCH  19  20
ATOM     20  C   UNL     1      31.871  52.582  32.348  1.00  0.00     0.000 C 
BRANCH  20  21
ATOM     21  C   UNL     1      31.133  51.550  33.214  1.00  0.00     0.000 C 
BRANCH  21  22
ATOM     22  C   UNL     1      29.839  51.092  32.531  1.00  0.00     0.000 C 
BRANCH  22  23
ATOM     23  C   UNL     1      30.100  50.660  31.079  1.00  0.00     0.000 C 
BRANCH  23  24
ATOM     24  C   UNL     1      29.752  49.177  30.831  1.00  0.00    -0.000 C 
BRANCH  24  25
ATOM     25  C   UNL     1      30.857  48.198  31.269  1.00  0.00    -0.000 C 
BRANCH  25  26
ATOM     26  C   UNL     1      32.298  48.690  31.035  1.00  0.00    -0.000 C 
BRANCH  26  27
ATOM     27  C   UNL     1      33.329  48.208  32.073  1.00  0.00    -0.000 C 
BRANCH  27  28
ATOM     28  C   UNL     1      32.831  48.338  33.520  1.00  0.00    -0.000 C 
BRANCH  28  29
ATOM     29  C   UNL     1      33.929  48.904  34.433  1.00  0.00    -0.000 C 
BRANCH  29  30
ATOM     30  C   UNL     1      35.265  49.114  33.688  1.00  0.00    -0.000 C 
BRANCH  30  31
ATOM     31  C   UNL     1      36.293  49.943  34.479  1.00  0.00    -0.003 C 
ATOM     32  C   UNL     1      36.997  50.998  33.630  1.00  0.00     0.004 C 
ENDBRANCH  30  31
ENDBRANCH  29  30
ENDBRANCH  28  29
ENDBRANCH  27  28
ENDBRANCH  26  27
ENDBRANCH  25  26
ENDBRANCH  24  25
ENDBRANCH  23  24
ENDBRANCH  22  23
ENDBRANCH  21  22
ENDBRANCH  20  21
ENDBRANCH  19  20
ENDBRANCH  18  19
ENDBRANCH   1  18
TORSDOF 28
ENDMDL
MODEL 3
REMARK VINA RESULT:    -4.488      2.733      3.675
REMARK INTER + INTRA:         -17.167
REMARK INTER:                 -11.994
REMARK INTRA:                  -5.173
REMARK UNBOUND:                -5.332
REMARK SMILES CCCCCCCCCCCCCCCCCCCCCCCCCCCCCC(=O)[O-]
REMARK SMILES IDX 16 1 17 2 18 3 19 4 20 5 21 6 22 7 23 8 24 9 25 10 26 11
REMARK SMILES IDX 27 12 28 13 29 14 30 15 31 16 32 17 15 18 14 19 13 20 12 21
REMARK SMILES IDX 11 22 10 23 9 24 8 25 7 26 6 27 5 28 4 29 3 30 2 31 1 32
REMARK H PARENT
REMARK Flexibility Score: inf
ROOT
ATOM      1  C   UNL     1      32.287  53.695  27.972  1.00  0.00     0.000 C 
ENDROOT
BRANCH   1   2
ATOM      2  C   UNL     1      33.635  53.344  28.635  1.00  0.00     0.000 C 
BRANCH   2   3
ATOM      3  C   UNL     1      33.461  52.439  29.869  1.00  0.00     0.000 C 
BRANCH   3   4
ATOM      4  C   UNL     1      32.058  51.811  29.953  1.00  0.00     0.000 C 
BRANCH   4   5
ATOM      5  C   UNL     1      31.713  51.187  31.316  1.00  0.00     0.000 C 
BRANCH   5   6
ATOM      6  C   UNL     1      30.196  51.122  31.570  1.00  0.00     0.000 C 
BRANCH   6   7
ATOM      7  C   UNL     1      29.795  49.941  32.470  1.00  0.00     0.000 C 
BRANCH   7   8
ATOM      8  C   UNL     1      30.981  49.397  33.286  1.00  0.00     0.000 C 
BRANCH   8   9
ATOM      9  C   UNL     1      31.218  47.892  33.069  1.00  0.00     0.000 C 
BRANCH   9  10
ATOM     10  C   UNL     1      30.991  47.394  31.629  1.00  0.00     0.000 C 
BRANCH  10  11
ATOM     11  C   UNL     1      32.216  47.595  30.722  1.00  0.00     0.000 C 
BRANCH  11  12
ATOM     12  C   UNL     1      31.792  48.048  29.317  1.00  0.00     0.000 C 
BRANCH  12  13
ATOM     13  C   UNL     1      30.277  47.911  29.070  1.00  0.00     0.006 C 
BRANCH  13  14
ATOM     14  C   UNL     1      29.605  49.208  28.589  1.00  0.00     0.053 C 
BRANCH  14  15
ATOM     15  C   UNL     1      29.861  49.492  27.140  1.00  0.00     0.041 C 
ATOM     16  O   UNL     1      29.900  50.680  26.722  1.00  0.00    -0.550 OA
ATOM     17  O   UNL     1      30.077  48.445  26.253  1.00  0.00    -0.550 OA
ENDBRANCH  14  15
ENDBRANCH  13  14
ENDBRANCH  12  13
ENDBRANCH  11  12
ENDBRANCH  10  11
ENDBRANCH   9  10
ENDBRANCH   8   9
ENDBRANCH   7   8
ENDBRANCH   6   7
ENDBRANCH   5   6
ENDBRANCH   4   5
ENDBRANCH   3   4
ENDBRANCH   2   3
ENDBRANCH   1   2
BRANCH   1  18
ATOM     18  C   UNL     1      31.922  55.188  28.063  1.00  0.00     0.000 C 
BRANCH  18  19
ATOM     19  C   UNL     1      31.935  55.893  26.697  1.00  0.00     0.000 C 
BRANCH  19  20
ATOM     20  C   UNL     1      33.311  55.846  26.015  1.00  0.00     0.000 C 
BRANCH  20  21
ATOM     21  C   UNL     1      34.225  57.001  26.447  1.00  0.00     0.000 C 
BRANCH  21  22
ATOM     22  C   UNL     1      35.359  56.492  27.344  1.00  0.00     0.000 C 
BRANCH  22  23
ATOM     23  C   UNL     1      36.045  57.651  28.084  1.00  0.00     0.000 C 
BRANCH  23  24
ATOM     24  C   UNL     1      35.560  57.793  29.542  1.00  0.00    -0.000 C 
BRANCH  24  25
ATOM     25  C   UNL     1      34.659  56.636  30.012  1.00  0.00    -0.000 C 
BRANCH  25  26
ATOM     26  C   UNL     1      34.704  56.346  31.524  1.00  0.00    -0.000 C 
BRANCH  26  27
ATOM     27  C   UNL     1      33.647  57.087  32.364  1.00  0.00    -0.000 C 
BRANCH  27  28
ATOM     28  C   UNL     1      32.289  56.369  32.390  1.00  0.00    -0.000 C 
BRANCH  28  29
ATOM     29  C   UNL     1      32.470  54.844  32.329  1.00  0.00    -0.000 C 
BRANCH  29  30
ATOM     30  C   UNL     1      32.059  54.149  33.644  1.00  0.00    -0.000 C 
BRANCH  30  31
ATOM     31  C   UNL     1      33.056  53.076  34.116  1.00  0.00    -0.003 C 
ATOM     32  C   UNL     1      34.398  53.141  33.392  1.00  0.00     0.004 C 
ENDBRANCH  30  31
ENDBRANCH  29  30
ENDBRANCH  28  29
ENDBRANCH  27  28
ENDBRANCH  26  27
ENDBRANCH  25  26
ENDBRANCH  24  25
ENDBRANCH  23  24
ENDBRANCH  22  23
ENDBRANCH  21  22
ENDBRANCH  20  21
ENDBRANCH  19  20
ENDBRANCH  18  19
ENDBRANCH   1  18
TORSDOF 28
ENDMDL
MODEL 4
REMARK VINA RESULT:    -4.459      2.037      5.916
REMARK INTER + INTRA:         -17.089
REMARK INTER:                 -12.159
REMARK INTRA:                  -4.930
REMARK UNBOUND:                -5.332
REMARK SMILES CCCCCCCCCCCCCCCCCCCCCCCCCCCCCC(=O)[O-]
REMARK SMILES IDX 16 1 17 2 18 3 19 4 20 5 21 6 22 7 23 8 24 9 25 10 26 11
REMARK SMILES IDX 27 12 28 13 29 14 30 15 31 16 32 17 15 18 14 19 13 20 12 21
REMARK SMILES IDX 11 22 10 23 9 24 8 25 7 26 6 27 5 28 4 29 3 30 2 31 1 32
REMARK H PARENT
REMARK Flexibility Score: inf
ROOT
ATOM      1  C   UNL     1      36.112  55.638  34.348  1.00  0.00     0.000 C 
ENDROOT
BRANCH   1   2
ATOM      2  C   UNL     1      36.331  54.446  33.392  1.00  0.00     0.000 C 
BRANCH   2   3
ATOM      3  C   UNL     1      35.380  53.273  33.695  1.00  0.00     0.000 C 
BRANCH   3   4
ATOM      4  C   UNL     1      35.804  51.968  32.997  1.00  0.00     0.000 C 
BRANCH   4   5
ATOM      5  C   UNL     1      36.777  51.092  33.806  1.00  0.00     0.000 C 
BRANCH   5   6
ATOM      6  C   UNL     1      36.121  50.472  35.052  1.00  0.00     0.000 C 
BRANCH   6   7
ATOM      7  C   UNL     1      35.830  48.972  34.886  1.00  0.00     0.000 C 
BRANCH   7   8
ATOM      8  C   UNL     1      34.426  48.706  34.314  1.00  0.00     0.000 C 
BRANCH   8   9
ATOM      9  C   UNL     1      33.378  49.725  34.799  1.00  0.00     0.000 C 
BRANCH   9  10
ATOM     10  C   UNL     1      32.355  50.168  33.736  1.00  0.00     0.000 C 
BRANCH  10  11
ATOM     11  C   UNL     1      32.105  51.685  33.736  1.00  0.00     0.000 C 
BRANCH  11  12
ATOM     12  C   UNL     1      31.669  52.171  32.347  1.00  0.00     0.000 C 
BRANCH  12  13
ATOM     13  C   UNL     1      32.630  51.734  31.225  1.00  0.00     0.006 C 
BRANCH  13  14
ATOM     14  C   UNL     1      31.921  51.172  29.980  1.00  0.00     0.053 C 
BRANCH  14  15
ATOM     15  C   UNL     1      30.864  50.166  30.319  1.00  0.00     0.041 C 
ATOM     16  O   UNL     1      31.165  48.951  30.461  1.00  0.00    -0.550 OA
ATOM     17  O   UNL     1      29.547  50.572  30.498  1.00  0.00    -0.550 OA
ENDBRANCH  14  15
ENDBRANCH  13  14
ENDBRANCH  12  13
ENDBRANCH  11  12
ENDBRANCH  10  11
ENDBRANCH   9  10
ENDBRANCH   8   9
ENDBRANCH   7   8
ENDBRANCH   6   7
ENDBRANCH   5   6
ENDBRANCH   4   5
ENDBRANCH   3   4
ENDBRANCH   2   3
ENDBRANCH   1   2
BRANCH   1  18
ATOM     18  C   UNL     1      34.869  55.492  35.244  1.00  0.00     0.000 C 
BRANCH  18  19
ATOM     19  C   UNL     1      33.736  56.458  34.859  1.00  0.00     0.000 C 
BRANCH  19  20
ATOM     20  C   UNL     1      32.602  55.767  34.087  1.00  0.00     0.000 C 
BRANCH  20  21
ATOM     21  C   UNL     1      32.343  56.409  32.717  1.00  0.00     0.000 C 
BRANCH  21  22
ATOM     22  C   UNL     1      32.826  55.493  31.586  1.00  0.00     0.000 C 
BRANCH  22  23
ATOM     23  C   UNL     1      34.088  56.059  30.915  1.00  0.00     0.000 C 
BRANCH  23  24
ATOM     24  C   UNL     1      34.507  57.425  31.499  1.00  0.00    -0.000 C 
BRANCH  24  25
ATOM     25  C   UNL     1      35.331  58.289  30.526  1.00  0.00    -0.000 C 
BRANCH  25  26
ATOM     26  C   UNL     1      36.152  57.502  29.486  1.00  0.00    -0.000 C 
BRANCH  26  27
ATOM     27  C   UNL     1      35.911  57.908  28.020  1.00  0.00    -0.000 C 
BRANCH  27  28
ATOM     28  C   UNL     1      35.602  56.711  27.108  1.00  0.00    -0.000 C 
BRANCH  28  29
ATOM     29  C   UNL     1      34.392  57.002  26.207  1.00  0.00    -0.000 C 
BRANCH  29  30
ATOM     30  C   UNL     1      33.386  55.832  26.174  1.00  0.00    -0.000 C 
BRANCH  30  31
ATOM     31  C   UNL     1      32.812  55.469  27.555  1.00  0.00    -0.003 C 
ATOM     32  C   UNL     1      32.742  53.964  27.802  1.00  0.00     0.004 C 
ENDBRANCH  30  31
ENDBRANCH  29  30
ENDBRANCH  28  29
ENDBRANCH  27  28
ENDBRANCH  26  27
ENDBRANCH  25  26
ENDBRANCH  24  25
ENDBRANCH  23  24
ENDBRANCH  22  23
ENDBRANCH  21  22
ENDBRANCH  20  21
ENDBRANCH  19  20
ENDBRANCH  18  19
ENDBRANCH   1  18
TORSDOF 28
ENDMDL
MODEL 5
REMARK VINA RESULT:    -4.453      2.846      7.361
REMARK INTER + INTRA:         -17.074
REMARK INTER:                 -12.337
REMARK INTRA:                  -4.736
REMARK UNBOUND:                -5.332
REMARK SMILES CCCCCCCCCCCCCCCCCCCCCCCCCCCCCC(=O)[O-]
REMARK SMILES IDX 16 1 17 2 18 3 19 4 20 5 21 6 22 7 23 8 24 9 25 10 26 11
REMARK SMILES IDX 27 12 28 13 29 14 30 15 31 16 32 17 15 18 14 19 13 20 12 21
REMARK SMILES IDX 11 22 10 23 9 24 8 25 7 26 6 27 5 28 4 29 3 30 2 31 1 32
REMARK H PARENT
REMARK Flexibility Score: inf
ROOT
ATOM      1  C   UNL     1      32.241  52.022  28.843  1.00  0.00     0.000 C 
ENDROOT
BRANCH   1   2
ATOM      2  C   UNL     1      33.368  52.536  29.763  1.00  0.00     0.000 C 
BRANCH   2   3
ATOM      3  C   UNL     1      33.211  54.030  30.100  1.00  0.00     0.000 C 
BRANCH   3   4
ATOM      4  C   UNL     1      32.750  54.868  28.894  1.00  0.00     0.000 C 
BRANCH   4   5
ATOM      5  C   UNL     1      33.818  55.072  27.806  1.00  0.00     0.000 C 
BRANCH   5   6
ATOM      6  C   UNL     1      33.616  56.378  27.016  1.00  0.00     0.000 C 
BRANCH   6   7
ATOM      7  C   UNL     1      34.944  57.016  26.575  1.00  0.00     0.000 C 
BRANCH   7   8
ATOM      8  C   UNL     1      36.147  56.471  27.364  1.00  0.00     0.000 C 
BRANCH   8   9
ATOM      9  C   UNL     1      36.887  57.561  28.160  1.00  0.00     0.000 C 
BRANCH   9  10
ATOM     10  C   UNL     1      36.096  58.162  29.338  1.00  0.00     0.000 C 
BRANCH  10  11
ATOM     11  C   UNL     1      35.517  57.095  30.281  1.00  0.00     0.000 C 
BRANCH  11  12
ATOM     12  C   UNL     1      34.832  57.745  31.492  1.00  0.00     0.000 C 
BRANCH  12  13
ATOM     13  C   UNL     1      34.131  56.724  32.409  1.00  0.00     0.006 C 
BRANCH  13  14
ATOM     14  C   UNL     1      33.373  57.361  33.586  1.00  0.00     0.053 C 
BRANCH  14  15
ATOM     15  C   UNL     1      34.251  57.612  34.774  1.00  0.00     0.041 C 
ATOM     16  O   UNL     1      34.467  56.696  35.611  1.00  0.00    -0.550 OA
ATOM     17  O   UNL     1      34.849  58.855  34.948  1.00  0.00    -0.550 OA
ENDBRANCH  14  15
ENDBRANCH  13  14
ENDBRANCH  12  13
ENDBRANCH  11  12
ENDBRANCH  10  11
ENDBRANCH   9  10
ENDBRANCH   8   9
ENDBRANCH   7   8
ENDBRANCH   6   7
ENDBRANCH   5   6
ENDBRANCH   4   5
ENDBRANCH   3   4
ENDBRANCH   2   3
ENDBRANCH   1   2
BRANCH   1  18
ATOM     18  C   UNL     1      31.658  50.665  29.278  1.00  0.00     0.000 C 
BRANCH  18  19
ATOM     19  C   UNL     1      31.600  50.498  30.805  1.00  0.00     0.000 C 
BRANCH  19  20
ATOM     20  C   UNL     1      30.217  50.825  31.387  1.00  0.00     0.000 C 
BRANCH  20  21
ATOM     21  C   UNL     1      30.296  51.717  32.634  1.00  0.00     0.000 C 
BRANCH  21  22
ATOM     22  C   UNL     1      31.755  52.020  32.996  1.00  0.00     0.000 C 
BRANCH  22  23
ATOM     23  C   UNL     1      31.924  53.482  33.437  1.00  0.00     0.000 C 
BRANCH  23  24
ATOM     24  C   UNL     1      33.252  53.725  34.186  1.00  0.00    -0.000 C 
BRANCH  24  25
ATOM     25  C   UNL     1      34.469  53.051  33.526  1.00  0.00    -0.000 C 
BRANCH  25  26
ATOM     26  C   UNL     1      35.803  53.805  33.690  1.00  0.00    -0.000 C 
BRANCH  26  27
ATOM     27  C   UNL     1      37.001  52.930  34.104  1.00  0.00    -0.000 C 
BRANCH  27  28
ATOM     28  C   UNL     1      36.809  52.260  35.473  1.00  0.00    -0.000 C 
BRANCH  28  29
ATOM     29  C   UNL     1      37.125  50.758  35.401  1.00  0.00    -0.000 C 
BRANCH  29  30
ATOM     30  C   UNL     1      35.851  49.893  35.283  1.00  0.00    -0.000 C 
BRANCH  30  31
ATOM     31  C   UNL     1      35.670  49.241  33.901  1.00  0.00    -0.003 C 
ATOM     32  C   UNL     1      34.266  49.421  33.329  1.00  0.00     0.004 C 
ENDBRANCH  30  31
ENDBRANCH  29  30
ENDBRANCH  28  29
ENDBRANCH  27  28
ENDBRANCH  26  27
ENDBRANCH  25  26
ENDBRANCH  24  25
ENDBRANCH  23  24
ENDBRANCH  22  23
ENDBRANCH  21  22
ENDBRANCH  20  21
ENDBRANCH  19  20
ENDBRANCH  18  19
ENDBRANCH   1  18
TORSDOF 28
ENDMDL
MODEL 6
REMARK VINA RESULT:    -4.410      2.986      7.453
REMARK INTER + INTRA:         -16.960
REMARK INTER:                 -11.843
REMARK INTRA:                  -5.118
REMARK UNBOUND:                -5.332
REMARK SMILES CCCCCCCCCCCCCCCCCCCCCCCCCCCCCC(=O)[O-]
REMARK SMILES IDX 16 1 17 2 18 3 19 4 20 5 21 6 22 7 23 8 24 9 25 10 26 11
REMARK SMILES IDX 27 12 28 13 29 14 30 15 31 16 32 17 15 18 14 19 13 20 12 21
REMARK SMILES IDX 11 22 10 23 9 24 8 25 7 26 6 27 5 28 4 29 3 30 2 31 1 32
REMARK H PARENT
REMARK Flexibility Score: inf
ROOT
ATOM      1  C   UNL     1      35.235  53.069  33.418  1.00  0.00     0.000 C 
ENDROOT
BRANCH   1   2
ATOM      2  C   UNL     1      35.445  54.569  33.712  1.00  0.00     0.000 C 
BRANCH   2   3
ATOM      3  C   UNL     1      34.600  55.055  34.904  1.00  0.00     0.000 C 
BRANCH   3   4
ATOM      4  C   UNL     1      33.699  56.251  34.547  1.00  0.00     0.000 C 
BRANCH   4   5
ATOM      5  C   UNL     1      32.432  55.888  33.753  1.00  0.00     0.000 C 
BRANCH   5   6
ATOM      6  C   UNL     1      32.286  56.712  32.461  1.00  0.00     0.000 C 
BRANCH   6   7
ATOM      7  C   UNL     1      32.625  55.903  31.199  1.00  0.00     0.000 C 
BRANCH   7   8
ATOM      8  C   UNL     1      34.119  55.977  30.837  1.00  0.00     0.000 C 
BRANCH   8   9
ATOM      9  C   UNL     1      34.639  57.422  30.732  1.00  0.00     0.000 C 
BRANCH   9  10
ATOM     10  C   UNL     1      35.518  57.715  29.501  1.00  0.00     0.000 C 
BRANCH  10  11
ATOM     11  C   UNL     1      35.347  56.677  28.380  1.00  0.00     0.000 C 
BRANCH  11  12
ATOM     12  C   UNL     1      34.774  57.327  27.112  1.00  0.00     0.000 C 
BRANCH  12  13
ATOM     13  C   UNL     1      33.620  56.519  26.488  1.00  0.00     0.006 C 
BRANCH  13  14
ATOM     14  C   UNL     1      33.149  55.336  27.351  1.00  0.00     0.053 C 
BRANCH  14  15
ATOM     15  C   UNL     1      31.700  55.012  27.151  1.00  0.00     0.041 C 
ATOM     16  O   UNL     1      31.356  53.893  26.687  1.00  0.00    -0.550 OA
ATOM     17  O   UNL     1      30.725  55.941  27.498  1.00  0.00    -0.550 OA
ENDBRANCH  14  15
ENDBRANCH  13  14
ENDBRANCH  12  13
ENDBRANCH  11  12
ENDBRANCH  10  11
ENDBRANCH   9  10
ENDBRANCH   8   9
ENDBRANCH   7   8
ENDBRANCH   6   7
ENDBRANCH   5   6
ENDBRANCH   4   5
ENDBRANCH   3   4
ENDBRANCH   2   3
ENDBRANCH   1   2
BRANCH   1  18
ATOM     18  C   UNL     1      33.923  52.762  32.673  1.00  0.00     0.000 C 
BRANCH  18  19
ATOM     19  C   UNL     1      34.110  51.767  31.516  1.00  0.00     0.000 C 
BRANCH  19  20
ATOM     20  C   UNL     1      33.755  52.371  30.149  1.00  0.00     0.000 C 
BRANCH  20  21
ATOM     21  C   UNL     1      32.246  52.356  29.869  1.00  0.00     0.000 C 
BRANCH  21  22
ATOM     22  C   UNL     1      31.883  51.228  28.896  1.00  0.00     0.000 C 
BRANCH  22  23
ATOM     23  C   UNL     1      31.430  49.968  29.651  1.00  0.00     0.000 C 
BRANCH  23  24
ATOM     24  C   UNL     1      29.897  49.895  29.815  1.00  0.00    -0.000 C 
BRANCH  24  25
ATOM     25  C   UNL     1      29.436  49.731  31.275  1.00  0.00    -0.000 C 
BRANCH  25  26
ATOM     26  C   UNL     1      29.327  51.041  32.078  1.00  0.00    -0.000 C 
BRANCH  26  27
ATOM     27  C   UNL     1      30.568  51.400  32.916  1.00  0.00    -0.000 C 
BRANCH  27  28
ATOM     28  C   UNL     1      31.367  50.167  33.363  1.00  0.00    -0.000 C 
BRANCH  28  29
ATOM     29  C   UNL     1      31.586  50.173  34.884  1.00  0.00    -0.000 C 
BRANCH  29  30
ATOM     30  C   UNL     1      33.082  50.127  35.264  1.00  0.00    -0.000 C 
BRANCH  30  31
ATOM     31  C   UNL     1      33.400  50.806  36.608  1.00  0.00    -0.003 C 
ATOM     32  C   UNL     1      34.708  51.593  36.590  1.00  0.00     0.004 C 
ENDBRANCH  30  31
ENDBRANCH  29  30
ENDBRANCH  28  29
ENDBRANCH  27  28
ENDBRANCH  26  27
ENDBRANCH  25  26
ENDBRANCH  24  25
ENDBRANCH  23  24
ENDBRANCH  22  23
ENDBRANCH  21  22
ENDBRANCH  20  21
ENDBRANCH  19  20
ENDBRANCH  18  19
ENDBRANCH   1  18
TORSDOF 28
ENDMDL
MODEL 7
REMARK VINA RESULT:    -4.396      2.135      2.871
REMARK INTER + INTRA:         -16.923
REMARK INTER:                 -12.536
REMARK INTRA:                  -4.387
REMARK UNBOUND:                -5.332
REMARK SMILES CCCCCCCCCCCCCCCCCCCCCCCCCCCCCC(=O)[O-]
REMARK SMILES IDX 16 1 17 2 18 3 19 4 20 5 21 6 22 7 23 8 24 9 25 10 26 11
REMARK SMILES IDX 27 12 28 13 29 14 30 15 31 16 32 17 15 18 14 19 13 20 12 21
REMARK SMILES IDX 11 22 10 23 9 24 8 25 7 26 6 27 5 28 4 29 3 30 2 31 1 32
REMARK H PARENT
REMARK Flexibility Score: inf
ROOT
ATOM      1  C   UNL     1      31.914  55.032  27.287  1.00  0.00     0.000 C 
ENDROOT
BRANCH   1   2
ATOM      2  C   UNL     1      32.416  54.977  28.745  1.00  0.00     0.000 C 
BRANCH   2   3
ATOM      3  C   UNL     1      33.552  53.953  28.934  1.00  0.00     0.000 C 
BRANCH   3   4
ATOM      4  C   UNL     1      33.145  52.772  29.832  1.00  0.00     0.000 C 
BRANCH   4   5
ATOM      5  C   UNL     1      32.256  51.719  29.147  1.00  0.00     0.000 C 
BRANCH   5   6
ATOM      6  C   UNL     1      31.203  51.123  30.099  1.00  0.00     0.000 C 
BRANCH   6   7
ATOM      7  C   UNL     1      31.448  51.502  31.568  1.00  0.00     0.000 C 
BRANCH   7   8
ATOM      8  C   UNL     1      31.186  50.329  32.529  1.00  0.00     0.000 C 
BRANCH   8   9
ATOM      9  C   UNL     1      30.018  49.433  32.077  1.00  0.00     0.000 C 
BRANCH   9  10
ATOM     10  C   UNL     1      30.411  47.999  31.673  1.00  0.00     0.000 C 
BRANCH  10  11
ATOM     11  C   UNL     1      31.917  47.726  31.814  1.00  0.00     0.000 C 
BRANCH  11  12
ATOM     12  C   UNL     1      32.631  47.868  30.462  1.00  0.00     0.000 C 
BRANCH  12  13
ATOM     13  C   UNL     1      31.706  47.602  29.259  1.00  0.00     0.006 C 
BRANCH  13  14
ATOM     14  C   UNL     1      32.284  46.609  28.236  1.00  0.00     0.053 C 
BRANCH  14  15
ATOM     15  C   UNL     1      31.752  45.220  28.411  1.00  0.00     0.041 C 
ATOM     16  O   UNL     1      31.179  44.632  27.456  1.00  0.00    -0.550 OA
ATOM     17  O   UNL     1      31.907  44.563  29.627  1.00  0.00    -0.550 OA
ENDBRANCH  14  15
ENDBRANCH  13  14
ENDBRANCH  12  13
ENDBRANCH  11  12
ENDBRANCH  10  11
ENDBRANCH   9  10
ENDBRANCH   8   9
ENDBRANCH   7   8
ENDBRANCH   6   7
ENDBRANCH   5   6
ENDBRANCH   4   5
ENDBRANCH   3   4
ENDBRANCH   2   3
ENDBRANCH   1   2
BRANCH   1  18
ATOM     18  C   UNL     1      32.364  56.291  26.525  1.00  0.00     0.000 C 
BRANCH  18  19
ATOM     19  C   UNL     1      33.822  56.210  26.042  1.00  0.00     0.000 C 
BRANCH  19  20
ATOM     20  C   UNL     1      34.719  57.285  26.675  1.00  0.00     0.000 C 
BRANCH  20  21
ATOM     21  C   UNL     1      35.659  56.714  27.746  1.00  0.00     0.000 C 
BRANCH  21  22
ATOM     22  C   UNL     1      36.465  57.833  28.415  1.00  0.00     0.000 C 
BRANCH  22  23
ATOM     23  C   UNL     1      35.940  58.127  29.829  1.00  0.00     0.000 C 
BRANCH  23  24
ATOM     24  C   UNL     1      34.842  57.135  30.270  1.00  0.00    -0.000 C 
BRANCH  24  25
ATOM     25  C   UNL     1      34.650  57.061  31.796  1.00  0.00    -0.000 C 
BRANCH  25  26
ATOM     26  C   UNL     1      33.189  56.919  32.266  1.00  0.00    -0.000 C 
BRANCH  26  27
ATOM     27  C   UNL     1      32.647  55.478  32.286  1.00  0.00    -0.000 C 
BRANCH  27  28
ATOM     28  C   UNL     1      32.240  55.009  33.691  1.00  0.00    -0.000 C 
BRANCH  28  29
ATOM     29  C   UNL     1      33.035  53.762  34.108  1.00  0.00    -0.000 C 
BRANCH  29  30
ATOM     30  C   UNL     1      34.560  53.961  33.969  1.00  0.00    -0.000 C 
BRANCH  30  31
ATOM     31  C   UNL     1      35.229  52.971  33.000  1.00  0.00    -0.003 C 
ATOM     32  C   UNL     1      34.691  51.548  33.127  1.00  0.00     0.004 C 
ENDBRANCH  30  31
ENDBRANCH  29  30
ENDBRANCH  28  29
ENDBRANCH  27  28
ENDBRANCH  26  27
ENDBRANCH  25  26
ENDBRANCH  24  25
ENDBRANCH  23  24
ENDBRANCH  22  23
ENDBRANCH  21  22
ENDBRANCH  20  21
ENDBRANCH  19  20
ENDBRANCH  18  19
ENDBRANCH   1  18
TORSDOF 28
ENDMDL
MODEL 8
REMARK VINA RESULT:    -4.392      2.959      8.503
REMARK INTER + INTRA:         -16.914
REMARK INTER:                 -12.173
REMARK INTRA:                  -4.741
REMARK UNBOUND:                -5.332
REMARK SMILES CCCCCCCCCCCCCCCCCCCCCCCCCCCCCC(=O)[O-]
REMARK SMILES IDX 16 1 17 2 18 3 19 4 20 5 21 6 22 7 23 8 24 9 25 10 26 11
REMARK SMILES IDX 27 12 28 13 29 14 30 15 31 16 32 17 15 18 14 19 13 20 12 21
REMARK SMILES IDX 11 22 10 23 9 24 8 25 7 26 6 27 5 28 4 29 3 30 2 31 1 32
REMARK H PARENT
REMARK Flexibility Score: inf
ROOT
ATOM      1  C   UNL     1      33.126  54.359  30.421  1.00  0.00     0.000 C 
ENDROOT
BRANCH   1   2
ATOM      2  C   UNL     1      33.924  53.960  31.680  1.00  0.00     0.000 C 
BRANCH   2   3
ATOM      3  C   UNL     1      33.320  54.553  32.967  1.00  0.00     0.000 C 
BRANCH   3   4
ATOM      4  C   UNL     1      32.246  55.618  32.684  1.00  0.00     0.000 C 
BRANCH   4   5
ATOM      5  C   UNL     1      32.768  57.065  32.646  1.00  0.00     0.000 C 
BRANCH   5   6
ATOM      6  C   UNL     1      34.085  57.240  33.424  1.00  0.00     0.000 C 
BRANCH   6   7
ATOM      7  C   UNL     1      35.274  57.579  32.510  1.00  0.00     0.000 C 
BRANCH   7   8
ATOM      8  C   UNL     1      34.829  57.969  31.090  1.00  0.00     0.000 C 
BRANCH   8   9
ATOM      9  C   UNL     1      35.505  57.122  29.996  1.00  0.00     0.000 C 
BRANCH   9  10
ATOM     10  C   UNL     1      35.792  57.865  28.677  1.00  0.00     0.000 C 
BRANCH  10  11
ATOM     11  C   UNL     1      35.872  56.925  27.462  1.00  0.00     0.000 C 
BRANCH  11  12
ATOM     12  C   UNL     1      34.581  56.985  26.634  1.00  0.00     0.000 C 
BRANCH  12  13
ATOM     13  C   UNL     1      33.492  56.021  27.141  1.00  0.00     0.006 C 
BRANCH  13  14
ATOM     14  C   UNL     1      32.470  55.613  26.067  1.00  0.00     0.053 C 
BRANCH  14  15
ATOM     15  C   UNL     1      31.244  54.976  26.644  1.00  0.00     0.041 C 
ATOM     16  O   UNL     1      30.498  55.623  27.425  1.00  0.00    -0.550 OA
ATOM     17  O   UNL     1      30.911  53.670  26.304  1.00  0.00    -0.550 OA
ENDBRANCH  14  15
ENDBRANCH  13  14
ENDBRANCH  12  13
ENDBRANCH  11  12
ENDBRANCH  10  11
ENDBRANCH   9  10
ENDBRANCH   8   9
ENDBRANCH   7   8
ENDBRANCH   6   7
ENDBRANCH   5   6
ENDBRANCH   4   5
ENDBRANCH   3   4
ENDBRANCH   2   3
ENDBRANCH   1   2
BRANCH   1  18
ATOM     18  C   UNL     1      32.630  53.158  29.596  1.00  0.00     0.000 C 
BRANCH  18  19
ATOM     19  C   UNL     1      32.794  51.817  30.330  1.00  0.00     0.000 C 
BRANCH  19  20
ATOM     20  C   UNL     1      31.455  51.223  30.791  1.00  0.00     0.000 C 
BRANCH  20  21
ATOM     21  C   UNL     1      30.969  51.819  32.120  1.00  0.00     0.000 C 
BRANCH  21  22
ATOM     22  C   UNL     1      31.605  51.090  33.309  1.00  0.00     0.000 C 
BRANCH  22  23
ATOM     23  C   UNL     1      30.611  50.114  33.958  1.00  0.00     0.000 C 
BRANCH  23  24
ATOM     24  C   UNL     1      31.120  48.657  33.948  1.00  0.00    -0.000 C 
BRANCH  24  25
ATOM     25  C   UNL     1      32.617  48.524  33.610  1.00  0.00    -0.000 C 
BRANCH  25  26
ATOM     26  C   UNL     1      32.945  47.539  32.472  1.00  0.00    -0.000 C 
BRANCH  26  27
ATOM     27  C   UNL     1      32.381  47.923  31.091  1.00  0.00    -0.000 C 
BRANCH  27  28
ATOM     28  C   UNL     1      31.378  46.895  30.546  1.00  0.00    -0.000 C 
BRANCH  28  29
ATOM     29  C   UNL     1      29.932  47.340  30.810  1.00  0.00    -0.000 C 
BRANCH  29  30
ATOM     30  C   UNL     1      29.474  48.458  29.849  1.00  0.00    -0.000 C 
BRANCH  30  31
ATOM     31  C   UNL     1      28.255  49.250  30.354  1.00  0.00    -0.003 C 
ATOM     32  C   UNL     1      27.912  48.961  31.813  1.00  0.00     0.004 C 
ENDBRANCH  30  31
ENDBRANCH  29  30
ENDBRANCH  28  29
ENDBRANCH  27  28
ENDBRANCH  26  27
ENDBRANCH  25  26
ENDBRANCH  24  25
ENDBRANCH  23  24
ENDBRANCH  22  23
ENDBRANCH  21  22
ENDBRANCH  20  21
ENDBRANCH  19  20
ENDBRANCH  18  19
ENDBRANCH   1  18
TORSDOF 28
ENDMDL
MODEL 9
REMARK VINA RESULT:    -4.371      3.008      7.871
REMARK INTER + INTRA:         -16.858
REMARK INTER:                 -11.956
REMARK INTRA:                  -4.902
REMARK UNBOUND:                -5.332
REMARK SMILES CCCCCCCCCCCCCCCCCCCCCCCCCCCCCC(=O)[O-]
REMARK SMILES IDX 16 1 17 2 18 3 19 4 20 5 21 6 22 7 23 8 24 9 25 10 26 11
REMARK SMILES IDX 27 12 28 13 29 14 30 15 31 16 32 17 15 18 14 19 13 20 12 21
REMARK SMILES IDX 11 22 10 23 9 24 8 25 7 26 6 27 5 28 4 29 3 30 2 31 1 32
REMARK H PARENT
REMARK Flexibility Score: inf
ROOT
ATOM      1  C   UNL     1      33.078  54.410  30.390  1.00  0.00     0.000 C 
ENDROOT
BRANCH   1   2
ATOM      2  C   UNL     1      33.911  53.987  31.618  1.00  0.00     0.000 C 
BRANCH   2   3
ATOM      3  C   UNL     1      33.314  54.512  32.937  1.00  0.00     0.000 C 
BRANCH   3   4
ATOM      4  C   UNL     1      32.229  55.581  32.715  1.00  0.00     0.000 C 
BRANCH   4   5
ATOM      5  C   UNL     1      32.757  57.024  32.626  1.00  0.00     0.000 C 
BRANCH   5   6
ATOM      6  C   UNL     1      34.051  57.233  33.433  1.00  0.00     0.000 C 
BRANCH   6   7
ATOM      7  C   UNL     1      35.256  57.580  32.544  1.00  0.00     0.000 C 
BRANCH   7   8
ATOM      8  C   UNL     1      34.837  57.972  31.116  1.00  0.00     0.000 C 
BRANCH   8   9
ATOM      9  C   UNL     1      35.535  57.129  30.033  1.00  0.00     0.000 C 
BRANCH   9  10
ATOM     10  C   UNL     1      35.815  57.866  28.709  1.00  0.00     0.000 C 
BRANCH  10  11
ATOM     11  C   UNL     1      35.903  56.919  27.501  1.00  0.00     0.000 C 
BRANCH  11  12
ATOM     12  C   UNL     1      34.623  56.986  26.655  1.00  0.00     0.000 C 
BRANCH  12  13
ATOM     13  C   UNL     1      33.619  55.867  26.988  1.00  0.00     0.006 C 
BRANCH  13  14
ATOM     14  C   UNL     1      32.371  55.860  26.089  1.00  0.00     0.053 C 
BRANCH  14  15
ATOM     15  C   UNL     1      31.219  55.124  26.700  1.00  0.00     0.041 C 
ATOM     16  O   UNL     1      30.435  55.713  27.491  1.00  0.00    -0.550 OA
ATOM     17  O   UNL     1      30.997  53.790  26.381  1.00  0.00    -0.550 OA
ENDBRANCH  14  15
ENDBRANCH  13  14
ENDBRANCH  12  13
ENDBRANCH  11  12
ENDBRANCH  10  11
ENDBRANCH   9  10
ENDBRANCH   8   9
ENDBRANCH   7   8
ENDBRANCH   6   7
ENDBRANCH   5   6
ENDBRANCH   4   5
ENDBRANCH   3   4
ENDBRANCH   2   3
ENDBRANCH   1   2
BRANCH   1  18
ATOM     18  C   UNL     1      32.785  53.256  29.413  1.00  0.00     0.000 C 
BRANCH  18  19
ATOM     19  C   UNL     1      33.226  51.886  29.955  1.00  0.00     0.000 C 
BRANCH  19  20
ATOM     20  C   UNL     1      32.057  50.901  30.104  1.00  0.00     0.000 C 
BRANCH  20  21
ATOM     21  C   UNL     1      31.008  51.376  31.119  1.00  0.00     0.000 C 
BRANCH  21  22
ATOM     22  C   UNL     1      29.840  50.386  31.201  1.00  0.00     0.000 C 
BRANCH  22  23
ATOM     23  C   UNL     1      29.384  50.184  32.654  1.00  0.00     0.000 C 
BRANCH  23  24
ATOM     24  C   UNL     1      30.134  49.031  33.356  1.00  0.00    -0.000 C 
BRANCH  24  25
ATOM     25  C   UNL     1      30.728  47.996  32.384  1.00  0.00    -0.000 C 
BRANCH  25  26
ATOM     26  C   UNL     1      32.107  47.437  32.786  1.00  0.00    -0.000 C 
BRANCH  26  27
ATOM     27  C   UNL     1      33.314  48.231  32.252  1.00  0.00    -0.000 C 
BRANCH  27  28
ATOM     28  C   UNL     1      34.102  48.943  33.362  1.00  0.00    -0.000 C 
BRANCH  28  29
ATOM     29  C   UNL     1      34.007  50.469  33.214  1.00  0.00    -0.000 C 
BRANCH  29  30
ATOM     30  C   UNL     1      33.019  51.098  34.219  1.00  0.00    -0.000 C 
BRANCH  30  31
ATOM     31  C   UNL     1      32.817  50.263  35.496  1.00  0.00    -0.003 C 
ATOM     32  C   UNL     1      33.470  50.881  36.730  1.00  0.00     0.004 C 
ENDBRANCH  30  31
ENDBRANCH  29  30
ENDBRANCH  28  29
ENDBRANCH  27  28
ENDBRANCH  26  27
ENDBRANCH  25  26
ENDBRANCH  24  25
ENDBRANCH  23  24
ENDBRANCH  22  23
ENDBRANCH  21  22
ENDBRANCH  20  21
ENDBRANCH  19  20
ENDBRANCH  18  19
ENDBRANCH   1  18
TORSDOF 28
ENDMDL
