MODEL 1
REMARK VINA RESULT:    -4.033      0.000      0.000
REMARK INTER + INTRA:          -4.150
REMARK INTER:                  -4.150
REMARK INTRA:                   0.000
REMARK UNBOUND:                 0.000
REMARK SMILES Nc1ncnc2nc[nH]c12
REMARK SMILES IDX 8 1 7 2 6 3 5 4 4 5 3 6 2 7 10 8 9 9 1 11
REMARK H PARENT 9 10 1 12 1 13
REMARK Flexibility Score: inf
ROOT
ATOM      1  C   UNL     1      -6.755   6.698  21.529  1.00  0.00     0.199 A 
ATOM      2  N   UNL     1      -6.571   6.204  20.274  1.00  0.00    -0.217 NA
ATOM      3  C   UNL     1      -5.829   5.108  20.505  1.00  0.00     0.182 A 
ATOM      4  N   UNL     1      -5.363   4.238  19.578  1.00  0.00    -0.215 NA
ATOM      5  C   UNL     1      -4.620   3.174  20.008  1.00  0.00     0.226 A 
ATOM      6  N   UNL     1      -4.359   3.001  21.344  1.00  0.00    -0.217 NA
ATOM      7  C   UNL     1      -4.828   3.878  22.281  1.00  0.00     0.152 A 
ATOM      8  C   UNL     1      -5.584   4.956  21.827  1.00  0.00     0.127 A 
ATOM      9  N   UNL     1      -6.163   5.958  22.499  1.00  0.00    -0.340 N 
ATOM     10  H   UNL     1      -6.167   6.138  23.528  1.00  0.00     0.168 HD
ENDROOT
BRANCH   7  11
ATOM     11  N   UNL     1      -4.544   3.678  23.666  1.00  0.00    -0.382 N 
ATOM     12  H   UNL     1      -4.073   4.415  24.236  1.00  0.00     0.158 HD
ATOM     13  H   UNL     1      -4.808   2.780  24.129  1.00  0.00     0.158 HD
ENDBRANCH   7  11
TORSDOF 1
ENDMDL
MODEL 2
REMARK VINA RESULT:    -3.821      0.897      2.992
REMARK INTER + INTRA:          -3.932
REMARK INTER:                  -3.932
REMARK INTRA:                   0.000
REMARK UNBOUND:                 0.000
REMARK SMILES Nc1ncnc2nc[nH]c12
REMARK SMILES IDX 8 1 7 2 6 3 5 4 4 5 3 6 2 7 10 8 9 9 1 11
REMARK H PARENT 9 10 1 12 1 13
REMARK Flexibility Score: inf
ROOT
ATOM      1  C   UNL     1      -4.408   3.233  22.287  1.00  0.00     0.199 A 
ATOM      2  N   UNL     1      -4.530   3.054  20.943  1.00  0.00    -0.217 NA
ATOM      3  C   UNL     1      -5.240   4.133  20.575  1.00  0.00     0.182 A 
ATOM      4  N   UNL     1      -5.641   4.446  19.320  1.00  0.00    -0.215 NA
ATOM      5  C   UNL     1      -6.361   5.595  19.141  1.00  0.00     0.226 A 
ATOM      6  N   UNL     1      -6.663   6.402  20.208  1.00  0.00    -0.217 NA
ATOM      7  C   UNL     1      -6.258   6.087  21.475  1.00  0.00     0.152 A 
ATOM      8  C   UNL     1      -5.526   4.915  21.641  1.00  0.00     0.127 A 
ATOM      9  N   UNL     1      -5.007   4.361  22.744  1.00  0.00    -0.340 N 
ATOM     10  H   UNL     1      -5.045   4.706  23.728  1.00  0.00     0.168 HD
ENDROOT
BRANCH   7  11
ATOM     11  N   UNL     1      -6.583   6.943  22.572  1.00  0.00    -0.382 N 
ATOM     12  H   UNL     1      -5.904   7.650  22.930  1.00  0.00     0.158 HD
ATOM     13  H   UNL     1      -7.516   6.867  23.034  1.00  0.00     0.158 HD
ENDBRANCH   7  11
TORSDOF 1
ENDMDL
MODEL 3
REMARK VINA RESULT:    -3.758      1.222      3.275
REMARK INTER + INTRA:          -3.867
REMARK INTER:                  -3.867
REMARK INTRA:                   0.000
REMARK UNBOUND:                 0.000
REMARK SMILES Nc1ncnc2nc[nH]c12
REMARK SMILES IDX 8 1 7 2 6 3 5 4 4 5 3 6 2 7 10 8 9 9 1 11
REMARK H PARENT 9 10 1 12 1 13
REMARK Flexibility Score: inf
ROOT
ATOM      1  C   UNL     1      -3.077   1.826  20.076  1.00  0.00     0.199 A 
ATOM      2  N   UNL     1      -3.831   2.531  19.189  1.00  0.00    -0.217 NA
ATOM      3  C   UNL     1      -4.524   3.354  19.993  1.00  0.00     0.182 A 
ATOM      4  N   UNL     1      -5.434   4.280  19.610  1.00  0.00    -0.215 NA
ATOM      5  C   UNL     1      -6.040   5.029  20.580  1.00  0.00     0.226 A 
ATOM      6  N   UNL     1      -5.728   4.840  21.903  1.00  0.00    -0.217 NA
ATOM      7  C   UNL     1      -4.808   3.906  22.291  1.00  0.00     0.152 A 
ATOM      8  C   UNL     1      -4.200   3.152  21.291  1.00  0.00     0.127 A 
ATOM      9  N   UNL     1      -3.281   2.183  21.369  1.00  0.00    -0.340 N 
ATOM     10  H   UNL     1      -2.820   1.787  22.218  1.00  0.00     0.168 HD
ENDROOT
BRANCH   7  11
ATOM     11  N   UNL     1      -4.498   3.728  23.674  1.00  0.00    -0.382 N 
ATOM     12  H   UNL     1      -3.552   3.950  24.052  1.00  0.00     0.158 HD
ATOM     13  H   UNL     1      -5.226   3.366  24.330  1.00  0.00     0.158 HD
ENDBRANCH   7  11
TORSDOF 1
ENDMDL
MODEL 4
REMARK VINA RESULT:    -3.695     14.587     16.484
REMARK INTER + INTRA:          -3.803
REMARK INTER:                  -3.803
REMARK INTRA:                   0.000
REMARK UNBOUND:                 0.000
REMARK SMILES Nc1ncnc2nc[nH]c12
REMARK SMILES IDX 8 1 7 2 6 3 5 4 4 5 3 6 2 7 10 8 9 9 1 11
REMARK H PARENT 9 10 1 12 1 13
REMARK Flexibility Score: inf
ROOT
ATOM      1  C   UNL     1       7.125  -8.582  18.444  1.00  0.00     0.199 A 
ATOM      2  N   UNL     1       6.106  -8.746  17.557  1.00  0.00    -0.217 NA
ATOM      3  C   UNL     1       5.416  -7.602  17.700  1.00  0.00     0.182 A 
ATOM      4  N   UNL     1       4.291  -7.250  17.036  1.00  0.00    -0.215 NA
ATOM      5  C   UNL     1       3.727  -6.036  17.320  1.00  0.00     0.226 A 
ATOM      6  N   UNL     1       4.295  -5.206  18.253  1.00  0.00    -0.217 NA
ATOM      7  C   UNL     1       5.431  -5.561  18.924  1.00  0.00     0.152 A 
ATOM      8  C   UNL     1       5.992  -6.799  18.624  1.00  0.00     0.127 A 
ATOM      9  N   UNL     1       7.082  -7.403  19.113  1.00  0.00    -0.340 N 
ATOM     10  H   UNL     1       7.751  -7.057  19.836  1.00  0.00     0.168 HD
ENDROOT
BRANCH   7  11
ATOM     11  N   UNL     1       6.004  -4.681  19.892  1.00  0.00    -0.382 N 
ATOM     12  H   UNL     1       5.636  -4.630  20.867  1.00  0.00     0.158 HD
ATOM     13  H   UNL     1       6.810  -4.069  19.630  1.00  0.00     0.158 HD
ENDBRANCH   7  11
TORSDOF 1
ENDMDL
MODEL 5
REMARK VINA RESULT:    -3.665     10.327     12.194
REMARK INTER + INTRA:          -3.772
REMARK INTER:                  -3.772
REMARK INTRA:                   0.000
REMARK UNBOUND:                 0.000
REMARK SMILES Nc1ncnc2nc[nH]c12
REMARK SMILES IDX 8 1 7 2 6 3 5 4 4 5 3 6 2 7 10 8 9 9 1 11
REMARK H PARENT 9 10 1 12 1 13
REMARK Flexibility Score: inf
ROOT
ATOM      1  C   UNL     1       3.014  -5.695  24.638  1.00  0.00     0.199 A 
ATOM      2  N   UNL     1       3.007  -6.237  23.390  1.00  0.00    -0.217 NA
ATOM      3  C   UNL     1       2.331  -5.317  22.682  1.00  0.00     0.182 A 
ATOM      4  N   UNL     1       2.038  -5.368  21.362  1.00  0.00    -0.215 NA
ATOM      5  C   UNL     1       1.337  -4.330  20.816  1.00  0.00     0.226 A 
ATOM      6  N   UNL     1       0.945  -3.269  21.592  1.00  0.00    -0.217 NA
ATOM      7  C   UNL     1       1.240  -3.215  22.926  1.00  0.00     0.152 A 
ATOM      8  C   UNL     1       1.956  -4.280  23.467  1.00  0.00     0.127 A 
ATOM      9  N   UNL     1       2.379  -4.499  24.717  1.00  0.00    -0.340 N 
ATOM     10  H   UNL     1       2.257  -3.899  25.563  1.00  0.00     0.168 HD
ENDROOT
BRANCH   7  11
ATOM     11  N   UNL     1       0.823  -2.101  23.715  1.00  0.00    -0.382 N 
ATOM     12  H   UNL     1       0.465  -2.226  24.688  1.00  0.00     0.158 HD
ATOM     13  H   UNL     1       0.871  -1.134  23.322  1.00  0.00     0.158 HD
ENDBRANCH   7  11
TORSDOF 1
ENDMDL
MODEL 6
REMARK VINA RESULT:    -3.559      5.110      6.560
REMARK INTER + INTRA:          -3.663
REMARK INTER:                  -3.663
REMARK INTRA:                   0.000
REMARK UNBOUND:                 0.000
REMARK SMILES Nc1ncnc2nc[nH]c12
REMARK SMILES IDX 8 1 7 2 6 3 5 4 4 5 3 6 2 7 10 8 9 9 1 11
REMARK H PARENT 9 10 1 12 1 13
REMARK Flexibility Score: inf
ROOT
ATOM      1  C   UNL     1       2.320   3.319  19.362  1.00  0.00     0.199 A 
ATOM      2  N   UNL     1       1.318   4.187  19.055  1.00  0.00    -0.217 NA
ATOM      3  C   UNL     1       0.295   3.711  19.784  1.00  0.00     0.182 A 
ATOM      4  N   UNL     1      -0.959   4.218  19.844  1.00  0.00    -0.215 NA
ATOM      5  C   UNL     1      -1.871   3.592  20.648  1.00  0.00     0.226 A 
ATOM      6  N   UNL     1      -1.515   2.482  21.371  1.00  0.00    -0.217 NA
ATOM      7  C   UNL     1      -0.250   1.968  21.312  1.00  0.00     0.152 A 
ATOM      8  C   UNL     1       0.667   2.618  20.489  1.00  0.00     0.127 A 
ATOM      9  N   UNL     1       1.953   2.348  20.235  1.00  0.00    -0.340 N 
ATOM     10  H   UNL     1       2.546   1.576  20.614  1.00  0.00     0.168 HD
ENDROOT
BRANCH   7  11
ATOM     11  N   UNL     1       0.098   0.811  22.073  1.00  0.00    -0.382 N 
ATOM     12  H   UNL     1       0.549   0.893  23.011  1.00  0.00     0.158 HD
ATOM     13  H   UNL     1      -0.098  -0.142  21.694  1.00  0.00     0.158 HD
ENDBRANCH   7  11
TORSDOF 1
ENDMDL
MODEL 7
REMARK VINA RESULT:    -3.545      9.832     11.370
REMARK INTER + INTRA:          -3.649
REMARK INTER:                  -3.649
REMARK INTRA:                   0.000
REMARK UNBOUND:                 0.000
REMARK SMILES Nc1ncnc2nc[nH]c12
REMARK SMILES IDX 8 1 7 2 6 3 5 4 4 5 3 6 2 7 10 8 9 9 1 11
REMARK H PARENT 9 10 1 12 1 13
REMARK Flexibility Score: inf
ROOT
ATOM      1  C   UNL     1       0.208  -2.190  22.405  1.00  0.00     0.199 A 
ATOM      2  N   UNL     1       0.468  -2.816  21.226  1.00  0.00    -0.217 NA
ATOM      3  C   UNL     1       1.332  -3.776  21.596  1.00  0.00     0.182 A 
ATOM      4  N   UNL     1       1.911  -4.696  20.790  1.00  0.00    -0.215 NA
ATOM      5  C   UNL     1       2.769  -5.599  21.353  1.00  0.00     0.226 A 
ATOM      6  N   UNL     1       3.030  -5.566  22.700  1.00  0.00    -0.217 NA
ATOM      7  C   UNL     1       2.446  -4.637  23.516  1.00  0.00     0.152 A 
ATOM      8  C   UNL     1       1.574  -3.726  22.926  1.00  0.00     0.127 A 
ATOM      9  N   UNL     1       0.870  -2.722  23.463  1.00  0.00    -0.340 N 
ATOM     10  H   UNL     1       0.829  -2.413  24.460  1.00  0.00     0.168 HD
ENDROOT
BRANCH   7  11
ATOM     11  N   UNL     1       2.731  -4.621  24.915  1.00  0.00    -0.382 N 
ATOM     12  H   UNL     1       3.613  -5.031  25.294  1.00  0.00     0.158 HD
ATOM     13  H   UNL     1       2.051  -4.194  25.582  1.00  0.00     0.158 HD
ENDBRANCH   7  11
TORSDOF 1
ENDMDL
MODEL 8
REMARK VINA RESULT:    -3.515      2.865      3.631
REMARK INTER + INTRA:          -3.618
REMARK INTER:                  -3.618
REMARK INTRA:                   0.000
REMARK UNBOUND:                 0.000
REMARK SMILES Nc1ncnc2nc[nH]c12
REMARK SMILES IDX 8 1 7 2 6 3 5 4 4 5 3 6 2 7 10 8 9 9 1 11
REMARK H PARENT 9 10 1 12 1 13
REMARK Flexibility Score: inf
ROOT
ATOM      1  C   UNL     1      -4.923   4.127  21.053  1.00  0.00     0.199 A 
ATOM      2  N   UNL     1      -4.430   2.878  20.834  1.00  0.00    -0.217 NA
ATOM      3  C   UNL     1      -3.121   3.037  21.093  1.00  0.00     0.182 A 
ATOM      4  N   UNL     1      -2.163   2.085  21.024  1.00  0.00    -0.215 NA
ATOM      5  C   UNL     1      -0.877   2.440  21.326  1.00  0.00     0.226 A 
ATOM      6  N   UNL     1      -0.577   3.729  21.687  1.00  0.00    -0.217 NA
ATOM      7  C   UNL     1      -1.544   4.692  21.758  1.00  0.00     0.152 A 
ATOM      8  C   UNL     1      -2.848   4.314  21.448  1.00  0.00     0.127 A 
ATOM      9  N   UNL     1      -3.980   5.028  21.429  1.00  0.00    -0.340 N 
ATOM     10  H   UNL     1      -4.119   6.039  21.650  1.00  0.00     0.168 HD
ENDROOT
BRANCH   7  11
ATOM     11  N   UNL     1      -1.209   6.027  22.137  1.00  0.00    -0.382 N 
ATOM     12  H   UNL     1      -0.279   6.258  22.551  1.00  0.00     0.158 HD
ATOM     13  H   UNL     1      -1.901   6.798  22.002  1.00  0.00     0.158 HD
ENDBRANCH   7  11
TORSDOF 1
ENDMDL
MODEL 9
REMARK VINA RESULT:    -3.512      4.922      6.669
REMARK INTER + INTRA:          -3.615
REMARK INTER:                  -3.615
REMARK INTRA:                   0.000
REMARK UNBOUND:                 0.000
REMARK SMILES Nc1ncnc2nc[nH]c12
REMARK SMILES IDX 8 1 7 2 6 3 5 4 4 5 3 6 2 7 10 8 9 9 1 11
REMARK H PARENT 9 10 1 12 1 13
REMARK Flexibility Score: inf
ROOT
ATOM      1  C   UNL     1      -7.067   5.862  18.086  1.00  0.00     0.199 A 
ATOM      2  N   UNL     1      -5.775   6.279  17.982  1.00  0.00    -0.217 NA
ATOM      3  C   UNL     1      -5.794   6.984  16.839  1.00  0.00     0.182 A 
ATOM      4  N   UNL     1      -4.748   7.625  16.268  1.00  0.00    -0.215 NA
ATOM      5  C   UNL     1      -4.963   8.295  15.095  1.00  0.00     0.226 A 
ATOM      6  N   UNL     1      -6.209   8.311  14.521  1.00  0.00    -0.217 NA
ATOM      7  C   UNL     1      -7.267   7.664  15.096  1.00  0.00     0.152 A 
ATOM      8  C   UNL     1      -7.031   6.988  16.290  1.00  0.00     0.127 A 
ATOM      9  N   UNL     1      -7.858   6.278  17.067  1.00  0.00    -0.340 N 
ATOM     10  H   UNL     1      -8.876   6.085  16.932  1.00  0.00     0.168 HD
ENDROOT
BRANCH   7  11
ATOM     11  N   UNL     1      -8.555   7.695  14.481  1.00  0.00    -0.382 N 
ATOM     12  H   UNL     1      -8.998   8.594  14.190  1.00  0.00     0.158 HD
ATOM     13  H   UNL     1      -9.075   6.805  14.313  1.00  0.00     0.158 HD
ENDBRANCH   7  11
TORSDOF 1
ENDMDL
