MODEL 1
REMARK VINA RESULT:    -5.074      0.000      0.000
REMARK INTER + INTRA:          -7.835
REMARK INTER:                  -6.854
REMARK INTRA:                  -0.981
REMARK UNBOUND:                -0.981
REMARK SMILES CC(=O)CCC=C(C)CCC=C(C)C
REMARK SMILES IDX 7 1 6 2 8 3 9 4 10 5 11 6 13 7 12 8 14 9 5 10 4 11 2 12 3 13
REMARK SMILES IDX 1 14
REMARK H PARENT
REMARK Flexibility Score: inf
ROOT
ATOM      1  C   UNL     1     100.876 113.356 126.473  1.00  0.00    -0.077 C 
ATOM      2  C   UNL     1     101.144 114.677 126.592  1.00  0.00    -0.028 C 
ATOM      3  C   UNL     1      99.471 112.843 126.261  1.00  0.00     0.039 C 
ENDROOT
BRANCH   1   4
ATOM      4  C   UNL     1     102.018 112.367 126.532  1.00  0.00     0.034 C 
BRANCH   4   5
ATOM      5  C   UNL     1     102.767 112.317 125.196  1.00  0.00     0.032 C 
BRANCH   5   6
ATOM      6  C   UNL     1     102.124 111.327 124.258  1.00  0.00    -0.028 C 
ATOM      7  C   UNL     1     101.114 113.107 122.814  1.00  0.00     0.039 C 
ATOM      8  C   UNL     1     101.357 111.666 123.198  1.00  0.00    -0.080 C 
ATOM      9  C   UNL     1     100.747 110.563 122.371  1.00  0.00     0.039 C 
ENDBRANCH   5   6
ENDBRANCH   4   5
ENDBRANCH   1   4
BRANCH   2  10
ATOM     10  C   UNL     1     100.098 115.764 126.587  1.00  0.00     0.035 C 
BRANCH  10  11
ATOM     11  C   UNL     1     100.053 116.467 125.227  1.00  0.00     0.079 C 
BRANCH  11  12
ATOM     12  C   UNL     1     100.040 117.963 125.401  1.00  0.00     0.130 C 
ATOM     13  O   UNL     1     100.245 118.683 124.435  1.00  0.00    -0.300 OA
ATOM     14  C   UNL     1      99.786 118.592 126.739  1.00  0.00     0.087 C 
ENDBRANCH  11  12
ENDBRANCH  10  11
ENDBRANCH   2  10
TORSDOF 6
ENDMDL
MODEL 2
REMARK VINA RESULT:    -4.978      3.318      5.840
REMARK INTER + INTRA:          -7.705
REMARK INTER:                  -7.188
REMARK INTRA:                  -0.517
REMARK UNBOUND:                -0.981
REMARK SMILES CC(=O)CCC=C(C)CCC=C(C)C
REMARK SMILES IDX 7 1 6 2 8 3 9 4 10 5 11 6 13 7 12 8 14 9 5 10 4 11 2 12 3 13
REMARK SMILES IDX 1 14
REMARK H PARENT
REMARK Flexibility Score: inf
ROOT
ATOM      1  C   UNL     1     100.050 117.843 125.214  1.00  0.00    -0.077 C 
ATOM      2  C   UNL     1     100.110 116.492 125.277  1.00  0.00    -0.028 C 
ATOM      3  C   UNL     1      99.908 118.693 126.455  1.00  0.00     0.039 C 
ENDROOT
BRANCH   1   4
ATOM      4  C   UNL     1     100.150 118.521 123.867  1.00  0.00     0.034 C 
BRANCH   4   5
ATOM      5  C   UNL     1      98.873 118.298 123.048  1.00  0.00     0.032 C 
BRANCH   5   6
ATOM      6  C   UNL     1      99.178 117.553 121.773  1.00  0.00    -0.028 C 
ATOM      7  C   UNL     1      97.280 118.601 120.519  1.00  0.00     0.039 C 
ATOM      8  C   UNL     1      98.456 117.659 120.635  1.00  0.00    -0.080 C 
ATOM      9  C   UNL     1      98.858 116.821 119.449  1.00  0.00     0.039 C 
ENDBRANCH   5   6
ENDBRANCH   4   5
ENDBRANCH   1   4
BRANCH   2  10
ATOM     10  C   UNL     1      99.988 115.690 126.548  1.00  0.00     0.035 C 
BRANCH  10  11
ATOM     11  C   UNL     1     101.329 115.049 126.917  1.00  0.00     0.079 C 
BRANCH  11  12
ATOM     12  C   UNL     1     101.299 113.565 126.656  1.00  0.00     0.130 C 
ATOM     13  O   UNL     1     102.344 112.933 126.666  1.00  0.00    -0.300 OA
ATOM     14  C   UNL     1     100.012 112.847 126.375  1.00  0.00     0.087 C 
ENDBRANCH  11  12
ENDBRANCH  10  11
ENDBRANCH   2  10
TORSDOF 6
ENDMDL
MODEL 3
REMARK VINA RESULT:    -4.953      1.411      2.001
REMARK INTER + INTRA:          -7.671
REMARK INTER:                  -6.628
REMARK INTRA:                  -1.043
REMARK UNBOUND:                -0.981
REMARK SMILES CC(=O)CCC=C(C)CCC=C(C)C
REMARK SMILES IDX 7 1 6 2 8 3 9 4 10 5 11 6 13 7 12 8 14 9 5 10 4 11 2 12 3 13
REMARK SMILES IDX 1 14
REMARK H PARENT
REMARK Flexibility Score: inf
ROOT
ATOM      1  C   UNL     1     100.948 114.766 126.742  1.00  0.00    -0.077 C 
ATOM      2  C   UNL     1      99.972 115.685 126.555  1.00  0.00    -0.028 C 
ATOM      3  C   UNL     1     102.397 115.163 126.901  1.00  0.00     0.039 C 
ENDROOT
BRANCH   1   4
ATOM      4  C   UNL     1     100.575 113.303 126.816  1.00  0.00     0.034 C 
BRANCH   4   5
ATOM      5  C   UNL     1     100.019 112.814 125.474  1.00  0.00     0.032 C 
BRANCH   5   6
ATOM      6  C   UNL     1     101.137 112.405 124.548  1.00  0.00    -0.028 C 
ATOM      7  C   UNL     1     100.927 114.458 123.129  1.00  0.00     0.039 C 
ATOM      8  C   UNL     1     101.540 113.120 123.475  1.00  0.00    -0.080 C 
ATOM      9  C   UNL     1     102.647 112.565 122.616  1.00  0.00     0.039 C 
ENDBRANCH   5   6
ENDBRANCH   4   5
ENDBRANCH   1   4
BRANCH   2  10
ATOM     10  C   UNL     1     100.210 117.169 126.428  1.00  0.00     0.035 C 
BRANCH  10  11
ATOM     11  C   UNL     1     100.020 117.627 124.979  1.00  0.00     0.079 C 
BRANCH  11  12
ATOM     12  C   UNL     1      99.324 118.962 124.930  1.00  0.00     0.130 C 
ATOM     13  O   UNL     1      98.360 119.111 124.195  1.00  0.00    -0.300 OA
ATOM     14  C   UNL     1      99.795 120.119 125.761  1.00  0.00     0.087 C 
ENDBRANCH  11  12
ENDBRANCH  10  11
ENDBRANCH   2  10
TORSDOF 6
ENDMDL
MODEL 4
REMARK VINA RESULT:    -4.932      2.356      5.073
REMARK INTER + INTRA:          -7.643
REMARK INTER:                  -6.458
REMARK INTRA:                  -1.185
REMARK UNBOUND:                -0.981
REMARK SMILES CC(=O)CCC=C(C)CCC=C(C)C
REMARK SMILES IDX 7 1 6 2 8 3 9 4 10 5 11 6 13 7 12 8 14 9 5 10 4 11 2 12 3 13
REMARK SMILES IDX 1 14
REMARK H PARENT
REMARK Flexibility Score: inf
ROOT
ATOM      1  C   UNL     1     100.486 115.382 126.474  1.00  0.00    -0.077 C 
ATOM      2  C   UNL     1      99.744 114.319 126.086  1.00  0.00    -0.028 C 
ATOM      3  C   UNL     1     101.930 115.236 126.892  1.00  0.00     0.039 C 
ENDROOT
BRANCH   1   4
ATOM      4  C   UNL     1      99.857 116.757 126.471  1.00  0.00     0.034 C 
BRANCH   4   5
ATOM      5  C   UNL     1     100.361 117.585 125.284  1.00  0.00     0.032 C 
BRANCH   5   6
ATOM      6  C   UNL     1      99.509 117.344 124.063  1.00  0.00    -0.028 C 
ATOM      7  C   UNL     1     101.220 115.884 122.961  1.00  0.00     0.039 C 
ATOM      8  C   UNL     1      99.891 116.603 123.000  1.00  0.00    -0.080 C 
ATOM      9  C   UNL     1      98.947 116.484 121.831  1.00  0.00     0.039 C 
ENDBRANCH   5   6
ENDBRANCH   4   5
ENDBRANCH   1   4
BRANCH   2  10
ATOM     10  C   UNL     1     100.236 112.893 126.076  1.00  0.00     0.035 C 
BRANCH  10  11
ATOM     11  C   UNL     1     100.845 112.537 124.717  1.00  0.00     0.079 C 
BRANCH  11  12
ATOM     12  C   UNL     1     102.328 112.306 124.842  1.00  0.00     0.130 C 
ATOM     13  O   UNL     1     103.104 113.045 124.254  1.00  0.00    -0.300 OA
ATOM     14  C   UNL     1     102.877 111.182 125.671  1.00  0.00     0.087 C 
ENDBRANCH  11  12
ENDBRANCH  10  11
ENDBRANCH   2  10
TORSDOF 6
ENDMDL
MODEL 5
REMARK VINA RESULT:    -4.920      2.702      5.201
REMARK INTER + INTRA:          -7.626
REMARK INTER:                  -6.331
REMARK INTRA:                  -1.295
REMARK UNBOUND:                -0.981
REMARK SMILES CC(=O)CCC=C(C)CCC=C(C)C
REMARK SMILES IDX 7 1 6 2 8 3 9 4 10 5 11 6 13 7 12 8 14 9 5 10 4 11 2 12 3 13
REMARK SMILES IDX 1 14
REMARK H PARENT
REMARK Flexibility Score: inf
ROOT
ATOM      1  C   UNL     1     100.555 113.811 126.516  1.00  0.00    -0.077 C 
ATOM      2  C   UNL     1     101.871 113.498 126.541  1.00  0.00    -0.028 C 
ATOM      3  C   UNL     1      99.499 112.789 126.166  1.00  0.00     0.039 C 
ENDROOT
BRANCH   1   4
ATOM      4  C   UNL     1     100.127 115.218 126.869  1.00  0.00     0.034 C 
BRANCH   4   5
ATOM      5  C   UNL     1     100.811 116.241 125.955  1.00  0.00     0.032 C 
BRANCH   5   6
ATOM      6  C   UNL     1      99.935 116.574 124.774  1.00  0.00    -0.028 C 
ATOM      7  C   UNL     1     101.311 115.231 123.170  1.00  0.00     0.039 C 
ATOM      8  C   UNL     1     100.161 116.149 123.512  1.00  0.00    -0.080 C 
ATOM      9  C   UNL     1      99.218 116.597 122.424  1.00  0.00     0.039 C 
ENDBRANCH   5   6
ENDBRANCH   4   5
ENDBRANCH   1   4
BRANCH   2  10
ATOM     10  C   UNL     1     102.434 112.147 126.178  1.00  0.00     0.035 C 
BRANCH  10  11
ATOM     11  C   UNL     1     102.934 112.138 124.730  1.00  0.00     0.079 C 
BRANCH  11  12
ATOM     12  C   UNL     1     102.191 111.112 123.916  1.00  0.00     0.130 C 
ATOM     13  O   UNL     1     102.538 109.942 123.962  1.00  0.00    -0.300 OA
ATOM     14  C   UNL     1     101.034 111.497 123.041  1.00  0.00     0.087 C 
ENDBRANCH  11  12
ENDBRANCH  10  11
ENDBRANCH   2  10
TORSDOF 6
ENDMDL
MODEL 6
REMARK VINA RESULT:    -4.896      2.634      4.705
REMARK INTER + INTRA:          -7.594
REMARK INTER:                  -6.789
REMARK INTRA:                  -0.804
REMARK UNBOUND:                -0.981
REMARK SMILES CC(=O)CCC=C(C)CCC=C(C)C
REMARK SMILES IDX 7 1 6 2 8 3 9 4 10 5 11 6 13 7 12 8 14 9 5 10 4 11 2 12 3 13
REMARK SMILES IDX 1 14
REMARK H PARENT
REMARK Flexibility Score: inf
ROOT
ATOM      1  C   UNL     1      99.965 117.430 124.762  1.00  0.00    -0.077 C 
ATOM      2  C   UNL     1      99.612 116.430 123.921  1.00  0.00    -0.028 C 
ATOM      3  C   UNL     1      99.778 118.883 124.395  1.00  0.00     0.039 C 
ENDROOT
BRANCH   1   4
ATOM      4  C   UNL     1     100.545 117.082 126.114  1.00  0.00     0.034 C 
BRANCH   4   5
ATOM      5  C   UNL     1      99.952 115.770 126.641  1.00  0.00     0.032 C 
BRANCH   5   6
ATOM      6  C   UNL     1     101.036 114.748 126.874  1.00  0.00    -0.028 C 
ATOM      7  C   UNL     1      99.713 112.878 125.863  1.00  0.00     0.039 C 
ATOM      8  C   UNL     1     100.934 113.440 126.554  1.00  0.00    -0.080 C 
ATOM      9  C   UNL     1     102.087 112.527 126.884  1.00  0.00     0.039 C 
ENDBRANCH   5   6
ENDBRANCH   4   5
ENDBRANCH   1   4
BRANCH   2  10
ATOM     10  C   UNL     1      99.058 116.637 122.533  1.00  0.00     0.035 C 
BRANCH  10  11
ATOM     11  C   UNL     1     100.071 116.197 121.473  1.00  0.00     0.079 C 
BRANCH  11  12
ATOM     12  C   UNL     1     100.470 117.361 120.603  1.00  0.00     0.130 C 
ATOM     13  O   UNL     1      99.734 117.712 119.695  1.00  0.00    -0.300 OA
ATOM     14  C   UNL     1     101.760 118.095 120.823  1.00  0.00     0.087 C 
ENDBRANCH  11  12
ENDBRANCH  10  11
ENDBRANCH   2  10
TORSDOF 6
ENDMDL
MODEL 7
REMARK VINA RESULT:    -4.843      2.388      6.138
REMARK INTER + INTRA:          -7.522
REMARK INTER:                  -6.824
REMARK INTRA:                  -0.698
REMARK UNBOUND:                -0.981
REMARK SMILES CC(=O)CCC=C(C)CCC=C(C)C
REMARK SMILES IDX 7 1 6 2 8 3 9 4 10 5 11 6 13 7 12 8 14 9 5 10 4 11 2 12 3 13
REMARK SMILES IDX 1 14
REMARK H PARENT
REMARK Flexibility Score: inf
ROOT
ATOM      1  C   UNL     1     100.664 115.609 126.298  1.00  0.00    -0.077 C 
ATOM      2  C   UNL     1      99.826 114.642 125.856  1.00  0.00    -0.028 C 
ATOM      3  C   UNL     1     101.965 115.281 126.993  1.00  0.00     0.039 C 
ENDROOT
BRANCH   1   4
ATOM      4  C   UNL     1     100.297 117.059 126.072  1.00  0.00     0.034 C 
BRANCH   4   5
ATOM      5  C   UNL     1     100.152 117.358 124.576  1.00  0.00     0.032 C 
BRANCH   5   6
ATOM      6  C   UNL     1      99.048 118.356 124.334  1.00  0.00    -0.028 C 
ATOM      7  C   UNL     1     100.631 120.266 123.994  1.00  0.00     0.039 C 
ATOM      8  C   UNL     1      99.246 119.671 124.096  1.00  0.00    -0.080 C 
ATOM      9  C   UNL     1      98.040 120.557 123.912  1.00  0.00     0.039 C 
ENDBRANCH   5   6
ENDBRANCH   4   5
ENDBRANCH   1   4
BRANCH   2  10
ATOM     10  C   UNL     1     100.054 113.164 126.047  1.00  0.00     0.035 C 
BRANCH  10  11
ATOM     11  C   UNL     1     100.637 112.535 124.778  1.00  0.00     0.079 C 
BRANCH  11  12
ATOM     12  C   UNL     1     102.127 112.356 124.909  1.00  0.00     0.130 C 
ATOM     13  O   UNL     1     102.871 112.922 124.123  1.00  0.00    -0.300 OA
ATOM     14  C   UNL     1     102.718 111.490 125.981  1.00  0.00     0.087 C 
ENDBRANCH  11  12
ENDBRANCH  10  11
ENDBRANCH   2  10
TORSDOF 6
ENDMDL
MODEL 8
REMARK VINA RESULT:    -4.789      3.211      6.553
REMARK INTER + INTRA:          -7.450
REMARK INTER:                  -6.949
REMARK INTRA:                  -0.502
REMARK UNBOUND:                -0.981
REMARK SMILES CC(=O)CCC=C(C)CCC=C(C)C
REMARK SMILES IDX 7 1 6 2 8 3 9 4 10 5 11 6 13 7 12 8 14 9 5 10 4 11 2 12 3 13
REMARK SMILES IDX 1 14
REMARK H PARENT
REMARK Flexibility Score: inf
ROOT
ATOM      1  C   UNL     1     101.212 113.682 126.332  1.00  0.00    -0.077 C 
ATOM      2  C   UNL     1     102.333 113.132 125.812  1.00  0.00    -0.028 C 
ATOM      3  C   UNL     1      99.918 112.909 126.436  1.00  0.00     0.039 C 
ENDROOT
BRANCH   1   4
ATOM      4  C   UNL     1     101.261 115.104 126.844  1.00  0.00     0.034 C 
BRANCH   4   5
ATOM      5  C   UNL     1      99.967 115.852 126.503  1.00  0.00     0.032 C 
BRANCH   5   6
ATOM      6  C   UNL     1     100.151 116.706 125.273  1.00  0.00    -0.028 C 
ATOM      7  C   UNL     1      99.873 118.855 126.530  1.00  0.00     0.039 C 
ATOM      8  C   UNL     1     100.086 118.056 125.265  1.00  0.00    -0.080 C 
ATOM      9  C   UNL     1     100.250 118.774 123.950  1.00  0.00     0.039 C 
ENDBRANCH   5   6
ENDBRANCH   4   5
ENDBRANCH   1   4
BRANCH   2  10
ATOM     10  C   UNL     1     102.413 111.741 125.235  1.00  0.00     0.035 C 
BRANCH  10  11
ATOM     11  C   UNL     1     103.250 110.827 126.135  1.00  0.00     0.079 C 
BRANCH  11  12
ATOM     12  C   UNL     1     103.972 109.789 125.316  1.00  0.00     0.130 C 
ATOM     13  O   UNL     1     103.617 108.622 125.377  1.00  0.00    -0.300 OA
ATOM     14  C   UNL     1     105.125 110.157 124.429  1.00  0.00     0.087 C 
ENDBRANCH  11  12
ENDBRANCH  10  11
ENDBRANCH   2  10
TORSDOF 6
ENDMDL
MODEL 9
REMARK VINA RESULT:    -4.752      3.536      6.698
REMARK INTER + INTRA:          -7.400
REMARK INTER:                  -6.582
REMARK INTRA:                  -0.818
REMARK UNBOUND:                -0.981
REMARK SMILES CC(=O)CCC=C(C)CCC=C(C)C
REMARK SMILES IDX 7 1 6 2 8 3 9 4 10 5 11 6 13 7 12 8 14 9 5 10 4 11 2 12 3 13
REMARK SMILES IDX 1 14
REMARK H PARENT
REMARK Flexibility Score: inf
ROOT
ATOM      1  C   UNL     1     101.843 112.147 125.707  1.00  0.00    -0.077 C 
ATOM      2  C   UNL     1     102.884 111.380 126.107  1.00  0.00    -0.028 C 
ATOM      3  C   UNL     1     101.462 112.278 124.250  1.00  0.00     0.039 C 
ENDROOT
BRANCH   1   4
ATOM      4  C   UNL     1     101.025 112.877 126.748  1.00  0.00     0.034 C 
BRANCH   4   5
ATOM      5  C   UNL     1      99.884 113.663 126.094  1.00  0.00     0.032 C 
BRANCH   5   6
ATOM      6  C   UNL     1      99.931 115.114 126.500  1.00  0.00    -0.028 C 
ATOM      7  C   UNL     1     100.497 115.908 124.193  1.00  0.00     0.039 C 
ATOM      8  C   UNL     1     100.231 116.132 125.663  1.00  0.00    -0.080 C 
ATOM      9  C   UNL     1     100.278 117.531 126.222  1.00  0.00     0.039 C 
ENDBRANCH   5   6
ENDBRANCH   4   5
ENDBRANCH   1   4
BRANCH   2  10
ATOM     10  C   UNL     1     103.800 110.630 125.172  1.00  0.00     0.035 C 
BRANCH  10  11
ATOM     11  C   UNL     1     103.635 109.118 125.347  1.00  0.00     0.079 C 
BRANCH  11  12
ATOM     12  C   UNL     1     103.380 108.453 124.020  1.00  0.00     0.130 C 
ATOM     13  O   UNL     1     104.155 107.599 123.617  1.00  0.00    -0.300 OA
ATOM     14  C   UNL     1     102.196 108.821 123.176  1.00  0.00     0.087 C 
ENDBRANCH  11  12
ENDBRANCH  10  11
ENDBRANCH   2  10
TORSDOF 6
ENDMDL
