MODEL 1
REMARK VINA RESULT:    -4.089      0.000      0.000
REMARK INTER + INTRA:          -5.766
REMARK INTER:                  -5.523
REMARK INTRA:                  -0.243
REMARK UNBOUND:                -0.243
REMARK SMILES CCCCCCCC(=O)[O-]
REMARK SMILES IDX 5 1 6 2 7 3 8 4 9 5 10 6 4 7 3 8 2 9 1 10
REMARK H PARENT
REMARK Flexibility Score: inf
ROOT
ATOM      1  C   UNL     1      35.985 105.626 263.656  1.00  0.00     0.000 C 
ENDROOT
BRANCH   1   2
ATOM      2  C   UNL     1      36.267 106.836 262.749  1.00  0.00     0.006 C 
BRANCH   2   3
ATOM      3  C   UNL     1      37.678 106.789 262.145  1.00  0.00     0.053 C 
BRANCH   3   4
ATOM      4  C   UNL     1      37.648 106.449 260.687  1.00  0.00     0.041 C 
ATOM      5  O   UNL     1      36.744 106.915 259.945  1.00  0.00    -0.550 OA
ATOM      6  O   UNL     1      38.603 105.593 260.153  1.00  0.00    -0.550 OA
ENDBRANCH   3   4
ENDBRANCH   2   3
ENDBRANCH   1   2
BRANCH   1   7
ATOM      7  C   UNL     1      34.875 105.903 264.685  1.00  0.00     0.000 C 
BRANCH   7   8
ATOM      8  C   UNL     1      35.184 105.298 266.065  1.00  0.00    -0.000 C 
BRANCH   8   9
ATOM      9  C   UNL     1      34.926 106.289 267.211  1.00  0.00    -0.003 C 
ATOM     10  C   UNL     1      35.200 107.740 266.814  1.00  0.00     0.004 C 
ENDBRANCH   8   9
ENDBRANCH   7   8
ENDBRANCH   1   7
TORSDOF 6
ENDMDL
MODEL 2
REMARK VINA RESULT:    -4.056      0.847      1.411
REMARK INTER + INTRA:          -5.722
REMARK INTER:                  -5.500
REMARK INTRA:                  -0.222
REMARK UNBOUND:                -0.243
REMARK SMILES CCCCCCCC(=O)[O-]
REMARK SMILES IDX 5 1 6 2 7 3 8 4 9 5 10 6 4 7 3 8 2 9 1 10
REMARK H PARENT
REMARK Flexibility Score: inf
ROOT
ATOM      1  C   UNL     1      35.555 106.760 263.467  1.00  0.00     0.000 C 
ENDROOT
BRANCH   1   2
ATOM      2  C   UNL     1      36.851 106.591 262.656  1.00  0.00     0.006 C 
BRANCH   2   3
ATOM      3  C   UNL     1      36.627 105.785 261.368  1.00  0.00     0.053 C 
BRANCH   3   4
ATOM      4  C   UNL     1      37.332 106.399 260.199  1.00  0.00     0.041 C 
ATOM      5  O   UNL     1      38.549 106.152 259.989  1.00  0.00    -0.550 OA
ATOM      6  O   UNL     1      36.652 107.269 259.355  1.00  0.00    -0.550 OA
ENDBRANCH   3   4
ENDBRANCH   2   3
ENDBRANCH   1   2
BRANCH   1   7
ATOM      7  C   UNL     1      35.060 105.437 264.075  1.00  0.00     0.000 C 
BRANCH   7   8
ATOM      8  C   UNL     1      35.102 105.442 265.613  1.00  0.00    -0.000 C 
BRANCH   8   9
ATOM      9  C   UNL     1      35.175 106.862 266.194  1.00  0.00    -0.003 C 
ATOM     10  C   UNL     1      34.896 106.903 267.698  1.00  0.00     0.004 C 
ENDBRANCH   8   9
ENDBRANCH   7   8
ENDBRANCH   1   7
TORSDOF 6
ENDMDL
MODEL 3
REMARK VINA RESULT:    -4.055      2.777      5.548
REMARK INTER + INTRA:          -5.721
REMARK INTER:                  -5.457
REMARK INTRA:                  -0.265
REMARK UNBOUND:                -0.243
REMARK SMILES CCCCCCCC(=O)[O-]
REMARK SMILES IDX 5 1 6 2 7 3 8 4 9 5 10 6 4 7 3 8 2 9 1 10
REMARK H PARENT
REMARK Flexibility Score: inf
ROOT
ATOM      1  C   UNL     1      38.082 106.808 262.084  1.00  0.00     0.000 C 
ENDROOT
BRANCH   1   2
ATOM      2  C   UNL     1      37.308 106.877 263.411  1.00  0.00     0.006 C 
BRANCH   2   3
ATOM      3  C   UNL     1      35.803 106.642 263.216  1.00  0.00     0.053 C 
BRANCH   3   4
ATOM      4  C   UNL     1      35.371 105.320 263.772  1.00  0.00     0.041 C 
ATOM      5  O   UNL     1      34.972 104.407 263.003  1.00  0.00    -0.550 OA
ATOM      6  O   UNL     1      35.381 105.107 265.145  1.00  0.00    -0.550 OA
ENDBRANCH   3   4
ENDBRANCH   2   3
ENDBRANCH   1   2
BRANCH   1   7
ATOM      7  C   UNL     1      37.161 106.584 260.873  1.00  0.00     0.000 C 
BRANCH   7   8
ATOM      8  C   UNL     1      37.818 105.717 259.784  1.00  0.00    -0.000 C 
BRANCH   8   9
ATOM      9  C   UNL     1      37.297 106.048 258.376  1.00  0.00    -0.003 C 
ATOM     10  C   UNL     1      36.213 107.128 258.384  1.00  0.00     0.004 C 
ENDBRANCH   8   9
ENDBRANCH   7   8
ENDBRANCH   1   7
TORSDOF 6
ENDMDL
MODEL 4
REMARK VINA RESULT:    -4.036      1.099      1.866
REMARK INTER + INTRA:          -5.696
REMARK INTER:                  -5.475
REMARK INTRA:                  -0.221
REMARK UNBOUND:                -0.243
REMARK SMILES CCCCCCCC(=O)[O-]
REMARK SMILES IDX 5 1 6 2 7 3 8 4 9 5 10 6 4 7 3 8 2 9 1 10
REMARK H PARENT
REMARK Flexibility Score: inf
ROOT
ATOM      1  C   UNL     1      37.022 106.484 263.148  1.00  0.00     0.000 C 
ENDROOT
BRANCH   1   2
ATOM      2  C   UNL     1      37.385 106.872 261.704  1.00  0.00     0.006 C 
BRANCH   2   3
ATOM      3  C   UNL     1      36.808 105.886 260.678  1.00  0.00     0.053 C 
BRANCH   3   4
ATOM      4  C   UNL     1      36.984 106.378 259.275  1.00  0.00     0.041 C 
ATOM      5  O   UNL     1      37.755 105.775 258.482  1.00  0.00    -0.550 OA
ATOM      6  O   UNL     1      36.319 107.521 258.850  1.00  0.00    -0.550 OA
ENDBRANCH   3   4
ENDBRANCH   2   3
ENDBRANCH   1   2
BRANCH   1   7
ATOM      7  C   UNL     1      35.549 106.770 263.485  1.00  0.00     0.000 C 
BRANCH   7   8
ATOM      8  C   UNL     1      34.888 105.621 264.266  1.00  0.00    -0.000 C 
BRANCH   8   9
ATOM      9  C   UNL     1      35.159 105.705 265.776  1.00  0.00    -0.003 C 
ATOM     10  C   UNL     1      35.135 107.140 266.304  1.00  0.00     0.004 C 
ENDBRANCH   8   9
ENDBRANCH   7   8
ENDBRANCH   1   7
TORSDOF 6
ENDMDL
MODEL 5
REMARK VINA RESULT:    -4.030      3.350      5.934
REMARK INTER + INTRA:          -5.688
REMARK INTER:                  -5.524
REMARK INTRA:                  -0.164
REMARK UNBOUND:                -0.243
REMARK SMILES CCCCCCCC(=O)[O-]
REMARK SMILES IDX 5 1 6 2 7 3 8 4 9 5 10 6 4 7 3 8 2 9 1 10
REMARK H PARENT
REMARK Flexibility Score: inf
ROOT
ATOM      1  C   UNL     1      36.716 106.489 263.260  1.00  0.00     0.000 C 
ENDROOT
BRANCH   1   2
ATOM      2  C   UNL     1      35.278 106.516 263.803  1.00  0.00     0.006 C 
BRANCH   2   3
ATOM      3  C   UNL     1      35.107 105.617 265.035  1.00  0.00     0.053 C 
BRANCH   3   4
ATOM      4  C   UNL     1      35.218 106.394 266.311  1.00  0.00     0.041 C 
ATOM      5  O   UNL     1      35.254 105.796 267.418  1.00  0.00    -0.550 OA
ATOM      6  O   UNL     1      35.251 107.783 266.278  1.00  0.00    -0.550 OA
ENDBRANCH   3   4
ENDBRANCH   2   3
ENDBRANCH   1   2
BRANCH   1   7
ATOM      7  C   UNL     1      36.773 106.579 261.726  1.00  0.00     0.000 C 
BRANCH   7   8
ATOM      8  C   UNL     1      38.208 106.483 261.180  1.00  0.00    -0.000 C 
BRANCH   8   9
ATOM      9  C   UNL     1      38.271 105.791 259.810  1.00  0.00    -0.003 C 
ATOM     10  C   UNL     1      37.064 106.115 258.927  1.00  0.00     0.004 C 
ENDBRANCH   8   9
ENDBRANCH   7   8
ENDBRANCH   1   7
TORSDOF 6
ENDMDL
MODEL 6
REMARK VINA RESULT:    -4.024      1.338      2.026
REMARK INTER + INTRA:          -5.680
REMARK INTER:                  -5.432
REMARK INTRA:                  -0.248
REMARK UNBOUND:                -0.243
REMARK SMILES CCCCCCCC(=O)[O-]
REMARK SMILES IDX 5 1 6 2 7 3 8 4 9 5 10 6 4 7 3 8 2 9 1 10
REMARK H PARENT
REMARK Flexibility Score: inf
ROOT
ATOM      1  C   UNL     1      35.172 105.959 265.358  1.00  0.00     0.000 C 
ENDROOT
BRANCH   1   2
ATOM      2  C   UNL     1      35.901 105.562 264.064  1.00  0.00     0.006 C 
BRANCH   2   3
ATOM      3  C   UNL     1      35.938 106.710 263.045  1.00  0.00     0.053 C 
BRANCH   3   4
ATOM      4  C   UNL     1      36.984 106.489 261.996  1.00  0.00     0.041 C 
ATOM      5  O   UNL     1      36.713 105.830 260.958  1.00  0.00    -0.550 OA
ATOM      6  O   UNL     1      38.268 106.987 262.179  1.00  0.00    -0.550 OA
ENDBRANCH   3   4
ENDBRANCH   2   3
ENDBRANCH   1   2
BRANCH   1   7
ATOM      7  C   UNL     1      35.228 107.472 265.629  1.00  0.00     0.000 C 
BRANCH   7   8
ATOM      8  C   UNL     1      35.052 107.813 267.119  1.00  0.00    -0.000 C 
BRANCH   8   9
ATOM      9  C   UNL     1      35.057 106.562 268.012  1.00  0.00    -0.003 C 
ATOM     10  C   UNL     1      35.366 106.880 269.476  1.00  0.00     0.004 C 
ENDBRANCH   8   9
ENDBRANCH   7   8
ENDBRANCH   1   7
TORSDOF 6
ENDMDL
MODEL 7
REMARK VINA RESULT:    -3.959      3.802      5.632
REMARK INTER + INTRA:          -5.591
REMARK INTER:                  -5.325
REMARK INTRA:                  -0.266
REMARK UNBOUND:                -0.243
REMARK SMILES CCCCCCCC(=O)[O-]
REMARK SMILES IDX 5 1 6 2 7 3 8 4 9 5 10 6 4 7 3 8 2 9 1 10
REMARK H PARENT
REMARK Flexibility Score: inf
ROOT
ATOM      1  C   UNL     1      35.726 105.371 263.931  1.00  0.00     0.000 C 
ENDROOT
BRANCH   1   2
ATOM      2  C   UNL     1      34.958 105.687 265.226  1.00  0.00     0.006 C 
BRANCH   2   3
ATOM      3  C   UNL     1      35.209 107.121 265.713  1.00  0.00     0.053 C 
BRANCH   3   4
ATOM      4  C   UNL     1      35.072 107.235 267.200  1.00  0.00     0.041 C 
ATOM      5  O   UNL     1      34.875 108.358 267.735  1.00  0.00    -0.550 OA
ATOM      6  O   UNL     1      35.191 106.104 267.998  1.00  0.00    -0.550 OA
ENDBRANCH   3   4
ENDBRANCH   2   3
ENDBRANCH   1   2
BRANCH   1   7
ATOM      7  C   UNL     1      36.304 106.631 263.264  1.00  0.00     0.000 C 
BRANCH   7   8
ATOM      8  C   UNL     1      36.709 106.391 261.800  1.00  0.00    -0.000 C 
BRANCH   8   9
ATOM      9  C   UNL     1      38.201 106.664 261.551  1.00  0.00    -0.003 C 
ATOM     10  C   UNL     1      38.908 107.254 262.772  1.00  0.00     0.004 C 
ENDBRANCH   8   9
ENDBRANCH   7   8
ENDBRANCH   1   7
TORSDOF 6
ENDMDL
MODEL 8
REMARK VINA RESULT:    -3.043      4.311      6.274
REMARK INTER + INTRA:          -4.354
REMARK INTER:                  -4.196
REMARK INTRA:                  -0.158
REMARK UNBOUND:                -0.243
REMARK SMILES CCCCCCCC(=O)[O-]
REMARK SMILES IDX 5 1 6 2 7 3 8 4 9 5 10 6 4 7 3 8 2 9 1 10
REMARK H PARENT
REMARK Flexibility Score: inf
ROOT
ATOM      1  C   UNL     1      34.875 105.021 265.724  1.00  0.00     0.000 C 
ENDROOT
BRANCH   1   2
ATOM      2  C   UNL     1      34.901 106.318 266.549  1.00  0.00     0.006 C 
BRANCH   2   3
ATOM      3  C   UNL     1      34.990 106.043 268.057  1.00  0.00     0.053 C 
BRANCH   3   4
ATOM      4  C   UNL     1      35.252 107.294 268.836  1.00  0.00     0.041 C 
ATOM      5  O   UNL     1      35.431 107.241 270.082  1.00  0.00    -0.550 OA
ATOM      6  O   UNL     1      35.270 108.524 268.191  1.00  0.00    -0.550 OA
ENDBRANCH   3   4
ENDBRANCH   2   3
ENDBRANCH   1   2
BRANCH   1   7
ATOM      7  C   UNL     1      36.039 104.932 264.722  1.00  0.00     0.000 C 
BRANCH   7   8
ATOM      8  C   UNL     1      35.645 105.409 263.314  1.00  0.00    -0.000 C 
BRANCH   8   9
ATOM      9  C   UNL     1      36.545 106.546 262.806  1.00  0.00    -0.003 C 
ATOM     10  C   UNL     1      36.764 106.498 261.292  1.00  0.00     0.004 C 
ENDBRANCH   8   9
ENDBRANCH   7   8
ENDBRANCH   1   7
TORSDOF 6
ENDMDL
MODEL 9
REMARK VINA RESULT:    -3.007      2.183      3.368
REMARK INTER + INTRA:          -4.305
REMARK INTER:                  -4.401
REMARK INTRA:                   0.096
REMARK UNBOUND:                -0.243
REMARK SMILES CCCCCCCC(=O)[O-]
REMARK SMILES IDX 5 1 6 2 7 3 8 4 9 5 10 6 4 7 3 8 2 9 1 10
REMARK H PARENT
REMARK Flexibility Score: inf
ROOT
ATOM      1  C   UNL     1      35.714 108.265 266.293  1.00  0.00     0.000 C 
ENDROOT
BRANCH   1   2
ATOM      2  C   UNL     1      34.939 107.808 265.046  1.00  0.00     0.006 C 
BRANCH   2   3
ATOM      3  C   UNL     1      35.013 106.288 264.844  1.00  0.00     0.053 C 
BRANCH   3   4
ATOM      4  C   UNL     1      35.629 105.931 263.526  1.00  0.00     0.041 C 
ATOM      5  O   UNL     1      35.467 104.780 263.040  1.00  0.00    -0.550 OA
ATOM      6  O   UNL     1      36.407 106.861 262.848  1.00  0.00    -0.550 OA
ENDBRANCH   3   4
ENDBRANCH   2   3
ENDBRANCH   1   2
BRANCH   1   7
ATOM      7  C   UNL     1      34.934 108.023 267.597  1.00  0.00     0.000 C 
BRANCH   7   8
ATOM      8  C   UNL     1      34.875 106.534 267.982  1.00  0.00    -0.000 C 
BRANCH   8   9
ATOM      9  C   UNL     1      35.330 106.284 269.428  1.00  0.00    -0.003 C 
ATOM     10  C   UNL     1      35.614 107.578 270.193  1.00  0.00     0.004 C 
ENDBRANCH   8   9
ENDBRANCH   7   8
ENDBRANCH   1   7
TORSDOF 6
ENDMDL
