MODEL 1
REMARK VINA RESULT:    -2.959      0.000      0.000
REMARK INTER + INTRA:          -3.328
REMARK INTER:                  -3.305
REMARK INTRA:                  -0.023
REMARK UNBOUND:                -0.023
REMARK SMILES CCCC(=O)[O-]
REMARK SMILES IDX 3 1 4 2 5 3 6 4 2 5 1 6
REMARK H PARENT
REMARK Flexibility Score: inf
ROOT
ATOM      1  C   UNL     1     -36.424 -22.608  34.398  1.00  0.00     0.052 C 
ENDROOT
BRANCH   1   2
ATOM      2  C   UNL     1     -36.362 -22.364  35.875  1.00  0.00     0.041 C 
ATOM      3  O   UNL     1     -35.446 -22.884  36.565  1.00  0.00    -0.550 OA
ATOM      4  O   UNL     1     -37.336 -21.591  36.495  1.00  0.00    -0.550 OA
ENDBRANCH   1   2
BRANCH   1   5
ATOM      5  C   UNL     1     -35.901 -24.002  34.029  1.00  0.00     0.003 C 
ATOM      6  C   UNL     1     -37.003 -24.913  33.489  1.00  0.00     0.004 C 
ENDBRANCH   1   5
TORSDOF 2
ENDMDL
MODEL 2
REMARK VINA RESULT:    -2.663      2.368      3.245
REMARK INTER + INTRA:          -2.997
REMARK INTER:                  -2.987
REMARK INTRA:                  -0.010
REMARK UNBOUND:                -0.023
REMARK SMILES CCCC(=O)[O-]
REMARK SMILES IDX 3 1 4 2 5 3 6 4 2 5 1 6
REMARK H PARENT
REMARK Flexibility Score: inf
ROOT
ATOM      1  C   UNL     1     -36.473 -22.795  34.421  1.00  0.00     0.052 C 
ENDROOT
BRANCH   1   2
ATOM      2  C   UNL     1     -36.327 -24.169  33.841  1.00  0.00     0.041 C 
ATOM      3  O   UNL     1     -35.191 -24.597  33.506  1.00  0.00    -0.550 OA
ATOM      4  O   UNL     1     -37.449 -24.963  33.641  1.00  0.00    -0.550 OA
ENDBRANCH   1   2
BRANCH   1   5
ATOM      5  C   UNL     1     -35.905 -22.713  35.842  1.00  0.00     0.003 C 
ATOM      6  C   UNL     1     -36.913 -22.145  36.841  1.00  0.00     0.004 C 
ENDBRANCH   1   5
TORSDOF 2
ENDMDL
MODEL 3
REMARK VINA RESULT:    -2.441      3.408      4.284
REMARK INTER + INTRA:          -2.749
REMARK INTER:                  -2.744
REMARK INTRA:                  -0.006
REMARK UNBOUND:                -0.023
REMARK SMILES CCCC(=O)[O-]
REMARK SMILES IDX 3 1 4 2 5 3 6 4 2 5 1 6
REMARK H PARENT
REMARK Flexibility Score: inf
ROOT
ATOM      1  C   UNL     1     -37.107 -24.849  33.415  1.00  0.00     0.052 C 
ENDROOT
BRANCH   1   2
ATOM      2  C   UNL     1     -36.899 -26.331  33.342  1.00  0.00     0.041 C 
ATOM      3  O   UNL     1     -37.774 -27.116  33.794  1.00  0.00    -0.550 OA
ATOM      4  O   UNL     1     -35.724 -26.844  32.805  1.00  0.00    -0.550 OA
ENDBRANCH   1   2
BRANCH   1   5
ATOM      5  C   UNL     1     -35.894 -24.133  34.020  1.00  0.00     0.003 C 
ATOM      6  C   UNL     1     -36.273 -22.819  34.702  1.00  0.00     0.004 C 
ENDBRANCH   1   5
TORSDOF 2
ENDMDL
MODEL 4
REMARK VINA RESULT:    -2.363      7.686      8.225
REMARK INTER + INTRA:          -2.662
REMARK INTER:                  -2.621
REMARK INTRA:                  -0.041
REMARK UNBOUND:                -0.023
REMARK SMILES CCCC(=O)[O-]
REMARK SMILES IDX 3 1 4 2 5 3 6 4 2 5 1 6
REMARK H PARENT
REMARK Flexibility Score: inf
ROOT
ATOM      1  C   UNL     1     -40.099 -20.606  29.040  1.00  0.00     0.052 C 
ENDROOT
BRANCH   1   2
ATOM      2  C   UNL     1     -41.113 -21.620  28.605  1.00  0.00     0.041 C 
ATOM      3  O   UNL     1     -41.322 -21.821  27.380  1.00  0.00    -0.550 OA
ATOM      4  O   UNL     1     -41.851 -22.319  29.553  1.00  0.00    -0.550 OA
ENDBRANCH   1   2
BRANCH   1   5
ATOM      5  C   UNL     1     -38.907 -20.544  28.078  1.00  0.00     0.003 C 
ATOM      6  C   UNL     1     -37.920 -21.690  28.299  1.00  0.00     0.004 C 
ENDBRANCH   1   5
TORSDOF 2
ENDMDL
MODEL 5
REMARK VINA RESULT:    -2.336      8.287      8.753
REMARK INTER + INTRA:          -2.632
REMARK INTER:                  -2.575
REMARK INTRA:                  -0.057
REMARK UNBOUND:                -0.023
REMARK SMILES CCCC(=O)[O-]
REMARK SMILES IDX 3 1 4 2 5 3 6 4 2 5 1 6
REMARK H PARENT
REMARK Flexibility Score: inf
ROOT
ATOM      1  C   UNL     1     -39.686 -20.388  28.855  1.00  0.00     0.052 C 
ENDROOT
BRANCH   1   2
ATOM      2  C   UNL     1     -40.192 -19.701  27.624  1.00  0.00     0.041 C 
ATOM      3  O   UNL     1     -41.149 -20.194  26.971  1.00  0.00    -0.550 OA
ATOM      4  O   UNL     1     -39.586 -18.532  27.179  1.00  0.00    -0.550 OA
ENDBRANCH   1   2
BRANCH   1   5
ATOM      5  C   UNL     1     -38.898 -21.659  28.513  1.00  0.00     0.003 C 
ATOM      6  C   UNL     1     -37.594 -21.355  27.774  1.00  0.00     0.004 C 
ENDBRANCH   1   5
TORSDOF 2
ENDMDL
MODEL 6
REMARK VINA RESULT:    -2.323     11.893     12.647
REMARK INTER + INTRA:          -2.617
REMARK INTER:                  -2.604
REMARK INTRA:                  -0.013
REMARK UNBOUND:                -0.023
REMARK SMILES CCCC(=O)[O-]
REMARK SMILES IDX 3 1 4 2 5 3 6 4 2 5 1 6
REMARK H PARENT
REMARK Flexibility Score: inf
ROOT
ATOM      1  C   UNL     1     -46.907 -21.805  27.511  1.00  0.00     0.052 C 
ENDROOT
BRANCH   1   2
ATOM      2  C   UNL     1     -46.047 -22.373  28.598  1.00  0.00     0.041 C 
ATOM      3  O   UNL     1     -46.572 -22.825  29.650  1.00  0.00    -0.550 OA
ATOM      4  O   UNL     1     -44.664 -22.371  28.465  1.00  0.00    -0.550 OA
ENDBRANCH   1   2
BRANCH   1   5
ATOM      5  C   UNL     1     -47.671 -20.561  27.981  1.00  0.00     0.003 C 
ATOM      6  C   UNL     1     -47.312 -19.316  27.170  1.00  0.00     0.004 C 
ENDBRANCH   1   5
TORSDOF 2
ENDMDL
MODEL 7
REMARK VINA RESULT:    -2.319      7.973      8.401
REMARK INTER + INTRA:          -2.613
REMARK INTER:                  -2.608
REMARK INTRA:                  -0.005
REMARK UNBOUND:                -0.023
REMARK SMILES CCCC(=O)[O-]
REMARK SMILES IDX 3 1 4 2 5 3 6 4 2 5 1 6
REMARK H PARENT
REMARK Flexibility Score: inf
ROOT
ATOM      1  C   UNL     1     -40.049 -20.568  28.950  1.00  0.00     0.052 C 
ENDROOT
BRANCH   1   2
ATOM      2  C   UNL     1     -39.046 -20.027  27.978  1.00  0.00     0.041 C 
ATOM      3  O   UNL     1     -39.276 -18.952  27.363  1.00  0.00    -0.550 OA
ATOM      4  O   UNL     1     -37.872 -20.727  27.725  1.00  0.00    -0.550 OA
ENDBRANCH   1   2
BRANCH   1   5
ATOM      5  C   UNL     1     -40.778 -21.796  28.392  1.00  0.00     0.003 C 
ATOM      6  C   UNL     1     -41.894 -22.281  29.317  1.00  0.00     0.004 C 
ENDBRANCH   1   5
TORSDOF 2
ENDMDL
MODEL 8
REMARK VINA RESULT:    -2.276      8.776      9.299
REMARK INTER + INTRA:          -2.565
REMARK INTER:                  -2.533
REMARK INTRA:                  -0.031
REMARK UNBOUND:                -0.023
REMARK SMILES CCCC(=O)[O-]
REMARK SMILES IDX 3 1 4 2 5 3 6 4 2 5 1 6
REMARK H PARENT
REMARK Flexibility Score: inf
ROOT
ATOM      1  C   UNL     1     -40.305 -20.218  27.647  1.00  0.00     0.052 C 
ENDROOT
BRANCH   1   2
ATOM      2  C   UNL     1     -39.726 -19.123  26.805  1.00  0.00     0.041 C 
ATOM      3  O   UNL     1     -40.032 -17.922  27.030  1.00  0.00    -0.550 OA
ATOM      4  O   UNL     1     -38.876 -19.430  25.750  1.00  0.00    -0.550 OA
ENDBRANCH   1   2
BRANCH   1   5
ATOM      5  C   UNL     1     -39.402 -20.557  28.839  1.00  0.00     0.003 C 
ATOM      6  C   UNL     1     -38.287 -21.535  28.467  1.00  0.00     0.004 C 
ENDBRANCH   1   5
TORSDOF 2
ENDMDL
MODEL 9
REMARK VINA RESULT:    -2.227     13.875     14.412
REMARK INTER + INTRA:          -2.510
REMARK INTER:                  -2.474
REMARK INTRA:                  -0.035
REMARK UNBOUND:                -0.023
REMARK SMILES CCCC(=O)[O-]
REMARK SMILES IDX 3 1 4 2 5 3 6 4 2 5 1 6
REMARK H PARENT
REMARK Flexibility Score: inf
ROOT
ATOM      1  C   UNL     1     -46.381 -19.194  26.549  1.00  0.00     0.052 C 
ENDROOT
BRANCH   1   2
ATOM      2  C   UNL     1     -46.637 -17.723  26.431  1.00  0.00     0.041 C 
ATOM      3  O   UNL     1     -46.566 -16.984  27.448  1.00  0.00    -0.550 OA
ATOM      4  O   UNL     1     -46.988 -17.172  25.204  1.00  0.00    -0.550 OA
ENDBRANCH   1   2
BRANCH   1   5
ATOM      5  C   UNL     1     -47.682 -19.987  26.717  1.00  0.00     0.003 C 
ATOM      6  C   UNL     1     -47.909 -20.435  28.161  1.00  0.00     0.004 C 
ENDBRANCH   1   5
TORSDOF 2
ENDMDL
