MODEL 1
REMARK VINA RESULT:    -4.383      0.000      0.000
REMARK INTER + INTRA:         -10.371
REMARK INTER:                  -7.969
REMARK INTRA:                  -2.402
REMARK UNBOUND:                -2.402
REMARK SMILES CCCCCCCCCCCCCC[C@@H](C)C(=O)[O-]
REMARK SMILES IDX 9 1 10 2 11 3 12 4 13 5 14 6 15 7 16 8 17 9 18 10 19 11 8 12
REMARK SMILES IDX 7 13 6 14 5 15 4 16 3 17 2 18 1 19
REMARK H PARENT
REMARK Flexibility Score: inf
ROOT
ATOM      1  C   UNL     1      -9.410  -3.449   5.522  1.00  0.00     0.000 C 
ENDROOT
BRANCH   1   2
ATOM      2  C   UNL     1      -8.520  -4.316   6.430  1.00  0.00     0.000 C 
BRANCH   2   3
ATOM      3  C   UNL     1      -9.061  -5.730   6.727  1.00  0.00     0.000 C 
BRANCH   3   4
ATOM      4  C   UNL     1      -9.652  -6.471   5.515  1.00  0.00     0.000 C 
BRANCH   4   5
ATOM      5  C   UNL     1     -11.148  -6.785   5.677  1.00  0.00     0.001 C 
BRANCH   5   6
ATOM      6  C   UNL     1     -11.978  -6.081   4.593  1.00  0.00     0.009 C 
BRANCH   6   7
ATOM      7  C   UNL     1     -13.257  -5.438   5.166  1.00  0.00     0.032 C 
ATOM      8  C   UNL     1     -12.903  -4.300   6.130  1.00  0.00     0.014 C 
BRANCH   7   9
ATOM      9  C   UNL     1     -14.145  -4.916   4.069  1.00  0.00     0.044 C 
ATOM     10  O   UNL     1     -14.592  -3.739   4.122  1.00  0.00    -0.550 OA
ATOM     11  O   UNL     1     -14.480  -5.726   2.990  1.00  0.00    -0.550 OA
ENDBRANCH   7   9
ENDBRANCH   6   7
ENDBRANCH   5   6
ENDBRANCH   4   5
ENDBRANCH   3   4
ENDBRANCH   2   3
ENDBRANCH   1   2
BRANCH   1  12
ATOM     12  C   UNL     1      -8.769  -3.166   4.152  1.00  0.00     0.000 C 
BRANCH  12  13
ATOM     13  C   UNL     1      -9.715  -3.475   2.982  1.00  0.00    -0.000 C 
BRANCH  13  14
ATOM     14  C   UNL     1     -11.109  -2.854   3.164  1.00  0.00    -0.000 C 
BRANCH  14  15
ATOM     15  C   UNL     1     -11.207  -1.502   2.443  1.00  0.00    -0.000 C 
BRANCH  15  16
ATOM     16  C   UNL     1     -10.998  -0.308   3.401  1.00  0.00    -0.000 C 
BRANCH  16  17
ATOM     17  C   UNL     1      -9.724   0.508   3.105  1.00  0.00    -0.000 C 
BRANCH  17  18
ATOM     18  C   UNL     1      -8.928   0.038   1.877  1.00  0.00    -0.003 C 
ATOM     19  C   UNL     1      -7.477  -0.312   2.210  1.00  0.00     0.004 C 
ENDBRANCH  17  18
ENDBRANCH  16  17
ENDBRANCH  15  16
ENDBRANCH  14  15
ENDBRANCH  13  14
ENDBRANCH  12  13
ENDBRANCH   1  12
TORSDOF 14
ENDMDL
MODEL 2
REMARK VINA RESULT:    -4.253      2.181      5.828
REMARK INTER + INTRA:         -10.135
REMARK INTER:                  -8.387
REMARK INTRA:                  -1.748
REMARK UNBOUND:                -2.402
REMARK SMILES CCCCCCCCCCCCCC[C@@H](C)C(=O)[O-]
REMARK SMILES IDX 9 1 10 2 11 3 12 4 13 5 14 6 15 7 16 8 17 9 18 10 19 11 8 12
REMARK SMILES IDX 7 13 6 14 5 15 4 16 3 17 2 18 1 19
REMARK H PARENT
REMARK Flexibility Score: inf
ROOT
ATOM      1  C   UNL     1      -9.235  -5.838   6.956  1.00  0.00     0.000 C 
ENDROOT
BRANCH   1   2
ATOM      2  C   UNL     1      -8.461  -4.607   6.448  1.00  0.00     0.000 C 
BRANCH   2   3
ATOM      3  C   UNL     1      -9.294  -3.594   5.635  1.00  0.00     0.000 C 
BRANCH   3   4
ATOM      4  C   UNL     1      -8.715  -3.229   4.257  1.00  0.00     0.000 C 
BRANCH   4   5
ATOM      5  C   UNL     1      -9.720  -3.428   3.113  1.00  0.00     0.001 C 
BRANCH   5   6
ATOM      6  C   UNL     1      -9.918  -2.127   2.321  1.00  0.00     0.009 C 
BRANCH   6   7
ATOM      7  C   UNL     1      -9.177  -0.937   2.964  1.00  0.00     0.032 C 
ATOM      8  C   UNL     1      -8.298  -0.227   1.928  1.00  0.00     0.014 C 
BRANCH   7   9
ATOM      9  C   UNL     1     -10.142   0.046   3.569  1.00  0.00     0.044 C 
ATOM     10  O   UNL     1     -11.114  -0.364   4.259  1.00  0.00    -0.550 OA
ATOM     11  O   UNL     1      -9.971   1.411   3.373  1.00  0.00    -0.550 OA
ENDBRANCH   7   9
ENDBRANCH   6   7
ENDBRANCH   5   6
ENDBRANCH   4   5
ENDBRANCH   3   4
ENDBRANCH   2   3
ENDBRANCH   1   2
BRANCH   1  12
ATOM     12  C   UNL     1      -9.038  -7.076   6.064  1.00  0.00     0.000 C 
BRANCH  12  13
ATOM     13  C   UNL     1     -10.121  -7.202   4.982  1.00  0.00    -0.000 C 
BRANCH  13  14
ATOM     14  C   UNL     1     -11.377  -7.934   5.480  1.00  0.00    -0.000 C 
BRANCH  14  15
ATOM     15  C   UNL     1     -12.636  -7.087   5.247  1.00  0.00    -0.000 C 
BRANCH  15  16
ATOM     16  C   UNL     1     -12.301  -5.639   4.824  1.00  0.00    -0.000 C 
BRANCH  16  17
ATOM     17  C   UNL     1     -12.989  -5.201   3.517  1.00  0.00    -0.000 C 
BRANCH  17  18
ATOM     18  C   UNL     1     -14.525  -5.214   3.561  1.00  0.00    -0.003 C 
ATOM     19  C   UNL     1     -15.137  -6.244   2.611  1.00  0.00     0.004 C 
ENDBRANCH  17  18
ENDBRANCH  16  17
ENDBRANCH  15  16
ENDBRANCH  14  15
ENDBRANCH  13  14
ENDBRANCH  12  13
ENDBRANCH   1  12
TORSDOF 14
ENDMDL
MODEL 3
REMARK VINA RESULT:    -4.246      2.278      5.370
REMARK INTER + INTRA:         -10.122
REMARK INTER:                  -7.820
REMARK INTRA:                  -2.302
REMARK UNBOUND:                -2.402
REMARK SMILES CCCCCCCCCCCCCC[C@@H](C)C(=O)[O-]
REMARK SMILES IDX 9 1 10 2 11 3 12 4 13 5 14 6 15 7 16 8 17 9 18 10 19 11 8 12
REMARK SMILES IDX 7 13 6 14 5 15 4 16 3 17 2 18 1 19
REMARK H PARENT
REMARK Flexibility Score: inf
ROOT
ATOM      1  C   UNL     1      -9.793  -5.881   6.427  1.00  0.00     0.000 C 
ENDROOT
BRANCH   1   2
ATOM      2  C   UNL     1      -8.649  -4.885   6.167  1.00  0.00     0.000 C 
BRANCH   2   3
ATOM      3  C   UNL     1      -9.084  -3.514   5.606  1.00  0.00     0.000 C 
BRANCH   3   4
ATOM      4  C   UNL     1      -8.589  -3.205   4.182  1.00  0.00     0.000 C 
BRANCH   4   5
ATOM      5  C   UNL     1      -9.706  -3.288   3.130  1.00  0.00     0.001 C 
BRANCH   5   6
ATOM      6  C   UNL     1      -9.693  -2.053   2.215  1.00  0.00     0.009 C 
BRANCH   6   7
ATOM      7  C   UNL     1      -8.992  -0.848   2.875  1.00  0.00     0.032 C 
ATOM      8  C   UNL     1      -8.030  -0.179   1.888  1.00  0.00     0.014 C 
BRANCH   7   9
ATOM      9  C   UNL     1      -9.992   0.160   3.372  1.00  0.00     0.044 C 
ATOM     10  O   UNL     1     -10.625  -0.050   4.441  1.00  0.00    -0.550 OA
ATOM     11  O   UNL     1     -10.225   1.330   2.659  1.00  0.00    -0.550 OA
ENDBRANCH   7   9
ENDBRANCH   6   7
ENDBRANCH   5   6
ENDBRANCH   4   5
ENDBRANCH   3   4
ENDBRANCH   2   3
ENDBRANCH   1   2
BRANCH   1  12
ATOM     12  C   UNL     1     -10.871  -5.853   5.329  1.00  0.00     0.000 C 
BRANCH  12  13
ATOM     13  C   UNL     1     -12.143  -6.617   5.731  1.00  0.00    -0.000 C 
BRANCH  13  14
ATOM     14  C   UNL     1     -13.244  -6.541   4.661  1.00  0.00    -0.000 C 
BRANCH  14  15
ATOM     15  C   UNL     1     -13.012  -5.352   3.717  1.00  0.00    -0.000 C 
BRANCH  15  16
ATOM     16  C   UNL     1     -13.884  -4.131   4.085  1.00  0.00    -0.000 C 
BRANCH  16  17
ATOM     17  C   UNL     1     -13.072  -2.849   4.355  1.00  0.00    -0.000 C 
BRANCH  17  18
ATOM     18  C   UNL     1     -12.700  -2.619   5.828  1.00  0.00    -0.003 C 
ATOM     19  C   UNL     1     -13.616  -3.370   6.795  1.00  0.00     0.004 C 
ENDBRANCH  17  18
ENDBRANCH  16  17
ENDBRANCH  15  16
ENDBRANCH  14  15
ENDBRANCH  13  14
ENDBRANCH  12  13
ENDBRANCH   1  12
TORSDOF 14
ENDMDL
MODEL 4
REMARK VINA RESULT:    -4.199      1.745      5.384
REMARK INTER + INTRA:         -10.037
REMARK INTER:                  -7.859
REMARK INTRA:                  -2.179
REMARK UNBOUND:                -2.402
REMARK SMILES CCCCCCCCCCCCCC[C@@H](C)C(=O)[O-]
REMARK SMILES IDX 9 1 10 2 11 3 12 4 13 5 14 6 15 7 16 8 17 9 18 10 19 11 8 12
REMARK SMILES IDX 7 13 6 14 5 15 4 16 3 17 2 18 1 19
REMARK H PARENT
REMARK Flexibility Score: inf
ROOT
ATOM      1  C   UNL     1      -9.326  -5.174   6.317  1.00  0.00     0.000 C 
ENDROOT
BRANCH   1   2
ATOM      2  C   UNL     1      -8.631  -3.840   5.991  1.00  0.00     0.000 C 
BRANCH   2   3
ATOM      3  C   UNL     1      -8.572  -3.477   4.492  1.00  0.00     0.000 C 
BRANCH   3   4
ATOM      4  C   UNL     1      -9.674  -2.518   4.008  1.00  0.00     0.000 C 
BRANCH   4   5
ATOM      5  C   UNL     1     -10.303  -2.954   2.676  1.00  0.00     0.001 C 
BRANCH   5   6
ATOM      6  C   UNL     1     -10.883  -1.749   1.921  1.00  0.00     0.009 C 
BRANCH   6   7
ATOM      7  C   UNL     1     -11.117  -0.539   2.848  1.00  0.00     0.032 C 
ATOM      8  C   UNL     1     -10.406   0.704   2.302  1.00  0.00     0.014 C 
BRANCH   7   9
ATOM      9  C   UNL     1     -12.586  -0.253   3.013  1.00  0.00     0.044 C 
ATOM     10  O   UNL     1     -13.316  -1.048   3.663  1.00  0.00    -0.550 OA
ATOM     11  O   UNL     1     -13.147   0.887   2.450  1.00  0.00    -0.550 OA
ENDBRANCH   7   9
ENDBRANCH   6   7
ENDBRANCH   5   6
ENDBRANCH   4   5
ENDBRANCH   3   4
ENDBRANCH   2   3
ENDBRANCH   1   2
BRANCH   1  12
ATOM     12  C   UNL     1      -9.676  -5.988   5.059  1.00  0.00     0.000 C 
BRANCH  12  13
ATOM     13  C   UNL     1     -11.192  -6.168   4.875  1.00  0.00    -0.000 C 
BRANCH  13  14
ATOM     14  C   UNL     1     -12.012  -5.419   5.937  1.00  0.00    -0.000 C 
BRANCH  14  15
ATOM     15  C   UNL     1     -12.810  -4.269   5.304  1.00  0.00    -0.000 C 
BRANCH  15  16
ATOM     16  C   UNL     1     -13.294  -4.604   3.876  1.00  0.00    -0.000 C 
BRANCH  16  17
ATOM     17  C   UNL     1     -14.827  -4.588   3.722  1.00  0.00    -0.000 C 
BRANCH  17  18
ATOM     18  C   UNL     1     -15.415  -5.808   2.994  1.00  0.00    -0.003 C 
ATOM     19  C   UNL     1     -14.576  -7.072   3.184  1.00  0.00     0.004 C 
ENDBRANCH  17  18
ENDBRANCH  16  17
ENDBRANCH  15  16
ENDBRANCH  14  15
ENDBRANCH  13  14
ENDBRANCH  12  13
ENDBRANCH   1  12
TORSDOF 14
ENDMDL
MODEL 5
REMARK VINA RESULT:    -4.180      2.101      5.677
REMARK INTER + INTRA:         -10.003
REMARK INTER:                  -7.823
REMARK INTRA:                  -2.180
REMARK UNBOUND:                -2.402
REMARK SMILES CCCCCCCCCCCCCC[C@@H](C)C(=O)[O-]
REMARK SMILES IDX 9 1 10 2 11 3 12 4 13 5 14 6 15 7 16 8 17 9 18 10 19 11 8 12
REMARK SMILES IDX 7 13 6 14 5 15 4 16 3 17 2 18 1 19
REMARK H PARENT
REMARK Flexibility Score: inf
ROOT
ATOM      1  C   UNL     1      -8.977  -3.449   5.683  1.00  0.00     0.000 C 
ENDROOT
BRANCH   1   2
ATOM      2  C   UNL     1      -8.599  -3.476   4.191  1.00  0.00     0.000 C 
BRANCH   2   3
ATOM      3  C   UNL     1      -9.371  -2.483   3.297  1.00  0.00     0.000 C 
BRANCH   3   4
ATOM      4  C   UNL     1      -8.588  -1.219   2.899  1.00  0.00     0.000 C 
BRANCH   4   5
ATOM      5  C   UNL     1      -9.396   0.072   3.102  1.00  0.00     0.001 C 
BRANCH   5   6
ATOM      6  C   UNL     1     -10.542  -0.147   4.101  1.00  0.00     0.009 C 
BRANCH   6   7
ATOM      7  C   UNL     1     -11.372   1.133   4.325  1.00  0.00     0.032 C 
ATOM      8  C   UNL     1     -10.556   2.376   3.953  1.00  0.00     0.014 C 
BRANCH   7   9
ATOM      9  C   UNL     1     -12.647   1.105   3.527  1.00  0.00     0.044 C 
ATOM     10  O   UNL     1     -13.226   0.010   3.298  1.00  0.00    -0.550 OA
ATOM     11  O   UNL     1     -13.195   2.284   3.035  1.00  0.00    -0.550 OA
ENDBRANCH   7   9
ENDBRANCH   6   7
ENDBRANCH   5   6
ENDBRANCH   4   5
ENDBRANCH   3   4
ENDBRANCH   2   3
ENDBRANCH   1   2
BRANCH   1  12
ATOM     12  C   UNL     1      -8.547  -4.723   6.430  1.00  0.00     0.000 C 
BRANCH  12  13
ATOM     13  C   UNL     1      -9.705  -5.716   6.620  1.00  0.00    -0.000 C 
BRANCH  13  14
ATOM     14  C   UNL     1      -9.822  -6.720   5.463  1.00  0.00    -0.000 C 
BRANCH  14  15
ATOM     15  C   UNL     1     -11.289  -6.917   5.053  1.00  0.00    -0.000 C 
BRANCH  15  16
ATOM     16  C   UNL     1     -12.141  -5.650   5.290  1.00  0.00    -0.000 C 
BRANCH  16  17
ATOM     17  C   UNL     1     -12.445  -4.858   4.004  1.00  0.00    -0.000 C 
BRANCH  17  18
ATOM     18  C   UNL     1     -12.736  -3.364   4.221  1.00  0.00    -0.003 C 
ATOM     19  C   UNL     1     -12.562  -2.931   5.677  1.00  0.00     0.004 C 
ENDBRANCH  17  18
ENDBRANCH  16  17
ENDBRANCH  15  16
ENDBRANCH  14  15
ENDBRANCH  13  14
ENDBRANCH  12  13
ENDBRANCH   1  12
TORSDOF 14
ENDMDL
MODEL 6
REMARK VINA RESULT:    -4.163      1.502      2.571
REMARK INTER + INTRA:          -9.972
REMARK INTER:                  -7.649
REMARK INTRA:                  -2.323
REMARK UNBOUND:                -2.402
REMARK SMILES CCCCCCCCCCCCCC[C@@H](C)C(=O)[O-]
REMARK SMILES IDX 9 1 10 2 11 3 12 4 13 5 14 6 15 7 16 8 17 9 18 10 19 11 8 12
REMARK SMILES IDX 7 13 6 14 5 15 4 16 3 17 2 18 1 19
REMARK H PARENT
REMARK Flexibility Score: inf
ROOT
ATOM      1  C   UNL     1      -9.506  -5.153   6.343  1.00  0.00     0.000 C 
ENDROOT
BRANCH   1   2
ATOM      2  C   UNL     1      -9.655  -6.269   5.293  1.00  0.00     0.000 C 
BRANCH   2   3
ATOM      3  C   UNL     1     -11.068  -6.878   5.176  1.00  0.00     0.000 C 
BRANCH   3   4
ATOM      4  C   UNL     1     -12.223  -5.862   5.216  1.00  0.00     0.000 C 
BRANCH   4   5
ATOM      5  C   UNL     1     -12.714  -5.460   3.817  1.00  0.00     0.001 C 
BRANCH   5   6
ATOM      6  C   UNL     1     -12.629  -3.938   3.621  1.00  0.00     0.009 C 
BRANCH   6   7
ATOM      7  C   UNL     1     -13.210  -3.164   4.822  1.00  0.00     0.032 C 
ATOM      8  C   UNL     1     -12.211  -2.112   5.318  1.00  0.00     0.014 C 
BRANCH   7   9
ATOM      9  C   UNL     1     -14.512  -2.500   4.465  1.00  0.00     0.044 C 
ATOM     10  O   UNL     1     -15.519  -3.198   4.171  1.00  0.00    -0.550 OA
ATOM     11  O   UNL     1     -14.616  -1.113   4.458  1.00  0.00    -0.550 OA
ENDBRANCH   7   9
ENDBRANCH   6   7
ENDBRANCH   5   6
ENDBRANCH   4   5
ENDBRANCH   3   4
ENDBRANCH   2   3
ENDBRANCH   1   2
BRANCH   1  12
ATOM     12  C   UNL     1      -8.903  -3.862   5.760  1.00  0.00     0.000 C 
BRANCH  12  13
ATOM     13  C   UNL     1      -9.005  -3.803   4.227  1.00  0.00    -0.000 C 
BRANCH  13  14
ATOM     14  C   UNL     1      -8.888  -2.373   3.679  1.00  0.00    -0.000 C 
BRANCH  14  15
ATOM     15  C   UNL     1      -9.718  -2.206   2.397  1.00  0.00    -0.000 C 
BRANCH  15  16
ATOM     16  C   UNL     1     -10.232  -0.761   2.214  1.00  0.00    -0.000 C 
BRANCH  16  17
ATOM     17  C   UNL     1      -9.637   0.241   3.222  1.00  0.00    -0.000 C 
BRANCH  17  18
ATOM     18  C   UNL     1     -10.668   0.940   4.122  1.00  0.00    -0.003 C 
ATOM     19  C   UNL     1     -10.516   2.462   4.127  1.00  0.00     0.004 C 
ENDBRANCH  17  18
ENDBRANCH  16  17
ENDBRANCH  15  16
ENDBRANCH  14  15
ENDBRANCH  13  14
ENDBRANCH  12  13
ENDBRANCH   1  12
TORSDOF 14
ENDMDL
MODEL 7
REMARK VINA RESULT:    -4.123      2.717      4.368
REMARK INTER + INTRA:          -9.899
REMARK INTER:                  -7.581
REMARK INTRA:                  -2.319
REMARK UNBOUND:                -2.402
REMARK SMILES CCCCCCCCCCCCCC[C@@H](C)C(=O)[O-]
REMARK SMILES IDX 9 1 10 2 11 3 12 4 13 5 14 6 15 7 16 8 17 9 18 10 19 11 8 12
REMARK SMILES IDX 7 13 6 14 5 15 4 16 3 17 2 18 1 19
REMARK H PARENT
REMARK Flexibility Score: inf
ROOT
ATOM      1  C   UNL     1      -9.756  -2.662   2.794  1.00  0.00     0.000 C 
ENDROOT
BRANCH   1   2
ATOM      2  C   UNL     1     -11.213  -3.076   2.520  1.00  0.00     0.000 C 
BRANCH   2   3
ATOM      3  C   UNL     1     -12.052  -3.406   3.773  1.00  0.00     0.000 C 
BRANCH   3   4
ATOM      4  C   UNL     1     -12.525  -4.866   3.878  1.00  0.00     0.000 C 
BRANCH   4   5
ATOM      5  C   UNL     1     -11.730  -5.680   4.911  1.00  0.00     0.001 C 
BRANCH   5   6
ATOM      6  C   UNL     1     -10.861  -4.761   5.783  1.00  0.00     0.009 C 
BRANCH   6   7
ATOM      7  C   UNL     1      -9.372  -5.160   5.747  1.00  0.00     0.032 C 
ATOM      8  C   UNL     1      -8.489  -3.990   6.194  1.00  0.00     0.014 C 
BRANCH   7   9
ATOM      9  C   UNL     1      -9.107  -6.358   6.618  1.00  0.00     0.044 C 
ATOM     10  O   UNL     1      -9.434  -6.341   7.835  1.00  0.00    -0.550 OA
ATOM     11  O   UNL     1      -8.500  -7.491   6.089  1.00  0.00    -0.550 OA
ENDBRANCH   7   9
ENDBRANCH   6   7
ENDBRANCH   5   6
ENDBRANCH   4   5
ENDBRANCH   3   4
ENDBRANCH   2   3
ENDBRANCH   1   2
BRANCH   1  12
ATOM     12  C   UNL     1      -9.648  -1.451   3.738  1.00  0.00     0.000 C 
BRANCH  12  13
ATOM     13  C   UNL     1      -9.074  -0.209   3.039  1.00  0.00    -0.000 C 
BRANCH  13  14
ATOM     14  C   UNL     1     -10.105   0.501   2.147  1.00  0.00    -0.000 C 
BRANCH  14  15
ATOM     15  C   UNL     1     -10.792   1.646   2.906  1.00  0.00    -0.000 C 
BRANCH  15  16
ATOM     16  C   UNL     1     -12.331   1.572   2.814  1.00  0.00    -0.000 C 
BRANCH  16  17
ATOM     17  C   UNL     1     -12.903   0.172   3.109  1.00  0.00    -0.000 C 
BRANCH  17  18
ATOM     18  C   UNL     1     -13.648   0.048   4.448  1.00  0.00    -0.003 C 
ATOM     19  C   UNL     1     -12.722  -0.314   5.610  1.00  0.00     0.004 C 
ENDBRANCH  17  18
ENDBRANCH  16  17
ENDBRANCH  15  16
ENDBRANCH  14  15
ENDBRANCH  13  14
ENDBRANCH  12  13
ENDBRANCH   1  12
TORSDOF 14
ENDMDL
MODEL 8
REMARK VINA RESULT:    -4.107      1.153      2.142
REMARK INTER + INTRA:          -9.869
REMARK INTER:                  -7.735
REMARK INTRA:                  -2.135
REMARK UNBOUND:                -2.402
REMARK SMILES CCCCCCCCCCCCCC[C@@H](C)C(=O)[O-]
REMARK SMILES IDX 9 1 10 2 11 3 12 4 13 5 14 6 15 7 16 8 17 9 18 10 19 11 8 12
REMARK SMILES IDX 7 13 6 14 5 15 4 16 3 17 2 18 1 19
REMARK H PARENT
REMARK Flexibility Score: inf
ROOT
ATOM      1  C   UNL     1      -9.250  -3.447   5.638  1.00  0.00     0.000 C 
ENDROOT
BRANCH   1   2
ATOM      2  C   UNL     1      -8.526  -4.587   6.376  1.00  0.00     0.000 C 
BRANCH   2   3
ATOM      3  C   UNL     1      -9.353  -5.875   6.574  1.00  0.00     0.000 C 
BRANCH   3   4
ATOM      4  C   UNL     1      -9.635  -6.673   5.289  1.00  0.00     0.000 C 
BRANCH   4   5
ATOM      5  C   UNL     1     -11.106  -7.102   5.163  1.00  0.00     0.001 C 
BRANCH   5   6
ATOM      6  C   UNL     1     -12.043  -6.023   5.728  1.00  0.00     0.009 C 
BRANCH   6   7
ATOM      7  C   UNL     1     -12.459  -4.994   4.658  1.00  0.00     0.032 C 
ATOM      8  C   UNL     1     -13.279  -5.668   3.553  1.00  0.00     0.014 C 
BRANCH   7   9
ATOM      9  C   UNL     1     -13.251  -3.867   5.263  1.00  0.00     0.044 C 
ATOM     10  O   UNL     1     -14.358  -3.532   4.764  1.00  0.00    -0.550 OA
ATOM     11  O   UNL     1     -12.768  -3.186   6.375  1.00  0.00    -0.550 OA
ENDBRANCH   7   9
ENDBRANCH   6   7
ENDBRANCH   5   6
ENDBRANCH   4   5
ENDBRANCH   3   4
ENDBRANCH   2   3
ENDBRANCH   1   2
BRANCH   1  12
ATOM     12  C   UNL     1      -8.693  -3.202   4.225  1.00  0.00     0.000 C 
BRANCH  12  13
ATOM     13  C   UNL     1      -9.784  -3.250   3.144  1.00  0.00    -0.000 C 
BRANCH  13  14
ATOM     14  C   UNL     1      -9.752  -2.027   2.213  1.00  0.00    -0.000 C 
BRANCH  14  15
ATOM     15  C   UNL     1      -8.478  -1.199   2.437  1.00  0.00    -0.000 C 
BRANCH  15  16
ATOM     16  C   UNL     1      -8.785   0.289   2.714  1.00  0.00    -0.000 C 
BRANCH  16  17
ATOM     17  C   UNL     1     -10.289   0.597   2.848  1.00  0.00    -0.000 C 
BRANCH  17  18
ATOM     18  C   UNL     1     -10.766   0.874   4.282  1.00  0.00    -0.003 C 
ATOM     19  C   UNL     1     -11.547  -0.295   4.884  1.00  0.00     0.004 C 
ENDBRANCH  17  18
ENDBRANCH  16  17
ENDBRANCH  15  16
ENDBRANCH  14  15
ENDBRANCH  13  14
ENDBRANCH  12  13
ENDBRANCH   1  12
TORSDOF 14
ENDMDL
MODEL 9
REMARK VINA RESULT:    -4.084      1.986      5.455
REMARK INTER + INTRA:          -9.828
REMARK INTER:                  -7.687
REMARK INTRA:                  -2.142
REMARK UNBOUND:                -2.402
REMARK SMILES CCCCCCCCCCCCCC[C@@H](C)C(=O)[O-]
REMARK SMILES IDX 9 1 10 2 11 3 12 4 13 5 14 6 15 7 16 8 17 9 18 10 19 11 8 12
REMARK SMILES IDX 7 13 6 14 5 15 4 16 3 17 2 18 1 19
REMARK H PARENT
REMARK Flexibility Score: inf
ROOT
ATOM      1  C   UNL     1     -10.076   0.632   3.443  1.00  0.00     0.000 C 
ENDROOT
BRANCH   1   2
ATOM      2  C   UNL     1     -10.794   1.948   3.089  1.00  0.00     0.000 C 
BRANCH   2   3
ATOM      3  C   UNL     1     -11.775   1.865   1.901  1.00  0.00     0.000 C 
BRANCH   3   4
ATOM      4  C   UNL     1     -13.045   1.034   2.160  1.00  0.00     0.000 C 
BRANCH   4   5
ATOM      5  C   UNL     1     -13.774   1.443   3.450  1.00  0.00     0.001 C 
BRANCH   5   6
ATOM      6  C   UNL     1     -14.498   0.241   4.076  1.00  0.00     0.009 C 
BRANCH   6   7
ATOM      7  C   UNL     1     -13.555  -0.959   4.293  1.00  0.00     0.032 C 
ATOM      8  C   UNL     1     -12.733  -0.773   5.573  1.00  0.00     0.014 C 
BRANCH   7   9
ATOM      9  C   UNL     1     -14.322  -2.251   4.365  1.00  0.00     0.044 C 
ATOM     10  O   UNL     1     -15.582  -2.242   4.341  1.00  0.00    -0.550 OA
ATOM     11  O   UNL     1     -13.649  -3.464   4.457  1.00  0.00    -0.550 OA
ENDBRANCH   7   9
ENDBRANCH   6   7
ENDBRANCH   5   6
ENDBRANCH   4   5
ENDBRANCH   3   4
ENDBRANCH   2   3
ENDBRANCH   1   2
BRANCH   1  12
ATOM     12  C   UNL     1      -9.056   0.204   2.373  1.00  0.00     0.000 C 
BRANCH  12  13
ATOM     13  C   UNL     1      -9.178  -1.283   2.004  1.00  0.00    -0.000 C 
BRANCH  13  14
ATOM     14  C   UNL     1     -10.578  -1.853   2.286  1.00  0.00    -0.000 C 
BRANCH  14  15
ATOM     15  C   UNL     1     -10.498  -3.066   3.225  1.00  0.00    -0.000 C 
BRANCH  15  16
ATOM     16  C   UNL     1      -9.766  -2.741   4.545  1.00  0.00    -0.000 C 
BRANCH  16  17
ATOM     17  C   UNL     1      -8.585  -3.685   4.847  1.00  0.00    -0.000 C 
BRANCH  17  18
ATOM     18  C   UNL     1      -8.508  -4.175   6.302  1.00  0.00    -0.003 C 
ATOM     19  C   UNL     1      -8.802  -5.669   6.440  1.00  0.00     0.004 C 
ENDBRANCH  17  18
ENDBRANCH  16  17
ENDBRANCH  15  16
ENDBRANCH  14  15
ENDBRANCH  13  14
ENDBRANCH  12  13
ENDBRANCH   1  12
TORSDOF 14
ENDMDL
