MODEL 1
REMARK VINA RESULT:    -5.637      0.000      0.000
REMARK INTER + INTRA:          -8.734
REMARK INTER:                  -7.614
REMARK INTRA:                  -1.120
REMARK UNBOUND:                -1.120
REMARK SMILES CC(=O)CCC=C(C)CCC=C(C)C
REMARK SMILES IDX 7 1 6 2 8 3 9 4 10 5 11 6 13 7 12 8 14 9 5 10 4 11 2 12 3 13
REMARK SMILES IDX 1 14
REMARK H PARENT
REMARK Flexibility Score: inf
ROOT
ATOM      1  C   UNL     1     -12.994 -19.616  29.442  1.00  0.00    -0.077 C 
ATOM      2  C   UNL     1     -12.055 -18.763  28.980  1.00  0.00    -0.028 C 
ATOM      3  C   UNL     1     -14.177 -20.018  28.594  1.00  0.00     0.039 C 
ENDROOT
BRANCH   1   4
ATOM      4  C   UNL     1     -12.850 -20.185  30.836  1.00  0.00     0.034 C 
BRANCH   4   5
ATOM      5  C   UNL     1     -12.346 -19.114  31.812  1.00  0.00     0.032 C 
BRANCH   5   6
ATOM      6  C   UNL     1     -13.364 -18.014  31.974  1.00  0.00    -0.028 C 
ATOM      7  C   UNL     1     -14.198 -15.705  32.087  1.00  0.00     0.039 C 
ATOM      8  C   UNL     1     -13.085 -16.696  31.864  1.00  0.00    -0.080 C 
ATOM      9  C   UNL     1     -11.702 -16.195  31.511  1.00  0.00     0.039 C 
ENDBRANCH   5   6
ENDBRANCH   4   5
ENDBRANCH   1   4
BRANCH   2  10
ATOM     10  C   UNL     1     -12.114 -18.126  27.611  1.00  0.00     0.035 C 
BRANCH  10  11
ATOM     11  C   UNL     1     -11.936 -16.605  27.678  1.00  0.00     0.079 C 
BRANCH  11  12
ATOM     12  C   UNL     1     -13.247 -15.883  27.495  1.00  0.00     0.130 C 
ATOM     13  O   UNL     1     -13.985 -16.199  26.573  1.00  0.00    -0.300 OA
ATOM     14  C   UNL     1     -13.663 -14.773  28.414  1.00  0.00     0.087 C 
ENDBRANCH  11  12
ENDBRANCH  10  11
ENDBRANCH   2  10
TORSDOF 6
ENDMDL
MODEL 2
REMARK VINA RESULT:    -5.461      1.513      3.400
REMARK INTER + INTRA:          -8.496
REMARK INTER:                  -7.571
REMARK INTRA:                  -0.925
REMARK UNBOUND:                -1.120
REMARK SMILES CC(=O)CCC=C(C)CCC=C(C)C
REMARK SMILES IDX 7 1 6 2 8 3 9 4 10 5 11 6 13 7 12 8 14 9 5 10 4 11 2 12 3 13
REMARK SMILES IDX 1 14
REMARK H PARENT
REMARK Flexibility Score: inf
ROOT
ATOM      1  C   UNL     1     -12.993 -15.602  30.112  1.00  0.00    -0.077 C 
ATOM      2  C   UNL     1     -11.677 -15.900  30.176  1.00  0.00    -0.028 C 
ATOM      3  C   UNL     1     -13.639 -15.170  28.817  1.00  0.00     0.039 C 
ENDROOT
BRANCH   1   4
ATOM      4  C   UNL     1     -13.833 -15.712  31.364  1.00  0.00     0.034 C 
BRANCH   4   5
ATOM      5  C   UNL     1     -13.246 -16.753  32.325  1.00  0.00     0.032 C 
BRANCH   5   6
ATOM      6  C   UNL     1     -13.433 -18.148  31.784  1.00  0.00    -0.028 C 
ATOM      7  C   UNL     1     -12.766 -20.401  31.064  1.00  0.00     0.039 C 
ATOM      8  C   UNL     1     -12.438 -19.054  31.656  1.00  0.00    -0.080 C 
ATOM      9  C   UNL     1     -11.022 -18.761  32.099  1.00  0.00     0.039 C 
ENDBRANCH   5   6
ENDBRANCH   4   5
ENDBRANCH   1   4
BRANCH   2  10
ATOM     10  C   UNL     1     -10.747 -15.806  28.989  1.00  0.00     0.035 C 
BRANCH  10  11
ATOM     11  C   UNL     1     -10.406 -17.187  28.417  1.00  0.00     0.079 C 
BRANCH  11  12
ATOM     12  C   UNL     1     -11.457 -17.661  27.446  1.00  0.00     0.130 C 
ATOM     13  O   UNL     1     -12.383 -18.350  27.850  1.00  0.00    -0.300 OA
ATOM     14  C   UNL     1     -11.386 -17.317  25.988  1.00  0.00     0.087 C 
ENDBRANCH  11  12
ENDBRANCH  10  11
ENDBRANCH   2  10
TORSDOF 6
ENDMDL
MODEL 3
REMARK VINA RESULT:    -5.346      1.237      2.318
REMARK INTER + INTRA:          -8.341
REMARK INTER:                  -7.234
REMARK INTRA:                  -1.107
REMARK UNBOUND:                -1.120
REMARK SMILES CC(=O)CCC=C(C)CCC=C(C)C
REMARK SMILES IDX 7 1 6 2 8 3 9 4 10 5 11 6 13 7 12 8 14 9 5 10 4 11 2 12 3 13
REMARK SMILES IDX 1 14
REMARK H PARENT
REMARK Flexibility Score: inf
ROOT
ATOM      1  C   UNL     1     -11.965 -18.563  31.119  1.00  0.00    -0.077 C 
ATOM      2  C   UNL     1     -11.839 -18.210  29.821  1.00  0.00    -0.028 C 
ATOM      3  C   UNL     1     -12.799 -19.752  31.532  1.00  0.00     0.039 C 
ENDROOT
BRANCH   1   4
ATOM      4  C   UNL     1     -11.248 -17.752  32.175  1.00  0.00     0.034 C 
BRANCH   4   5
ATOM      5  C   UNL     1     -11.560 -16.258  32.019  1.00  0.00     0.032 C 
BRANCH   5   6
ATOM      6  C   UNL     1     -12.898 -15.923  32.627  1.00  0.00    -0.028 C 
ATOM      7  C   UNL     1     -15.220 -15.119  32.679  1.00  0.00     0.039 C 
ATOM      8  C   UNL     1     -13.952 -15.444  31.931  1.00  0.00    -0.080 C 
ATOM      9  C   UNL     1     -13.900 -15.242  30.433  1.00  0.00     0.039 C 
ENDBRANCH   5   6
ENDBRANCH   4   5
ENDBRANCH   1   4
BRANCH   2  10
ATOM     10  C   UNL     1     -12.526 -18.942  28.692  1.00  0.00     0.035 C 
BRANCH  10  11
ATOM     11  C   UNL     1     -13.594 -18.075  28.014  1.00  0.00     0.079 C 
BRANCH  11  12
ATOM     12  C   UNL     1     -12.977 -17.026  27.123  1.00  0.00     0.130 C 
ATOM     13  O   UNL     1     -13.511 -15.932  27.022  1.00  0.00    -0.300 OA
ATOM     14  C   UNL     1     -11.723 -17.301  26.347  1.00  0.00     0.087 C 
ENDBRANCH  11  12
ENDBRANCH  10  11
ENDBRANCH   2  10
TORSDOF 6
ENDMDL
MODEL 4
REMARK VINA RESULT:    -5.312      2.146      4.029
REMARK INTER + INTRA:          -8.295
REMARK INTER:                  -7.536
REMARK INTRA:                  -0.760
REMARK UNBOUND:                -1.120
REMARK SMILES CC(=O)CCC=C(C)CCC=C(C)C
REMARK SMILES IDX 7 1 6 2 8 3 9 4 10 5 11 6 13 7 12 8 14 9 5 10 4 11 2 12 3 13
REMARK SMILES IDX 1 14
REMARK H PARENT
REMARK Flexibility Score: inf
ROOT
ATOM      1  C   UNL     1     -12.885 -19.196  30.553  1.00  0.00    -0.077 C 
ATOM      2  C   UNL     1     -13.566 -18.078  30.885  1.00  0.00    -0.028 C 
ATOM      3  C   UNL     1     -12.151 -20.008  31.593  1.00  0.00     0.039 C 
ENDROOT
BRANCH   1   4
ATOM      4  C   UNL     1     -12.867 -19.644  29.108  1.00  0.00     0.034 C 
BRANCH   4   5
ATOM      5  C   UNL     1     -12.617 -18.455  28.172  1.00  0.00     0.032 C 
BRANCH   5   6
ATOM      6  C   UNL     1     -11.455 -17.626  28.657  1.00  0.00    -0.028 C 
ATOM      7  C   UNL     1     -10.224 -15.578  29.232  1.00  0.00     0.039 C 
ATOM      8  C   UNL     1     -11.474 -16.279  28.766  1.00  0.00    -0.080 C 
ATOM      9  C   UNL     1     -12.709 -15.465  28.451  1.00  0.00     0.039 C 
ENDBRANCH   5   6
ENDBRANCH   4   5
ENDBRANCH   1   4
BRANCH   2  10
ATOM     10  C   UNL     1     -13.633 -17.536  32.294  1.00  0.00     0.035 C 
BRANCH  10  11
ATOM     11  C   UNL     1     -13.448 -16.014  32.332  1.00  0.00     0.079 C 
BRANCH  11  12
ATOM     12  C   UNL     1     -14.765 -15.291  32.200  1.00  0.00     0.130 C 
ATOM     13  O   UNL     1     -15.677 -15.556  32.970  1.00  0.00    -0.300 OA
ATOM     14  C   UNL     1     -14.986 -14.258  31.135  1.00  0.00     0.087 C 
ENDBRANCH  11  12
ENDBRANCH  10  11
ENDBRANCH   2  10
TORSDOF 6
ENDMDL
MODEL 5
REMARK VINA RESULT:    -5.296      1.527      3.504
REMARK INTER + INTRA:          -8.274
REMARK INTER:                  -7.170
REMARK INTRA:                  -1.104
REMARK UNBOUND:                -1.120
REMARK SMILES CC(=O)CCC=C(C)CCC=C(C)C
REMARK SMILES IDX 7 1 6 2 8 3 9 4 10 5 11 6 13 7 12 8 14 9 5 10 4 11 2 12 3 13
REMARK SMILES IDX 1 14
REMARK H PARENT
REMARK Flexibility Score: inf
ROOT
ATOM      1  C   UNL     1     -11.530 -16.171  31.099  1.00  0.00    -0.077 C 
ATOM      2  C   UNL     1     -11.881 -15.912  29.821  1.00  0.00    -0.028 C 
ATOM      3  C   UNL     1     -10.101 -16.484  31.475  1.00  0.00     0.039 C 
ENDROOT
BRANCH   1   4
ATOM      4  C   UNL     1     -12.593 -16.136  32.175  1.00  0.00     0.034 C 
BRANCH   4   5
ATOM      5  C   UNL     1     -13.696 -17.162  31.884  1.00  0.00     0.032 C 
BRANCH   5   6
ATOM      6  C   UNL     1     -13.171 -18.568  32.021  1.00  0.00    -0.028 C 
ATOM      7  C   UNL     1     -12.585 -20.843  31.297  1.00  0.00     0.039 C 
ATOM      8  C   UNL     1     -13.100 -19.456  31.005  1.00  0.00    -0.080 C 
ATOM      9  C   UNL     1     -13.505 -19.096  29.593  1.00  0.00     0.039 C 
ENDBRANCH   5   6
ENDBRANCH   4   5
ENDBRANCH   1   4
BRANCH   2  10
ATOM     10  C   UNL     1     -10.902 -15.938  28.671  1.00  0.00     0.035 C 
BRANCH  10  11
ATOM     11  C   UNL     1     -10.953 -17.265  27.904  1.00  0.00     0.079 C 
BRANCH  11  12
ATOM     12  C   UNL     1     -11.717 -17.131  26.611  1.00  0.00     0.130 C 
ATOM     13  O   UNL     1     -11.150 -17.350  25.550  1.00  0.00    -0.300 OA
ATOM     14  C   UNL     1     -13.160 -16.719  26.595  1.00  0.00     0.087 C 
ENDBRANCH  11  12
ENDBRANCH  10  11
ENDBRANCH   2  10
TORSDOF 6
ENDMDL
MODEL 6
REMARK VINA RESULT:    -5.260      2.510      4.217
REMARK INTER + INTRA:          -8.225
REMARK INTER:                  -6.924
REMARK INTRA:                  -1.301
REMARK UNBOUND:                -1.120
REMARK SMILES CC(=O)CCC=C(C)CCC=C(C)C
REMARK SMILES IDX 7 1 6 2 8 3 9 4 10 5 11 6 13 7 12 8 14 9 5 10 4 11 2 12 3 13
REMARK SMILES IDX 1 14
REMARK H PARENT
REMARK Flexibility Score: inf
ROOT
ATOM      1  C   UNL     1     -12.295 -19.148  30.329  1.00  0.00    -0.077 C 
ATOM      2  C   UNL     1     -11.036 -18.726  30.577  1.00  0.00    -0.028 C 
ATOM      3  C   UNL     1     -13.296 -19.333  31.445  1.00  0.00     0.039 C 
ENDROOT
BRANCH   1   4
ATOM      4  C   UNL     1     -12.707 -19.433  28.903  1.00  0.00     0.034 C 
BRANCH   4   5
ATOM      5  C   UNL     1     -12.180 -18.348  27.956  1.00  0.00     0.032 C 
BRANCH   5   6
ATOM      6  C   UNL     1     -13.052 -17.119  28.009  1.00  0.00    -0.028 C 
ATOM      7  C   UNL     1     -13.622 -14.769  28.443  1.00  0.00     0.039 C 
ATOM      8  C   UNL     1     -12.627 -15.900  28.406  1.00  0.00    -0.080 C 
ATOM      9  C   UNL     1     -11.190 -15.639  28.798  1.00  0.00     0.039 C 
ENDBRANCH   5   6
ENDBRANCH   4   5
ENDBRANCH   1   4
BRANCH   2  10
ATOM     10  C   UNL     1     -10.519 -18.431  31.966  1.00  0.00     0.035 C 
BRANCH  10  11
ATOM     11  C   UNL     1     -10.022 -16.986  32.098  1.00  0.00     0.079 C 
BRANCH  11  12
ATOM     12  C   UNL     1     -11.000 -16.130  32.862  1.00  0.00     0.130 C 
ATOM     13  O   UNL     1     -10.628 -15.538  33.864  1.00  0.00    -0.300 OA
ATOM     14  C   UNL     1     -12.429 -15.997  32.425  1.00  0.00     0.087 C 
ENDBRANCH  11  12
ENDBRANCH  10  11
ENDBRANCH   2  10
TORSDOF 6
ENDMDL
MODEL 7
REMARK VINA RESULT:    -5.259      2.182      4.319
REMARK INTER + INTRA:          -8.224
REMARK INTER:                  -7.217
REMARK INTRA:                  -1.006
REMARK UNBOUND:                -1.120
REMARK SMILES CC(=O)CCC=C(C)CCC=C(C)C
REMARK SMILES IDX 7 1 6 2 8 3 9 4 10 5 11 6 13 7 12 8 14 9 5 10 4 11 2 12 3 13
REMARK SMILES IDX 1 14
REMARK H PARENT
REMARK Flexibility Score: inf
ROOT
ATOM      1  C   UNL     1     -11.938 -18.387  30.700  1.00  0.00    -0.077 C 
ATOM      2  C   UNL     1     -12.126 -17.285  31.459  1.00  0.00    -0.028 C 
ATOM      3  C   UNL     1     -12.978 -19.479  30.627  1.00  0.00     0.039 C 
ENDROOT
BRANCH   1   4
ATOM      4  C   UNL     1     -10.660 -18.520  29.902  1.00  0.00     0.034 C 
BRANCH   4   5
ATOM      5  C   UNL     1     -10.459 -17.305  28.988  1.00  0.00     0.032 C 
BRANCH   5   6
ATOM      6  C   UNL     1     -11.386 -17.367  27.800  1.00  0.00    -0.028 C 
ATOM      7  C   UNL     1     -13.298 -16.739  26.391  1.00  0.00     0.039 C 
ATOM      8  C   UNL     1     -12.434 -16.536  27.609  1.00  0.00    -0.080 C 
ATOM      9  C   UNL     1     -12.752 -15.410  28.567  1.00  0.00     0.039 C 
ENDBRANCH   5   6
ENDBRANCH   4   5
ENDBRANCH   1   4
BRANCH   2  10
ATOM     10  C   UNL     1     -13.357 -17.063  32.306  1.00  0.00     0.035 C 
BRANCH  10  11
ATOM     11  C   UNL     1     -13.539 -15.586  32.676  1.00  0.00     0.079 C 
BRANCH  11  12
ATOM     12  C   UNL     1     -14.910 -15.084  32.300  1.00  0.00     0.130 C 
ATOM     13  O   UNL     1     -15.880 -15.432  32.956  1.00  0.00    -0.300 OA
ATOM     14  C   UNL     1     -15.113 -14.172  31.126  1.00  0.00     0.087 C 
ENDBRANCH  11  12
ENDBRANCH  10  11
ENDBRANCH   2  10
TORSDOF 6
ENDMDL
MODEL 8
REMARK VINA RESULT:    -5.075      1.883      2.539
REMARK INTER + INTRA:          -7.975
REMARK INTER:                  -6.827
REMARK INTRA:                  -1.149
REMARK UNBOUND:                -1.120
REMARK SMILES CC(=O)CCC=C(C)CCC=C(C)C
REMARK SMILES IDX 7 1 6 2 8 3 9 4 10 5 11 6 13 7 12 8 14 9 5 10 4 11 2 12 3 13
REMARK SMILES IDX 1 14
REMARK H PARENT
REMARK Flexibility Score: inf
ROOT
ATOM      1  C   UNL     1     -10.967 -17.861  31.068  1.00  0.00    -0.077 C 
ATOM      2  C   UNL     1     -10.999 -18.155  29.750  1.00  0.00    -0.028 C 
ATOM      3  C   UNL     1     -10.089 -16.755  31.606  1.00  0.00     0.039 C 
ENDROOT
BRANCH   1   4
ATOM      4  C   UNL     1     -11.836 -18.652  32.019  1.00  0.00     0.034 C 
BRANCH   4   5
ATOM      5  C   UNL     1     -13.323 -18.406  31.732  1.00  0.00     0.032 C 
BRANCH   5   6
ATOM      6  C   UNL     1     -13.822 -17.200  32.485  1.00  0.00    -0.028 C 
ATOM      7  C   UNL     1     -14.441 -14.847  32.829  1.00  0.00     0.039 C 
ATOM      8  C   UNL     1     -13.964 -15.970  31.944  1.00  0.00    -0.080 C 
ATOM      9  C   UNL     1     -13.673 -15.695  30.486  1.00  0.00     0.039 C 
ENDBRANCH   5   6
ENDBRANCH   4   5
ENDBRANCH   1   4
BRANCH   2  10
ATOM     10  C   UNL     1     -10.158 -17.438  28.719  1.00  0.00     0.035 C 
BRANCH  10  11
ATOM     11  C   UNL     1     -10.959 -16.364  27.972  1.00  0.00     0.079 C 
BRANCH  11  12
ATOM     12  C   UNL     1     -11.796 -16.962  26.869  1.00  0.00     0.130 C 
ATOM     13  O   UNL     1     -11.257 -17.628  25.998  1.00  0.00    -0.300 OA
ATOM     14  C   UNL     1     -13.280 -16.748  26.810  1.00  0.00     0.087 C 
ENDBRANCH  11  12
ENDBRANCH  10  11
ENDBRANCH   2  10
TORSDOF 6
ENDMDL
MODEL 9
REMARK VINA RESULT:    -4.981      1.840      4.735
REMARK INTER + INTRA:          -7.848
REMARK INTER:                  -6.916
REMARK INTRA:                  -0.932
REMARK UNBOUND:                -1.120
REMARK SMILES CC(=O)CCC=C(C)CCC=C(C)C
REMARK SMILES IDX 7 1 6 2 8 3 9 4 10 5 11 6 13 7 12 8 14 9 5 10 4 11 2 12 3 13
REMARK SMILES IDX 1 14
REMARK H PARENT
REMARK Flexibility Score: inf
ROOT
ATOM      1  C   UNL     1     -11.038 -16.861  31.177  1.00  0.00    -0.077 C 
ATOM      2  C   UNL     1     -10.862 -18.198  31.081  1.00  0.00    -0.028 C 
ATOM      3  C   UNL     1     -11.972 -16.263  32.202  1.00  0.00     0.039 C 
ENDROOT
BRANCH   1   4
ATOM      4  C   UNL     1     -10.274 -15.950  30.243  1.00  0.00     0.034 C 
BRANCH   4   5
ATOM      5  C   UNL     1     -10.418 -16.416  28.789  1.00  0.00     0.032 C 
BRANCH   5   6
ATOM      6  C   UNL     1     -11.842 -16.264  28.316  1.00  0.00    -0.028 C 
ATOM      7  C   UNL     1     -13.735 -16.426  26.757  1.00  0.00     0.039 C 
ATOM      8  C   UNL     1     -12.291 -16.677  27.110  1.00  0.00    -0.080 C 
ATOM      9  C   UNL     1     -11.397 -17.391  26.121  1.00  0.00     0.039 C 
ENDBRANCH   5   6
ENDBRANCH   4   5
ENDBRANCH   1   4
BRANCH   2  10
ATOM     10  C   UNL     1     -11.589 -19.194  31.954  1.00  0.00     0.035 C 
BRANCH  10  11
ATOM     11  C   UNL     1     -12.355 -20.232  31.124  1.00  0.00     0.079 C 
BRANCH  11  12
ATOM     12  C   UNL     1     -13.228 -19.577  30.083  1.00  0.00     0.130 C 
ATOM     13  O   UNL     1     -13.944 -18.638  30.402  1.00  0.00    -0.300 OA
ATOM     14  C   UNL     1     -13.249 -20.060  28.663  1.00  0.00     0.087 C 
ENDBRANCH  11  12
ENDBRANCH  10  11
ENDBRANCH   2  10
TORSDOF 6
ENDMDL
