MODEL 1
REMARK VINA RESULT:    -4.068      0.000      0.000
REMARK INTER + INTRA:          -5.226
REMARK INTER:                  -5.971
REMARK INTRA:                   0.744
REMARK UNBOUND:                 0.744
REMARK SMILES C=C1CC=CC(C)(C)CC=C(C)CCC1
REMARK SMILES IDX 2 1 1 2 15 3 14 4 13 5 11 6 12 7 10 8 3 10 4 11 5 12 6 13
REMARK SMILES IDX 7 14 8 15 9 16
REMARK H PARENT
REMARK Flexibility Score: 60.00
ROOT
ATOM      1  C   UNL     1      -0.687  13.828   5.436  1.00  0.00    -0.074 C 
ATOM      2  C   UNL     1      -1.762  14.480   5.911  1.00  0.00     0.008 C 
ENDROOT
BRANCH   1   3
ATOM      3  C   UNL     1       0.535  13.654   6.322  1.00  0.00     0.031 C 
BRANCH   3   4
ATOM      4  C   UNL     1       1.616  12.752   5.707  1.00  0.00     0.009 C 
BRANCH   4   5
ATOM      5  C   UNL     1       2.795  13.527   5.087  1.00  0.00     0.030 C 
BRANCH   5   6
ATOM      6  C   UNL     1       3.112  13.010   3.697  1.00  0.00    -0.077 C 
ATOM      7  C   UNL     1       3.917  11.736   3.606  1.00  0.00     0.039 C 
ATOM      8  C   UNL     1       2.785  13.671   2.559  1.00  0.00    -0.027 CG0
ATOM      9  G   UNL     1       1.930  14.923   2.470  1.00  0.00     0.000 G0
ENDBRANCH   5   6
ENDBRANCH   4   5
ENDBRANCH   3   4
ENDBRANCH   1   3
BRANCH   1  10
ATOM     10  C   UNL     1      -0.632  13.456   3.967  1.00  0.00     0.057 C 
BRANCH  10  11
ATOM     11  C   UNL     1      -1.171  14.527   3.051  1.00  0.00    -0.026 C 
ATOM     12  C   UNL     1      -0.574  15.108   1.983  1.00  0.00    -0.024 C 
BRANCH  12  13
ATOM     13  C   UNL     1       0.813  14.856   1.373  1.00  0.00    -0.014 C 
ATOM     14  C   UNL     1       0.884  13.490   0.651  1.00  0.00     0.016 C 
ATOM     15  C   UNL     1       1.059  15.942   0.294  1.00  0.00     0.016 C 
BRANCH  13  16
ATOM     16  C   UNL     1       1.935  14.928   2.448  1.00  0.00     0.038 CG0
ATOM     17  G   UNL     1       2.788  13.677   2.554  1.00  0.00     0.000 G0
ENDBRANCH  13  16
ENDBRANCH  12  13
ENDBRANCH  10  11
ENDBRANCH   1  10
TORSDOF 0
ENDMDL
MODEL 2
REMARK VINA RESULT:    -4.060      1.034      3.548
REMARK INTER + INTRA:          -5.214
REMARK INTER:                  -5.975
REMARK INTRA:                   0.761
REMARK UNBOUND:                 0.744
REMARK SMILES C=C1CC=CC(C)(C)CC=C(C)CCC1
REMARK SMILES IDX 2 1 1 2 15 3 14 4 13 5 11 6 12 7 10 8 3 10 4 11 5 12 6 13
REMARK SMILES IDX 7 14 8 15 9 16
REMARK H PARENT
REMARK Flexibility Score: 60.00
ROOT
ATOM      1  C   UNL     1      -0.695  13.271   5.264  1.00  0.00    -0.074 C 
ATOM      2  C   UNL     1      -1.622  12.838   6.136  1.00  0.00     0.008 C 
ENDROOT
BRANCH   1   3
ATOM      3  C   UNL     1      -0.997  14.473   4.386  1.00  0.00     0.031 C 
BRANCH   3   4
ATOM      4  C   UNL     1      -1.337  14.103   2.934  1.00  0.00     0.009 C 
BRANCH   4   5
ATOM      5  C   UNL     1      -0.564  14.924   1.884  1.00  0.00     0.030 C 
BRANCH   5   6
ATOM      6  C   UNL     1       0.469  14.065   1.180  1.00  0.00    -0.077 C 
ATOM      7  C   UNL     1       0.041  13.385  -0.097  1.00  0.00     0.039 C 
ATOM      8  C   UNL     1       1.706  13.819   1.680  1.00  0.00    -0.027 CG0
ATOM      9  G   UNL     1       2.315  14.467   2.911  1.00  0.00     0.000 G0
ENDBRANCH   5   6
ENDBRANCH   4   5
ENDBRANCH   3   4
ENDBRANCH   1   3
BRANCH   1  10
ATOM     10  C   UNL     1       0.549  12.438   5.028  1.00  0.00     0.057 C 
BRANCH  10  11
ATOM     11  C   UNL     1       1.778  12.975   5.720  1.00  0.00    -0.026 C 
ATOM     12  C   UNL     1       2.925  13.439   5.169  1.00  0.00    -0.024 C 
BRANCH  12  13
ATOM     13  C   UNL     1       3.327  13.568   3.691  1.00  0.00    -0.014 C 
ATOM     14  C   UNL     1       4.758  14.132   3.533  1.00  0.00     0.016 C 
ATOM     15  C   UNL     1       3.340  12.144   3.079  1.00  0.00     0.016 C 
BRANCH  13  16
ATOM     16  C   UNL     1       2.331  14.464   2.901  1.00  0.00     0.038 CG0
ATOM     17  G   UNL     1       1.696  13.792   1.697  1.00  0.00     0.000 G0
ENDBRANCH  13  16
ENDBRANCH  12  13
ENDBRANCH  10  11
ENDBRANCH   1  10
TORSDOF 0
ENDMDL
MODEL 3
REMARK VINA RESULT:    -4.006      1.369      3.404
REMARK INTER + INTRA:          -5.135
REMARK INTER:                  -5.786
REMARK INTRA:                   0.651
REMARK UNBOUND:                 0.744
REMARK SMILES C=C1CC=CC(C)(C)CC=C(C)CCC1
REMARK SMILES IDX 2 1 1 2 15 3 14 4 13 5 11 6 12 7 10 8 3 10 4 11 5 12 6 13
REMARK SMILES IDX 7 14 8 15 9 16
REMARK H PARENT
REMARK Flexibility Score: 60.00
ROOT
ATOM      1  C   UNL     1       3.095  13.196   4.273  1.00  0.00    -0.074 C 
ATOM      2  C   UNL     1       3.254  11.876   4.081  1.00  0.00     0.008 C 
ENDROOT
BRANCH   1   3
ATOM      3  C   UNL     1       3.061  13.748   5.688  1.00  0.00     0.031 C 
BRANCH   3   4
ATOM      4  C   UNL     1       1.817  13.322   6.484  1.00  0.00     0.009 C 
BRANCH   4   5
ATOM      5  C   UNL     1       0.529  14.058   6.068  1.00  0.00     0.030 C 
BRANCH   5   6
ATOM      6  C   UNL     1      -0.359  13.162   5.227  1.00  0.00    -0.077 C 
ATOM      7  C   UNL     1      -0.816  11.867   5.853  1.00  0.00     0.039 C 
ATOM      8  C   UNL     1      -0.685  13.427   3.937  1.00  0.00    -0.027 CG0
ATOM      9  G   UNL     1      -0.364  14.704   3.182  1.00  0.00     0.000 G0
ENDBRANCH   5   6
ENDBRANCH   4   5
ENDBRANCH   3   4
ENDBRANCH   1   3
BRANCH   1  10
ATOM     10  C   UNL     1       2.752  14.083   3.092  1.00  0.00     0.057 C 
BRANCH  10  11
ATOM     11  C   UNL     1       2.153  13.335   1.927  1.00  0.00    -0.026 C 
ATOM     12  C   UNL     1       0.950  13.519   1.331  1.00  0.00    -0.024 C 
BRANCH  12  13
ATOM     13  C   UNL     1      -0.158  14.537   1.642  1.00  0.00    -0.014 C 
ATOM     14  C   UNL     1       0.137  15.918   1.011  1.00  0.00     0.016 C 
ATOM     15  C   UNL     1      -1.468  14.022   0.993  1.00  0.00     0.016 C 
BRANCH  13  16
ATOM     16  C   UNL     1      -0.369  14.707   3.174  1.00  0.00     0.038 CG0
ATOM     17  G   UNL     1      -0.698  13.421   3.911  1.00  0.00     0.000 G0
ENDBRANCH  13  16
ENDBRANCH  12  13
ENDBRANCH  10  11
ENDBRANCH   1  10
TORSDOF 0
ENDMDL
MODEL 4
REMARK VINA RESULT:    -3.829      1.992      4.793
REMARK INTER + INTRA:          -4.876
REMARK INTER:                  -5.567
REMARK INTRA:                   0.691
REMARK UNBOUND:                 0.744
REMARK SMILES C=C1CC=CC(C)(C)CC=C(C)CCC1
REMARK SMILES IDX 2 1 1 2 15 3 14 4 13 5 11 6 12 7 10 8 3 10 4 11 5 12 6 13
REMARK SMILES IDX 7 14 8 15 9 16
REMARK H PARENT
REMARK Flexibility Score: 60.00
ROOT
ATOM      1  C   UNL     1       4.923  15.876   3.699  1.00  0.00    -0.074 C 
ATOM      2  C   UNL     1       5.847  16.373   4.540  1.00  0.00     0.008 C 
ENDROOT
BRANCH   1   3
ATOM      3  C   UNL     1       4.261  16.796   2.687  1.00  0.00     0.031 C 
BRANCH   3   4
ATOM      4  C   UNL     1       3.621  16.050   1.506  1.00  0.00     0.009 C 
BRANCH   4   5
ATOM      5  C   UNL     1       2.083  15.981   1.572  1.00  0.00     0.030 C 
BRANCH   5   6
ATOM      6  C   UNL     1       1.593  14.567   1.324  1.00  0.00    -0.077 C 
ATOM      7  C   UNL     1       1.658  14.058  -0.096  1.00  0.00     0.039 C 
ATOM      8  C   UNL     1       1.035  13.788   2.284  1.00  0.00    -0.027 CG0
ATOM      9  G   UNL     1       0.951  14.118   3.763  1.00  0.00     0.000 G0
ENDBRANCH   5   6
ENDBRANCH   4   5
ENDBRANCH   3   4
ENDBRANCH   1   3
BRANCH   1  10
ATOM     10  C   UNL     1       4.412  14.464   3.906  1.00  0.00     0.057 C 
BRANCH  10  11
ATOM     11  C   UNL     1       3.829  14.226   5.276  1.00  0.00    -0.026 C 
ATOM     12  C   UNL     1       2.653  13.640   5.606  1.00  0.00    -0.024 C 
BRANCH  12  13
ATOM     13  C   UNL     1       1.566  13.036   4.703  1.00  0.00    -0.014 C 
ATOM     14  C   UNL     1       2.111  11.864   3.854  1.00  0.00     0.016 C 
ATOM     15  C   UNL     1       0.464  12.446   5.620  1.00  0.00     0.016 C 
BRANCH  13  16
ATOM     16  C   UNL     1       0.941  14.105   3.762  1.00  0.00     0.038 CG0
ATOM     17  G   UNL     1       1.034  13.775   2.283  1.00  0.00     0.000 G0
ENDBRANCH  13  16
ENDBRANCH  12  13
ENDBRANCH  10  11
ENDBRANCH   1  10
TORSDOF 0
ENDMDL
MODEL 5
REMARK VINA RESULT:    -3.828      1.881      4.184
REMARK INTER + INTRA:          -4.874
REMARK INTER:                  -5.820
REMARK INTRA:                   0.947
REMARK UNBOUND:                 0.744
REMARK SMILES C=C1CC=CC(C)(C)CC=C(C)CCC1
REMARK SMILES IDX 2 1 1 2 15 3 14 4 13 5 11 6 12 7 10 8 3 10 4 11 5 12 6 13
REMARK SMILES IDX 7 14 8 15 9 16
REMARK H PARENT
REMARK Flexibility Score: 60.00
ROOT
ATOM      1  C   UNL     1       0.766  13.280   5.573  1.00  0.00    -0.074 C 
ATOM      2  C   UNL     1       1.799  13.385   6.426  1.00  0.00     0.008 C 
ENDROOT
BRANCH   1   3
ATOM      3  C   UNL     1      -0.652  13.229   6.115  1.00  0.00     0.031 C 
BRANCH   3   4
ATOM      4  C   UNL     1      -1.399  14.567   6.011  1.00  0.00     0.009 C 
BRANCH   4   5
ATOM      5  C   UNL     1      -2.748  14.472   5.274  1.00  0.00     0.030 C 
BRANCH   5   6
ATOM      6  C   UNL     1      -2.839  15.512   4.173  1.00  0.00    -0.077 C 
ATOM      7  C   UNL     1      -3.684  16.731   4.450  1.00  0.00     0.039 C 
ATOM      8  C   UNL     1      -2.276  15.358   2.949  1.00  0.00    -0.027 CG0
ATOM      9  G   UNL     1      -1.350  14.231   2.529  1.00  0.00     0.000 G0
ENDBRANCH   5   6
ENDBRANCH   4   5
ENDBRANCH   3   4
ENDBRANCH   1   3
BRANCH   1  10
ATOM     10  C   UNL     1       1.039  13.014   4.105  1.00  0.00     0.057 C 
BRANCH  10  11
ATOM     11  C   UNL     1       1.624  14.196   3.374  1.00  0.00    -0.026 C 
ATOM     12  C   UNL     1       1.114  14.878   2.320  1.00  0.00    -0.024 C 
BRANCH  12  13
ATOM     13  C   UNL     1      -0.202  14.670   1.557  1.00  0.00    -0.014 C 
ATOM     14  C   UNL     1      -0.627  15.942   0.786  1.00  0.00     0.016 C 
ATOM     15  C   UNL     1       0.037  13.566   0.495  1.00  0.00     0.016 C 
BRANCH  13  16
ATOM     16  C   UNL     1      -1.355  14.236   2.506  1.00  0.00     0.038 CG0
ATOM     17  G   UNL     1      -2.269  15.366   2.947  1.00  0.00     0.000 G0
ENDBRANCH  13  16
ENDBRANCH  12  13
ENDBRANCH  10  11
ENDBRANCH   1  10
TORSDOF 0
ENDMDL
MODEL 6
REMARK VINA RESULT:    -3.778      1.572      4.937
REMARK INTER + INTRA:          -4.800
REMARK INTER:                  -5.322
REMARK INTRA:                   0.522
REMARK UNBOUND:                 0.744
REMARK SMILES C=C1CC=CC(C)(C)CC=C(C)CCC1
REMARK SMILES IDX 2 1 1 2 15 3 14 4 13 5 11 6 12 7 10 8 3 10 4 11 5 12 6 13
REMARK SMILES IDX 7 14 8 15 9 16
REMARK H PARENT
REMARK Flexibility Score: 60.00
ROOT
ATOM      1  C   UNL     1       2.811  15.254   1.695  1.00  0.00    -0.074 C 
ATOM      2  C   UNL     1       3.152  16.535   1.477  1.00  0.00     0.008 C 
ENDROOT
BRANCH   1   3
ATOM      3  C   UNL     1       1.771  14.595   0.804  1.00  0.00     0.031 C 
BRANCH   3   4
ATOM      4  C   UNL     1       0.658  15.550   0.349  1.00  0.00     0.009 C 
BRANCH   4   5
ATOM      5  C   UNL     1      -0.451  15.759   1.398  1.00  0.00     0.030 C 
BRANCH   5   6
ATOM      6  C   UNL     1      -1.064  14.434   1.809  1.00  0.00    -0.077 C 
ATOM      7  C   UNL     1      -2.028  13.793   0.841  1.00  0.00     0.039 C 
ATOM      8  C   UNL     1      -0.853  13.854   3.018  1.00  0.00    -0.027 CG0
ATOM      9  G   UNL     1       0.128  14.329   4.075  1.00  0.00     0.000 G0
ENDBRANCH   5   6
ENDBRANCH   4   5
ENDBRANCH   3   4
ENDBRANCH   1   3
BRANCH   1  10
ATOM     10  C   UNL     1       3.314  14.552   2.941  1.00  0.00     0.057 C 
BRANCH  10  11
ATOM     11  C   UNL     1       2.906  13.102   3.025  1.00  0.00    -0.026 C 
ATOM     12  C   UNL     1       1.933  12.538   3.780  1.00  0.00    -0.024 C 
BRANCH  12  13
ATOM     13  C   UNL     1       0.949  13.188   4.765  1.00  0.00    -0.014 C 
ATOM     14  C   UNL     1      -0.013  12.147   5.385  1.00  0.00     0.016 C 
ATOM     15  C   UNL     1       1.776  13.781   5.935  1.00  0.00     0.016 C 
BRANCH  13  16
ATOM     16  C   UNL     1       0.120  14.317   4.089  1.00  0.00     0.038 CG0
ATOM     17  G   UNL     1      -0.839  13.838   3.014  1.00  0.00     0.000 G0
ENDBRANCH  13  16
ENDBRANCH  12  13
ENDBRANCH  10  11
ENDBRANCH   1  10
TORSDOF 0
ENDMDL
MODEL 7
REMARK VINA RESULT:    -3.669      1.989      5.115
REMARK INTER + INTRA:          -4.640
REMARK INTER:                  -5.571
REMARK INTRA:                   0.932
REMARK UNBOUND:                 0.744
REMARK SMILES C=C1CC=CC(C)(C)CC=C(C)CCC1
REMARK SMILES IDX 2 1 1 2 15 3 14 4 13 5 11 6 12 7 10 8 3 10 4 11 5 12 6 13
REMARK SMILES IDX 7 14 8 15 9 16
REMARK H PARENT
REMARK Flexibility Score: 60.00
ROOT
ATOM      1  C   UNL     1       3.826  16.716   1.424  1.00  0.00    -0.074 C 
ATOM      2  C   UNL     1       4.300  17.949   1.177  1.00  0.00     0.008 C 
ENDROOT
BRANCH   1   3
ATOM      3  C   UNL     1       3.192  15.918   0.296  1.00  0.00     0.031 C 
BRANCH   3   4
ATOM      4  C   UNL     1       1.724  16.287   0.033  1.00  0.00     0.009 C 
BRANCH   4   5
ATOM      5  C   UNL     1       0.719  15.488   0.884  1.00  0.00     0.030 C 
BRANCH   5   6
ATOM      6  C   UNL     1       1.067  14.011   0.889  1.00  0.00    -0.077 C 
ATOM      7  C   UNL     1       0.833  13.247  -0.390  1.00  0.00     0.039 C 
ATOM      8  C   UNL     1       1.491  13.345   1.993  1.00  0.00    -0.027 CG0
ATOM      9  G   UNL     1       1.836  13.969   3.333  1.00  0.00     0.000 G0
ENDBRANCH   5   6
ENDBRANCH   4   5
ENDBRANCH   3   4
ENDBRANCH   1   3
BRANCH   1  10
ATOM     10  C   UNL     1       3.748  16.222   2.855  1.00  0.00     0.057 C 
BRANCH  10  11
ATOM     11  C   UNL     1       4.670  15.064   3.146  1.00  0.00    -0.026 C 
ATOM     12  C   UNL     1       4.366  13.848   3.662  1.00  0.00    -0.024 C 
BRANCH  12  13
ATOM     13  C   UNL     1       3.009  13.274   4.097  1.00  0.00    -0.014 C 
ATOM     14  C   UNL     1       2.936  11.745   3.879  1.00  0.00     0.016 C 
ATOM     15  C   UNL     1       2.862  13.513   5.622  1.00  0.00     0.016 C 
BRANCH  13  16
ATOM     16  C   UNL     1       1.829  13.957   3.348  1.00  0.00     0.038 CG0
ATOM     17  G   UNL     1       1.494  13.339   2.003  1.00  0.00     0.000 G0
ENDBRANCH  13  16
ENDBRANCH  12  13
ENDBRANCH  10  11
ENDBRANCH   1  10
TORSDOF 0
ENDMDL
MODEL 8
REMARK VINA RESULT:    -3.630      1.344      3.992
REMARK INTER + INTRA:          -4.583
REMARK INTER:                  -5.868
REMARK INTRA:                   1.285
REMARK UNBOUND:                 0.744
REMARK SMILES C=C1CC=CC(C)(C)CC=C(C)CCC1
REMARK SMILES IDX 2 1 1 2 15 3 14 4 13 5 11 6 12 7 10 8 3 10 4 11 5 12 6 13
REMARK SMILES IDX 7 14 8 15 9 16
REMARK H PARENT
REMARK Flexibility Score: 60.00
ROOT
ATOM      1  C   UNL     1      -0.551  14.954   1.537  1.00  0.00    -0.074 C 
ATOM      2  C   UNL     1      -1.647  15.484   0.969  1.00  0.00     0.008 C 
ENDROOT
BRANCH   1   3
ATOM      3  C   UNL     1       0.816  15.241   0.938  1.00  0.00     0.031 C 
BRANCH   3   4
ATOM      4  C   UNL     1       1.960  15.187   1.962  1.00  0.00     0.009 C 
BRANCH   4   5
ATOM      5  C   UNL     1       2.546  13.777   2.167  1.00  0.00     0.030 C 
BRANCH   5   6
ATOM      6  C   UNL     1       3.104  13.622   3.569  1.00  0.00    -0.077 C 
ATOM      7  C   UNL     1       4.504  14.131   3.811  1.00  0.00     0.039 C 
ATOM      8  C   UNL     1       2.448  12.984   4.570  1.00  0.00    -0.027 CG0
ATOM      9  G   UNL     1       1.020  12.471   4.515  1.00  0.00     0.000 G0
ENDBRANCH   5   6
ENDBRANCH   4   5
ENDBRANCH   3   4
ENDBRANCH   1   3
BRANCH   1  10
ATOM     10  C   UNL     1      -0.707  13.923   2.638  1.00  0.00     0.057 C 
BRANCH  10  11
ATOM     11  C   UNL     1      -1.140  14.509   3.958  1.00  0.00    -0.026 C 
ATOM     12  C   UNL     1      -0.811  14.111   5.211  1.00  0.00    -0.024 C 
BRANCH  12  13
ATOM     13  C   UNL     1       0.099  12.962   5.671  1.00  0.00    -0.014 C 
ATOM     14  C   UNL     1       0.969  13.370   6.883  1.00  0.00     0.016 C 
ATOM     15  C   UNL     1      -0.811  11.801   6.148  1.00  0.00     0.016 C 
BRANCH  13  16
ATOM     16  C   UNL     1       1.020  12.462   4.522  1.00  0.00     0.038 CG0
ATOM     17  G   UNL     1       2.443  12.986   4.581  1.00  0.00     0.000 G0
ENDBRANCH  13  16
ENDBRANCH  12  13
ENDBRANCH  10  11
ENDBRANCH   1  10
TORSDOF 0
ENDMDL
MODEL 9
REMARK VINA RESULT:    -3.621      1.787      4.203
REMARK INTER + INTRA:          -4.570
REMARK INTER:                  -5.203
REMARK INTRA:                   0.632
REMARK UNBOUND:                 0.744
REMARK SMILES C=C1CC=CC(C)(C)CC=C(C)CCC1
REMARK SMILES IDX 2 1 1 2 15 3 14 4 13 5 11 6 12 7 10 8 3 10 4 11 5 12 6 13
REMARK SMILES IDX 7 14 8 15 9 16
REMARK H PARENT
REMARK Flexibility Score: 60.00
ROOT
ATOM      1  C   UNL     1      -2.901  14.650   5.989  1.00  0.00    -0.074 C 
ATOM      2  C   UNL     1      -3.841  13.845   6.510  1.00  0.00     0.008 C 
ENDROOT
BRANCH   1   3
ATOM      3  C   UNL     1      -3.301  15.716   4.982  1.00  0.00     0.031 C 
BRANCH   3   4
ATOM      4  C   UNL     1      -3.200  15.250   3.522  1.00  0.00     0.009 C 
BRANCH   4   5
ATOM      5  C   UNL     1      -1.885  15.655   2.828  1.00  0.00     0.030 C 
BRANCH   5   6
ATOM      6  C   UNL     1      -1.240  14.460   2.152  1.00  0.00    -0.077 C 
ATOM      7  C   UNL     1      -1.934  13.903   0.934  1.00  0.00     0.039 C 
ATOM      8  C   UNL     1      -0.137  13.833   2.633  1.00  0.00    -0.027 CG0
ATOM      9  G   UNL     1       0.713  14.296   3.802  1.00  0.00     0.000 G0
ENDBRANCH   5   6
ENDBRANCH   4   5
ENDBRANCH   3   4
ENDBRANCH   1   3
BRANCH   1  10
ATOM     10  C   UNL     1      -1.438  14.355   6.256  1.00  0.00     0.057 C 
BRANCH  10  11
ATOM     11  C   UNL     1      -1.060  12.912   6.027  1.00  0.00    -0.026 C 
ATOM     12  C   UNL     1       0.031  12.412   5.398  1.00  0.00    -0.024 C 
BRANCH  12  13
ATOM     13  C   UNL     1       1.210  13.144   4.739  1.00  0.00    -0.014 C 
ATOM     14  C   UNL     1       2.185  13.724   5.791  1.00  0.00     0.016 C 
ATOM     15  C   UNL     1       2.012  12.103   3.916  1.00  0.00     0.016 C 
BRANCH  13  16
ATOM     16  C   UNL     1       0.726  14.287   3.801  1.00  0.00     0.038 CG0
ATOM     17  G   UNL     1      -0.141  13.828   2.643  1.00  0.00     0.000 G0
ENDBRANCH  13  16
ENDBRANCH  12  13
ENDBRANCH  10  11
ENDBRANCH   1  10
TORSDOF 0
ENDMDL
