MODEL 1
REMARK VINA RESULT:    -4.717      0.000      0.000
REMARK INTER + INTRA:          -5.017
REMARK INTER:                  -4.993
REMARK INTRA:                  -0.024
REMARK UNBOUND:                -0.024
REMARK SMILES O=C([O-])c1cccnc1
REMARK SMILES IDX 4 1 5 2 9 3 6 4 8 5 7 6 2 7 1 8 3 9
REMARK H PARENT
REMARK Flexibility Score: inf
ROOT
ATOM      1  C   UNL     1     133.417 132.844 137.743  1.00  0.00     0.016 A 
ATOM      2  C   UNL     1     132.957 133.622 138.820  1.00  0.00     0.013 A 
ATOM      3  C   UNL     1     134.629 133.203 137.130  1.00  0.00     0.120 A 
ATOM      4  C   UNL     1     133.699 134.721 139.257  1.00  0.00     0.021 A 
ATOM      5  N   UNL     1     135.332 134.278 137.576  1.00  0.00    -0.264 NA
ATOM      6  C   UNL     1     134.897 135.037 138.615  1.00  0.00     0.111 A 
ENDROOT
BRANCH   1   7
ATOM      7  C   UNL     1     132.646 131.676 137.266  1.00  0.00     0.073 C 
ATOM      8  O   UNL     1     133.004 131.049 136.235  1.00  0.00    -0.545 OA
ATOM      9  O   UNL     1     131.512 131.254 137.951  1.00  0.00    -0.545 OA
ENDBRANCH   1   7
TORSDOF 1
ENDMDL
MODEL 2
REMARK VINA RESULT:    -4.642      2.779      3.632
REMARK INTER + INTRA:          -4.937
REMARK INTER:                  -4.920
REMARK INTRA:                  -0.017
REMARK UNBOUND:                -0.024
REMARK SMILES O=C([O-])c1cccnc1
REMARK SMILES IDX 4 1 5 2 9 3 6 4 8 5 7 6 2 7 1 8 3 9
REMARK H PARENT
REMARK Flexibility Score: inf
ROOT
ATOM      1  C   UNL     1     133.730 133.879 138.140  1.00  0.00     0.016 A 
ATOM      2  C   UNL     1     132.588 133.099 138.392  1.00  0.00     0.013 A 
ATOM      3  C   UNL     1     134.603 133.475 137.116  1.00  0.00     0.120 A 
ATOM      4  C   UNL     1     132.342 131.953 137.633  1.00  0.00     0.021 A 
ATOM      5  N   UNL     1     134.339 132.354 136.393  1.00  0.00    -0.264 NA
ATOM      6  C   UNL     1     133.239 131.593 136.628  1.00  0.00     0.111 A 
ENDROOT
BRANCH   1   7
ATOM      7  C   UNL     1     134.008 135.097 138.932  1.00  0.00     0.073 C 
ATOM      8  O   UNL     1     133.291 136.124 138.802  1.00  0.00    -0.545 OA
ATOM      9  O   UNL     1     135.066 135.124 139.833  1.00  0.00    -0.545 OA
ENDBRANCH   1   7
TORSDOF 1
ENDMDL
MODEL 3
REMARK VINA RESULT:    -4.523      0.963      1.615
REMARK INTER + INTRA:          -4.811
REMARK INTER:                  -4.787
REMARK INTRA:                  -0.024
REMARK UNBOUND:                -0.024
REMARK SMILES O=C([O-])c1cccnc1
REMARK SMILES IDX 4 1 5 2 9 3 6 4 8 5 7 6 2 7 1 8 3 9
REMARK H PARENT
REMARK Flexibility Score: inf
ROOT
ATOM      1  C   UNL     1     133.542 132.957 137.812  1.00  0.00     0.016 A 
ATOM      2  C   UNL     1     134.805 133.327 137.318  1.00  0.00     0.013 A 
ATOM      3  C   UNL     1     132.994 133.704 138.868  1.00  0.00     0.120 A 
ATOM      4  C   UNL     1     135.485 134.412 137.874  1.00  0.00     0.021 A 
ATOM      5  N   UNL     1     133.677 134.756 139.392  1.00  0.00    -0.264 NA
ATOM      6  C   UNL     1     134.899 135.122 138.923  1.00  0.00     0.111 A 
ENDROOT
BRANCH   1   7
ATOM      7  C   UNL     1     132.807 131.812 137.235  1.00  0.00     0.073 C 
ATOM      8  O   UNL     1     133.214 131.251 136.184  1.00  0.00    -0.545 OA
ATOM      9  O   UNL     1     131.652 131.336 137.848  1.00  0.00    -0.545 OA
ENDBRANCH   1   7
TORSDOF 1
ENDMDL
MODEL 4
REMARK VINA RESULT:    -4.346      1.566      1.912
REMARK INTER + INTRA:          -4.624
REMARK INTER:                  -4.607
REMARK INTRA:                  -0.016
REMARK UNBOUND:                -0.024
REMARK SMILES O=C([O-])c1cccnc1
REMARK SMILES IDX 4 1 5 2 9 3 6 4 8 5 7 6 2 7 1 8 3 9
REMARK H PARENT
REMARK Flexibility Score: inf
ROOT
ATOM      1  C   UNL     1     133.973 133.763 138.130  1.00  0.00     0.016 A 
ATOM      2  C   UNL     1     134.345 134.162 139.425  1.00  0.00     0.013 A 
ATOM      3  C   UNL     1     134.979 133.629 137.158  1.00  0.00     0.120 A 
ATOM      4  C   UNL     1     135.686 134.415 139.722  1.00  0.00     0.021 A 
ATOM      5  N   UNL     1     136.277 133.882 137.474  1.00  0.00    -0.264 NA
ATOM      6  C   UNL     1     136.647 134.268 138.723  1.00  0.00     0.111 A 
ENDROOT
BRANCH   1   7
ATOM      7  C   UNL     1     132.559 133.490 137.795  1.00  0.00     0.073 C 
ATOM      8  O   UNL     1     131.753 134.436 137.592  1.00  0.00    -0.545 OA
ATOM      9  O   UNL     1     132.098 132.182 137.700  1.00  0.00    -0.545 OA
ENDBRANCH   1   7
TORSDOF 1
ENDMDL
MODEL 5
REMARK VINA RESULT:    -4.312      2.960      3.974
REMARK INTER + INTRA:          -4.588
REMARK INTER:                  -4.571
REMARK INTRA:                  -0.017
REMARK UNBOUND:                -0.024
REMARK SMILES O=C([O-])c1cccnc1
REMARK SMILES IDX 4 1 5 2 9 3 6 4 8 5 7 6 2 7 1 8 3 9
REMARK H PARENT
REMARK Flexibility Score: inf
ROOT
ATOM      1  C   UNL     1     133.735 133.891 138.128  1.00  0.00     0.016 A 
ATOM      2  C   UNL     1     134.522 133.457 137.047  1.00  0.00     0.013 A 
ATOM      3  C   UNL     1     132.588 133.150 138.459  1.00  0.00     0.120 A 
ATOM      4  C   UNL     1     134.159 132.315 136.331  1.00  0.00     0.021 A 
ATOM      5  N   UNL     1     132.256 132.042 137.744  1.00  0.00    -0.264 NA
ATOM      6  C   UNL     1     133.010 131.614 136.698  1.00  0.00     0.111 A 
ENDROOT
BRANCH   1   7
ATOM      7  C   UNL     1     134.103 135.098 138.900  1.00  0.00     0.073 C 
ATOM      8  O   UNL     1     133.376 136.125 138.870  1.00  0.00    -0.545 OA
ATOM      9  O   UNL     1     135.259 135.113 139.672  1.00  0.00    -0.545 OA
ENDBRANCH   1   7
TORSDOF 1
ENDMDL
MODEL 6
REMARK VINA RESULT:    -4.198      1.488      2.095
REMARK INTER + INTRA:          -4.467
REMARK INTER:                  -4.446
REMARK INTRA:                  -0.021
REMARK UNBOUND:                -0.024
REMARK SMILES O=C([O-])c1cccnc1
REMARK SMILES IDX 4 1 5 2 9 3 6 4 8 5 7 6 2 7 1 8 3 9
REMARK H PARENT
REMARK Flexibility Score: inf
ROOT
ATOM      1  C   UNL     1     134.456 133.558 137.415  1.00  0.00     0.016 A 
ATOM      2  C   UNL     1     133.294 133.856 138.148  1.00  0.00     0.013 A 
ATOM      3  C   UNL     1     135.681 134.078 137.866  1.00  0.00     0.120 A 
ATOM      4  C   UNL     1     133.373 134.650 139.293  1.00  0.00     0.021 A 
ATOM      5  N   UNL     1     135.730 134.849 138.985  1.00  0.00    -0.264 NA
ATOM      6  C   UNL     1     134.613 135.144 139.700  1.00  0.00     0.111 A 
ENDROOT
BRANCH   1   7
ATOM      7  C   UNL     1     134.394 132.718 136.200  1.00  0.00     0.073 C 
ATOM      8  O   UNL     1     133.605 131.739 136.137  1.00  0.00    -0.545 OA
ATOM      9  O   UNL     1     135.207 132.999 135.108  1.00  0.00    -0.545 OA
ENDBRANCH   1   7
TORSDOF 1
ENDMDL
MODEL 7
REMARK VINA RESULT:    -4.004      3.129      3.803
REMARK INTER + INTRA:          -4.262
REMARK INTER:                  -4.246
REMARK INTRA:                  -0.016
REMARK UNBOUND:                -0.024
REMARK SMILES O=C([O-])c1cccnc1
REMARK SMILES IDX 4 1 5 2 9 3 6 4 8 5 7 6 2 7 1 8 3 9
REMARK H PARENT
REMARK Flexibility Score: inf
ROOT
ATOM      1  C   UNL     1     134.782 134.381 138.799  1.00  0.00     0.016 A 
ATOM      2  C   UNL     1     134.021 133.366 138.193  1.00  0.00     0.013 A 
ATOM      3  C   UNL     1     134.179 135.632 139.010  1.00  0.00     0.120 A 
ATOM      4  C   UNL     1     132.699 133.613 137.816  1.00  0.00     0.021 A 
ATOM      5  N   UNL     1     132.890 135.846 138.633  1.00  0.00    -0.264 NA
ATOM      6  C   UNL     1     132.145 134.872 138.046  1.00  0.00     0.111 A 
ENDROOT
BRANCH   1   7
ATOM      7  C   UNL     1     136.182 134.139 139.206  1.00  0.00     0.073 C 
ATOM      8  O   UNL     1     137.123 134.273 138.380  1.00  0.00    -0.545 OA
ATOM      9  O   UNL     1     136.481 133.761 140.510  1.00  0.00    -0.545 OA
ENDBRANCH   1   7
TORSDOF 1
ENDMDL
MODEL 8
REMARK VINA RESULT:    -2.906      4.189      5.986
REMARK INTER + INTRA:          -3.100
REMARK INTER:                  -3.076
REMARK INTRA:                  -0.024
REMARK UNBOUND:                -0.024
REMARK SMILES O=C([O-])c1cccnc1
REMARK SMILES IDX 4 1 5 2 9 3 6 4 8 5 7 6 2 7 1 8 3 9
REMARK H PARENT
REMARK Flexibility Score: inf
ROOT
ATOM      1  C   UNL     1     131.574 129.274 137.815  1.00  0.00     0.016 A 
ATOM      2  C   UNL     1     131.849 128.204 136.945  1.00  0.00     0.013 A 
ATOM      3  C   UNL     1     130.913 128.999 139.024  1.00  0.00     0.120 A 
ATOM      4  C   UNL     1     131.469 126.906 137.290  1.00  0.00     0.021 A 
ATOM      5  N   UNL     1     130.553 127.725 139.335  1.00  0.00    -0.264 NA
ATOM      6  C   UNL     1     130.814 126.684 138.502  1.00  0.00     0.111 A 
ENDROOT
BRANCH   1   7
ATOM      7  C   UNL     1     131.970 130.656 137.468  1.00  0.00     0.073 C 
ATOM      8  O   UNL     1     131.601 131.626 138.181  1.00  0.00    -0.545 OA
ATOM      9  O   UNL     1     132.756 130.903 136.348  1.00  0.00    -0.545 OA
ENDBRANCH   1   7
TORSDOF 1
ENDMDL
MODEL 9
REMARK VINA RESULT:    -2.514      4.164      4.816
REMARK INTER + INTRA:          -2.685
REMARK INTER:                  -2.669
REMARK INTRA:                  -0.016
REMARK UNBOUND:                -0.024
REMARK SMILES O=C([O-])c1cccnc1
REMARK SMILES IDX 4 1 5 2 9 3 6 4 8 5 7 6 2 7 1 8 3 9
REMARK H PARENT
REMARK Flexibility Score: inf
ROOT
ATOM      1  C   UNL     1     136.999 133.837 139.688  1.00  0.00     0.016 A 
ATOM      2  C   UNL     1     135.808 133.999 140.417  1.00  0.00     0.013 A 
ATOM      3  C   UNL     1     136.957 134.013 138.294  1.00  0.00     0.120 A 
ATOM      4  C   UNL     1     134.622 134.327 139.758  1.00  0.00     0.021 A 
ATOM      5  N   UNL     1     135.789 134.331 137.677  1.00  0.00    -0.264 NA
ATOM      6  C   UNL     1     134.632 134.490 138.372  1.00  0.00     0.111 A 
ENDROOT
BRANCH   1   7
ATOM      7  C   UNL     1     138.265 133.491 140.368  1.00  0.00     0.073 C 
ATOM      8  O   UNL     1     139.030 134.394 140.798  1.00  0.00    -0.545 OA
ATOM      9  O   UNL     1     138.630 132.161 140.543  1.00  0.00    -0.545 OA
ENDBRANCH   1   7
TORSDOF 1
ENDMDL
