MODEL 1
REMARK VINA RESULT:    -5.978      0.000      0.000
REMARK INTER + INTRA:          -7.513
REMARK INTER:                  -7.201
REMARK INTRA:                  -0.312
REMARK UNBOUND:                -0.312
REMARK SMILES O=c1c(O)c(-c2ccc(O)c(O)c2)oc2cc(O)cc(O)c12
REMARK SMILES IDX 5 1 3 2 2 3 1 4 22 5 20 6 19 7 17 8 16 9 15 10 14 11 6 12
REMARK SMILES IDX 7 13 8 14 9 15 13 16 11 17 10 18 12 20 4 22 21 24 18 26
REMARK H PARENT 10 19 12 21 4 23 21 25 18 27
REMARK Flexibility Score: inf
ROOT
ATOM      1  C   UNL     1     318.454 234.321 201.231  1.00  0.00     0.180 A 
ATOM      2  C   UNL     1     317.232 234.479 200.554  1.00  0.00     0.208 A 
ATOM      3  C   UNL     1     316.063 234.695 201.300  1.00  0.00     0.238 A 
ATOM      4  O   UNL     1     314.986 234.910 200.686  1.00  0.00    -0.285 OA
ATOM      5  C   UNL     1     316.120 234.696 202.716  1.00  0.00     0.111 A 
ATOM      6  C   UNL     1     314.990 234.862 203.574  1.00  0.00     0.134 A 
ATOM      7  C   UNL     1     315.182 234.952 204.958  1.00  0.00     0.093 A 
ATOM      8  C   UNL     1     316.450 234.819 205.520  1.00  0.00     0.123 A 
ATOM      9  C   UNL     1     317.554 234.602 204.695  1.00  0.00     0.094 A 
ATOM     10  C   UNL     1     317.401 234.546 203.307  1.00  0.00     0.146 A 
ATOM     11  O   UNL     1     318.481 234.359 202.558  1.00  0.00    -0.452 OA
ENDROOT
BRANCH   1  12
ATOM     12  C   UNL     1     319.731 234.103 200.514  1.00  0.00     0.025 A 
ATOM     13  C   UNL     1     320.118 232.822 200.083  1.00  0.00     0.016 A 
ATOM     14  C   UNL     1     321.317 232.644 199.387  1.00  0.00     0.051 A 
ATOM     15  C   UNL     1     322.137 233.739 199.099  1.00  0.00     0.157 A 
ATOM     16  C   UNL     1     320.547 235.203 200.206  1.00  0.00     0.062 A 
ATOM     17  C   UNL     1     321.750 235.027 199.507  1.00  0.00     0.158 A 
BRANCH  15  18
ATOM     18  O   UNL     1     323.328 233.529 198.404  1.00  0.00    -0.504 OA
ATOM     19  H   UNL     1     323.601 232.612 198.069  1.00  0.00     0.293 HD
ENDBRANCH  15  18
BRANCH  17  20
ATOM     20  O   UNL     1     322.561 236.124 199.217  1.00  0.00    -0.504 OA
ATOM     21  H   UNL     1     323.455 236.258 199.675  1.00  0.00     0.293 HD
ENDBRANCH  17  20
ENDBRANCH   1  12
BRANCH   2  22
ATOM     22  O   UNL     1     317.186 234.398 199.160  1.00  0.00    -0.502 OA
ATOM     23  H   UNL     1     316.682 233.665 198.674  1.00  0.00     0.293 HD
ENDBRANCH   2  22
BRANCH   6  24
ATOM     24  O   UNL     1     313.667 234.917 203.125  1.00  0.00    -0.507 OA
ATOM     25  H   UNL     1     313.233 235.725 202.705  1.00  0.00     0.293 HD
ENDBRANCH   6  24
BRANCH   8  26
ATOM     26  O   UNL     1     316.601 234.897 206.903  1.00  0.00    -0.508 OA
ATOM     27  H   UNL     1     315.821 234.738 207.531  1.00  0.00     0.293 HD
ENDBRANCH   8  26
TORSDOF 6
ENDMDL
MODEL 2
REMARK VINA RESULT:    -5.921     10.616     13.494
REMARK INTER + INTRA:          -7.445
REMARK INTER:                  -7.255
REMARK INTRA:                  -0.189
REMARK UNBOUND:                -0.312
REMARK SMILES O=c1c(O)c(-c2ccc(O)c(O)c2)oc2cc(O)cc(O)c12
REMARK SMILES IDX 5 1 3 2 2 3 1 4 22 5 20 6 19 7 17 8 16 9 15 10 14 11 6 12
REMARK SMILES IDX 7 13 8 14 9 15 13 16 11 17 10 18 12 20 4 22 21 24 18 26
REMARK H PARENT 10 19 12 21 4 23 21 25 18 27
REMARK Flexibility Score: inf
ROOT
ATOM      1  C   UNL     1     308.171 226.678 203.571  1.00  0.00     0.180 A 
ATOM      2  C   UNL     1     306.988 227.213 203.033  1.00  0.00     0.208 A 
ATOM      3  C   UNL     1     306.908 228.596 202.805  1.00  0.00     0.238 A 
ATOM      4  O   UNL     1     305.875 229.058 202.254  1.00  0.00    -0.285 OA
ATOM      5  C   UNL     1     307.989 229.435 203.170  1.00  0.00     0.111 A 
ATOM      6  C   UNL     1     307.999 230.856 203.026  1.00  0.00     0.134 A 
ATOM      7  C   UNL     1     309.166 231.572 203.322  1.00  0.00     0.093 A 
ATOM      8  C   UNL     1     310.299 230.929 203.817  1.00  0.00     0.123 A 
ATOM      9  C   UNL     1     310.282 229.547 204.013  1.00  0.00     0.094 A 
ATOM     10  C   UNL     1     309.147 228.800 203.691  1.00  0.00     0.146 A 
ATOM     11  O   UNL     1     309.181 227.486 203.873  1.00  0.00    -0.452 OA
ENDROOT
BRANCH   1  12
ATOM     12  C   UNL     1     308.337 225.229 203.827  1.00  0.00     0.025 A 
ATOM     13  C   UNL     1     309.270 224.461 203.107  1.00  0.00     0.016 A 
ATOM     14  C   UNL     1     309.427 223.101 203.383  1.00  0.00     0.051 A 
ATOM     15  C   UNL     1     308.668 222.490 204.386  1.00  0.00     0.157 A 
ATOM     16  C   UNL     1     307.592 224.618 204.847  1.00  0.00     0.062 A 
ATOM     17  C   UNL     1     307.747 223.252 205.125  1.00  0.00     0.158 A 
BRANCH  15  18
ATOM     18  O   UNL     1     308.846 221.130 204.637  1.00  0.00    -0.504 OA
ATOM     19  H   UNL     1     309.576 220.787 205.251  1.00  0.00     0.293 HD
ENDBRANCH  15  18
BRANCH  17  20
ATOM     20  O   UNL     1     306.993 222.651 206.132  1.00  0.00    -0.504 OA
ATOM     21  H   UNL     1     307.212 222.787 207.112  1.00  0.00     0.293 HD
ENDBRANCH  17  20
ENDBRANCH   1  12
BRANCH   2  22
ATOM     22  O   UNL     1     305.904 226.378 202.751  1.00  0.00    -0.502 OA
ATOM     23  H   UNL     1     305.201 226.147 203.443  1.00  0.00     0.293 HD
ENDBRANCH   2  22
BRANCH   6  24
ATOM     24  O   UNL     1     306.893 231.611 202.623  1.00  0.00    -0.507 OA
ATOM     25  H   UNL     1     306.804 232.074 201.733  1.00  0.00     0.293 HD
ENDBRANCH   6  24
BRANCH   8  26
ATOM     26  O   UNL     1     311.437 231.675 204.117  1.00  0.00    -0.508 OA
ATOM     27  H   UNL     1     312.259 231.651 203.524  1.00  0.00     0.293 HD
ENDBRANCH   8  26
TORSDOF 6
ENDMDL
MODEL 3
REMARK VINA RESULT:    -5.791      9.702     13.018
REMARK INTER + INTRA:          -7.287
REMARK INTER:                  -6.983
REMARK INTRA:                  -0.305
REMARK UNBOUND:                -0.312
REMARK SMILES O=c1c(O)c(-c2ccc(O)c(O)c2)oc2cc(O)cc(O)c12
REMARK SMILES IDX 5 1 3 2 2 3 1 4 22 5 20 6 19 7 17 8 16 9 15 10 14 11 6 12
REMARK SMILES IDX 7 13 8 14 9 15 13 16 11 17 10 18 12 20 4 22 21 24 18 26
REMARK H PARENT 10 19 12 21 4 23 21 25 18 27
REMARK Flexibility Score: inf
ROOT
ATOM      1  C   UNL     1     307.984 228.125 203.368  1.00  0.00     0.180 A 
ATOM      2  C   UNL     1     307.068 228.606 202.416  1.00  0.00     0.208 A 
ATOM      3  C   UNL     1     307.350 229.808 201.748  1.00  0.00     0.238 A 
ATOM      4  O   UNL     1     306.564 230.194 200.844  1.00  0.00    -0.285 OA
ATOM      5  C   UNL     1     308.514 230.544 202.079  1.00  0.00     0.111 A 
ATOM      6  C   UNL     1     308.876 231.797 201.498  1.00  0.00     0.134 A 
ATOM      7  C   UNL     1     310.106 232.382 201.826  1.00  0.00     0.093 A 
ATOM      8  C   UNL     1     310.956 231.793 202.760  1.00  0.00     0.123 A 
ATOM      9  C   UNL     1     310.588 230.596 203.375  1.00  0.00     0.094 A 
ATOM     10  C   UNL     1     309.385 229.969 203.041  1.00  0.00     0.146 A 
ATOM     11  O   UNL     1     309.083 228.821 203.634  1.00  0.00    -0.452 OA
ENDROOT
BRANCH   1  12
ATOM     12  C   UNL     1     307.765 226.859 204.104  1.00  0.00     0.025 A 
ATOM     13  C   UNL     1     307.179 226.848 205.383  1.00  0.00     0.016 A 
ATOM     14  C   UNL     1     306.960 225.639 206.048  1.00  0.00     0.051 A 
ATOM     15  C   UNL     1     307.308 224.427 205.446  1.00  0.00     0.157 A 
ATOM     16  C   UNL     1     308.093 225.639 203.493  1.00  0.00     0.062 A 
ATOM     17  C   UNL     1     307.874 224.424 204.160  1.00  0.00     0.158 A 
BRANCH  15  18
ATOM     18  O   UNL     1     307.078 223.237 206.135  1.00  0.00    -0.504 OA
ATOM     19  H   UNL     1     307.837 222.658 206.477  1.00  0.00     0.293 HD
ENDBRANCH  15  18
BRANCH  17  20
ATOM     20  O   UNL     1     308.216 223.218 203.550  1.00  0.00    -0.504 OA
ATOM     21  H   UNL     1     309.135 223.069 203.148  1.00  0.00     0.293 HD
ENDBRANCH  17  20
ENDBRANCH   1  12
BRANCH   2  22
ATOM     22  O   UNL     1     305.888 227.905 202.159  1.00  0.00    -0.502 OA
ATOM     23  H   UNL     1     305.298 227.543 202.900  1.00  0.00     0.293 HD
ENDBRANCH   2  22
BRANCH   6  24
ATOM     24  O   UNL     1     308.061 232.518 200.619  1.00  0.00    -0.507 OA
ATOM     25  H   UNL     1     307.057 232.577 200.680  1.00  0.00     0.293 HD
ENDBRANCH   6  24
BRANCH   8  26
ATOM     26  O   UNL     1     312.164 232.412 203.075  1.00  0.00    -0.508 OA
ATOM     27  H   UNL     1     312.608 233.063 202.437  1.00  0.00     0.293 HD
ENDBRANCH   8  26
TORSDOF 6
ENDMDL
MODEL 4
REMARK VINA RESULT:    -5.755     10.389     13.279
REMARK INTER + INTRA:          -7.245
REMARK INTER:                  -6.914
REMARK INTRA:                  -0.331
REMARK UNBOUND:                -0.312
REMARK SMILES O=c1c(O)c(-c2ccc(O)c(O)c2)oc2cc(O)cc(O)c12
REMARK SMILES IDX 5 1 3 2 2 3 1 4 22 5 20 6 19 7 17 8 16 9 15 10 14 11 6 12
REMARK SMILES IDX 7 13 8 14 9 15 13 16 11 17 10 18 12 20 4 22 21 24 18 26
REMARK H PARENT 10 19 12 21 4 23 21 25 18 27
REMARK Flexibility Score: inf
ROOT
ATOM      1  C   UNL     1     308.382 227.831 203.973  1.00  0.00     0.180 A 
ATOM      2  C   UNL     1     307.325 227.560 204.859  1.00  0.00     0.208 A 
ATOM      3  C   UNL     1     307.102 226.236 205.270  1.00  0.00     0.238 A 
ATOM      4  O   UNL     1     306.203 226.012 206.120  1.00  0.00    -0.285 OA
ATOM      5  C   UNL     1     307.902 225.191 204.745  1.00  0.00     0.111 A 
ATOM      6  C   UNL     1     307.736 223.807 205.056  1.00  0.00     0.134 A 
ATOM      7  C   UNL     1     308.655 222.873 204.561  1.00  0.00     0.093 A 
ATOM      8  C   UNL     1     309.692 223.262 203.715  1.00  0.00     0.123 A 
ATOM      9  C   UNL     1     309.831 224.604 203.361  1.00  0.00     0.094 A 
ATOM     10  C   UNL     1     308.954 225.565 203.870  1.00  0.00     0.146 A 
ATOM     11  O   UNL     1     309.135 226.834 203.524  1.00  0.00    -0.452 OA
ENDROOT
BRANCH   1  12
ATOM     12  C   UNL     1     308.689 229.202 203.506  1.00  0.00     0.025 A 
ATOM     13  C   UNL     1     309.598 230.024 204.196  1.00  0.00     0.016 A 
ATOM     14  C   UNL     1     309.890 231.305 203.722  1.00  0.00     0.051 A 
ATOM     15  C   UNL     1     309.293 231.780 202.550  1.00  0.00     0.157 A 
ATOM     16  C   UNL     1     308.108 229.673 202.318  1.00  0.00     0.062 A 
ATOM     17  C   UNL     1     308.399 230.960 201.841  1.00  0.00     0.158 A 
BRANCH  15  18
ATOM     18  O   UNL     1     309.604 233.064 202.104  1.00  0.00    -0.504 OA
ATOM     19  H   UNL     1     308.964 233.604 201.533  1.00  0.00     0.293 HD
ENDBRANCH  15  18
BRANCH  17  20
ATOM     20  O   UNL     1     307.807 231.424 200.668  1.00  0.00    -0.504 OA
ATOM     21  H   UNL     1     307.032 232.077 200.688  1.00  0.00     0.293 HD
ENDBRANCH  17  20
ENDBRANCH   1  12
BRANCH   2  22
ATOM     22  O   UNL     1     306.500 228.595 205.305  1.00  0.00    -0.502 OA
ATOM     23  H   UNL     1     306.836 229.338 205.907  1.00  0.00     0.293 HD
ENDBRANCH   2  22
BRANCH   6  24
ATOM     24  O   UNL     1     306.682 223.297 205.820  1.00  0.00    -0.507 OA
ATOM     25  H   UNL     1     305.939 222.716 205.463  1.00  0.00     0.293 HD
ENDBRANCH   6  24
BRANCH   8  26
ATOM     26  O   UNL     1     310.577 222.302 203.228  1.00  0.00    -0.508 OA
ATOM     27  H   UNL     1     311.250 222.522 202.502  1.00  0.00     0.293 HD
ENDBRANCH   8  26
TORSDOF 6
ENDMDL
MODEL 5
REMARK VINA RESULT:    -5.686      1.866      3.708
REMARK INTER + INTRA:          -7.161
REMARK INTER:                  -7.004
REMARK INTRA:                  -0.157
REMARK UNBOUND:                -0.312
REMARK SMILES O=c1c(O)c(-c2ccc(O)c(O)c2)oc2cc(O)cc(O)c12
REMARK SMILES IDX 5 1 3 2 2 3 1 4 22 5 20 6 19 7 17 8 16 9 15 10 14 11 6 12
REMARK SMILES IDX 7 13 8 14 9 15 13 16 11 17 10 18 12 20 4 22 21 24 18 26
REMARK H PARENT 10 19 12 21 4 23 21 25 18 27
REMARK Flexibility Score: inf
ROOT
ATOM      1  C   UNL     1     318.765 234.149 200.699  1.00  0.00     0.180 A 
ATOM      2  C   UNL     1     318.190 234.204 201.981  1.00  0.00     0.208 A 
ATOM      3  C   UNL     1     316.837 234.556 202.106  1.00  0.00     0.238 A 
ATOM      4  O   UNL     1     316.310 234.531 203.248  1.00  0.00    -0.285 OA
ATOM      5  C   UNL     1     316.089 234.904 200.954  1.00  0.00     0.111 A 
ATOM      6  C   UNL     1     314.723 235.319 200.968  1.00  0.00     0.134 A 
ATOM      7  C   UNL     1     314.055 235.536 199.756  1.00  0.00     0.093 A 
ATOM      8  C   UNL     1     314.718 235.415 198.536  1.00  0.00     0.123 A 
ATOM      9  C   UNL     1     316.068 235.062 198.514  1.00  0.00     0.094 A 
ATOM     10  C   UNL     1     316.752 234.802 199.703  1.00  0.00     0.146 A 
ATOM     11  O   UNL     1     318.029 234.449 199.635  1.00  0.00    -0.452 OA
ENDROOT
BRANCH   1  12
ATOM     12  C   UNL     1     320.181 233.773 200.485  1.00  0.00     0.025 A 
ATOM     13  C   UNL     1     320.530 232.620 199.759  1.00  0.00     0.016 A 
ATOM     14  C   UNL     1     321.873 232.299 199.549  1.00  0.00     0.051 A 
ATOM     15  C   UNL     1     322.885 233.126 200.045  1.00  0.00     0.157 A 
ATOM     16  C   UNL     1     321.198 234.612 200.964  1.00  0.00     0.062 A 
ATOM     17  C   UNL     1     322.548 234.291 200.754  1.00  0.00     0.158 A 
BRANCH  15  18
ATOM     18  O   UNL     1     324.216 232.777 199.820  1.00  0.00    -0.504 OA
ATOM     19  H   UNL     1     324.928 233.471 199.624  1.00  0.00     0.293 HD
ENDBRANCH  15  18
BRANCH  17  20
ATOM     20  O   UNL     1     323.552 235.124 201.246  1.00  0.00    -0.504 OA
ATOM     21  H   UNL     1     323.352 235.854 201.919  1.00  0.00     0.293 HD
ENDBRANCH  17  20
ENDBRANCH   1  12
BRANCH   2  22
ATOM     22  O   UNL     1     318.965 233.932 203.111  1.00  0.00    -0.502 OA
ATOM     23  H   UNL     1     318.690 233.249 203.807  1.00  0.00     0.293 HD
ENDBRANCH   2  22
BRANCH   6  24
ATOM     24  O   UNL     1     313.988 235.558 202.133  1.00  0.00    -0.507 OA
ATOM     25  H   UNL     1     313.460 234.861 202.635  1.00  0.00     0.293 HD
ENDBRANCH   6  24
BRANCH   8  26
ATOM     26  O   UNL     1     314.026 235.654 197.351  1.00  0.00    -0.508 OA
ATOM     27  H   UNL     1     314.467 236.116 196.563  1.00  0.00     0.293 HD
ENDBRANCH   8  26
TORSDOF 6
ENDMDL
MODEL 6
REMARK VINA RESULT:    -5.652     11.174     12.597
REMARK INTER + INTRA:          -7.120
REMARK INTER:                  -6.847
REMARK INTRA:                  -0.273
REMARK UNBOUND:                -0.312
REMARK SMILES O=c1c(O)c(-c2ccc(O)c(O)c2)oc2cc(O)cc(O)c12
REMARK SMILES IDX 5 1 3 2 2 3 1 4 22 5 20 6 19 7 17 8 16 9 15 10 14 11 6 12
REMARK SMILES IDX 7 13 8 14 9 15 13 16 11 17 10 18 12 20 4 22 21 24 18 26
REMARK H PARENT 10 19 12 21 4 23 21 25 18 27
REMARK Flexibility Score: inf
ROOT
ATOM      1  C   UNL     1     308.287 228.021 203.993  1.00  0.00     0.180 A 
ATOM      2  C   UNL     1     307.503 228.373 205.106  1.00  0.00     0.208 A 
ATOM      3  C   UNL     1     306.913 229.647 205.148  1.00  0.00     0.238 A 
ATOM      4  O   UNL     1     306.153 229.927 206.110  1.00  0.00    -0.285 OA
ATOM      5  C   UNL     1     307.161 230.573 204.105  1.00  0.00     0.111 A 
ATOM      6  C   UNL     1     306.651 231.907 204.066  1.00  0.00     0.134 A 
ATOM      7  C   UNL     1     306.874 232.699 202.933  1.00  0.00     0.093 A 
ATOM      8  C   UNL     1     307.640 232.230 201.867  1.00  0.00     0.123 A 
ATOM      9  C   UNL     1     308.188 230.948 201.917  1.00  0.00     0.094 A 
ATOM     10  C   UNL     1     307.952 230.120 203.018  1.00  0.00     0.146 A 
ATOM     11  O   UNL     1     308.475 228.901 203.016  1.00  0.00    -0.452 OA
ENDROOT
BRANCH   1  12
ATOM     12  C   UNL     1     308.930 226.694 203.869  1.00  0.00     0.025 A 
ATOM     13  C   UNL     1     308.184 225.547 203.543  1.00  0.00     0.016 A 
ATOM     14  C   UNL     1     308.817 224.309 203.408  1.00  0.00     0.051 A 
ATOM     15  C   UNL     1     310.200 224.197 203.581  1.00  0.00     0.157 A 
ATOM     16  C   UNL     1     310.321 226.583 204.022  1.00  0.00     0.062 A 
ATOM     17  C   UNL     1     310.958 225.340 203.887  1.00  0.00     0.158 A 
BRANCH  15  18
ATOM     18  O   UNL     1     310.802 222.948 203.441  1.00  0.00    -0.504 OA
ATOM     19  H   UNL     1     310.262 222.107 203.268  1.00  0.00     0.293 HD
ENDBRANCH  15  18
BRANCH  17  20
ATOM     20  O   UNL     1     312.338 225.237 204.054  1.00  0.00    -0.504 OA
ATOM     21  H   UNL     1     312.893 226.023 204.375  1.00  0.00     0.293 HD
ENDBRANCH  17  20
ENDBRANCH   1  12
BRANCH   2  22
ATOM     22  O   UNL     1     307.334 227.472 206.159  1.00  0.00    -0.502 OA
ATOM     23  H   UNL     1     306.530 227.501 206.776  1.00  0.00     0.293 HD
ENDBRANCH   2  22
BRANCH   6  24
ATOM     24  O   UNL     1     305.948 232.508 205.115  1.00  0.00    -0.507 OA
ATOM     25  H   UNL     1     306.333 232.720 206.022  1.00  0.00     0.293 HD
ENDBRANCH   6  24
BRANCH   8  26
ATOM     26  O   UNL     1     307.855 233.052 200.762  1.00  0.00    -0.508 OA
ATOM     27  H   UNL     1     308.724 233.021 200.240  1.00  0.00     0.293 HD
ENDBRANCH   8  26
TORSDOF 6
ENDMDL
MODEL 7
REMARK VINA RESULT:    -5.628      4.000      6.669
REMARK INTER + INTRA:          -7.092
REMARK INTER:                  -6.894
REMARK INTRA:                  -0.197
REMARK UNBOUND:                -0.312
REMARK SMILES O=c1c(O)c(-c2ccc(O)c(O)c2)oc2cc(O)cc(O)c12
REMARK SMILES IDX 5 1 3 2 2 3 1 4 22 5 20 6 19 7 17 8 16 9 15 10 14 11 6 12
REMARK SMILES IDX 7 13 8 14 9 15 13 16 11 17 10 18 12 20 4 22 21 24 18 26
REMARK H PARENT 10 19 12 21 4 23 21 25 18 27
REMARK Flexibility Score: inf
ROOT
ATOM      1  C   UNL     1     314.822 234.044 201.918  1.00  0.00     0.180 A 
ATOM      2  C   UNL     1     313.627 233.312 202.029  1.00  0.00     0.208 A 
ATOM      3  C   UNL     1     313.027 232.806 200.865  1.00  0.00     0.238 A 
ATOM      4  O   UNL     1     312.000 232.089 200.979  1.00  0.00    -0.285 OA
ATOM      5  C   UNL     1     313.598 233.085 199.599  1.00  0.00     0.111 A 
ATOM      6  C   UNL     1     313.050 232.661 198.351  1.00  0.00     0.134 A 
ATOM      7  C   UNL     1     313.759 232.905 197.167  1.00  0.00     0.093 A 
ATOM      8  C   UNL     1     314.960 233.611 197.180  1.00  0.00     0.123 A 
ATOM      9  C   UNL     1     315.477 234.078 198.389  1.00  0.00     0.094 A 
ATOM     10  C   UNL     1     314.813 233.817 199.590  1.00  0.00     0.146 A 
ATOM     11  O   UNL     1     315.350 234.262 200.719  1.00  0.00    -0.452 OA
ENDROOT
BRANCH   1  12
ATOM     12  C   UNL     1     315.521 234.598 203.099  1.00  0.00     0.025 A 
ATOM     13  C   UNL     1     314.956 235.633 203.866  1.00  0.00     0.016 A 
ATOM     14  C   UNL     1     315.624 236.123 204.991  1.00  0.00     0.051 A 
ATOM     15  C   UNL     1     316.854 235.581 205.376  1.00  0.00     0.157 A 
ATOM     16  C   UNL     1     316.746 234.042 203.501  1.00  0.00     0.062 A 
ATOM     17  C   UNL     1     317.418 234.533 204.630  1.00  0.00     0.158 A 
BRANCH  15  18
ATOM     18  O   UNL     1     317.496 236.093 206.503  1.00  0.00    -0.504 OA
ATOM     19  H   UNL     1     318.055 235.509 207.115  1.00  0.00     0.293 HD
ENDBRANCH  15  18
BRANCH  17  20
ATOM     20  O   UNL     1     318.641 233.983 205.013  1.00  0.00    -0.504 OA
ATOM     21  H   UNL     1     318.892 233.877 205.989  1.00  0.00     0.293 HD
ENDBRANCH  17  20
ENDBRANCH   1  12
BRANCH   2  22
ATOM     22  O   UNL     1     313.039 233.113 203.281  1.00  0.00    -0.502 OA
ATOM     23  H   UNL     1     312.382 233.771 203.684  1.00  0.00     0.293 HD
ENDBRANCH   2  22
BRANCH   6  24
ATOM     24  O   UNL     1     311.813 232.024 198.213  1.00  0.00    -0.507 OA
ATOM     25  H   UNL     1     310.926 232.496 198.137  1.00  0.00     0.293 HD
ENDBRANCH   6  24
BRANCH   8  26
ATOM     26  O   UNL     1     315.629 233.850 195.981  1.00  0.00    -0.508 OA
ATOM     27  H   UNL     1     316.615 233.643 195.875  1.00  0.00     0.293 HD
ENDBRANCH   8  26
TORSDOF 6
ENDMDL
MODEL 8
REMARK VINA RESULT:    -5.461      6.037      8.415
REMARK INTER + INTRA:          -6.890
REMARK INTER:                  -6.632
REMARK INTRA:                  -0.258
REMARK UNBOUND:                -0.312
REMARK SMILES O=c1c(O)c(-c2ccc(O)c(O)c2)oc2cc(O)cc(O)c12
REMARK SMILES IDX 5 1 3 2 2 3 1 4 22 5 20 6 19 7 17 8 16 9 15 10 14 11 6 12
REMARK SMILES IDX 7 13 8 14 9 15 13 16 11 17 10 18 12 20 4 22 21 24 18 26
REMARK H PARENT 10 19 12 21 4 23 21 25 18 27
REMARK Flexibility Score: inf
ROOT
ATOM      1  C   UNL     1     312.691 232.978 197.116  1.00  0.00     0.180 A 
ATOM      2  C   UNL     1     311.978 232.556 198.252  1.00  0.00     0.208 A 
ATOM      3  C   UNL     1     312.533 232.771 199.523  1.00  0.00     0.238 A 
ATOM      4  O   UNL     1     311.856 232.458 200.537  1.00  0.00    -0.285 OA
ATOM      5  C   UNL     1     313.818 233.352 199.643  1.00  0.00     0.111 A 
ATOM      6  C   UNL     1     314.497 233.575 200.879  1.00  0.00     0.134 A 
ATOM      7  C   UNL     1     315.722 234.256 200.882  1.00  0.00     0.093 A 
ATOM      8  C   UNL     1     316.321 234.664 199.692  1.00  0.00     0.123 A 
ATOM      9  C   UNL     1     315.693 234.403 198.474  1.00  0.00     0.094 A 
ATOM     10  C   UNL     1     314.453 233.760 198.441  1.00  0.00     0.146 A 
ATOM     11  O   UNL     1     313.881 233.550 197.262  1.00  0.00    -0.452 OA
ENDROOT
BRANCH   1  12
ATOM     12  C   UNL     1     312.166 232.800 195.743  1.00  0.00     0.025 A 
ATOM     13  C   UNL     1     312.654 231.786 194.899  1.00  0.00     0.016 A 
ATOM     14  C   UNL     1     312.126 231.622 193.616  1.00  0.00     0.051 A 
ATOM     15  C   UNL     1     311.099 232.454 193.161  1.00  0.00     0.157 A 
ATOM     16  C   UNL     1     311.121 233.620 195.292  1.00  0.00     0.062 A 
ATOM     17  C   UNL     1     310.590 233.457 194.003  1.00  0.00     0.158 A 
BRANCH  15  18
ATOM     18  O   UNL     1     310.594 232.266 191.875  1.00  0.00    -0.504 OA
ATOM     19  H   UNL     1     309.991 232.948 191.429  1.00  0.00     0.293 HD
ENDBRANCH  15  18
BRANCH  17  20
ATOM     20  O   UNL     1     309.560 234.286 193.559  1.00  0.00    -0.504 OA
ATOM     21  H   UNL     1     309.370 234.412 192.571  1.00  0.00     0.293 HD
ENDBRANCH  17  20
ENDBRANCH   1  12
BRANCH   2  22
ATOM     22  O   UNL     1     310.745 231.915 198.108  1.00  0.00    -0.502 OA
ATOM     23  H   UNL     1     310.519 231.346 197.301  1.00  0.00     0.293 HD
ENDBRANCH   2  22
BRANCH   6  24
ATOM     24  O   UNL     1     314.031 233.131 202.120  1.00  0.00    -0.507 OA
ATOM     25  H   UNL     1     314.617 232.885 202.903  1.00  0.00     0.293 HD
ENDBRANCH   6  24
BRANCH   8  26
ATOM     26  O   UNL     1     317.548 235.323 199.732  1.00  0.00    -0.508 OA
ATOM     27  H   UNL     1     318.425 234.814 199.712  1.00  0.00     0.293 HD
ENDBRANCH   8  26
TORSDOF 6
ENDMDL
