MODEL 1
REMARK VINA RESULT:    -3.904      0.000      0.000
REMARK INTER + INTRA:          -5.883
REMARK INTER:                  -5.388
REMARK INTRA:                  -0.495
REMARK UNBOUND:                -0.495
REMARK SMILES CCCCCCCCO
REMARK SMILES IDX 5 1 4 2 3 3 2 4 1 5 6 6 7 7 8 8 9 9
REMARK H PARENT 9 10
REMARK Flexibility Score: inf
ROOT
ATOM      1  C   UNL     1      20.200  -1.067 -15.029  1.00  0.00     0.000 C 
ENDROOT
BRANCH   1   2
ATOM      2  C   UNL     1      20.862  -1.685 -16.266  1.00  0.00    -0.000 C 
BRANCH   2   3
ATOM      3  C   UNL     1      19.811  -2.247 -17.230  1.00  0.00    -0.000 C 
BRANCH   3   4
ATOM      4  C   UNL     1      20.134  -1.866 -18.679  1.00  0.00    -0.003 C 
ATOM      5  C   UNL     1      20.979  -0.597 -18.740  1.00  0.00     0.004 C 
ENDBRANCH   3   4
ENDBRANCH   2   3
ENDBRANCH   1   2
BRANCH   1   6
ATOM      6  C   UNL     1      19.976   0.441 -15.219  1.00  0.00     0.002 C 
BRANCH   6   7
ATOM      7  C   UNL     1      18.508   0.790 -15.508  1.00  0.00     0.028 C 
BRANCH   7   8
ATOM      8  C   UNL     1      18.288   1.289 -16.942  1.00  0.00     0.156 C 
BRANCH   8   9
ATOM      9  O   UNL     1      17.034   1.904 -17.051  1.00  0.00    -0.396 OA
ATOM     10  H   UNL     1      16.585   1.498 -17.838  1.00  0.00     0.210 HD
ENDBRANCH   8   9
ENDBRANCH   7   8
ENDBRANCH   6   7
ENDBRANCH   1   6
TORSDOF 7
ENDMDL
MODEL 2
REMARK VINA RESULT:    -3.862      7.598      9.055
REMARK INTER + INTRA:          -5.825
REMARK INTER:                  -5.273
REMARK INTRA:                  -0.552
REMARK UNBOUND:                -0.495
REMARK SMILES CCCCCCCCO
REMARK SMILES IDX 5 1 4 2 3 3 2 4 1 5 6 6 7 7 8 8 9 9
REMARK H PARENT 9 10
REMARK Flexibility Score: inf
ROOT
ATOM      1  C   UNL     1      16.688   1.531 -23.965  1.00  0.00     0.000 C 
ENDROOT
BRANCH   1   2
ATOM      2  C   UNL     1      15.958   1.342 -25.300  1.00  0.00    -0.000 C 
BRANCH   2   3
ATOM      3  C   UNL     1      16.854   1.741 -26.479  1.00  0.00    -0.000 C 
BRANCH   3   4
ATOM      4  C   UNL     1      18.146   0.916 -26.490  1.00  0.00    -0.003 C 
ATOM      5  C   UNL     1      18.039  -0.264 -27.451  1.00  0.00     0.004 C 
ENDBRANCH   3   4
ENDBRANCH   2   3
ENDBRANCH   1   2
BRANCH   1   6
ATOM      6  C   UNL     1      16.638   0.247 -23.123  1.00  0.00     0.002 C 
BRANCH   6   7
ATOM      7  C   UNL     1      18.013  -0.424 -22.982  1.00  0.00     0.028 C 
BRANCH   7   8
ATOM      8  C   UNL     1      18.143  -1.693 -23.832  1.00  0.00     0.156 C 
BRANCH   8   9
ATOM      9  O   UNL     1      16.893  -2.054 -24.354  1.00  0.00    -0.396 OA
ATOM     10  H   UNL     1      16.975  -2.994 -24.664  1.00  0.00     0.210 HD
ENDBRANCH   8   9
ENDBRANCH   7   8
ENDBRANCH   6   7
ENDBRANCH   1   6
TORSDOF 7
ENDMDL
MODEL 3
REMARK VINA RESULT:    -3.750      7.498      8.827
REMARK INTER + INTRA:          -5.670
REMARK INTER:                  -5.191
REMARK INTRA:                  -0.479
REMARK UNBOUND:                -0.495
REMARK SMILES CCCCCCCCO
REMARK SMILES IDX 5 1 4 2 3 3 2 4 1 5 6 6 7 7 8 8 9 9
REMARK H PARENT 9 10
REMARK Flexibility Score: inf
ROOT
ATOM      1  C   UNL     1      16.274  -0.479 -24.589  1.00  0.00     0.000 C 
ENDROOT
BRANCH   1   2
ATOM      2  C   UNL     1      16.622   0.237 -23.279  1.00  0.00    -0.000 C 
BRANCH   2   3
ATOM      3  C   UNL     1      18.028  -0.143 -22.800  1.00  0.00    -0.000 C 
BRANCH   3   4
ATOM      4  C   UNL     1      19.103   0.551 -23.644  1.00  0.00    -0.003 C 
ATOM      5  C   UNL     1      19.968  -0.467 -24.381  1.00  0.00     0.004 C 
ENDBRANCH   3   4
ENDBRANCH   2   3
ENDBRANCH   1   2
BRANCH   1   6
ATOM      6  C   UNL     1      15.701   0.507 -25.619  1.00  0.00     0.002 C 
BRANCH   6   7
ATOM      7  C   UNL     1      16.014   1.972 -25.277  1.00  0.00     0.028 C 
BRANCH   7   8
ATOM      8  C   UNL     1      17.107   2.569 -26.170  1.00  0.00     0.156 C 
BRANCH   8   9
ATOM      9  O   UNL     1      17.472   1.650 -27.164  1.00  0.00    -0.396 OA
ATOM     10  H   UNL     1      16.802   0.917 -27.134  1.00  0.00     0.210 HD
ENDBRANCH   8   9
ENDBRANCH   7   8
ENDBRANCH   6   7
ENDBRANCH   1   6
TORSDOF 7
ENDMDL
MODEL 4
REMARK VINA RESULT:    -3.733      7.250      8.440
REMARK INTER + INTRA:          -5.647
REMARK INTER:                  -5.141
REMARK INTRA:                  -0.506
REMARK UNBOUND:                -0.495
REMARK SMILES CCCCCCCCO
REMARK SMILES IDX 5 1 4 2 3 3 2 4 1 5 6 6 7 7 8 8 9 9
REMARK H PARENT 9 10
REMARK Flexibility Score: inf
ROOT
ATOM      1  C   UNL     1      16.708   0.474 -22.981  1.00  0.00     0.000 C 
ENDROOT
BRANCH   1   2
ATOM      2  C   UNL     1      17.971  -0.394 -22.959  1.00  0.00    -0.000 C 
BRANCH   2   3
ATOM      3  C   UNL     1      17.887  -1.515 -24.002  1.00  0.00    -0.000 C 
BRANCH   3   4
ATOM      4  C   UNL     1      18.959  -1.340 -25.084  1.00  0.00    -0.003 C 
ATOM      5  C   UNL     1      20.034  -0.352 -24.640  1.00  0.00     0.004 C 
ENDBRANCH   3   4
ENDBRANCH   2   3
ENDBRANCH   1   2
BRANCH   1   6
ATOM      6  C   UNL     1      16.862   1.646 -23.963  1.00  0.00     0.002 C 
BRANCH   6   7
ATOM      7  C   UNL     1      16.048   1.450 -25.252  1.00  0.00     0.028 C 
BRANCH   7   8
ATOM      8  C   UNL     1      16.915   1.512 -26.515  1.00  0.00     0.156 C 
BRANCH   8   9
ATOM      9  O   UNL     1      17.155   2.847 -26.869  1.00  0.00    -0.396 OA
ATOM     10  H   UNL     1      16.415   3.118 -27.474  1.00  0.00     0.210 HD
ENDBRANCH   8   9
ENDBRANCH   7   8
ENDBRANCH   6   7
ENDBRANCH   1   6
TORSDOF 7
ENDMDL
MODEL 5
REMARK VINA RESULT:    -3.697      2.233      3.954
REMARK INTER + INTRA:          -5.598
REMARK INTER:                  -5.177
REMARK INTRA:                  -0.421
REMARK UNBOUND:                -0.495
REMARK SMILES CCCCCCCCO
REMARK SMILES IDX 5 1 4 2 3 3 2 4 1 5 6 6 7 7 8 8 9 9
REMARK H PARENT 9 10
REMARK Flexibility Score: inf
ROOT
ATOM      1  C   UNL     1      21.445   0.083 -15.271  1.00  0.00     0.000 C 
ENDROOT
BRANCH   1   2
ATOM      2  C   UNL     1      20.684   1.342 -15.702  1.00  0.00    -0.000 C 
BRANCH   2   3
ATOM      3  C   UNL     1      19.544   1.658 -14.727  1.00  0.00    -0.000 C 
BRANCH   3   4
ATOM      4  C   UNL     1      18.199   1.171 -15.278  1.00  0.00    -0.003 C 
ATOM      5  C   UNL     1      17.958   1.698 -16.689  1.00  0.00     0.004 C 
ENDBRANCH   3   4
ENDBRANCH   2   3
ENDBRANCH   1   2
BRANCH   1   6
ATOM      6  C   UNL     1      21.431  -0.977 -16.384  1.00  0.00     0.002 C 
BRANCH   6   7
ATOM      7  C   UNL     1      20.175  -1.862 -16.344  1.00  0.00     0.028 C 
BRANCH   7   8
ATOM      8  C   UNL     1      19.636  -2.189 -17.742  1.00  0.00     0.156 C 
BRANCH   8   9
ATOM      9  O   UNL     1      19.011  -3.443 -17.736  1.00  0.00    -0.396 OA
ATOM     10  H   UNL     1      18.535  -3.528 -18.604  1.00  0.00     0.210 HD
ENDBRANCH   8   9
ENDBRANCH   7   8
ENDBRANCH   6   7
ENDBRANCH   1   6
TORSDOF 7
ENDMDL
MODEL 6
REMARK VINA RESULT:    -3.636      7.548      9.148
REMARK INTER + INTRA:          -5.512
REMARK INTER:                  -5.197
REMARK INTRA:                  -0.315
REMARK UNBOUND:                -0.495
REMARK SMILES CCCCCCCCO
REMARK SMILES IDX 5 1 4 2 3 3 2 4 1 5 6 6 7 7 8 8 9 9
REMARK H PARENT 9 10
REMARK Flexibility Score: inf
ROOT
ATOM      1  C   UNL     1      17.989  -0.668 -23.186  1.00  0.00     0.000 C 
ENDROOT
BRANCH   1   2
ATOM      2  C   UNL     1      16.668   0.100 -23.320  1.00  0.00    -0.000 C 
BRANCH   2   3
ATOM      3  C   UNL     1      16.911   1.534 -23.803  1.00  0.00    -0.000 C 
BRANCH   3   4
ATOM      4  C   UNL     1      16.161   1.808 -25.111  1.00  0.00    -0.003 C 
ATOM      5  C   UNL     1      15.743   0.506 -25.790  1.00  0.00     0.004 C 
ENDBRANCH   3   4
ENDBRANCH   2   3
ENDBRANCH   1   2
BRANCH   1   6
ATOM      6  C   UNL     1      17.983  -1.931 -24.060  1.00  0.00     0.002 C 
BRANCH   6   7
ATOM      7  C   UNL     1      19.141  -1.959 -25.069  1.00  0.00     0.028 C 
BRANCH   7   8
ATOM      8  C   UNL     1      19.655  -3.378 -25.342  1.00  0.00     0.156 C 
BRANCH   8   9
ATOM      9  O   UNL     1      21.051  -3.369 -25.468  1.00  0.00    -0.396 OA
ATOM     10  H   UNL     1      21.251  -3.127 -26.410  1.00  0.00     0.210 HD
ENDBRANCH   8   9
ENDBRANCH   7   8
ENDBRANCH   6   7
ENDBRANCH   1   6
TORSDOF 7
ENDMDL
MODEL 7
REMARK VINA RESULT:    -3.601     14.325     15.335
REMARK INTER + INTRA:          -5.465
REMARK INTER:                  -5.166
REMARK INTRA:                  -0.299
REMARK UNBOUND:                -0.495
REMARK SMILES CCCCCCCCO
REMARK SMILES IDX 5 1 4 2 3 3 2 4 1 5 6 6 7 7 8 8 9 9
REMARK H PARENT 9 10
REMARK Flexibility Score: inf
ROOT
ATOM      1  C   UNL     1      24.853 -12.917 -23.692  1.00  0.00     0.000 C 
ENDROOT
BRANCH   1   2
ATOM      2  C   UNL     1      26.171 -12.641 -24.425  1.00  0.00    -0.000 C 
BRANCH   2   3
ATOM      3  C   UNL     1      26.114 -11.307 -25.179  1.00  0.00    -0.000 C 
BRANCH   3   4
ATOM      4  C   UNL     1      26.566 -11.478 -26.633  1.00  0.00    -0.003 C 
ATOM      5  C   UNL     1      26.980 -12.920 -26.916  1.00  0.00     0.004 C 
ENDBRANCH   3   4
ENDBRANCH   2   3
ENDBRANCH   1   2
BRANCH   1   6
ATOM      6  C   UNL     1      23.647 -12.540 -24.567  1.00  0.00     0.002 C 
BRANCH   6   7
ATOM      7  C   UNL     1      22.337 -12.459 -23.767  1.00  0.00     0.028 C 
BRANCH   7   8
ATOM      8  C   UNL     1      21.093 -12.515 -24.662  1.00  0.00     0.156 C 
BRANCH   8   9
ATOM      9  O   UNL     1      20.276 -11.402 -24.421  1.00  0.00    -0.396 OA
ATOM     10  H   UNL     1      20.712 -10.628 -24.865  1.00  0.00     0.210 HD
ENDBRANCH   8   9
ENDBRANCH   7   8
ENDBRANCH   6   7
ENDBRANCH   1   6
TORSDOF 7
ENDMDL
MODEL 8
REMARK VINA RESULT:    -3.581      1.406      3.321
REMARK INTER + INTRA:          -5.437
REMARK INTER:                  -4.917
REMARK INTRA:                  -0.520
REMARK UNBOUND:                -0.495
REMARK SMILES CCCCCCCCO
REMARK SMILES IDX 5 1 4 2 3 3 2 4 1 5 6 6 7 7 8 8 9 9
REMARK H PARENT 9 10
REMARK Flexibility Score: inf
ROOT
ATOM      1  C   UNL     1      21.775  -0.467 -17.066  1.00  0.00     0.000 C 
ENDROOT
BRANCH   1   2
ATOM      2  C   UNL     1      21.546  -1.119 -15.697  1.00  0.00    -0.000 C 
BRANCH   2   3
ATOM      3  C   UNL     1      20.092  -0.948 -15.242  1.00  0.00    -0.000 C 
BRANCH   3   4
ATOM      4  C   UNL     1      19.762   0.529 -15.000  1.00  0.00    -0.003 C 
ATOM      5  C   UNL     1      18.347   0.861 -15.466  1.00  0.00     0.004 C 
ENDBRANCH   3   4
ENDBRANCH   2   3
ENDBRANCH   1   2
BRANCH   1   6
ATOM      6  C   UNL     1      21.317  -1.394 -18.201  1.00  0.00     0.002 C 
BRANCH   6   7
ATOM      7  C   UNL     1      20.129  -0.823 -18.991  1.00  0.00     0.028 C 
BRANCH   7   8
ATOM      8  C   UNL     1      19.973   0.692 -18.814  1.00  0.00     0.156 C 
BRANCH   8   9
ATOM      9  O   UNL     1      18.695   1.096 -19.225  1.00  0.00    -0.396 OA
ATOM     10  H   UNL     1      18.786   2.026 -19.563  1.00  0.00     0.210 HD
ENDBRANCH   8   9
ENDBRANCH   7   8
ENDBRANCH   6   7
ENDBRANCH   1   6
TORSDOF 7
ENDMDL
MODEL 9
REMARK VINA RESULT:    -3.580      7.854      9.236
REMARK INTER + INTRA:          -5.436
REMARK INTER:                  -4.814
REMARK INTRA:                  -0.622
REMARK UNBOUND:                -0.495
REMARK SMILES CCCCCCCCO
REMARK SMILES IDX 5 1 4 2 3 3 2 4 1 5 6 6 7 7 8 8 9 9
REMARK H PARENT 9 10
REMARK Flexibility Score: inf
ROOT
ATOM      1  C   UNL     1      16.718   0.214 -23.158  1.00  0.00     0.000 C 
ENDROOT
BRANCH   1   2
ATOM      2  C   UNL     1      16.768   1.665 -23.650  1.00  0.00    -0.000 C 
BRANCH   2   3
ATOM      3  C   UNL     1      16.177   1.790 -25.059  1.00  0.00    -0.000 C 
BRANCH   3   4
ATOM      4  C   UNL     1      17.082   2.636 -25.961  1.00  0.00    -0.003 C 
ATOM      5  C   UNL     1      18.450   2.856 -25.321  1.00  0.00     0.004 C 
ENDBRANCH   3   4
ENDBRANCH   2   3
ENDBRANCH   1   2
BRANCH   1   6
ATOM      6  C   UNL     1      16.792  -0.770 -24.336  1.00  0.00     0.002 C 
BRANCH   6   7
ATOM      7  C   UNL     1      18.206  -1.332 -24.552  1.00  0.00     0.028 C 
BRANCH   7   8
ATOM      8  C   UNL     1      18.806  -0.923 -25.902  1.00  0.00     0.156 C 
BRANCH   8   9
ATOM      9  O   UNL     1      17.789  -0.769 -26.854  1.00  0.00    -0.396 OA
ATOM     10  H   UNL     1      18.177  -0.243 -27.602  1.00  0.00     0.210 HD
ENDBRANCH   8   9
ENDBRANCH   7   8
ENDBRANCH   6   7
ENDBRANCH   1   6
TORSDOF 7
ENDMDL
