MODEL 1
REMARK VINA RESULT:    -5.997      0.000      0.000
REMARK INTER + INTRA:          -7.607
REMARK INTER:                  -7.224
REMARK INTRA:                  -0.383
REMARK UNBOUND:                -0.383
REMARK SMILES CCCCc1oc(O)c2ccccc12
REMARK SMILES IDX 4 1 5 2 7 3 6 4 9 5 14 6 10 7 13 8 11 9 12 10 8 11 3 13 2 14
REMARK SMILES IDX 1 15
REMARK H PARENT 8 12
REMARK Flexibility Score: inf
ROOT
ATOM      1  C   UNL     1       3.072  31.161  43.426  1.00  0.00     0.076 C 
ENDROOT
BRANCH   1   2
ATOM      2  C   UNL     1       2.305  32.397  43.782  1.00  0.00     0.116 A 
ATOM      3  C   UNL     1       1.470  34.367  43.614  1.00  0.00     0.290 A 
ATOM      4  O   UNL     1       2.181  33.447  42.989  1.00  0.00    -0.430 OA
ATOM      5  C   UNL     1       1.116  33.908  44.866  1.00  0.00     0.066 A 
ATOM      6  C   UNL     1       1.651  32.652  44.975  1.00  0.00     0.027 A 
ATOM      7  C   UNL     1       0.385  34.490  45.900  1.00  0.00     0.016 A 
ATOM      8  C   UNL     1       1.496  31.886  46.130  1.00  0.00     0.012 A 
ATOM      9  C   UNL     1       0.210  33.741  47.078  1.00  0.00     0.001 A 
ATOM     10  C   UNL     1       0.763  32.446  47.193  1.00  0.00     0.001 A 
BRANCH   3  11
ATOM     11  O   UNL     1       1.148  35.602  43.063  1.00  0.00    -0.480 OA
ATOM     12  H   UNL     1       1.497  35.880  42.154  1.00  0.00     0.297 HD
ENDBRANCH   3  11
ENDBRANCH   1   2
BRANCH   1  13
ATOM     13  C   UNL     1       2.115  29.982  43.209  1.00  0.00     0.008 C 
BRANCH  13  14
ATOM     14  C   UNL     1       1.494  29.978  41.803  1.00  0.00    -0.003 C 
ATOM     15  C   UNL     1       0.011  30.347  41.813  1.00  0.00     0.004 C 
ENDBRANCH  13  14
ENDBRANCH   1  13
TORSDOF 4
ENDMDL
MODEL 2
REMARK VINA RESULT:    -5.965      2.010      4.880
REMARK INTER + INTRA:          -7.569
REMARK INTER:                  -7.205
REMARK INTRA:                  -0.364
REMARK UNBOUND:                -0.383
REMARK SMILES CCCCc1oc(O)c2ccccc12
REMARK SMILES IDX 4 1 5 2 7 3 6 4 9 5 14 6 10 7 13 8 11 9 12 10 8 11 3 13 2 14
REMARK SMILES IDX 1 15
REMARK H PARENT 8 12
REMARK Flexibility Score: inf
ROOT
ATOM      1  C   UNL     1       1.900  33.031  45.916  1.00  0.00     0.076 C 
ENDROOT
BRANCH   1   2
ATOM      2  C   UNL     1       2.715  32.094  45.077  1.00  0.00     0.116 A 
ATOM      3  C   UNL     1       4.424  31.050  44.309  1.00  0.00     0.290 A 
ATOM      4  O   UNL     1       4.017  31.917  45.217  1.00  0.00    -0.430 OA
ATOM      5  C   UNL     1       3.353  30.645  43.540  1.00  0.00     0.066 A 
ATOM      6  C   UNL     1       2.262  31.314  44.028  1.00  0.00     0.027 A 
ATOM      7  C   UNL     1       3.257  29.763  42.465  1.00  0.00     0.016 A 
ATOM      8  C   UNL     1       0.993  31.151  43.473  1.00  0.00     0.012 A 
ATOM      9  C   UNL     1       1.989  29.576  41.885  1.00  0.00     0.001 A 
ATOM     10  C   UNL     1       0.862  30.267  42.386  1.00  0.00     0.001 A 
BRANCH   3  11
ATOM     11  O   UNL     1       5.744  30.632  44.175  1.00  0.00    -0.480 OA
ATOM     12  H   UNL     1       6.494  31.088  44.680  1.00  0.00     0.297 HD
ENDBRANCH   3  11
ENDBRANCH   1   2
BRANCH   1  13
ATOM     13  C   UNL     1       1.072  32.247  46.942  1.00  0.00     0.008 C 
BRANCH  13  14
ATOM     14  C   UNL     1      -0.384  32.732  47.017  1.00  0.00    -0.003 C 
ATOM     15  C   UNL     1      -0.542  34.190  46.590  1.00  0.00     0.004 C 
ENDBRANCH  13  14
ENDBRANCH   1  13
TORSDOF 4
ENDMDL
MODEL 3
REMARK VINA RESULT:    -5.946      4.356      7.877
REMARK INTER + INTRA:          -7.546
REMARK INTER:                  -7.109
REMARK INTRA:                  -0.437
REMARK UNBOUND:                -0.383
REMARK SMILES CCCCc1oc(O)c2ccccc12
REMARK SMILES IDX 4 1 5 2 7 3 6 4 9 5 14 6 10 7 13 8 11 9 12 10 8 11 3 13 2 14
REMARK SMILES IDX 1 15
REMARK H PARENT 8 12
REMARK Flexibility Score: inf
ROOT
ATOM      1  C   UNL     1       1.187  31.403  39.319  1.00  0.00     0.076 C 
ENDROOT
BRANCH   1   2
ATOM      2  C   UNL     1       2.272  30.477  38.862  1.00  0.00     0.116 A 
ATOM      3  C   UNL     1       4.239  29.675  38.561  1.00  0.00     0.290 A 
ATOM      4  O   UNL     1       3.555  30.649  39.130  1.00  0.00    -0.430 OA
ATOM      5  C   UNL     1       3.377  28.833  37.888  1.00  0.00     0.066 A 
ATOM      6  C   UNL     1       2.121  29.347  38.078  1.00  0.00     0.027 A 
ATOM      7  C   UNL     1       3.597  27.683  37.133  1.00  0.00     0.016 A 
ATOM      8  C   UNL     1       0.992  28.747  37.522  1.00  0.00     0.012 A 
ATOM      9  C   UNL     1       2.476  27.054  36.561  1.00  0.00     0.001 A 
ATOM     10  C   UNL     1       1.179  27.583  36.754  1.00  0.00     0.001 A 
BRANCH   3  11
ATOM     11  O   UNL     1       5.621  29.549  38.644  1.00  0.00    -0.480 OA
ATOM     12  H   UNL     1       6.091  28.701  38.349  1.00  0.00     0.297 HD
ENDBRANCH   3  11
ENDBRANCH   1   2
BRANCH   1  13
ATOM     13  C   UNL     1       0.372  30.756  40.446  1.00  0.00     0.008 C 
BRANCH  13  14
ATOM     14  C   UNL     1       1.156  30.667  41.765  1.00  0.00    -0.003 C 
ATOM     15  C   UNL     1       1.359  29.227  42.233  1.00  0.00     0.004 C 
ENDBRANCH  13  14
ENDBRANCH   1  13
TORSDOF 4
ENDMDL
MODEL 4
REMARK VINA RESULT:    -5.775      3.985      5.957
REMARK INTER + INTRA:          -7.340
REMARK INTER:                  -7.021
REMARK INTRA:                  -0.319
REMARK UNBOUND:                -0.383
REMARK SMILES CCCCc1oc(O)c2ccccc12
REMARK SMILES IDX 4 1 5 2 7 3 6 4 9 5 14 6 10 7 13 8 11 9 12 10 8 11 3 13 2 14
REMARK SMILES IDX 1 15
REMARK H PARENT 8 12
REMARK Flexibility Score: inf
ROOT
ATOM      1  C   UNL     1       1.150  29.757  37.759  1.00  0.00     0.076 C 
ENDROOT
BRANCH   1   2
ATOM      2  C   UNL     1       2.074  29.928  38.926  1.00  0.00     0.116 A 
ATOM      3  C   UNL     1       3.900  30.053  40.046  1.00  0.00     0.290 A 
ATOM      4  O   UNL     1       3.393  29.898  38.838  1.00  0.00    -0.430 OA
ATOM      5  C   UNL     1       2.879  30.185  40.964  1.00  0.00     0.066 A 
ATOM      6  C   UNL     1       1.713  30.102  40.250  1.00  0.00     0.027 A 
ATOM      7  C   UNL     1       2.886  30.360  42.347  1.00  0.00     0.016 A 
ATOM      8  C   UNL     1       0.466  30.187  40.869  1.00  0.00     0.012 A 
ATOM      9  C   UNL     1       1.643  30.451  43.000  1.00  0.00     0.001 A 
ATOM     10  C   UNL     1       0.439  30.364  42.265  1.00  0.00     0.001 A 
BRANCH   3  11
ATOM     11  O   UNL     1       5.264  30.072  40.316  1.00  0.00    -0.480 OA
ATOM     12  H   UNL     1       5.640  30.608  41.089  1.00  0.00     0.297 HD
ENDBRANCH   3  11
ENDBRANCH   1   2
BRANCH   1  13
ATOM     13  C   UNL     1       1.752  28.782  36.739  1.00  0.00     0.008 C 
BRANCH  13  14
ATOM     14  C   UNL     1       1.379  27.320  37.031  1.00  0.00    -0.003 C 
ATOM     15  C   UNL     1       2.586  26.384  36.985  1.00  0.00     0.004 C 
ENDBRANCH  13  14
ENDBRANCH   1  13
TORSDOF 4
ENDMDL
MODEL 5
REMARK VINA RESULT:    -5.694      1.183      4.259
REMARK INTER + INTRA:          -7.242
REMARK INTER:                  -6.909
REMARK INTRA:                  -0.333
REMARK UNBOUND:                -0.383
REMARK SMILES CCCCc1oc(O)c2ccccc12
REMARK SMILES IDX 4 1 5 2 7 3 6 4 9 5 14 6 10 7 13 8 11 9 12 10 8 11 3 13 2 14
REMARK SMILES IDX 1 15
REMARK H PARENT 8 12
REMARK Flexibility Score: inf
ROOT
ATOM      1  C   UNL     1       2.372  32.477  45.511  1.00  0.00     0.076 C 
ENDROOT
BRANCH   1   2
ATOM      2  C   UNL     1       1.926  32.678  44.095  1.00  0.00     0.116 A 
ATOM      3  C   UNL     1       1.305  33.683  42.304  1.00  0.00     0.290 A 
ATOM      4  O   UNL     1       1.710  33.861  43.547  1.00  0.00    -0.430 OA
ATOM      5  C   UNL     1       1.248  32.333  42.023  1.00  0.00     0.066 A 
ATOM      6  C   UNL     1       1.641  31.691  43.168  1.00  0.00     0.027 A 
ATOM      7  C   UNL     1       0.879  31.634  40.876  1.00  0.00     0.016 A 
ATOM      8  C   UNL     1       1.693  30.300  43.248  1.00  0.00     0.012 A 
ATOM      9  C   UNL     1       0.923  30.229  40.925  1.00  0.00     0.001 A 
ATOM     10  C   UNL     1       1.327  29.564  42.105  1.00  0.00     0.001 A 
BRANCH   3  11
ATOM     11  O   UNL     1       0.990  34.722  41.436  1.00  0.00    -0.480 OA
ATOM     12  H   UNL     1       0.167  34.683  40.845  1.00  0.00     0.297 HD
ENDBRANCH   3  11
ENDBRANCH   1   2
BRANCH   1  13
ATOM     13  C   UNL     1       1.167  32.177  46.413  1.00  0.00     0.008 C 
BRANCH  13  14
ATOM     14  C   UNL     1       0.733  33.397  47.240  1.00  0.00    -0.003 C 
ATOM     15  C   UNL     1      -0.637  33.932  46.827  1.00  0.00     0.004 C 
ENDBRANCH  13  14
ENDBRANCH   1  13
TORSDOF 4
ENDMDL
MODEL 6
REMARK VINA RESULT:    -5.441      3.600      5.274
REMARK INTER + INTRA:          -6.938
REMARK INTER:                  -6.744
REMARK INTRA:                  -0.194
REMARK UNBOUND:                -0.383
REMARK SMILES CCCCc1oc(O)c2ccccc12
REMARK SMILES IDX 4 1 5 2 7 3 6 4 9 5 14 6 10 7 13 8 11 9 12 10 8 11 3 13 2 14
REMARK SMILES IDX 1 15
REMARK H PARENT 8 12
REMARK Flexibility Score: inf
ROOT
ATOM      1  C   UNL     1       2.094  28.900  38.455  1.00  0.00     0.076 C 
ENDROOT
BRANCH   1   2
ATOM      2  C   UNL     1       1.604  30.127  39.160  1.00  0.00     0.116 A 
ATOM      3  C   UNL     1       0.821  32.103  39.452  1.00  0.00     0.290 A 
ATOM      4  O   UNL     1       1.141  31.201  38.544  1.00  0.00    -0.430 OA
ATOM      5  C   UNL     1       1.085  31.608  40.712  1.00  0.00     0.066 A 
ATOM      6  C   UNL     1       1.588  30.347  40.526  1.00  0.00     0.027 A 
ATOM      7  C   UNL     1       0.933  32.160  41.982  1.00  0.00     0.016 A 
ATOM      8  C   UNL     1       1.979  29.547  41.599  1.00  0.00     0.012 A 
ATOM      9  C   UNL     1       1.316  31.376  43.086  1.00  0.00     0.001 A 
ATOM     10  C   UNL     1       1.837  30.076  42.896  1.00  0.00     0.001 A 
BRANCH   3  11
ATOM     11  O   UNL     1       0.299  33.355  39.148  1.00  0.00    -0.480 OA
ATOM     12  H   UNL     1      -0.454  33.464  38.479  1.00  0.00     0.297 HD
ENDBRANCH   3  11
ENDBRANCH   1   2
BRANCH   1  13
ATOM     13  C   UNL     1       1.496  28.819  37.044  1.00  0.00     0.008 C 
BRANCH  13  14
ATOM     14  C   UNL     1       1.301  27.371  36.569  1.00  0.00    -0.003 C 
ATOM     15  C   UNL     1       2.476  26.467  36.939  1.00  0.00     0.004 C 
ENDBRANCH  13  14
ENDBRANCH   1  13
TORSDOF 4
ENDMDL
MODEL 7
REMARK VINA RESULT:    -5.321      2.240      5.162
REMARK INTER + INTRA:          -6.794
REMARK INTER:                  -6.524
REMARK INTRA:                  -0.269
REMARK UNBOUND:                -0.383
REMARK SMILES CCCCc1oc(O)c2ccccc12
REMARK SMILES IDX 4 1 5 2 7 3 6 4 9 5 14 6 10 7 13 8 11 9 12 10 8 11 3 13 2 14
REMARK SMILES IDX 1 15
REMARK H PARENT 8 12
REMARK Flexibility Score: inf
ROOT
ATOM      1  C   UNL     1       1.676  33.002  44.596  1.00  0.00     0.076 C 
ENDROOT
BRANCH   1   2
ATOM      2  C   UNL     1       1.462  31.990  43.512  1.00  0.00     0.116 A 
ATOM      3  C   UNL     1       1.356  30.086  42.529  1.00  0.00     0.290 A 
ATOM      4  O   UNL     1       1.583  30.685  43.682  1.00  0.00    -0.430 OA
ATOM      5  C   UNL     1       1.079  31.031  41.562  1.00  0.00     0.066 A 
ATOM      6  C   UNL     1       1.150  32.247  42.189  1.00  0.00     0.027 A 
ATOM      7  C   UNL     1       0.783  30.917  40.205  1.00  0.00     0.016 A 
ATOM      8  C   UNL     1       0.932  33.441  41.502  1.00  0.00     0.012 A 
ATOM      9  C   UNL     1       0.557  32.105  39.485  1.00  0.00     0.001 A 
ATOM     10  C   UNL     1       0.632  33.360  40.129  1.00  0.00     0.001 A 
BRANCH   3  11
ATOM     11  O   UNL     1       1.399  28.708  42.351  1.00  0.00    -0.480 OA
ATOM     12  H   UNL     1       0.837  28.086  42.920  1.00  0.00     0.297 HD
ENDBRANCH   3  11
ENDBRANCH   1   2
BRANCH   1  13
ATOM     13  C   UNL     1       1.698  32.317  45.969  1.00  0.00     0.008 C 
BRANCH  13  14
ATOM     14  C   UNL     1       0.419  32.581  46.779  1.00  0.00    -0.003 C 
ATOM     15  C   UNL     1      -0.167  33.968  46.520  1.00  0.00     0.004 C 
ENDBRANCH  13  14
ENDBRANCH   1  13
TORSDOF 4
ENDMDL
MODEL 8
REMARK VINA RESULT:    -5.288      1.893      2.830
REMARK INTER + INTRA:          -6.753
REMARK INTER:                  -6.224
REMARK INTRA:                  -0.529
REMARK UNBOUND:                -0.383
REMARK SMILES CCCCc1oc(O)c2ccccc12
REMARK SMILES IDX 4 1 5 2 7 3 6 4 9 5 14 6 10 7 13 8 11 9 12 10 8 11 3 13 2 14
REMARK SMILES IDX 1 15
REMARK H PARENT 8 12
REMARK Flexibility Score: inf
ROOT
ATOM      1  C   UNL     1       2.757  30.492  42.970  1.00  0.00     0.076 C 
ENDROOT
BRANCH   1   2
ATOM      2  C   UNL     1       2.280  31.465  44.005  1.00  0.00     0.116 A 
ATOM      3  C   UNL     1       1.622  32.225  45.900  1.00  0.00     0.290 A 
ATOM      4  O   UNL     1       2.056  31.151  45.269  1.00  0.00    -0.430 OA
ATOM      5  C   UNL     1       1.553  33.284  45.019  1.00  0.00     0.066 A 
ATOM      6  C   UNL     1       1.971  32.798  43.808  1.00  0.00     0.027 A 
ATOM      7  C   UNL     1       1.156  34.610  45.184  1.00  0.00     0.016 A 
ATOM      8  C   UNL     1       2.019  33.604  42.671  1.00  0.00     0.012 A 
ATOM      9  C   UNL     1       1.196  35.449  44.055  1.00  0.00     0.001 A 
ATOM     10  C   UNL     1       1.625  34.949  42.804  1.00  0.00     0.001 A 
BRANCH   3  11
ATOM     11  O   UNL     1       1.290  32.249  47.250  1.00  0.00    -0.480 OA
ATOM     12  H   UNL     1       0.409  31.876  47.582  1.00  0.00     0.297 HD
ENDBRANCH   3  11
ENDBRANCH   1   2
BRANCH   1  13
ATOM     13  C   UNL     1       1.671  29.450  42.675  1.00  0.00     0.008 C 
BRANCH  13  14
ATOM     14  C   UNL     1       0.375  30.083  42.145  1.00  0.00    -0.003 C 
ATOM     15  C   UNL     1       0.544  30.695  40.756  1.00  0.00     0.004 C 
ENDBRANCH  13  14
ENDBRANCH   1  13
TORSDOF 4
ENDMDL
MODEL 9
REMARK VINA RESULT:    -5.166      1.737      3.085
REMARK INTER + INTRA:          -6.606
REMARK INTER:                  -6.138
REMARK INTRA:                  -0.469
REMARK UNBOUND:                -0.383
REMARK SMILES CCCCc1oc(O)c2ccccc12
REMARK SMILES IDX 4 1 5 2 7 3 6 4 9 5 14 6 10 7 13 8 11 9 12 10 8 11 3 13 2 14
REMARK SMILES IDX 1 15
REMARK H PARENT 8 12
REMARK Flexibility Score: inf
ROOT
ATOM      1  C   UNL     1       2.523  34.854  42.671  1.00  0.00     0.076 C 
ENDROOT
BRANCH   1   2
ATOM      2  C   UNL     1       2.342  33.694  43.601  1.00  0.00     0.116 A 
ATOM      3  C   UNL     1       2.546  31.723  44.424  1.00  0.00     0.290 A 
ATOM      4  O   UNL     1       2.942  32.525  43.454  1.00  0.00    -0.430 OA
ATOM      5  C   UNL     1       1.650  32.385  45.237  1.00  0.00     0.066 A 
ATOM      6  C   UNL     1       1.517  33.642  44.711  1.00  0.00     0.027 A 
ATOM      7  C   UNL     1       0.949  31.983  46.373  1.00  0.00     0.016 A 
ATOM      8  C   UNL     1       0.669  34.591  45.281  1.00  0.00     0.012 A 
ATOM      9  C   UNL     1       0.087  32.919  46.973  1.00  0.00     0.001 A 
ATOM     10  C   UNL     1      -0.053  34.217  46.430  1.00  0.00     0.001 A 
BRANCH   3  11
ATOM     11  O   UNL     1       2.986  30.412  44.571  1.00  0.00    -0.480 OA
ATOM     12  H   UNL     1       3.285  29.864  43.773  1.00  0.00     0.297 HD
ENDBRANCH   3  11
ENDBRANCH   1   2
BRANCH   1  13
ATOM     13  C   UNL     1       2.193  34.441  41.231  1.00  0.00     0.008 C 
BRANCH  13  14
ATOM     14  C   UNL     1       0.694  34.175  41.024  1.00  0.00    -0.003 C 
ATOM     15  C   UNL     1       0.391  32.707  40.731  1.00  0.00     0.004 C 
ENDBRANCH  13  14
ENDBRANCH   1  13
TORSDOF 4
ENDMDL
