MODEL 1
REMARK VINA RESULT:    -5.097      0.000      0.000
REMARK INTER + INTRA:          -6.306
REMARK INTER:                  -6.140
REMARK INTRA:                  -0.166
REMARK UNBOUND:                -0.166
REMARK SMILES [NH3+][C@H](Cc1c[nH]c2ccccc12)C(=O)[O-]
REMARK SMILES IDX 3 1 2 2 1 3 13 7 14 8 15 9 4 10 12 11 5 12 7 13 11 14 6 15
REMARK SMILES IDX 8 16 10 17 9 19
REMARK H PARENT 1 4 1 5 1 6 6 18
REMARK Flexibility Score: inf
ROOT
ATOM      1  C   UNL     1      -2.548   7.239  34.928  1.00  0.00     0.109 C 
ENDROOT
BRANCH   1   2
ATOM      2  C   UNL     1      -1.805   5.922  34.631  1.00  0.00     0.232 C 
BRANCH   2   3
ATOM      3  N   UNL     1      -2.266   4.834  35.505  1.00  0.00    -0.350 N 
ATOM      4  H   UNL     1      -2.813   5.225  36.305  1.00  0.00     0.345 HD
ATOM      5  H   UNL     1      -1.443   4.323  35.900  1.00  0.00     0.345 HD
ATOM      6  H   UNL     1      -2.865   4.160  34.974  1.00  0.00     0.345 HD
ENDBRANCH   2   3
BRANCH   2   7
ATOM      7  C   UNL     1      -2.005   5.544  33.188  1.00  0.00     0.099 C 
ATOM      8  O   UNL     1      -2.968   4.804  32.855  1.00  0.00    -0.544 OA
ATOM      9  O   UNL     1      -1.119   5.995  32.216  1.00  0.00    -0.544 OA
ENDBRANCH   2   7
ENDBRANCH   1   2
BRANCH   1  10
ATOM     10  C   UNL     1      -1.868   8.419  34.294  1.00  0.00    -0.016 A 
ATOM     11  C   UNL     1      -0.605   8.913  34.561  1.00  0.00     0.003 A 
ATOM     12  C   UNL     1      -2.363   9.194  33.250  1.00  0.00     0.087 A 
ATOM     13  C   UNL     1      -0.396   9.954  33.692  1.00  0.00     0.046 A 
ATOM     14  C   UNL     1       0.367   8.518  35.481  1.00  0.00     0.010 A 
ATOM     15  N   UNL     1      -1.461  10.134  32.891  1.00  0.00    -0.361 N 
ATOM     16  C   UNL     1       0.797  10.676  33.686  1.00  0.00     0.026 A 
ATOM     17  C   UNL     1       1.581   9.229  35.498  1.00  0.00     0.001 A 
ATOM     18  H   UNL     1      -1.568  10.847  32.134  1.00  0.00     0.166 HD
ATOM     19  C   UNL     1       1.794  10.304  34.606  1.00  0.00     0.002 A 
ENDBRANCH   1  10
TORSDOF 4
ENDMDL
MODEL 2
REMARK VINA RESULT:    -4.999      1.250      2.168
REMARK INTER + INTRA:          -6.188
REMARK INTER:                  -5.840
REMARK INTRA:                  -0.348
REMARK UNBOUND:                -0.166
REMARK SMILES [NH3+][C@H](Cc1c[nH]c2ccccc12)C(=O)[O-]
REMARK SMILES IDX 3 1 2 2 1 3 13 7 14 8 15 9 4 10 12 11 5 12 7 13 11 14 6 15
REMARK SMILES IDX 8 16 10 17 9 19
REMARK H PARENT 1 4 1 5 1 6 6 18
REMARK Flexibility Score: inf
ROOT
ATOM      1  C   UNL     1      -2.474   7.087  34.944  1.00  0.00     0.109 C 
ENDROOT
BRANCH   1   2
ATOM      2  C   UNL     1      -1.879   5.681  34.736  1.00  0.00     0.232 C 
BRANCH   2   3
ATOM      3  N   UNL     1      -2.603   4.668  35.517  1.00  0.00    -0.350 N 
ATOM      4  H   UNL     1      -2.070   4.439  36.387  1.00  0.00     0.345 HD
ATOM      5  H   UNL     1      -2.696   3.789  34.959  1.00  0.00     0.345 HD
ATOM      6  H   UNL     1      -3.556   5.012  35.777  1.00  0.00     0.345 HD
ENDBRANCH   2   3
BRANCH   2   7
ATOM      7  C   UNL     1      -1.916   5.327  33.273  1.00  0.00     0.099 C 
ATOM      8  O   UNL     1      -2.927   4.755  32.786  1.00  0.00    -0.544 OA
ATOM      9  O   UNL     1      -0.830   5.614  32.455  1.00  0.00    -0.544 OA
ENDBRANCH   2   7
ENDBRANCH   1   2
BRANCH   1  10
ATOM     10  C   UNL     1      -1.423   8.156  34.858  1.00  0.00    -0.016 A 
ATOM     11  C   UNL     1      -1.148   8.992  33.792  1.00  0.00     0.003 A 
ATOM     12  C   UNL     1      -0.570   8.558  35.881  1.00  0.00     0.087 A 
ATOM     13  C   UNL     1      -0.153   9.842  34.202  1.00  0.00     0.046 A 
ATOM     14  C   UNL     1      -1.706   9.076  32.515  1.00  0.00     0.010 A 
ATOM     15  N   UNL     1       0.208   9.586  35.471  1.00  0.00    -0.361 N 
ATOM     16  C   UNL     1       0.358  10.831  33.362  1.00  0.00     0.026 A 
ATOM     17  C   UNL     1      -1.209  10.064  31.646  1.00  0.00     0.001 A 
ATOM     18  H   UNL     1       0.932  10.085  36.035  1.00  0.00     0.166 HD
ATOM     19  C   UNL     1      -0.181  10.937  32.067  1.00  0.00     0.002 A 
ENDBRANCH   1  10
TORSDOF 4
ENDMDL
MODEL 3
REMARK VINA RESULT:    -4.964     10.168     11.029
REMARK INTER + INTRA:          -6.146
REMARK INTER:                  -5.889
REMARK INTRA:                  -0.257
REMARK UNBOUND:                -0.166
REMARK SMILES [NH3+][C@H](Cc1c[nH]c2ccccc12)C(=O)[O-]
REMARK SMILES IDX 3 1 2 2 1 3 13 7 14 8 15 9 4 10 12 11 5 12 7 13 11 14 6 15
REMARK SMILES IDX 8 16 10 17 9 19
REMARK H PARENT 1 4 1 5 1 6 6 18
REMARK Flexibility Score: inf
ROOT
ATOM      1  C   UNL     1      -4.962  17.196  28.758  1.00  0.00     0.109 C 
ENDROOT
BRANCH   1   2
ATOM      2  C   UNL     1      -4.946  15.673  28.993  1.00  0.00     0.232 C 
BRANCH   2   3
ATOM      3  N   UNL     1      -5.607  15.315  30.255  1.00  0.00    -0.350 N 
ATOM      4  H   UNL     1      -4.932  14.827  30.887  1.00  0.00     0.345 HD
ATOM      5  H   UNL     1      -6.399  14.658  30.068  1.00  0.00     0.345 HD
ATOM      6  H   UNL     1      -5.975  16.168  30.736  1.00  0.00     0.345 HD
ENDBRANCH   2   3
BRANCH   2   7
ATOM      7  C   UNL     1      -5.620  14.977  27.841  1.00  0.00     0.099 C 
ATOM      8  O   UNL     1      -5.573  13.722  27.745  1.00  0.00    -0.544 OA
ATOM      9  O   UNL     1      -6.285  15.715  26.869  1.00  0.00    -0.544 OA
ENDBRANCH   2   7
ENDBRANCH   1   2
BRANCH   1  10
ATOM     10  C   UNL     1      -3.834  17.883  29.473  1.00  0.00    -0.016 A 
ATOM     11  C   UNL     1      -3.861  18.490  30.714  1.00  0.00     0.003 A 
ATOM     12  C   UNL     1      -2.513  17.965  29.043  1.00  0.00     0.087 A 
ATOM     13  C   UNL     1      -2.585  18.918  30.974  1.00  0.00     0.046 A 
ATOM     14  C   UNL     1      -4.900  18.681  31.627  1.00  0.00     0.010 A 
ATOM     15  N   UNL     1      -1.756  18.605  29.963  1.00  0.00    -0.361 N 
ATOM     16  C   UNL     1      -2.257  19.570  32.163  1.00  0.00     0.026 A 
ATOM     17  C   UNL     1      -4.599  19.338  32.834  1.00  0.00     0.001 A 
ATOM     18  H   UNL     1      -0.732  18.801  29.902  1.00  0.00     0.166 HD
ATOM     19  C   UNL     1      -3.284  19.781  33.101  1.00  0.00     0.002 A 
ENDBRANCH   1  10
TORSDOF 4
ENDMDL
MODEL 4
REMARK VINA RESULT:    -4.925      2.485      3.296
REMARK INTER + INTRA:          -6.100
REMARK INTER:                  -5.840
REMARK INTRA:                  -0.260
REMARK UNBOUND:                -0.166
REMARK SMILES [NH3+][C@H](Cc1c[nH]c2ccccc12)C(=O)[O-]
REMARK SMILES IDX 3 1 2 2 1 3 13 7 14 8 15 9 4 10 12 11 5 12 7 13 11 14 6 15
REMARK SMILES IDX 8 16 10 17 9 19
REMARK H PARENT 1 4 1 5 1 6 6 18
REMARK Flexibility Score: inf
ROOT
ATOM      1  C   UNL     1      -1.186   5.976  34.053  1.00  0.00     0.109 C 
ENDROOT
BRANCH   1   2
ATOM      2  C   UNL     1      -2.520   5.207  34.130  1.00  0.00     0.232 C 
BRANCH   2   3
ATOM      3  N   UNL     1      -2.906   4.666  32.819  1.00  0.00    -0.350 N 
ATOM      4  H   UNL     1      -2.456   5.220  32.056  1.00  0.00     0.345 HD
ATOM      5  H   UNL     1      -3.942   4.738  32.697  1.00  0.00     0.345 HD
ATOM      6  H   UNL     1      -2.620   3.663  32.732  1.00  0.00     0.345 HD
ENDBRANCH   2   3
BRANCH   2   7
ATOM      7  C   UNL     1      -2.403   4.093  35.134  1.00  0.00     0.099 C 
ATOM      8  O   UNL     1      -1.404   4.032  35.899  1.00  0.00    -0.544 OA
ATOM      9  O   UNL     1      -3.386   3.114  35.213  1.00  0.00    -0.544 OA
ENDBRANCH   2   7
ENDBRANCH   1   2
BRANCH   1  10
ATOM     10  C   UNL     1      -1.387   7.398  33.615  1.00  0.00    -0.016 A 
ATOM     11  C   UNL     1      -1.149   7.943  32.367  1.00  0.00     0.003 A 
ATOM     12  C   UNL     1      -1.933   8.427  34.376  1.00  0.00     0.087 A 
ATOM     13  C   UNL     1      -1.541   9.256  32.426  1.00  0.00     0.046 A 
ATOM     14  C   UNL     1      -0.637   7.382  31.195  1.00  0.00     0.010 A 
ATOM     15  N   UNL     1      -2.019   9.562  33.645  1.00  0.00    -0.361 N 
ATOM     16  C   UNL     1      -1.445  10.101  31.321  1.00  0.00     0.026 A 
ATOM     17  C   UNL     1      -0.527   8.212  30.065  1.00  0.00     0.001 A 
ATOM     18  H   UNL     1      -2.394  10.483  33.964  1.00  0.00     0.166 HD
ATOM     19  C   UNL     1      -0.928   9.565  30.127  1.00  0.00     0.002 A 
ENDBRANCH   1  10
TORSDOF 4
ENDMDL
MODEL 5
REMARK VINA RESULT:    -4.923     10.668     12.023
REMARK INTER + INTRA:          -6.097
REMARK INTER:                  -5.864
REMARK INTRA:                  -0.232
REMARK UNBOUND:                -0.166
REMARK SMILES [NH3+][C@H](Cc1c[nH]c2ccccc12)C(=O)[O-]
REMARK SMILES IDX 3 1 2 2 1 3 13 7 14 8 15 9 4 10 12 11 5 12 7 13 11 14 6 15
REMARK SMILES IDX 8 16 10 17 9 19
REMARK H PARENT 1 4 1 5 1 6 6 18
REMARK Flexibility Score: inf
ROOT
ATOM      1  C   UNL     1      -4.110  17.533  30.701  1.00  0.00     0.109 C 
ENDROOT
BRANCH   1   2
ATOM      2  C   UNL     1      -4.962  18.183  31.808  1.00  0.00     0.232 C 
BRANCH   2   3
ATOM      3  N   UNL     1      -5.620  17.171  32.647  1.00  0.00    -0.350 N 
ATOM      4  H   UNL     1      -4.912  16.683  33.241  1.00  0.00     0.345 HD
ATOM      5  H   UNL     1      -6.078  16.452  32.041  1.00  0.00     0.345 HD
ATOM      6  H   UNL     1      -6.343  17.612  33.262  1.00  0.00     0.345 HD
ENDBRANCH   2   3
BRANCH   2   7
ATOM      7  C   UNL     1      -4.094  19.071  32.658  1.00  0.00     0.099 C 
ATOM      8  O   UNL     1      -2.968  19.447  32.236  1.00  0.00    -0.544 OA
ATOM      9  O   UNL     1      -4.520  19.470  33.919  1.00  0.00    -0.544 OA
ENDBRANCH   2   7
ENDBRANCH   1   2
BRANCH   1  10
ATOM     10  C   UNL     1      -4.825  17.525  29.380  1.00  0.00    -0.016 A 
ATOM     11  C   UNL     1      -5.187  16.429  28.618  1.00  0.00     0.003 A 
ATOM     12  C   UNL     1      -5.332  18.634  28.709  1.00  0.00     0.087 A 
ATOM     13  C   UNL     1      -5.873  16.911  27.533  1.00  0.00     0.046 A 
ATOM     14  C   UNL     1      -4.978  15.062  28.808  1.00  0.00     0.010 A 
ATOM     15  N   UNL     1      -5.966  18.251  27.577  1.00  0.00    -0.361 N 
ATOM     16  C   UNL     1      -6.395  16.060  26.559  1.00  0.00     0.026 A 
ATOM     17  C   UNL     1      -5.492  14.180  27.840  1.00  0.00     0.001 A 
ATOM     18  H   UNL     1      -6.442  18.874  26.887  1.00  0.00     0.166 HD
ATOM     19  C   UNL     1      -6.196  14.676  26.720  1.00  0.00     0.002 A 
ENDBRANCH   1  10
TORSDOF 4
ENDMDL
MODEL 6
REMARK VINA RESULT:    -4.890      9.799     10.482
REMARK INTER + INTRA:          -6.057
REMARK INTER:                  -5.821
REMARK INTRA:                  -0.235
REMARK UNBOUND:                -0.166
REMARK SMILES [NH3+][C@H](Cc1c[nH]c2ccccc12)C(=O)[O-]
REMARK SMILES IDX 3 1 2 2 1 3 13 7 14 8 15 9 4 10 12 11 5 12 7 13 11 14 6 15
REMARK SMILES IDX 8 16 10 17 9 19
REMARK H PARENT 1 4 1 5 1 6 6 18
REMARK Flexibility Score: inf
ROOT
ATOM      1  C   UNL     1      -4.523  14.698  26.150  1.00  0.00     0.109 C 
ENDROOT
BRANCH   1   2
ATOM      2  C   UNL     1      -5.126  13.321  25.808  1.00  0.00     0.232 C 
BRANCH   2   3
ATOM      3  N   UNL     1      -6.019  13.398  24.643  1.00  0.00    -0.350 N 
ATOM      4  H   UNL     1      -6.197  14.398  24.394  1.00  0.00     0.345 HD
ATOM      5  H   UNL     1      -6.939  12.957  24.871  1.00  0.00     0.345 HD
ATOM      6  H   UNL     1      -5.598  12.907  23.820  1.00  0.00     0.345 HD
ENDBRANCH   2   3
BRANCH   2   7
ATOM      7  C   UNL     1      -4.019  12.336  25.545  1.00  0.00     0.099 C 
ATOM      8  O   UNL     1      -2.937  12.722  25.028  1.00  0.00    -0.544 OA
ATOM      9  O   UNL     1      -4.188  10.991  25.853  1.00  0.00    -0.544 OA
ENDBRANCH   2   7
ENDBRANCH   1   2
BRANCH   1  10
ATOM     10  C   UNL     1      -4.762  15.070  27.585  1.00  0.00    -0.016 A 
ATOM     11  C   UNL     1      -4.184  16.101  28.301  1.00  0.00     0.003 A 
ATOM     12  C   UNL     1      -5.684  14.483  28.447  1.00  0.00     0.087 A 
ATOM     13  C   UNL     1      -4.759  16.089  29.546  1.00  0.00     0.046 A 
ATOM     14  C   UNL     1      -3.218  17.045  27.947  1.00  0.00     0.010 A 
ATOM     15  N   UNL     1      -5.672  15.108  29.646  1.00  0.00    -0.361 N 
ATOM     16  C   UNL     1      -4.405  17.016  30.526  1.00  0.00     0.026 A 
ATOM     17  C   UNL     1      -2.841  17.992  28.916  1.00  0.00     0.001 A 
ATOM     18  H   UNL     1      -6.265  14.878  30.476  1.00  0.00     0.166 HD
ATOM     19  C   UNL     1      -3.431  17.977  30.200  1.00  0.00     0.002 A 
ENDBRANCH   1  10
TORSDOF 4
ENDMDL
MODEL 7
REMARK VINA RESULT:    -4.864     11.300     12.762
REMARK INTER + INTRA:          -6.026
REMARK INTER:                  -5.759
REMARK INTRA:                  -0.267
REMARK UNBOUND:                -0.166
REMARK SMILES [NH3+][C@H](Cc1c[nH]c2ccccc12)C(=O)[O-]
REMARK SMILES IDX 3 1 2 2 1 3 13 7 14 8 15 9 4 10 12 11 5 12 7 13 11 14 6 15
REMARK SMILES IDX 8 16 10 17 9 19
REMARK H PARENT 1 4 1 5 1 6 6 18
REMARK Flexibility Score: inf
ROOT
ATOM      1  C   UNL     1      -3.903  18.069  31.325  1.00  0.00     0.109 C 
ENDROOT
BRANCH   1   2
ATOM      2  C   UNL     1      -5.034  18.405  32.316  1.00  0.00     0.232 C 
BRANCH   2   3
ATOM      3  N   UNL     1      -5.705  17.190  32.801  1.00  0.00    -0.350 N 
ATOM      4  H   UNL     1      -5.131  16.738  33.548  1.00  0.00     0.345 HD
ATOM      5  H   UNL     1      -5.807  16.504  32.018  1.00  0.00     0.345 HD
ATOM      6  H   UNL     1      -6.652  17.417  33.183  1.00  0.00     0.345 HD
ENDBRANCH   2   3
BRANCH   2   7
ATOM      7  C   UNL     1      -4.475  19.183  33.477  1.00  0.00     0.099 C 
ATOM      8  O   UNL     1      -4.938  19.011  34.636  1.00  0.00    -0.544 OA
ATOM      9  O   UNL     1      -3.458  20.108  33.276  1.00  0.00    -0.544 OA
ENDBRANCH   2   7
ENDBRANCH   1   2
BRANCH   1  10
ATOM     10  C   UNL     1      -3.935  18.962  30.119  1.00  0.00    -0.016 A 
ATOM     11  C   UNL     1      -2.948  19.822  29.674  1.00  0.00     0.003 A 
ATOM     12  C   UNL     1      -4.950  19.031  29.169  1.00  0.00     0.087 A 
ATOM     13  C   UNL     1      -3.402  20.374  28.503  1.00  0.00     0.046 A 
ATOM     14  C   UNL     1      -1.695  20.143  30.199  1.00  0.00     0.010 A 
ATOM     15  N   UNL     1      -4.620  19.900  28.187  1.00  0.00    -0.361 N 
ATOM     16  C   UNL     1      -2.637  21.287  27.778  1.00  0.00     0.026 A 
ATOM     17  C   UNL     1      -0.903  21.063  29.490  1.00  0.00     0.001 A 
ATOM     18  H   UNL     1      -5.193  20.141  27.348  1.00  0.00     0.166 HD
ATOM     19  C   UNL     1      -1.372  21.634  28.286  1.00  0.00     0.002 A 
ENDBRANCH   1  10
TORSDOF 4
ENDMDL
MODEL 8
REMARK VINA RESULT:    -4.860      2.575      4.904
REMARK INTER + INTRA:          -6.021
REMARK INTER:                  -5.697
REMARK INTRA:                  -0.325
REMARK UNBOUND:                -0.166
REMARK SMILES [NH3+][C@H](Cc1c[nH]c2ccccc12)C(=O)[O-]
REMARK SMILES IDX 3 1 2 2 1 3 13 7 14 8 15 9 4 10 12 11 5 12 7 13 11 14 6 15
REMARK SMILES IDX 8 16 10 17 9 19
REMARK H PARENT 1 4 1 5 1 6 6 18
REMARK Flexibility Score: inf
ROOT
ATOM      1  C   UNL     1      -1.928   9.260  33.486  1.00  0.00     0.109 C 
ENDROOT
BRANCH   1   2
ATOM      2  C   UNL     1      -0.758  10.115  34.013  1.00  0.00     0.232 C 
BRANCH   2   3
ATOM      3  N   UNL     1      -1.214  11.446  34.440  1.00  0.00    -0.350 N 
ATOM      4  H   UNL     1      -0.574  12.181  34.062  1.00  0.00     0.345 HD
ATOM      5  H   UNL     1      -1.191  11.510  35.484  1.00  0.00     0.345 HD
ATOM      6  H   UNL     1      -2.188  11.630  34.106  1.00  0.00     0.345 HD
ENDBRANCH   2   3
BRANCH   2   7
ATOM      7  C   UNL     1      -0.090   9.406  35.160  1.00  0.00     0.099 C 
ATOM      8  O   UNL     1       1.163   9.286  35.186  1.00  0.00    -0.544 OA
ATOM      9  O   UNL     1      -0.851   8.863  36.188  1.00  0.00    -0.544 OA
ENDBRANCH   2   7
ENDBRANCH   1   2
BRANCH   1  10
ATOM     10  C   UNL     1      -1.451   7.957  32.912  1.00  0.00    -0.016 A 
ATOM     11  C   UNL     1      -1.688   6.682  33.391  1.00  0.00     0.003 A 
ATOM     12  C   UNL     1      -0.737   7.788  31.730  1.00  0.00     0.087 A 
ATOM     13  C   UNL     1      -1.109   5.811  32.504  1.00  0.00     0.046 A 
ATOM     14  C   UNL     1      -2.374   6.231  34.520  1.00  0.00     0.010 A 
ATOM     15  N   UNL     1      -0.527   6.474  31.489  1.00  0.00    -0.361 N 
ATOM     16  C   UNL     1      -1.172   4.430  32.685  1.00  0.00     0.026 A 
ATOM     17  C   UNL     1      -2.452   4.843  34.729  1.00  0.00     0.001 A 
ATOM     18  H   UNL     1      -0.024   6.061  30.671  1.00  0.00     0.166 HD
ATOM     19  C   UNL     1      -1.853   3.946  33.816  1.00  0.00     0.002 A 
ENDBRANCH   1  10
TORSDOF 4
ENDMDL
MODEL 9
REMARK VINA RESULT:    -4.849      9.139     11.122
REMARK INTER + INTRA:          -6.008
REMARK INTER:                  -5.698
REMARK INTRA:                  -0.310
REMARK UNBOUND:                -0.166
REMARK SMILES [NH3+][C@H](Cc1c[nH]c2ccccc12)C(=O)[O-]
REMARK SMILES IDX 3 1 2 2 1 3 13 7 14 8 15 9 4 10 12 11 5 12 7 13 11 14 6 15
REMARK SMILES IDX 8 16 10 17 9 19
REMARK H PARENT 1 4 1 5 1 6 6 18
REMARK Flexibility Score: inf
ROOT
ATOM      1  C   UNL     1      -6.365  14.742  26.733  1.00  0.00     0.109 C 
ENDROOT
BRANCH   1   2
ATOM      2  C   UNL     1      -5.589  16.058  26.938  1.00  0.00     0.232 C 
BRANCH   2   3
ATOM      3  N   UNL     1      -6.330  17.210  26.403  1.00  0.00    -0.350 N 
ATOM      4  H   UNL     1      -6.676  16.996  25.440  1.00  0.00     0.345 HD
ATOM      5  H   UNL     1      -5.698  18.040  26.338  1.00  0.00     0.345 HD
ATOM      6  H   UNL     1      -7.144  17.445  27.018  1.00  0.00     0.345 HD
ENDBRANCH   2   3
BRANCH   2   7
ATOM      7  C   UNL     1      -5.313  16.259  28.404  1.00  0.00     0.099 C 
ATOM      8  O   UNL     1      -5.325  15.275  29.191  1.00  0.00    -0.544 OA
ATOM      9  O   UNL     1      -5.059  17.531  28.902  1.00  0.00    -0.544 OA
ENDBRANCH   2   7
ENDBRANCH   1   2
BRANCH   1  10
ATOM     10  C   UNL     1      -5.547  13.723  25.993  1.00  0.00    -0.016 A 
ATOM     11  C   UNL     1      -4.929  12.598  26.505  1.00  0.00     0.003 A 
ATOM     12  C   UNL     1      -5.325  13.683  24.619  1.00  0.00     0.087 A 
ATOM     13  C   UNL     1      -4.358  11.942  25.444  1.00  0.00     0.046 A 
ATOM     14  C   UNL     1      -4.841  12.103  27.807  1.00  0.00     0.010 A 
ATOM     15  N   UNL     1      -4.592  12.595  24.292  1.00  0.00    -0.361 N 
ATOM     16  C   UNL     1      -3.657  10.748  25.610  1.00  0.00     0.026 A 
ATOM     17  C   UNL     1      -4.138  10.901  28.005  1.00  0.00     0.001 A 
ATOM     18  H   UNL     1      -4.284  12.314  23.333  1.00  0.00     0.166 HD
ATOM     19  C   UNL     1      -3.547  10.227  26.913  1.00  0.00     0.002 A 
ENDBRANCH   1  10
TORSDOF 4
ENDMDL
