MODEL 1
REMARK VINA RESULT:    -3.489      0.000      0.000
REMARK INTER + INTRA:          -4.063
REMARK INTER:                  -3.999
REMARK INTRA:                  -0.064
REMARK UNBOUND:                -0.064
REMARK SMILES CC(C)[C@@H]([NH3+])C(=O)[O-]
REMARK SMILES IDX 4 1 5 2 6 6 7 7 8 8 2 9 1 10 3 11
REMARK H PARENT 5 3 5 4 5 5
REMARK Flexibility Score: inf
ROOT
ATOM      1  C   UNL     1      24.462  -6.265  16.602  1.00  0.00     0.230 C 
ENDROOT
BRANCH   1   2
ATOM      2  N   UNL     1      25.346  -6.184  15.430  1.00  0.00    -0.350 N 
ATOM      3  H   UNL     1      25.982  -7.011  15.372  1.00  0.00     0.345 HD
ATOM      4  H   UNL     1      25.921  -5.311  15.476  1.00  0.00     0.345 HD
ATOM      5  H   UNL     1      24.769  -6.146  14.560  1.00  0.00     0.345 HD
ENDBRANCH   1   2
BRANCH   1   6
ATOM      6  C   UNL     1      24.018  -7.690  16.843  1.00  0.00     0.099 C 
ATOM      7  O   UNL     1      24.861  -8.621  16.934  1.00  0.00    -0.544 OA
ATOM      8  O   UNL     1      22.667  -7.975  16.995  1.00  0.00    -0.544 OA
ENDBRANCH   1   6
BRANCH   1   9
ATOM      9  C   UNL     1      25.109  -5.615  17.862  1.00  0.00     0.047 C 
ATOM     10  C   UNL     1      24.105  -5.317  18.989  1.00  0.00     0.014 C 
ATOM     11  C   UNL     1      25.884  -4.340  17.497  1.00  0.00     0.014 C 
ENDBRANCH   1   9
TORSDOF 3
ENDMDL
MODEL 2
REMARK VINA RESULT:    -3.366      2.470      2.899
REMARK INTER + INTRA:          -3.923
REMARK INTER:                  -3.918
REMARK INTRA:                  -0.004
REMARK UNBOUND:                -0.064
REMARK SMILES CC(C)[C@@H]([NH3+])C(=O)[O-]
REMARK SMILES IDX 4 1 5 2 6 6 7 7 8 8 2 9 1 10 3 11
REMARK H PARENT 5 3 5 4 5 5
REMARK Flexibility Score: inf
ROOT
ATOM      1  C   UNL     1      24.447  -4.738  16.971  1.00  0.00     0.230 C 
ENDROOT
BRANCH   1   2
ATOM      2  N   UNL     1      25.328  -5.265  15.917  1.00  0.00    -0.350 N 
ATOM      3  H   UNL     1      25.619  -4.515  15.251  1.00  0.00     0.345 HD
ATOM      4  H   UNL     1      24.839  -6.024  15.389  1.00  0.00     0.345 HD
ATOM      5  H   UNL     1      26.185  -5.675  16.353  1.00  0.00     0.345 HD
ENDBRANCH   1   2
BRANCH   1   6
ATOM      6  C   UNL     1      24.824  -5.305  18.320  1.00  0.00     0.099 C 
ATOM      7  O   UNL     1      25.977  -5.771  18.524  1.00  0.00    -0.544 OA
ATOM      8  O   UNL     1      23.902  -5.286  19.358  1.00  0.00    -0.544 OA
ENDBRANCH   1   6
BRANCH   1   9
ATOM      9  C   UNL     1      24.404  -3.180  16.963  1.00  0.00     0.047 C 
ATOM     10  C   UNL     1      25.334  -2.530  18.001  1.00  0.00     0.014 C 
ATOM     11  C   UNL     1      22.969  -2.661  17.143  1.00  0.00     0.014 C 
ENDBRANCH   1   9
TORSDOF 3
ENDMDL
MODEL 3
REMARK VINA RESULT:    -3.324      3.093      3.746
REMARK INTER + INTRA:          -3.874
REMARK INTER:                  -3.868
REMARK INTRA:                  -0.005
REMARK UNBOUND:                -0.064
REMARK SMILES CC(C)[C@@H]([NH3+])C(=O)[O-]
REMARK SMILES IDX 4 1 5 2 6 6 7 7 8 8 2 9 1 10 3 11
REMARK H PARENT 5 3 5 4 5 5
REMARK Flexibility Score: inf
ROOT
ATOM      1  C   UNL     1      25.643  -4.451  17.191  1.00  0.00     0.230 C 
ENDROOT
BRANCH   1   2
ATOM      2  N   UNL     1      25.239  -5.048  15.909  1.00  0.00    -0.350 N 
ATOM      3  H   UNL     1      25.995  -4.964  15.193  1.00  0.00     0.345 HD
ATOM      4  H   UNL     1      24.374  -4.580  15.554  1.00  0.00     0.345 HD
ATOM      5  H   UNL     1      25.025  -6.062  16.049  1.00  0.00     0.345 HD
ENDBRANCH   1   2
BRANCH   1   6
ATOM      6  C   UNL     1      24.973  -3.113  17.396  1.00  0.00     0.099 C 
ATOM      7  O   UNL     1      25.450  -2.270  18.202  1.00  0.00    -0.544 OA
ATOM      8  O   UNL     1      23.835  -2.792  16.668  1.00  0.00    -0.544 OA
ENDBRANCH   1   6
BRANCH   1   9
ATOM      9  C   UNL     1      25.413  -5.429  18.383  1.00  0.00     0.047 C 
ATOM     10  C   UNL     1      25.690  -6.902  18.038  1.00  0.00     0.014 C 
ATOM     11  C   UNL     1      23.997  -5.281  18.961  1.00  0.00     0.014 C 
ENDBRANCH   1   9
TORSDOF 3
ENDMDL
MODEL 4
REMARK VINA RESULT:    -3.262      2.221      3.191
REMARK INTER + INTRA:          -3.803
REMARK INTER:                  -3.745
REMARK INTRA:                  -0.058
REMARK UNBOUND:                -0.064
REMARK SMILES CC(C)[C@@H]([NH3+])C(=O)[O-]
REMARK SMILES IDX 4 1 5 2 6 6 7 7 8 8 2 9 1 10 3 11
REMARK H PARENT 5 3 5 4 5 5
REMARK Flexibility Score: inf
ROOT
ATOM      1  C   UNL     1      25.168  -6.602  16.878  1.00  0.00     0.230 C 
ENDROOT
BRANCH   1   2
ATOM      2  N   UNL     1      25.536  -6.292  15.489  1.00  0.00    -0.350 N 
ATOM      3  H   UNL     1      24.708  -6.337  14.854  1.00  0.00     0.345 HD
ATOM      4  H   UNL     1      26.265  -6.963  15.154  1.00  0.00     0.345 HD
ATOM      5  H   UNL     1      25.939  -5.328  15.443  1.00  0.00     0.345 HD
ENDBRANCH   1   2
BRANCH   1   6
ATOM      6  C   UNL     1      25.327  -5.387  17.762  1.00  0.00     0.099 C 
ATOM      7  O   UNL     1      26.115  -4.457  17.444  1.00  0.00    -0.544 OA
ATOM      8  O   UNL     1      24.576  -5.276  18.925  1.00  0.00    -0.544 OA
ENDBRANCH   1   6
BRANCH   1   9
ATOM      9  C   UNL     1      23.746  -7.233  16.973  1.00  0.00     0.047 C 
ATOM     10  C   UNL     1      23.712  -8.736  16.645  1.00  0.00     0.014 C 
ATOM     11  C   UNL     1      22.740  -6.479  16.088  1.00  0.00     0.014 C 
ENDBRANCH   1   9
TORSDOF 3
ENDMDL
MODEL 5
REMARK VINA RESULT:    -3.108      2.347      2.938
REMARK INTER + INTRA:          -3.626
REMARK INTER:                  -3.636
REMARK INTRA:                   0.010
REMARK UNBOUND:                -0.064
REMARK SMILES CC(C)[C@@H]([NH3+])C(=O)[O-]
REMARK SMILES IDX 4 1 5 2 6 6 7 7 8 8 2 9 1 10 3 11
REMARK H PARENT 5 3 5 4 5 5
REMARK Flexibility Score: inf
ROOT
ATOM      1  C   UNL     1      23.274  -4.010  17.491  1.00  0.00     0.230 C 
ENDROOT
BRANCH   1   2
ATOM      2  N   UNL     1      22.523  -4.233  16.247  1.00  0.00    -0.350 N 
ATOM      3  H   UNL     1      21.506  -4.376  16.434  1.00  0.00     0.345 HD
ATOM      4  H   UNL     1      22.903  -5.069  15.745  1.00  0.00     0.345 HD
ATOM      5  H   UNL     1      22.633  -3.403  15.620  1.00  0.00     0.345 HD
ENDBRANCH   1   2
BRANCH   1   6
ATOM      6  C   UNL     1      23.289  -5.259  18.341  1.00  0.00     0.099 C 
ATOM      7  O   UNL     1      23.489  -5.192  19.583  1.00  0.00    -0.544 OA
ATOM      8  O   UNL     1      23.051  -6.496  17.755  1.00  0.00    -0.544 OA
ENDBRANCH   1   6
BRANCH   1   9
ATOM      9  C   UNL     1      24.703  -3.454  17.214  1.00  0.00     0.047 C 
ATOM     10  C   UNL     1      25.816  -4.506  17.357  1.00  0.00     0.014 C 
ATOM     11  C   UNL     1      25.011  -2.238  18.101  1.00  0.00     0.014 C 
ENDBRANCH   1   9
TORSDOF 3
ENDMDL
MODEL 6
REMARK VINA RESULT:    -3.095     11.859     12.516
REMARK INTER + INTRA:          -3.611
REMARK INTER:                  -3.570
REMARK INTRA:                  -0.042
REMARK UNBOUND:                -0.064
REMARK SMILES CC(C)[C@@H]([NH3+])C(=O)[O-]
REMARK SMILES IDX 4 1 5 2 6 6 7 7 8 8 2 9 1 10 3 11
REMARK H PARENT 5 3 5 4 5 5
REMARK Flexibility Score: inf
ROOT
ATOM      1  C   UNL     1      27.979   0.677   7.540  1.00  0.00     0.230 C 
ENDROOT
BRANCH   1   2
ATOM      2  N   UNL     1      28.967  -0.232   8.139  1.00  0.00    -0.350 N 
ATOM      3  H   UNL     1      29.726   0.296   8.626  1.00  0.00     0.345 HD
ATOM      4  H   UNL     1      29.390  -0.838   7.399  1.00  0.00     0.345 HD
ATOM      5  H   UNL     1      28.493  -0.853   8.834  1.00  0.00     0.345 HD
ENDBRANCH   1   2
BRANCH   1   6
ATOM      6  C   UNL     1      27.650   0.258   6.126  1.00  0.00     0.099 C 
ATOM      7  O   UNL     1      27.979   0.978   5.146  1.00  0.00    -0.544 OA
ATOM      8  O   UNL     1      27.003  -0.950   5.898  1.00  0.00    -0.544 OA
ENDBRANCH   1   6
BRANCH   1   9
ATOM      9  C   UNL     1      26.712   0.825   8.434  1.00  0.00     0.047 C 
ATOM     10  C   UNL     1      26.170   2.264   8.507  1.00  0.00     0.014 C 
ATOM     11  C   UNL     1      26.961   0.285   9.851  1.00  0.00     0.014 C 
ENDBRANCH   1   9
TORSDOF 3
ENDMDL
MODEL 7
REMARK VINA RESULT:    -3.093     10.028     10.770
REMARK INTER + INTRA:          -3.609
REMARK INTER:                  -3.544
REMARK INTRA:                  -0.066
REMARK UNBOUND:                -0.064
REMARK SMILES CC(C)[C@@H]([NH3+])C(=O)[O-]
REMARK SMILES IDX 4 1 5 2 6 6 7 7 8 8 2 9 1 10 3 11
REMARK H PARENT 5 3 5 4 5 5
REMARK Flexibility Score: inf
ROOT
ATOM      1  C   UNL     1      28.918  -1.179   9.101  1.00  0.00     0.230 C 
ENDROOT
BRANCH   1   2
ATOM      2  N   UNL     1      28.790  -2.632   9.287  1.00  0.00    -0.350 N 
ATOM      3  H   UNL     1      28.528  -3.110   8.395  1.00  0.00     0.345 HD
ATOM      4  H   UNL     1      28.066  -2.837  10.013  1.00  0.00     0.345 HD
ATOM      5  H   UNL     1      29.701  -3.023   9.618  1.00  0.00     0.345 HD
ENDBRANCH   1   2
BRANCH   1   6
ATOM      6  C   UNL     1      28.372  -0.758   7.757  1.00  0.00     0.099 C 
ATOM      7  O   UNL     1      28.360   0.455   7.417  1.00  0.00    -0.544 OA
ATOM      8  O   UNL     1      27.903  -1.719   6.871  1.00  0.00    -0.544 OA
ENDBRANCH   1   6
BRANCH   1   9
ATOM      9  C   UNL     1      28.285  -0.386  10.284  1.00  0.00     0.047 C 
ATOM     10  C   UNL     1      29.125  -0.420  11.572  1.00  0.00     0.014 C 
ATOM     11  C   UNL     1      26.855  -0.866  10.576  1.00  0.00     0.014 C 
ENDBRANCH   1   9
TORSDOF 3
ENDMDL
MODEL 8
REMARK VINA RESULT:    -3.010     11.862     12.566
REMARK INTER + INTRA:          -3.514
REMARK INTER:                  -3.464
REMARK INTRA:                  -0.050
REMARK UNBOUND:                -0.064
REMARK SMILES CC(C)[C@@H]([NH3+])C(=O)[O-]
REMARK SMILES IDX 4 1 5 2 6 6 7 7 8 8 2 9 1 10 3 11
REMARK H PARENT 5 3 5 4 5 5
REMARK Flexibility Score: inf
ROOT
ATOM      1  C   UNL     1      27.214   0.008   7.320  1.00  0.00     0.230 C 
ENDROOT
BRANCH   1   2
ATOM      2  N   UNL     1      26.641  -0.652   6.137  1.00  0.00    -0.350 N 
ATOM      3  H   UNL     1      26.742  -1.690   6.193  1.00  0.00     0.345 HD
ATOM      4  H   UNL     1      27.113  -0.306   5.270  1.00  0.00     0.345 HD
ATOM      5  H   UNL     1      25.624  -0.419   6.067  1.00  0.00     0.345 HD
ENDBRANCH   1   2
BRANCH   1   6
ATOM      6  C   UNL     1      28.296  -0.844   7.940  1.00  0.00     0.099 C 
ATOM      7  O   UNL     1      29.125  -0.347   8.748  1.00  0.00    -0.544 OA
ATOM      8  O   UNL     1      28.364  -2.199   7.642  1.00  0.00    -0.544 OA
ENDBRANCH   1   6
BRANCH   1   9
ATOM      9  C   UNL     1      27.697   1.455   6.998  1.00  0.00     0.047 C 
ATOM     10  C   UNL     1      26.725   2.551   7.466  1.00  0.00     0.014 C 
ATOM     11  C   UNL     1      27.998   1.623   5.500  1.00  0.00     0.014 C 
ENDBRANCH   1   9
TORSDOF 3
ENDMDL
MODEL 9
REMARK VINA RESULT:    -2.990     11.998     12.640
REMARK INTER + INTRA:          -3.491
REMARK INTER:                  -3.452
REMARK INTRA:                  -0.039
REMARK UNBOUND:                -0.064
REMARK SMILES CC(C)[C@@H]([NH3+])C(=O)[O-]
REMARK SMILES IDX 4 1 5 2 6 6 7 7 8 8 2 9 1 10 3 11
REMARK H PARENT 5 3 5 4 5 5
REMARK Flexibility Score: inf
ROOT
ATOM      1  C   UNL     1      27.845   0.223   7.096  1.00  0.00     0.230 C 
ENDROOT
BRANCH   1   2
ATOM      2  N   UNL     1      28.878  -0.038   8.109  1.00  0.00    -0.350 N 
ATOM      3  H   UNL     1      29.529  -0.797   7.805  1.00  0.00     0.345 HD
ATOM      4  H   UNL     1      28.431  -0.308   9.015  1.00  0.00     0.345 HD
ATOM      5  H   UNL     1      29.435   0.833   8.270  1.00  0.00     0.345 HD
ENDBRANCH   1   2
BRANCH   1   6
ATOM      6  C   UNL     1      26.503  -0.304   7.549  1.00  0.00     0.099 C 
ATOM      7  O   UNL     1      25.609  -0.597   6.711  1.00  0.00    -0.544 OA
ATOM      8  O   UNL     1      26.258  -0.497   8.902  1.00  0.00    -0.544 OA
ENDBRANCH   1   6
BRANCH   1   9
ATOM      9  C   UNL     1      27.796   1.727   6.692  1.00  0.00     0.047 C 
ATOM     10  C   UNL     1      26.802   2.559   7.522  1.00  0.00     0.014 C 
ATOM     11  C   UNL     1      27.499   1.894   5.194  1.00  0.00     0.014 C 
ENDBRANCH   1   9
TORSDOF 3
ENDMDL
