MODEL 1
REMARK VINA RESULT:    -4.272      0.000      0.000
REMARK INTER + INTRA:          -5.564
REMARK INTER:                  -6.021
REMARK INTRA:                   0.456
REMARK UNBOUND:                 0.456
REMARK SMILES CC1=CCC(=C(C)C)C(=O)CC(C)=CCC1
REMARK SMILES IDX 12 1 14 2 13 3 15 4 16 5 2 6 1 7 3 8 11 10 9 11 10 12 5 13
REMARK SMILES IDX 6 14 7 15 8 16 4 17
REMARK H PARENT
REMARK Flexibility Score: 60.00
ROOT
ATOM      1  C   UNL     1      10.375 -15.179  24.354  1.00  0.00    -0.070 C 
ATOM      2  C   UNL     1       9.306 -14.425  24.005  1.00  0.00    -0.027 C 
ATOM      3  C   UNL     1      11.646 -15.022  23.559  1.00  0.00     0.039 C 
ENDROOT
BRANCH   2   4
ATOM      4  C   UNL     1       7.978 -14.407  24.727  1.00  0.00     0.032 C 
BRANCH   4   5
ATOM      5  C   UNL     1       6.833 -14.874  23.816  1.00  0.00     0.034 C 
BRANCH   5   6
ATOM      6  C   UNL     1       7.208 -16.045  22.920  1.00  0.00    -0.077 C 
ATOM      7  C   UNL     1       7.314 -15.819  21.433  1.00  0.00     0.039 C 
ATOM      8  C   UNL     1       7.471 -17.287  23.388  1.00  0.00    -0.023 CG0
ATOM      9  G   UNL     1       7.350 -17.722  24.830  1.00  0.00     0.000 G0
ENDBRANCH   5   6
ENDBRANCH   4   5
ENDBRANCH   2   4
BRANCH   1  10
ATOM     10  C   UNL     1      10.344 -16.171  25.500  1.00  0.00     0.111 C 
BRANCH  10  11
ATOM     11  C   UNL     1       9.962 -17.543  25.019  1.00  0.00     0.163 C 
ATOM     12  O   UNL     1      10.739 -18.165  24.245  1.00  0.00    -0.294 OA
BRANCH  11  13
ATOM     13  C   UNL     1       8.698 -18.190  25.455  1.00  0.00    -0.002 C 
ATOM     14  C   UNL     1       8.720 -19.177  26.392  1.00  0.00    -0.069 C 
ATOM     15  C   UNL     1       7.451 -19.885  26.809  1.00  0.00     0.039 C 
ATOM     16  C   UNL     1      10.008 -19.574  27.080  1.00  0.00     0.039 C 
BRANCH  13  17
ATOM     17  C   UNL     1       7.380 -17.735  24.839  1.00  0.00     0.066 CG0
ATOM     18  G   UNL     1       7.496 -17.316  23.392  1.00  0.00     0.000 G0
ENDBRANCH  13  17
ENDBRANCH  11  13
ENDBRANCH  10  11
ENDBRANCH   1  10
TORSDOF 0
ENDMDL
MODEL 2
REMARK VINA RESULT:    -4.101      2.114      3.722
REMARK INTER + INTRA:          -5.324
REMARK INTER:                  -5.691
REMARK INTRA:                   0.367
REMARK UNBOUND:                 0.456
REMARK SMILES CC1=CCC(=C(C)C)C(=O)CC(C)=CCC1
REMARK SMILES IDX 12 1 14 2 13 3 15 4 16 5 2 6 1 7 3 8 11 10 9 11 10 12 5 13
REMARK SMILES IDX 6 14 7 15 8 16 4 17
REMARK H PARENT
REMARK Flexibility Score: 60.00
ROOT
ATOM      1  C   UNL     1       8.030 -15.426  23.744  1.00  0.00    -0.070 C 
ATOM      2  C   UNL     1       9.091 -14.742  24.232  1.00  0.00    -0.027 C 
ATOM      3  C   UNL     1       6.715 -14.700  23.615  1.00  0.00     0.039 C 
ENDROOT
BRANCH   2   4
ATOM      4  C   UNL     1      10.493 -15.290  24.370  1.00  0.00     0.032 C 
BRANCH   4   5
ATOM      5  C   UNL     1      10.592 -16.312  25.512  1.00  0.00     0.034 C 
BRANCH   5   6
ATOM      6  C   UNL     1      11.294 -17.602  25.115  1.00  0.00    -0.077 C 
ATOM      7  C   UNL     1      12.672 -17.524  24.506  1.00  0.00     0.039 C 
ATOM      8  C   UNL     1      10.755 -18.830  25.296  1.00  0.00    -0.023 CG0
ATOM      9  G   UNL     1       9.367 -19.106  25.825  1.00  0.00     0.000 G0
ENDBRANCH   5   6
ENDBRANCH   4   5
ENDBRANCH   2   4
BRANCH   1  10
ATOM     10  C   UNL     1       8.108 -16.882  23.328  1.00  0.00     0.111 C 
BRANCH  10  11
ATOM     11  C   UNL     1       7.604 -17.784  24.420  1.00  0.00     0.163 C 
ATOM     12  O   UNL     1       6.582 -17.447  25.078  1.00  0.00    -0.294 OA
BRANCH  11  13
ATOM     13  C   UNL     1       8.271 -19.076  24.725  1.00  0.00    -0.002 C 
ATOM     14  C   UNL     1       7.927 -20.203  24.044  1.00  0.00    -0.069 C 
ATOM     15  C   UNL     1       8.557 -21.537  24.375  1.00  0.00     0.039 C 
ATOM     16  C   UNL     1       6.934 -20.156  22.903  1.00  0.00     0.039 C 
BRANCH  13  17
ATOM     17  C   UNL     1       9.343 -19.121  25.808  1.00  0.00     0.066 CG0
ATOM     18  G   UNL     1      10.739 -18.855  25.294  1.00  0.00     0.000 G0
ENDBRANCH  13  17
ENDBRANCH  11  13
ENDBRANCH  10  11
ENDBRANCH   1  10
TORSDOF 0
ENDMDL
MODEL 3
REMARK VINA RESULT:    -3.938      2.242      4.424
REMARK INTER + INTRA:          -5.093
REMARK INTER:                  -5.512
REMARK INTRA:                   0.419
REMARK UNBOUND:                 0.456
REMARK SMILES CC1=CCC(=C(C)C)C(=O)CC(C)=CCC1
REMARK SMILES IDX 12 1 14 2 13 3 15 4 16 5 2 6 1 7 3 8 11 10 9 11 10 12 5 13
REMARK SMILES IDX 6 14 7 15 8 16 4 17
REMARK H PARENT
REMARK Flexibility Score: 60.00
ROOT
ATOM      1  C   UNL     1       8.077 -17.784  20.686  1.00  0.00    -0.070 C 
ATOM      2  C   UNL     1       7.686 -19.078  20.616  1.00  0.00    -0.027 C 
ATOM      3  C   UNL     1       7.721 -16.871  19.541  1.00  0.00     0.039 C 
ENDROOT
BRANCH   2   4
ATOM      4  C   UNL     1       7.901 -20.114  21.696  1.00  0.00     0.032 C 
BRANCH   4   5
ATOM      5  C   UNL     1       7.024 -19.839  22.926  1.00  0.00     0.034 C 
BRANCH   5   6
ATOM      6  C   UNL     1       7.761 -20.007  24.247  1.00  0.00    -0.077 C 
ATOM      7  C   UNL     1       8.403 -21.335  24.559  1.00  0.00     0.039 C 
ATOM      8  C   UNL     1       7.889 -19.016  25.160  1.00  0.00    -0.023 CG0
ATOM      9  G   UNL     1       7.260 -17.646  25.057  1.00  0.00     0.000 G0
ENDBRANCH   5   6
ENDBRANCH   4   5
ENDBRANCH   2   4
BRANCH   1  10
ATOM     10  C   UNL     1       8.855 -17.221  21.859  1.00  0.00     0.111 C 
BRANCH  10  11
ATOM     11  C   UNL     1       7.945 -16.505  22.819  1.00  0.00     0.163 C 
ATOM     12  O   UNL     1       6.998 -15.805  22.367  1.00  0.00    -0.294 OA
BRANCH  11  13
ATOM     13  C   UNL     1       8.124 -16.625  24.288  1.00  0.00    -0.002 C 
ATOM     14  C   UNL     1       9.030 -15.842  24.935  1.00  0.00    -0.069 C 
ATOM     15  C   UNL     1       9.264 -15.986  26.422  1.00  0.00     0.039 C 
ATOM     16  C   UNL     1       9.804 -14.770  24.200  1.00  0.00     0.039 C 
BRANCH  13  17
ATOM     17  C   UNL     1       7.282 -17.635  25.059  1.00  0.00     0.066 CG0
ATOM     18  G   UNL     1       7.898 -19.013  25.131  1.00  0.00     0.000 G0
ENDBRANCH  13  17
ENDBRANCH  11  13
ENDBRANCH  10  11
ENDBRANCH   1  10
TORSDOF 0
ENDMDL
MODEL 4
REMARK VINA RESULT:    -3.884      2.445      4.129
REMARK INTER + INTRA:          -5.017
REMARK INTER:                  -5.513
REMARK INTRA:                   0.496
REMARK UNBOUND:                 0.456
REMARK SMILES CC1=CCC(=C(C)C)C(=O)CC(C)=CCC1
REMARK SMILES IDX 12 1 14 2 13 3 15 4 16 5 2 6 1 7 3 8 11 10 9 11 10 12 5 13
REMARK SMILES IDX 6 14 7 15 8 16 4 17
REMARK H PARENT
REMARK Flexibility Score: 60.00
ROOT
ATOM      1  C   UNL     1       6.813 -16.641  24.403  1.00  0.00    -0.070 C 
ATOM      2  C   UNL     1       7.504 -16.574  25.565  1.00  0.00    -0.027 C 
ATOM      3  C   UNL     1       6.323 -15.353  23.792  1.00  0.00     0.039 C 
ENDROOT
BRANCH   2   4
ATOM      4  C   UNL     1       8.121 -17.753  26.281  1.00  0.00     0.032 C 
BRANCH   4   5
ATOM      5  C   UNL     1       9.640 -17.588  26.440  1.00  0.00     0.034 C 
BRANCH   5   6
ATOM      6  C   UNL     1      10.374 -17.414  25.118  1.00  0.00    -0.077 C 
ATOM      7  C   UNL     1      11.171 -16.154  24.889  1.00  0.00     0.039 C 
ATOM      8  C   UNL     1      10.366 -18.342  24.134  1.00  0.00    -0.023 CG0
ATOM      9  G   UNL     1       9.574 -19.629  24.151  1.00  0.00     0.000 G0
ENDBRANCH   5   6
ENDBRANCH   4   5
ENDBRANCH   2   4
BRANCH   1  10
ATOM     10  C   UNL     1       6.510 -17.949  23.698  1.00  0.00     0.111 C 
BRANCH  10  11
ATOM     11  C   UNL     1       7.669 -18.385  22.845  1.00  0.00     0.163 C 
ATOM     12  O   UNL     1       8.034 -17.657  21.881  1.00  0.00    -0.294 OA
BRANCH  11  13
ATOM     13  C   UNL     1       8.406 -19.642  23.127  1.00  0.00    -0.002 C 
ATOM     14  C   UNL     1       8.065 -20.795  22.491  1.00  0.00    -0.069 C 
ATOM     15  C   UNL     1       8.768 -22.097  22.804  1.00  0.00     0.039 C 
ATOM     16  C   UNL     1       6.998 -20.811  21.418  1.00  0.00     0.039 C 
BRANCH  13  17
ATOM     17  C   UNL     1       9.548 -19.622  24.138  1.00  0.00     0.066 CG0
ATOM     18  G   UNL     1      10.358 -18.347  24.116  1.00  0.00     0.000 G0
ENDBRANCH  13  17
ENDBRANCH  11  13
ENDBRANCH  10  11
ENDBRANCH   1  10
TORSDOF 0
ENDMDL
MODEL 5
REMARK VINA RESULT:    -3.853      3.064      4.349
REMARK INTER + INTRA:          -4.973
REMARK INTER:                  -5.320
REMARK INTRA:                   0.347
REMARK UNBOUND:                 0.456
REMARK SMILES CC1=CCC(=C(C)C)C(=O)CC(C)=CCC1
REMARK SMILES IDX 12 1 14 2 13 3 15 4 16 5 2 6 1 7 3 8 11 10 9 11 10 12 5 13
REMARK SMILES IDX 6 14 7 15 8 16 4 17
REMARK H PARENT
REMARK Flexibility Score: 60.00
ROOT
ATOM      1  C   UNL     1       7.917 -16.540  20.995  1.00  0.00    -0.070 C 
ATOM      2  C   UNL     1       7.449 -15.875  22.076  1.00  0.00    -0.027 C 
ATOM      3  C   UNL     1       7.504 -16.055  19.629  1.00  0.00     0.039 C 
ENDROOT
BRANCH   2   4
ATOM      4  C   UNL     1       7.808 -16.183  23.512  1.00  0.00     0.032 C 
BRANCH   4   5
ATOM      5  C   UNL     1       6.899 -17.270  24.103  1.00  0.00     0.034 C 
BRANCH   5   6
ATOM      6  C   UNL     1       7.663 -18.426  24.734  1.00  0.00    -0.077 C 
ATOM      7  C   UNL     1       8.417 -18.185  26.018  1.00  0.00     0.039 C 
ATOM      8  C   UNL     1       7.690 -19.674  24.212  1.00  0.00    -0.023 CG0
ATOM      9  G   UNL     1       7.058 -20.089  22.904  1.00  0.00     0.000 G0
ENDBRANCH   5   6
ENDBRANCH   4   5
ENDBRANCH   2   4
BRANCH   1  10
ATOM     10  C   UNL     1       8.831 -17.746  21.100  1.00  0.00     0.111 C 
BRANCH  10  11
ATOM     11  C   UNL     1       8.094 -19.013  20.767  1.00  0.00     0.163 C 
ATOM     12  O   UNL     1       7.531 -19.124  19.644  1.00  0.00    -0.294 OA
BRANCH  11  13
ATOM     13  C   UNL     1       8.036 -20.147  21.725  1.00  0.00    -0.002 C 
ATOM     14  C   UNL     1       8.848 -21.226  21.559  1.00  0.00    -0.069 C 
ATOM     15  C   UNL     1       8.767 -22.413  22.492  1.00  0.00     0.039 C 
ATOM     16  C   UNL     1       9.890 -21.262  20.463  1.00  0.00     0.039 C 
BRANCH  13  17
ATOM     17  C   UNL     1       7.057 -20.085  22.891  1.00  0.00     0.066 CG0
ATOM     18  G   UNL     1       7.695 -19.682  24.200  1.00  0.00     0.000 G0
ENDBRANCH  13  17
ENDBRANCH  11  13
ENDBRANCH  10  11
ENDBRANCH   1  10
TORSDOF 0
ENDMDL
MODEL 6
REMARK VINA RESULT:    -3.786      2.988      5.042
REMARK INTER + INTRA:          -4.879
REMARK INTER:                  -5.438
REMARK INTRA:                   0.560
REMARK UNBOUND:                 0.456
REMARK SMILES CC1=CCC(=C(C)C)C(=O)CC(C)=CCC1
REMARK SMILES IDX 12 1 14 2 13 3 15 4 16 5 2 6 1 7 3 8 11 10 9 11 10 12 5 13
REMARK SMILES IDX 6 14 7 15 8 16 4 17
REMARK H PARENT
REMARK Flexibility Score: 60.00
ROOT
ATOM      1  C   UNL     1       7.232 -17.398  24.383  1.00  0.00    -0.070 C 
ATOM      2  C   UNL     1       7.800 -17.585  25.596  1.00  0.00    -0.027 C 
ATOM      3  C   UNL     1       6.047 -16.471  24.289  1.00  0.00     0.039 C 
ENDROOT
BRANCH   2   4
ATOM      4  C   UNL     1       9.028 -18.427  25.863  1.00  0.00     0.032 C 
BRANCH   4   5
ATOM      5  C   UNL     1       8.789 -19.433  26.998  1.00  0.00     0.034 C 
BRANCH   5   6
ATOM      6  C   UNL     1       7.707 -20.457  26.685  1.00  0.00    -0.077 C 
ATOM      7  C   UNL     1       6.621 -20.703  27.702  1.00  0.00     0.039 C 
ATOM      8  C   UNL     1       7.653 -21.153  25.526  1.00  0.00    -0.023 CG0
ATOM      9  G   UNL     1       8.683 -21.094  24.422  1.00  0.00     0.000 G0
ENDBRANCH   5   6
ENDBRANCH   4   5
ENDBRANCH   2   4
BRANCH   1  10
ATOM     10  C   UNL     1       7.732 -18.079  23.124  1.00  0.00     0.111 C 
BRANCH  10  11
ATOM     11  C   UNL     1       7.197 -19.480  23.018  1.00  0.00     0.163 C 
ATOM     12  O   UNL     1       5.957 -19.659  22.871  1.00  0.00    -0.294 OA
BRANCH  11  13
ATOM     13  C   UNL     1       8.102 -20.657  23.059  1.00  0.00    -0.002 C 
ATOM     14  C   UNL     1       8.415 -21.322  21.913  1.00  0.00    -0.069 C 
ATOM     15  C   UNL     1       9.292 -22.553  21.941  1.00  0.00     0.039 C 
ATOM     16  C   UNL     1       7.934 -20.830  20.566  1.00  0.00     0.039 C 
BRANCH  13  17
ATOM     17  C   UNL     1       8.673 -21.109  24.398  1.00  0.00     0.066 CG0
ATOM     18  G   UNL     1       7.654 -21.145  25.513  1.00  0.00     0.000 G0
ENDBRANCH  13  17
ENDBRANCH  11  13
ENDBRANCH  10  11
ENDBRANCH   1  10
TORSDOF 0
ENDMDL
MODEL 7
REMARK VINA RESULT:    -3.743      2.682      4.744
REMARK INTER + INTRA:          -4.819
REMARK INTER:                  -5.402
REMARK INTRA:                   0.583
REMARK UNBOUND:                 0.456
REMARK SMILES CC1=CCC(=C(C)C)C(=O)CC(C)=CCC1
REMARK SMILES IDX 12 1 14 2 13 3 15 4 16 5 2 6 1 7 3 8 11 10 9 11 10 12 5 13
REMARK SMILES IDX 6 14 7 15 8 16 4 17
REMARK H PARENT
REMARK Flexibility Score: 60.00
ROOT
ATOM      1  C   UNL     1       8.244 -21.044  24.060  1.00  0.00    -0.070 C 
ATOM      2  C   UNL     1       7.221 -20.750  24.896  1.00  0.00    -0.027 C 
ATOM      3  C   UNL     1       8.011 -20.910  22.577  1.00  0.00     0.039 C 
ENDROOT
BRANCH   2   4
ATOM      4  C   UNL     1       7.296 -20.768  26.405  1.00  0.00     0.032 C 
BRANCH   4   5
ATOM      5  C   UNL     1       7.212 -19.351  26.994  1.00  0.00     0.034 C 
BRANCH   5   6
ATOM      6  C   UNL     1       7.969 -18.310  26.181  1.00  0.00    -0.077 C 
ATOM      7  C   UNL     1       7.188 -17.362  25.306  1.00  0.00     0.039 C 
ATOM      8  C   UNL     1       9.315 -18.174  26.214  1.00  0.00    -0.023 CG0
ATOM      9  G   UNL     1      10.266 -19.069  26.973  1.00  0.00     0.000 G0
ENDBRANCH   5   6
ENDBRANCH   4   5
ENDBRANCH   2   4
BRANCH   1  10
ATOM     10  C   UNL     1       9.604 -21.503  24.551  1.00  0.00     0.111 C 
BRANCH  10  11
ATOM     11  C   UNL     1      10.542 -20.339  24.712  1.00  0.00     0.163 C 
ATOM     12  O   UNL     1      10.845 -19.646  23.703  1.00  0.00    -0.294 OA
BRANCH  11  13
ATOM     13  C   UNL     1      11.100 -19.975  26.039  1.00  0.00    -0.002 C 
ATOM     14  C   UNL     1      12.317 -20.447  26.425  1.00  0.00    -0.069 C 
ATOM     15  C   UNL     1      12.878 -20.131  27.793  1.00  0.00     0.039 C 
ATOM     16  C   UNL     1      13.171 -21.269  25.485  1.00  0.00     0.039 C 
BRANCH  13  17
ATOM     17  C   UNL     1      10.292 -19.068  26.961  1.00  0.00     0.066 CG0
ATOM     18  G   UNL     1       9.311 -18.179  26.234  1.00  0.00     0.000 G0
ENDBRANCH  13  17
ENDBRANCH  11  13
ENDBRANCH  10  11
ENDBRANCH   1  10
TORSDOF 0
ENDMDL
MODEL 8
REMARK VINA RESULT:    -3.699      2.492      4.875
REMARK INTER + INTRA:          -4.757
REMARK INTER:                  -5.306
REMARK INTRA:                   0.549
REMARK UNBOUND:                 0.456
REMARK SMILES CC1=CCC(=C(C)C)C(=O)CC(C)=CCC1
REMARK SMILES IDX 12 1 14 2 13 3 15 4 16 5 2 6 1 7 3 8 11 10 9 11 10 12 5 13
REMARK SMILES IDX 6 14 7 15 8 16 4 17
REMARK H PARENT
REMARK Flexibility Score: 60.00
ROOT
ATOM      1  C   UNL     1       7.859 -20.413  24.033  1.00  0.00    -0.070 C 
ATOM      2  C   UNL     1       7.970 -20.999  22.818  1.00  0.00    -0.027 C 
ATOM      3  C   UNL     1       8.507 -21.094  25.212  1.00  0.00     0.039 C 
ENDROOT
BRANCH   2   4
ATOM      4  C   UNL     1       7.440 -20.427  21.523  1.00  0.00     0.032 C 
BRANCH   4   5
ATOM      5  C   UNL     1       8.562 -19.816  20.671  1.00  0.00     0.034 C 
BRANCH   5   6
ATOM      6  C   UNL     1       8.184 -18.490  20.028  1.00  0.00    -0.077 C 
ATOM      7  C   UNL     1       7.581 -18.497  18.645  1.00  0.00     0.039 C 
ATOM      8  C   UNL     1       8.342 -17.293  20.639  1.00  0.00    -0.023 CG0
ATOM      9  G   UNL     1       8.988 -17.079  21.988  1.00  0.00     0.000 G0
ENDBRANCH   5   6
ENDBRANCH   4   5
ENDBRANCH   2   4
BRANCH   1  10
ATOM     10  C   UNL     1       7.113 -19.112  24.256  1.00  0.00     0.111 C 
BRANCH  10  11
ATOM     11  C   UNL     1       8.052 -17.939  24.231  1.00  0.00     0.163 C 
ATOM     12  O   UNL     1       8.907 -17.812  25.150  1.00  0.00    -0.294 OA
BRANCH  11  13
ATOM     13  C   UNL     1       8.009 -16.939  23.134  1.00  0.00    -0.002 C 
ATOM     14  C   UNL     1       7.107 -15.921  23.168  1.00  0.00    -0.069 C 
ATOM     15  C   UNL     1       7.012 -14.924  22.036  1.00  0.00     0.039 C 
ATOM     16  C   UNL     1       6.195 -15.723  24.359  1.00  0.00     0.039 C 
BRANCH  13  17
ATOM     17  C   UNL     1       8.987 -17.069  21.971  1.00  0.00     0.066 CG0
ATOM     18  G   UNL     1       8.318 -17.292  20.635  1.00  0.00     0.000 G0
ENDBRANCH  13  17
ENDBRANCH  11  13
ENDBRANCH  10  11
ENDBRANCH   1  10
TORSDOF 0
ENDMDL
MODEL 9
REMARK VINA RESULT:    -3.631      2.289      5.243
REMARK INTER + INTRA:          -4.661
REMARK INTER:                  -5.320
REMARK INTRA:                   0.659
REMARK UNBOUND:                 0.456
REMARK SMILES CC1=CCC(=C(C)C)C(=O)CC(C)=CCC1
REMARK SMILES IDX 12 1 14 2 13 3 15 4 16 5 2 6 1 7 3 8 11 10 9 11 10 12 5 13
REMARK SMILES IDX 6 14 7 15 8 16 4 17
REMARK H PARENT
REMARK Flexibility Score: 60.00
ROOT
ATOM      1  C   UNL     1       7.671 -20.773  22.913  1.00  0.00    -0.070 C 
ATOM      2  C   UNL     1       8.099 -21.469  23.993  1.00  0.00    -0.027 C 
ATOM      3  C   UNL     1       7.959 -21.337  21.545  1.00  0.00     0.039 C 
ENDROOT
BRANCH   2   4
ATOM      4  C   UNL     1       7.845 -21.086  25.433  1.00  0.00     0.032 C 
BRANCH   4   5
ATOM      5  C   UNL     1       9.156 -20.926  26.216  1.00  0.00     0.034 C 
BRANCH   5   6
ATOM      6  C   UNL     1      10.209 -20.110  25.479  1.00  0.00    -0.077 C 
ATOM      7  C   UNL     1      11.539 -20.750  25.169  1.00  0.00     0.039 C 
ATOM      8  C   UNL     1      10.010 -18.837  25.066  1.00  0.00    -0.023 CG0
ATOM      9  G   UNL     1       8.776 -18.010  25.342  1.00  0.00     0.000 G0
ENDBRANCH   5   6
ENDBRANCH   4   5
ENDBRANCH   2   4
BRANCH   1  10
ATOM     10  C   UNL     1       6.923 -19.459  23.023  1.00  0.00     0.111 C 
BRANCH  10  11
ATOM     11  C   UNL     1       7.863 -18.290  22.912  1.00  0.00     0.163 C 
ATOM     12  O   UNL     1       8.412 -18.042  21.804  1.00  0.00    -0.294 OA
BRANCH  11  13
ATOM     13  C   UNL     1       8.139 -17.408  24.075  1.00  0.00    -0.002 C 
ATOM     14  C   UNL     1       7.835 -16.083  24.018  1.00  0.00    -0.069 C 
ATOM     15  C   UNL     1       8.157 -15.159  25.170  1.00  0.00     0.039 C 
ATOM     16  C   UNL     1       7.126 -15.494  22.819  1.00  0.00     0.039 C 
BRANCH  13  17
ATOM     17  C   UNL     1       8.767 -18.007  25.329  1.00  0.00     0.066 CG0
ATOM     18  G   UNL     1       9.999 -18.838  25.055  1.00  0.00     0.000 G0
ENDBRANCH  13  17
ENDBRANCH  11  13
ENDBRANCH  10  11
ENDBRANCH   1  10
TORSDOF 0
ENDMDL
