MODEL 1
REMARK VINA RESULT:    -1.961      0.000      0.000
REMARK INTER + INTRA:          -2.943
REMARK INTER:                  -2.534
REMARK INTRA:                  -0.409
REMARK UNBOUND:                -0.409
REMARK SMILES C=CC(=O)CCCCC
REMARK SMILES IDX 6 1 7 2 8 3 9 4 5 5 3 6 4 7 2 8 1 9
REMARK H PARENT
REMARK Flexibility Score: inf
ROOT
ATOM      1  C   UNL     1     122.304  85.203  57.423  1.00  0.00     0.008 C 
ENDROOT
BRANCH   1   2
ATOM      2  C   UNL     1     123.518  84.704  58.226  1.00  0.00     0.000 C 
BRANCH   2   3
ATOM      3  C   UNL     1     124.715  84.354  57.329  1.00  0.00    -0.003 C 
ATOM      4  C   UNL     1     124.748  85.177  56.041  1.00  0.00     0.004 C 
ENDBRANCH   2   3
ENDBRANCH   1   2
BRANCH   1   5
ATOM      5  C   UNL     1     121.469  86.225  58.212  1.00  0.00     0.080 C 
BRANCH   5   6
ATOM      6  C   UNL     1     121.368  87.576  57.540  1.00  0.00     0.155 C 
ATOM      7  O   UNL     1     120.485  88.396  57.908  1.00  0.00    -0.295 OA
BRANCH   6   8
ATOM      8  C   UNL     1     122.315  88.004  56.488  1.00  0.00     0.039 C 
ATOM      9  C   UNL     1     121.959  88.243  55.227  1.00  0.00     0.012 C 
ENDBRANCH   6   8
ENDBRANCH   5   6
ENDBRANCH   1   5
TORSDOF 5
ENDMDL
MODEL 2
REMARK VINA RESULT:    -1.933      1.633      2.671
REMARK INTER + INTRA:          -2.907
REMARK INTER:                  -2.642
REMARK INTRA:                  -0.265
REMARK UNBOUND:                -0.409
REMARK SMILES C=CC(=O)CCCCC
REMARK SMILES IDX 6 1 7 2 8 3 9 4 5 5 3 6 4 7 2 8 1 9
REMARK H PARENT
REMARK Flexibility Score: inf
ROOT
ATOM      1  C   UNL     1     122.923  86.773  55.225  1.00  0.00     0.008 C 
ENDROOT
BRANCH   1   2
ATOM      2  C   UNL     1     124.455  86.667  55.126  1.00  0.00     0.000 C 
BRANCH   2   3
ATOM      3  C   UNL     1     125.011  85.443  55.869  1.00  0.00    -0.003 C 
ATOM      4  C   UNL     1     124.009  84.291  55.940  1.00  0.00     0.004 C 
ENDBRANCH   2   3
ENDBRANCH   1   2
BRANCH   1   5
ATOM      5  C   UNL     1     122.480  87.934  56.130  1.00  0.00     0.080 C 
BRANCH   5   6
ATOM      6  C   UNL     1     121.716  87.490  57.358  1.00  0.00     0.155 C 
ATOM      7  O   UNL     1     122.114  86.492  58.018  1.00  0.00    -0.295 OA
BRANCH   6   8
ATOM      8  C   UNL     1     120.535  88.225  57.859  1.00  0.00     0.039 C 
ATOM      9  C   UNL     1     119.623  87.691  58.670  1.00  0.00     0.012 C 
ENDBRANCH   6   8
ENDBRANCH   5   6
ENDBRANCH   1   5
TORSDOF 5
ENDMDL
MODEL 3
REMARK VINA RESULT:    -1.886      2.465      4.712
REMARK INTER + INTRA:          -2.846
REMARK INTER:                  -2.543
REMARK INTRA:                  -0.303
REMARK UNBOUND:                -0.409
REMARK SMILES C=CC(=O)CCCCC
REMARK SMILES IDX 6 1 7 2 8 3 9 4 5 5 3 6 4 7 2 8 1 9
REMARK H PARENT
REMARK Flexibility Score: inf
ROOT
ATOM      1  C   UNL     1     122.481  87.034  55.327  1.00  0.00     0.008 C 
ENDROOT
BRANCH   1   2
ATOM      2  C   UNL     1     122.229  87.989  56.506  1.00  0.00     0.000 C 
BRANCH   2   3
ATOM      3  C   UNL     1     121.465  87.317  57.657  1.00  0.00    -0.003 C 
ATOM      4  C   UNL     1     120.165  88.041  58.006  1.00  0.00     0.004 C 
ENDBRANCH   2   3
ENDBRANCH   1   2
BRANCH   1   5
ATOM      5  C   UNL     1     123.978  86.894  55.006  1.00  0.00     0.080 C 
BRANCH   5   6
ATOM      6  C   UNL     1     124.465  85.461  54.991  1.00  0.00     0.155 C 
ATOM      7  O   UNL     1     124.358  84.773  53.941  1.00  0.00    -0.295 OA
BRANCH   6   8
ATOM      8  C   UNL     1     125.125  84.843  56.161  1.00  0.00     0.039 C 
ATOM      9  C   UNL     1     124.477  84.484  57.269  1.00  0.00     0.012 C 
ENDBRANCH   6   8
ENDBRANCH   5   6
ENDBRANCH   1   5
TORSDOF 5
ENDMDL
MODEL 4
REMARK VINA RESULT:    -1.881      2.124      4.451
REMARK INTER + INTRA:          -2.840
REMARK INTER:                  -2.244
REMARK INTRA:                  -0.596
REMARK UNBOUND:                -0.409
REMARK SMILES C=CC(=O)CCCCC
REMARK SMILES IDX 6 1 7 2 8 3 9 4 5 5 3 6 4 7 2 8 1 9
REMARK H PARENT
REMARK Flexibility Score: inf
ROOT
ATOM      1  C   UNL     1     120.647  87.805  56.579  1.00  0.00     0.008 C 
ENDROOT
BRANCH   1   2
ATOM      2  C   UNL     1     120.087  88.538  57.810  1.00  0.00     0.000 C 
BRANCH   2   3
ATOM      3  C   UNL     1     119.478  87.577  58.842  1.00  0.00    -0.003 C 
ATOM      4  C   UNL     1     118.831  86.351  58.197  1.00  0.00     0.004 C 
ENDBRANCH   2   3
ENDBRANCH   1   2
BRANCH   1   5
ATOM      5  C   UNL     1     122.178  87.666  56.634  1.00  0.00     0.080 C 
BRANCH   5   6
ATOM      6  C   UNL     1     122.661  86.234  56.573  1.00  0.00     0.155 C 
ATOM      7  O   UNL     1     123.396  85.860  55.619  1.00  0.00    -0.295 OA
BRANCH   6   8
ATOM      8  C   UNL     1     122.349  85.252  57.633  1.00  0.00     0.039 C 
ATOM      9  C   UNL     1     122.573  85.469  58.929  1.00  0.00     0.012 C 
ENDBRANCH   6   8
ENDBRANCH   5   6
ENDBRANCH   1   5
TORSDOF 5
ENDMDL
MODEL 5
REMARK VINA RESULT:    -1.860      2.129      3.700
REMARK INTER + INTRA:          -2.812
REMARK INTER:                  -2.256
REMARK INTRA:                  -0.556
REMARK UNBOUND:                -0.409
REMARK SMILES C=CC(=O)CCCCC
REMARK SMILES IDX 6 1 7 2 8 3 9 4 5 5 3 6 4 7 2 8 1 9
REMARK H PARENT
REMARK Flexibility Score: inf
ROOT
ATOM      1  C   UNL     1     119.801  88.245  56.229  1.00  0.00     0.008 C 
ENDROOT
BRANCH   1   2
ATOM      2  C   UNL     1     121.089  88.381  55.398  1.00  0.00     0.000 C 
BRANCH   2   3
ATOM      3  C   UNL     1     122.354  88.105  56.224  1.00  0.00    -0.003 C 
ATOM      4  C   UNL     1     122.964  86.735  55.929  1.00  0.00     0.004 C 
ENDBRANCH   2   3
ENDBRANCH   1   2
BRANCH   1   5
ATOM      5  C   UNL     1     120.013  88.647  57.697  1.00  0.00     0.080 C 
BRANCH   5   6
ATOM      6  C   UNL     1     119.606  87.577  58.686  1.00  0.00     0.155 C 
ATOM      7  O   UNL     1     118.424  87.544  59.123  1.00  0.00    -0.295 OA
BRANCH   6   8
ATOM      8  C   UNL     1     120.536  86.515  59.125  1.00  0.00     0.039 C 
ATOM      9  C   UNL     1     120.654  85.338  58.512  1.00  0.00     0.012 C 
ENDBRANCH   6   8
ENDBRANCH   5   6
ENDBRANCH   1   5
TORSDOF 5
ENDMDL
MODEL 6
REMARK VINA RESULT:    -1.845      4.397      5.739
REMARK INTER + INTRA:          -2.794
REMARK INTER:                  -2.688
REMARK INTRA:                  -0.105
REMARK UNBOUND:                -0.409
REMARK SMILES C=CC(=O)CCCCC
REMARK SMILES IDX 6 1 7 2 8 3 9 4 5 5 3 6 4 7 2 8 1 9
REMARK H PARENT
REMARK Flexibility Score: inf
ROOT
ATOM      1  C   UNL     1     118.662  88.190  56.748  1.00  0.00     0.008 C 
ENDROOT
BRANCH   1   2
ATOM      2  C   UNL     1     119.879  88.748  57.507  1.00  0.00     0.000 C 
BRANCH   2   3
ATOM      3  C   UNL     1     121.025  87.731  57.611  1.00  0.00    -0.003 C 
ATOM      4  C   UNL     1     122.134  87.984  56.590  1.00  0.00     0.004 C 
ENDBRANCH   2   3
ENDBRANCH   1   2
BRANCH   1   5
ATOM      5  C   UNL     1     117.444  89.125  56.841  1.00  0.00     0.080 C 
BRANCH   5   6
ATOM      6  C   UNL     1     116.197  88.447  57.364  1.00  0.00     0.155 C 
ATOM      7  O   UNL     1     115.750  87.421  56.784  1.00  0.00    -0.295 OA
BRANCH   6   8
ATOM      8  C   UNL     1     115.500  88.912  58.582  1.00  0.00     0.039 C 
ATOM      9  C   UNL     1     114.212  88.679  58.830  1.00  0.00     0.012 C 
ENDBRANCH   6   8
ENDBRANCH   5   6
ENDBRANCH   1   5
TORSDOF 5
ENDMDL
MODEL 7
REMARK VINA RESULT:    -1.809     13.039     14.518
REMARK INTER + INTRA:          -2.747
REMARK INTER:                  -2.223
REMARK INTRA:                  -0.524
REMARK UNBOUND:                -0.409
REMARK SMILES C=CC(=O)CCCCC
REMARK SMILES IDX 6 1 7 2 8 3 9 4 5 5 3 6 4 7 2 8 1 9
REMARK H PARENT
REMARK Flexibility Score: inf
ROOT
ATOM      1  C   UNL     1     109.618  88.312  55.178  1.00  0.00     0.008 C 
ENDROOT
BRANCH   1   2
ATOM      2  C   UNL     1     108.540  89.125  54.439  1.00  0.00     0.000 C 
BRANCH   2   3
ATOM      3  C   UNL     1     107.118  88.771  54.898  1.00  0.00    -0.003 C 
ATOM      4  C   UNL     1     106.682  87.376  54.448  1.00  0.00     0.004 C 
ENDBRANCH   2   3
ENDBRANCH   1   2
BRANCH   1   5
ATOM      5  C   UNL     1     109.853  88.828  56.607  1.00  0.00     0.080 C 
BRANCH   5   6
ATOM      6  C   UNL     1     109.605  87.787  57.677  1.00  0.00     0.155 C 
ATOM      7  O   UNL     1     110.570  87.340  58.354  1.00  0.00    -0.295 OA
BRANCH   6   8
ATOM      8  C   UNL     1     108.246  87.306  58.007  1.00  0.00     0.039 C 
ATOM      9  C   UNL     1     107.816  86.073  57.742  1.00  0.00     0.012 C 
ENDBRANCH   6   8
ENDBRANCH   5   6
ENDBRANCH   1   5
TORSDOF 5
ENDMDL
MODEL 8
REMARK VINA RESULT:    -1.800     12.514     13.930
REMARK INTER + INTRA:          -2.734
REMARK INTER:                  -2.161
REMARK INTRA:                  -0.574
REMARK UNBOUND:                -0.409
REMARK SMILES C=CC(=O)CCCCC
REMARK SMILES IDX 6 1 7 2 8 3 9 4 5 5 3 6 4 7 2 8 1 9
REMARK H PARENT
REMARK Flexibility Score: inf
ROOT
ATOM      1  C   UNL     1     107.884  86.909  57.892  1.00  0.00     0.008 C 
ENDROOT
BRANCH   1   2
ATOM      2  C   UNL     1     107.484  85.750  56.962  1.00  0.00     0.000 C 
BRANCH   2   3
ATOM      3  C   UNL     1     107.564  86.132  55.477  1.00  0.00    -0.003 C 
ATOM      4  C   UNL     1     106.781  87.403  55.151  1.00  0.00     0.004 C 
ENDBRANCH   2   3
ENDBRANCH   1   2
BRANCH   1   5
ATOM      5  C   UNL     1     109.335  86.782  58.383  1.00  0.00     0.080 C 
BRANCH   5   6
ATOM      6  C   UNL     1     110.299  87.709  57.675  1.00  0.00     0.155 C 
ATOM      7  O   UNL     1     111.541  87.515  57.772  1.00  0.00    -0.295 OA
BRANCH   6   8
ATOM      8  C   UNL     1     109.836  88.817  56.813  1.00  0.00     0.039 C 
ATOM      9  C   UNL     1     110.198  88.960  55.538  1.00  0.00     0.012 C 
ENDBRANCH   6   8
ENDBRANCH   5   6
ENDBRANCH   1   5
TORSDOF 5
ENDMDL
MODEL 9
REMARK VINA RESULT:    -1.795      2.686      3.953
REMARK INTER + INTRA:          -2.729
REMARK INTER:                  -2.344
REMARK INTRA:                  -0.385
REMARK UNBOUND:                -0.409
REMARK SMILES C=CC(=O)CCCCC
REMARK SMILES IDX 6 1 7 2 8 3 9 4 5 5 3 6 4 7 2 8 1 9
REMARK H PARENT
REMARK Flexibility Score: inf
ROOT
ATOM      1  C   UNL     1     120.626  88.368  57.779  1.00  0.00     0.008 C 
ENDROOT
BRANCH   1   2
ATOM      2  C   UNL     1     121.723  87.433  57.241  1.00  0.00     0.000 C 
BRANCH   2   3
ATOM      3  C   UNL     1     122.438  88.010  56.010  1.00  0.00    -0.003 C 
ATOM      4  C   UNL     1     121.543  88.937  55.188  1.00  0.00     0.004 C 
ENDBRANCH   2   3
ENDBRANCH   1   2
BRANCH   1   5
ATOM      5  C   UNL     1     119.574  87.610  58.605  1.00  0.00     0.080 C 
BRANCH   5   6
ATOM      6  C   UNL     1     118.184  87.657  58.010  1.00  0.00     0.155 C 
ATOM      7  O   UNL     1     117.180  87.448  58.743  1.00  0.00    -0.295 OA
BRANCH   6   8
ATOM      8  C   UNL     1     117.946  88.000  56.592  1.00  0.00     0.039 C 
ATOM      9  C   UNL     1     117.352  89.124  56.194  1.00  0.00     0.012 C 
ENDBRANCH   6   8
ENDBRANCH   5   6
ENDBRANCH   1   5
TORSDOF 5
ENDMDL
