MODEL 1
REMARK VINA RESULT:    -6.295      0.000      0.000
REMARK INTER + INTRA:          -7.709
REMARK INTER:                  -7.399
REMARK INTRA:                  -0.309
REMARK UNBOUND:                -0.309
REMARK SMILES O=c1c(O)c(-c2ccc(O)c(O)c2)oc2cc(O)ccc12
REMARK SMILES IDX 5 1 3 2 2 3 1 4 21 5 15 6 14 7 16 8 17 9 19 10 20 11 6 12
REMARK SMILES IDX 7 13 8 14 9 15 13 16 11 17 10 18 12 20 4 22 18 24
REMARK H PARENT 10 19 12 21 4 23 18 25
REMARK Flexibility Score: inf
ROOT
ATOM      1  C   UNL     1     479.632  37.725 459.491  1.00  0.00     0.180 A 
ATOM      2  C   UNL     1     478.796  38.801 459.853  1.00  0.00     0.208 A 
ATOM      3  C   UNL     1     477.754  38.571 460.765  1.00  0.00     0.235 A 
ATOM      4  O   UNL     1     476.999  39.520 461.113  1.00  0.00    -0.285 OA
ATOM      5  C   UNL     1     477.558  37.279 461.278  1.00  0.00     0.069 A 
ATOM      6  C   UNL     1     478.424  36.251 460.847  1.00  0.00     0.142 A 
ATOM      7  O   UNL     1     479.403  36.511 459.988  1.00  0.00    -0.452 OA
ATOM      8  C   UNL     1     478.254  34.947 461.327  1.00  0.00     0.094 A 
ATOM      9  C   UNL     1     477.227  34.658 462.237  1.00  0.00     0.119 A 
ATOM     10  C   UNL     1     476.370  35.676 462.665  1.00  0.00     0.047 A 
ATOM     11  C   UNL     1     476.530  36.981 462.191  1.00  0.00     0.020 A 
ENDROOT
BRANCH   1  12
ATOM     12  C   UNL     1     480.763  37.891 458.550  1.00  0.00     0.025 A 
ATOM     13  C   UNL     1     480.617  37.478 457.216  1.00  0.00     0.016 A 
ATOM     14  C   UNL     1     481.677  37.606 456.316  1.00  0.00     0.051 A 
ATOM     15  C   UNL     1     482.903  38.132 456.735  1.00  0.00     0.157 A 
ATOM     16  C   UNL     1     482.003  38.401 458.976  1.00  0.00     0.062 A 
ATOM     17  C   UNL     1     483.069  38.528 458.073  1.00  0.00     0.158 A 
BRANCH  15  18
ATOM     18  O   UNL     1     483.942  38.251 455.814  1.00  0.00    -0.504 OA
ATOM     19  H   UNL     1     484.609  37.505 455.655  1.00  0.00     0.293 HD
ENDBRANCH  15  18
BRANCH  17  20
ATOM     20  O   UNL     1     484.292  39.041 458.502  1.00  0.00    -0.504 OA
ATOM     21  H   UNL     1     484.639  39.934 458.170  1.00  0.00     0.293 HD
ENDBRANCH  17  20
ENDBRANCH   1  12
BRANCH   2  22
ATOM     22  O   UNL     1     478.985  40.065 459.289  1.00  0.00    -0.502 OA
ATOM     23  H   UNL     1     479.743  40.265 458.646  1.00  0.00     0.293 HD
ENDBRANCH   2  22
BRANCH   9  24
ATOM     24  O   UNL     1     477.052  33.363 462.720  1.00  0.00    -0.508 OA
ATOM     25  H   UNL     1     476.130  32.951 462.808  1.00  0.00     0.293 HD
ENDBRANCH   9  24
TORSDOF 5
ENDMDL
MODEL 2
REMARK VINA RESULT:    -5.895      1.753      6.808
REMARK INTER + INTRA:          -7.238
REMARK INTER:                  -7.006
REMARK INTRA:                  -0.231
REMARK UNBOUND:                -0.309
REMARK SMILES O=c1c(O)c(-c2ccc(O)c(O)c2)oc2cc(O)ccc12
REMARK SMILES IDX 5 1 3 2 2 3 1 4 21 5 15 6 14 7 16 8 17 9 19 10 20 11 6 12
REMARK SMILES IDX 7 13 8 14 9 15 13 16 11 17 10 18 12 20 4 22 18 24
REMARK H PARENT 10 19 12 21 4 23 18 25
REMARK Flexibility Score: inf
ROOT
ATOM      1  C   UNL     1     480.170  38.174 459.378  1.00  0.00     0.180 A 
ATOM      2  C   UNL     1     479.953  38.623 458.059  1.00  0.00     0.208 A 
ATOM      3  C   UNL     1     481.053  39.066 457.306  1.00  0.00     0.235 A 
ATOM      4  O   UNL     1     480.886  39.462 456.120  1.00  0.00    -0.285 OA
ATOM      5  C   UNL     1     482.331  39.070 457.886  1.00  0.00     0.069 A 
ATOM      6  C   UNL     1     482.460  38.627 459.221  1.00  0.00     0.142 A 
ATOM      7  O   UNL     1     481.396  38.208 459.897  1.00  0.00    -0.452 OA
ATOM      8  C   UNL     1     483.716  38.625 459.839  1.00  0.00     0.094 A 
ATOM      9  C   UNL     1     484.849  39.060 459.136  1.00  0.00     0.119 A 
ATOM     10  C   UNL     1     484.722  39.498 457.814  1.00  0.00     0.047 A 
ATOM     11  C   UNL     1     483.472  39.505 457.188  1.00  0.00     0.020 A 
ENDROOT
BRANCH   1  12
ATOM     12  C   UNL     1     479.067  37.675 460.229  1.00  0.00     0.025 A 
ATOM     13  C   UNL     1     478.153  38.588 460.781  1.00  0.00     0.016 A 
ATOM     14  C   UNL     1     477.117  38.141 461.604  1.00  0.00     0.051 A 
ATOM     15  C   UNL     1     476.984  36.782 461.901  1.00  0.00     0.157 A 
ATOM     16  C   UNL     1     478.944  36.310 460.545  1.00  0.00     0.062 A 
ATOM     17  C   UNL     1     477.905  35.861 461.373  1.00  0.00     0.158 A 
BRANCH  15  18
ATOM     18  O   UNL     1     475.937  36.365 462.722  1.00  0.00    -0.504 OA
ATOM     19  H   UNL     1     475.074  36.888 462.803  1.00  0.00     0.293 HD
ENDBRANCH  15  18
BRANCH  17  20
ATOM     20  O   UNL     1     477.786  34.505 461.676  1.00  0.00    -0.504 OA
ATOM     21  H   UNL     1     477.939  34.156 462.615  1.00  0.00     0.293 HD
ENDBRANCH  17  20
ENDBRANCH   1  12
BRANCH   2  22
ATOM     22  O   UNL     1     478.663  38.654 457.524  1.00  0.00    -0.502 OA
ATOM     23  H   UNL     1     478.295  37.903 456.953  1.00  0.00     0.293 HD
ENDBRANCH   2  22
BRANCH   9  24
ATOM     24  O   UNL     1     486.102  39.061 459.744  1.00  0.00    -0.508 OA
ATOM     25  H   UNL     1     486.921  38.699 459.269  1.00  0.00     0.293 HD
ENDBRANCH   9  24
TORSDOF 5
ENDMDL
MODEL 3
REMARK VINA RESULT:    -5.773      1.699      6.767
REMARK INTER + INTRA:          -7.095
REMARK INTER:                  -6.915
REMARK INTRA:                  -0.180
REMARK UNBOUND:                -0.309
REMARK SMILES O=c1c(O)c(-c2ccc(O)c(O)c2)oc2cc(O)ccc12
REMARK SMILES IDX 5 1 3 2 2 3 1 4 21 5 15 6 14 7 16 8 17 9 19 10 20 11 6 12
REMARK SMILES IDX 7 13 8 14 9 15 13 16 11 17 10 18 12 20 4 22 18 24
REMARK H PARENT 10 19 12 21 4 23 18 25
REMARK Flexibility Score: inf
ROOT
ATOM      1  C   UNL     1     480.242  37.943 459.095  1.00  0.00     0.180 A 
ATOM      2  C   UNL     1     479.788  38.684 457.984  1.00  0.00     0.208 A 
ATOM      3  C   UNL     1     480.727  39.379 457.205  1.00  0.00     0.235 A 
ATOM      4  O   UNL     1     480.347  40.040 456.200  1.00  0.00    -0.285 OA
ATOM      5  C   UNL     1     482.085  39.337 457.559  1.00  0.00     0.069 A 
ATOM      6  C   UNL     1     482.455  38.591 458.699  1.00  0.00     0.142 A 
ATOM      7  O   UNL     1     481.538  37.941 459.405  1.00  0.00    -0.452 OA
ATOM      8  C   UNL     1     483.798  38.533 459.091  1.00  0.00     0.094 A 
ATOM      9  C   UNL     1     484.778  39.211 458.353  1.00  0.00     0.119 A 
ATOM     10  C   UNL     1     484.413  39.949 457.222  1.00  0.00     0.047 A 
ATOM     11  C   UNL     1     483.074  40.015 456.824  1.00  0.00     0.020 A 
ENDROOT
BRANCH   1  12
ATOM     12  C   UNL     1     479.318  37.169 459.953  1.00  0.00     0.025 A 
ATOM     13  C   UNL     1     479.363  35.766 459.926  1.00  0.00     0.016 A 
ATOM     14  C   UNL     1     478.486  35.015 460.713  1.00  0.00     0.051 A 
ATOM     15  C   UNL     1     477.543  35.650 461.526  1.00  0.00     0.157 A 
ATOM     16  C   UNL     1     478.356  37.807 460.757  1.00  0.00     0.062 A 
ATOM     17  C   UNL     1     477.474  37.054 461.545  1.00  0.00     0.158 A 
BRANCH  15  18
ATOM     18  O   UNL     1     476.683  34.875 462.303  1.00  0.00    -0.504 OA
ATOM     19  H   UNL     1     475.902  34.371 461.902  1.00  0.00     0.293 HD
ENDBRANCH  15  18
BRANCH  17  20
ATOM     20  O   UNL     1     476.527  37.694 462.344  1.00  0.00    -0.504 OA
ATOM     21  H   UNL     1     476.747  38.546 462.849  1.00  0.00     0.293 HD
ENDBRANCH  17  20
ENDBRANCH   1  12
BRANCH   2  22
ATOM     22  O   UNL     1     478.425  38.747 457.685  1.00  0.00    -0.502 OA
ATOM     23  H   UNL     1     477.897  39.611 457.740  1.00  0.00     0.293 HD
ENDBRANCH   2  22
BRANCH   9  24
ATOM     24  O   UNL     1     486.117  39.158 458.735  1.00  0.00    -0.508 OA
ATOM     25  H   UNL     1     486.387  39.100 459.710  1.00  0.00     0.293 HD
ENDBRANCH   9  24
TORSDOF 5
ENDMDL
MODEL 4
REMARK VINA RESULT:    -5.362      1.148      2.963
REMARK INTER + INTRA:          -6.612
REMARK INTER:                  -6.385
REMARK INTRA:                  -0.226
REMARK UNBOUND:                -0.309
REMARK SMILES O=c1c(O)c(-c2ccc(O)c(O)c2)oc2cc(O)ccc12
REMARK SMILES IDX 5 1 3 2 2 3 1 4 21 5 15 6 14 7 16 8 17 9 19 10 20 11 6 12
REMARK SMILES IDX 7 13 8 14 9 15 13 16 11 17 10 18 12 20 4 22 18 24
REMARK H PARENT 10 19 12 21 4 23 18 25
REMARK Flexibility Score: inf
ROOT
ATOM      1  C   UNL     1     479.636  37.562 459.530  1.00  0.00     0.180 A 
ATOM      2  C   UNL     1     479.280  36.275 459.982  1.00  0.00     0.208 A 
ATOM      3  C   UNL     1     478.209  36.145 460.880  1.00  0.00     0.235 A 
ATOM      4  O   UNL     1     477.865  35.003 461.291  1.00  0.00    -0.285 OA
ATOM      5  C   UNL     1     477.533  37.294 461.320  1.00  0.00     0.069 A 
ATOM      6  C   UNL     1     477.965  38.549 460.838  1.00  0.00     0.142 A 
ATOM      7  O   UNL     1     478.978  38.629 459.983  1.00  0.00    -0.452 OA
ATOM      8  C   UNL     1     477.324  39.719 461.261  1.00  0.00     0.094 A 
ATOM      9  C   UNL     1     476.251  39.650 462.160  1.00  0.00     0.119 A 
ATOM     10  C   UNL     1     475.821  38.408 462.637  1.00  0.00     0.047 A 
ATOM     11  C   UNL     1     476.455  37.233 462.222  1.00  0.00     0.020 A 
ENDROOT
BRANCH   1  12
ATOM     12  C   UNL     1     480.740  37.780 458.569  1.00  0.00     0.025 A 
ATOM     13  C   UNL     1     480.579  37.386 457.231  1.00  0.00     0.016 A 
ATOM     14  C   UNL     1     481.616  37.564 456.312  1.00  0.00     0.051 A 
ATOM     15  C   UNL     1     482.832  38.122 456.716  1.00  0.00     0.157 A 
ATOM     16  C   UNL     1     481.972  38.323 458.979  1.00  0.00     0.062 A 
ATOM     17  C   UNL     1     483.014  38.499 458.057  1.00  0.00     0.158 A 
BRANCH  15  18
ATOM     18  O   UNL     1     483.848  38.289 455.776  1.00  0.00    -0.504 OA
ATOM     19  H   UNL     1     483.708  38.100 454.791  1.00  0.00     0.293 HD
ENDBRANCH  15  18
BRANCH  17  20
ATOM     20  O   UNL     1     484.230  39.043 458.470  1.00  0.00    -0.504 OA
ATOM     21  H   UNL     1     485.077  38.487 458.501  1.00  0.00     0.293 HD
ENDBRANCH  17  20
ENDBRANCH   1  12
BRANCH   2  22
ATOM     22  O   UNL     1     480.002  35.154 459.566  1.00  0.00    -0.502 OA
ATOM     23  H   UNL     1     480.825  35.225 458.978  1.00  0.00     0.293 HD
ENDBRANCH   2  22
BRANCH   9  24
ATOM     24  O   UNL     1     475.607  40.810 462.585  1.00  0.00    -0.508 OA
ATOM     25  H   UNL     1     475.309  40.929 463.547  1.00  0.00     0.293 HD
ENDBRANCH   9  24
TORSDOF 5
ENDMDL
MODEL 5
REMARK VINA RESULT:    -5.331      1.660      6.763
REMARK INTER + INTRA:          -6.575
REMARK INTER:                  -6.339
REMARK INTRA:                  -0.236
REMARK UNBOUND:                -0.309
REMARK SMILES O=c1c(O)c(-c2ccc(O)c(O)c2)oc2cc(O)ccc12
REMARK SMILES IDX 5 1 3 2 2 3 1 4 21 5 15 6 14 7 16 8 17 9 19 10 20 11 6 12
REMARK SMILES IDX 7 13 8 14 9 15 13 16 11 17 10 18 12 20 4 22 18 24
REMARK H PARENT 10 19 12 21 4 23 18 25
REMARK Flexibility Score: inf
ROOT
ATOM      1  C   UNL     1     479.586  37.810 460.022  1.00  0.00     0.180 A 
ATOM      2  C   UNL     1     480.545  38.687 460.569  1.00  0.00     0.208 A 
ATOM      3  C   UNL     1     481.485  39.283 459.712  1.00  0.00     0.235 A 
ATOM      4  O   UNL     1     482.346  40.080 460.176  1.00  0.00    -0.285 OA
ATOM      5  C   UNL     1     481.460  38.979 458.342  1.00  0.00     0.069 A 
ATOM      6  C   UNL     1     480.483  38.072 457.876  1.00  0.00     0.142 A 
ATOM      7  O   UNL     1     479.606  37.536 458.718  1.00  0.00    -0.452 OA
ATOM      8  C   UNL     1     480.432  37.735 456.519  1.00  0.00     0.094 A 
ATOM      9  C   UNL     1     481.347  38.296 455.618  1.00  0.00     0.119 A 
ATOM     10  C   UNL     1     482.315  39.195 456.077  1.00  0.00     0.047 A 
ATOM     11  C   UNL     1     482.375  39.537 457.431  1.00  0.00     0.020 A 
ENDROOT
BRANCH   1  12
ATOM     12  C   UNL     1     478.552  37.158 460.855  1.00  0.00     0.025 A 
ATOM     13  C   UNL     1     478.591  35.766 461.040  1.00  0.00     0.016 A 
ATOM     14  C   UNL     1     477.614  35.127 461.806  1.00  0.00     0.051 A 
ATOM     15  C   UNL     1     476.575  35.861 462.386  1.00  0.00     0.157 A 
ATOM     16  C   UNL     1     477.496  37.893 461.422  1.00  0.00     0.062 A 
ATOM     17  C   UNL     1     476.512  37.252 462.190  1.00  0.00     0.158 A 
BRANCH  15  18
ATOM     18  O   UNL     1     475.615  35.197 463.148  1.00  0.00    -0.504 OA
ATOM     19  H   UNL     1     474.833  34.713 462.725  1.00  0.00     0.293 HD
ENDBRANCH  15  18
BRANCH  17  20
ATOM     20  O   UNL     1     475.472  37.989 462.753  1.00  0.00    -0.504 OA
ATOM     21  H   UNL     1     475.619  38.927 463.111  1.00  0.00     0.293 HD
ENDBRANCH  17  20
ENDBRANCH   1  12
BRANCH   2  22
ATOM     22  O   UNL     1     480.577  38.934 461.944  1.00  0.00    -0.502 OA
ATOM     23  H   UNL     1     480.110  39.730 462.363  1.00  0.00     0.293 HD
ENDBRANCH   2  22
BRANCH   9  24
ATOM     24  O   UNL     1     481.303  37.966 454.265  1.00  0.00    -0.508 OA
ATOM     25  H   UNL     1     480.919  38.603 453.576  1.00  0.00     0.293 HD
ENDBRANCH   9  24
TORSDOF 5
ENDMDL
MODEL 6
REMARK VINA RESULT:    -5.308      5.723      8.485
REMARK INTER + INTRA:          -6.549
REMARK INTER:                  -6.384
REMARK INTRA:                  -0.165
REMARK UNBOUND:                -0.309
REMARK SMILES O=c1c(O)c(-c2ccc(O)c(O)c2)oc2cc(O)ccc12
REMARK SMILES IDX 5 1 3 2 2 3 1 4 21 5 15 6 14 7 16 8 17 9 19 10 20 11 6 12
REMARK SMILES IDX 7 13 8 14 9 15 13 16 11 17 10 18 12 20 4 22 18 24
REMARK H PARENT 10 19 12 21 4 23 18 25
REMARK Flexibility Score: inf
ROOT
ATOM      1  C   UNL     1     484.669  40.010 462.193  1.00  0.00     0.180 A 
ATOM      2  C   UNL     1     484.300  39.647 463.504  1.00  0.00     0.208 A 
ATOM      3  C   UNL     1     484.978  40.231 464.585  1.00  0.00     0.235 A 
ATOM      4  O   UNL     1     484.658  39.930 465.768  1.00  0.00    -0.285 OA
ATOM      5  C   UNL     1     486.016  41.143 464.338  1.00  0.00     0.069 A 
ATOM      6  C   UNL     1     486.342  41.437 462.996  1.00  0.00     0.142 A 
ATOM      7  O   UNL     1     485.670  40.869 462.001  1.00  0.00    -0.452 OA
ATOM      8  C   UNL     1     487.378  42.333 462.707  1.00  0.00     0.094 A 
ATOM      9  C   UNL     1     488.092  42.944 463.747  1.00  0.00     0.119 A 
ATOM     10  C   UNL     1     487.770  42.655 465.077  1.00  0.00     0.047 A 
ATOM     11  C   UNL     1     486.738  41.760 465.376  1.00  0.00     0.020 A 
ENDROOT
BRANCH   1  12
ATOM     12  C   UNL     1     483.990  39.453 461.002  1.00  0.00     0.025 A 
ATOM     13  C   UNL     1     482.634  39.745 460.781  1.00  0.00     0.016 A 
ATOM     14  C   UNL     1     481.968  39.213 459.674  1.00  0.00     0.051 A 
ATOM     15  C   UNL     1     482.638  38.372 458.781  1.00  0.00     0.157 A 
ATOM     16  C   UNL     1     484.657  38.590 460.114  1.00  0.00     0.062 A 
ATOM     17  C   UNL     1     483.988  38.054 459.004  1.00  0.00     0.158 A 
BRANCH  15  18
ATOM     18  O   UNL     1     481.948  37.858 457.684  1.00  0.00    -0.504 OA
ATOM     19  H   UNL     1     480.947  37.701 457.702  1.00  0.00     0.293 HD
ENDBRANCH  15  18
BRANCH  17  20
ATOM     20  O   UNL     1     484.659  37.204 458.125  1.00  0.00    -0.504 OA
ATOM     21  H   UNL     1     485.667  37.239 458.018  1.00  0.00     0.293 HD
ENDBRANCH  17  20
ENDBRANCH   1  12
BRANCH   2  22
ATOM     22  O   UNL     1     483.296  38.699 463.720  1.00  0.00    -0.502 OA
ATOM     23  H   UNL     1     483.052  38.368 464.646  1.00  0.00     0.293 HD
ENDBRANCH   2  22
BRANCH   9  24
ATOM     24  O   UNL     1     489.124  43.837 463.468  1.00  0.00    -0.508 OA
ATOM     25  H   UNL     1     489.167  44.339 462.589  1.00  0.00     0.293 HD
ENDBRANCH   9  24
TORSDOF 5
ENDMDL
MODEL 7
REMARK VINA RESULT:    -5.245      1.626      2.443
REMARK INTER + INTRA:          -6.474
REMARK INTER:                  -6.245
REMARK INTRA:                  -0.229
REMARK UNBOUND:                -0.309
REMARK SMILES O=c1c(O)c(-c2ccc(O)c(O)c2)oc2cc(O)ccc12
REMARK SMILES IDX 5 1 3 2 2 3 1 4 21 5 15 6 14 7 16 8 17 9 19 10 20 11 6 12
REMARK SMILES IDX 7 13 8 14 9 15 13 16 11 17 10 18 12 20 4 22 18 24
REMARK H PARENT 10 19 12 21 4 23 18 25
REMARK Flexibility Score: inf
ROOT
ATOM      1  C   UNL     1     480.621  39.083 460.215  1.00  0.00     0.180 A 
ATOM      2  C   UNL     1     479.823  40.241 460.112  1.00  0.00     0.208 A 
ATOM      3  C   UNL     1     478.492  40.187 460.555  1.00  0.00     0.235 A 
ATOM      4  O   UNL     1     477.761  41.213 460.484  1.00  0.00    -0.285 OA
ATOM      5  C   UNL     1     477.983  38.984 461.069  1.00  0.00     0.069 A 
ATOM      6  C   UNL     1     478.839  37.862 461.117  1.00  0.00     0.142 A 
ATOM      7  O   UNL     1     480.095  37.957 460.695  1.00  0.00    -0.452 OA
ATOM      8  C   UNL     1     478.367  36.641 461.613  1.00  0.00     0.094 A 
ATOM      9  C   UNL     1     477.044  36.528 462.065  1.00  0.00     0.119 A 
ATOM     10  C   UNL     1     476.196  37.639 462.020  1.00  0.00     0.047 A 
ATOM     11  C   UNL     1     476.657  38.862 461.525  1.00  0.00     0.020 A 
ENDROOT
BRANCH   1  12
ATOM     12  C   UNL     1     482.037  39.064 459.788  1.00  0.00     0.025 A 
ATOM     13  C   UNL     1     482.997  39.751 460.548  1.00  0.00     0.016 A 
ATOM     14  C   UNL     1     484.337  39.764 460.152  1.00  0.00     0.051 A 
ATOM     15  C   UNL     1     484.736  39.106 458.985  1.00  0.00     0.157 A 
ATOM     16  C   UNL     1     482.437  38.420 458.603  1.00  0.00     0.062 A 
ATOM     17  C   UNL     1     483.781  38.434 458.203  1.00  0.00     0.158 A 
BRANCH  15  18
ATOM     18  O   UNL     1     486.080  39.134 458.616  1.00  0.00    -0.504 OA
ATOM     19  H   UNL     1     486.477  39.897 458.082  1.00  0.00     0.293 HD
ENDBRANCH  15  18
BRANCH  17  20
ATOM     20  O   UNL     1     484.171  37.787 457.031  1.00  0.00    -0.504 OA
ATOM     21  H   UNL     1     483.650  37.896 456.167  1.00  0.00     0.293 HD
ENDBRANCH  17  20
ENDBRANCH   1  12
BRANCH   2  22
ATOM     22  O   UNL     1     480.341  41.410 459.551  1.00  0.00    -0.502 OA
ATOM     23  H   UNL     1     481.301  41.480 459.233  1.00  0.00     0.293 HD
ENDBRANCH   2  22
BRANCH   9  24
ATOM     24  O   UNL     1     476.566  35.317 462.561  1.00  0.00    -0.508 OA
ATOM     25  H   UNL     1     476.149  35.250 463.482  1.00  0.00     0.293 HD
ENDBRANCH   9  24
TORSDOF 5
ENDMDL
MODEL 8
REMARK VINA RESULT:    -5.183      1.882      6.914
REMARK INTER + INTRA:          -6.402
REMARK INTER:                  -6.151
REMARK INTRA:                  -0.251
REMARK UNBOUND:                -0.309
REMARK SMILES O=c1c(O)c(-c2ccc(O)c(O)c2)oc2cc(O)ccc12
REMARK SMILES IDX 5 1 3 2 2 3 1 4 21 5 15 6 14 7 16 8 17 9 19 10 20 11 6 12
REMARK SMILES IDX 7 13 8 14 9 15 13 16 11 17 10 18 12 20 4 22 18 24
REMARK H PARENT 10 19 12 21 4 23 18 25
REMARK Flexibility Score: inf
ROOT
ATOM      1  C   UNL     1     480.421  37.693 458.599  1.00  0.00     0.180 A 
ATOM      2  C   UNL     1     481.557  38.444 458.963  1.00  0.00     0.208 A 
ATOM      3  C   UNL     1     482.345  39.013 457.950  1.00  0.00     0.235 A 
ATOM      4  O   UNL     1     483.360  39.699 458.251  1.00  0.00    -0.285 OA
ATOM      5  C   UNL     1     481.998  38.806 456.606  1.00  0.00     0.069 A 
ATOM      6  C   UNL     1     480.859  38.021 456.324  1.00  0.00     0.142 A 
ATOM      7  O   UNL     1     480.135  37.507 457.311  1.00  0.00    -0.452 OA
ATOM      8  C   UNL     1     480.486  37.782 454.996  1.00  0.00     0.094 A 
ATOM      9  C   UNL     1     481.239  38.322 453.943  1.00  0.00     0.119 A 
ATOM     10  C   UNL     1     482.366  39.101 454.222  1.00  0.00     0.047 A 
ATOM     11  C   UNL     1     482.748  39.344 455.544  1.00  0.00     0.020 A 
ENDROOT
BRANCH   1  12
ATOM     12  C   UNL     1     479.530  37.077 459.607  1.00  0.00     0.025 A 
ATOM     13  C   UNL     1     479.500  35.679 459.740  1.00  0.00     0.016 A 
ATOM     14  C   UNL     1     478.651  35.076 460.671  1.00  0.00     0.051 A 
ATOM     15  C   UNL     1     477.809  35.854 461.471  1.00  0.00     0.157 A 
ATOM     16  C   UNL     1     478.668  37.858 460.398  1.00  0.00     0.062 A 
ATOM     17  C   UNL     1     477.813  37.252 461.331  1.00  0.00     0.158 A 
BRANCH  15  18
ATOM     18  O   UNL     1     476.975  35.224 462.393  1.00  0.00    -0.504 OA
ATOM     19  H   UNL     1     476.298  34.523 462.117  1.00  0.00     0.293 HD
ENDBRANCH  15  18
BRANCH  17  20
ATOM     20  O   UNL     1     476.967  38.034 462.116  1.00  0.00    -0.504 OA
ATOM     21  H   UNL     1     476.604  38.921 461.784  1.00  0.00     0.293 HD
ENDBRANCH  17  20
ENDBRANCH   1  12
BRANCH   2  22
ATOM     22  O   UNL     1     481.906  38.593 460.308  1.00  0.00    -0.502 OA
ATOM     23  H   UNL     1     482.262  39.465 460.682  1.00  0.00     0.293 HD
ENDBRANCH   2  22
BRANCH   9  24
ATOM     24  O   UNL     1     480.873  38.090 452.619  1.00  0.00    -0.508 OA
ATOM     25  H   UNL     1     480.101  38.584 452.188  1.00  0.00     0.293 HD
ENDBRANCH   9  24
TORSDOF 5
ENDMDL
MODEL 9
REMARK VINA RESULT:    -5.141      3.854      6.670
REMARK INTER + INTRA:          -6.353
REMARK INTER:                  -6.051
REMARK INTRA:                  -0.302
REMARK UNBOUND:                -0.309
REMARK SMILES O=c1c(O)c(-c2ccc(O)c(O)c2)oc2cc(O)ccc12
REMARK SMILES IDX 5 1 3 2 2 3 1 4 21 5 15 6 14 7 16 8 17 9 19 10 20 11 6 12
REMARK SMILES IDX 7 13 8 14 9 15 13 16 11 17 10 18 12 20 4 22 18 24
REMARK H PARENT 10 19 12 21 4 23 18 25
REMARK Flexibility Score: inf
ROOT
ATOM      1  C   UNL     1     484.289  40.085 459.755  1.00  0.00     0.180 A 
ATOM      2  C   UNL     1     484.759  39.427 458.600  1.00  0.00     0.208 A 
ATOM      3  C   UNL     1     483.851  38.685 457.827  1.00  0.00     0.235 A 
ATOM      4  O   UNL     1     484.245  38.097 456.783  1.00  0.00    -0.285 OA
ATOM      5  C   UNL     1     482.510  38.600 458.230  1.00  0.00     0.069 A 
ATOM      6  C   UNL     1     482.124  39.268 459.413  1.00  0.00     0.142 A 
ATOM      7  O   UNL     1     483.011  39.967 460.111  1.00  0.00    -0.452 OA
ATOM      8  C   UNL     1     480.797  39.198 459.854  1.00  0.00     0.094 A 
ATOM      9  C   UNL     1     479.848  38.468 459.125  1.00  0.00     0.119 A 
ATOM     10  C   UNL     1     480.229  37.807 457.953  1.00  0.00     0.047 A 
ATOM     11  C   UNL     1     481.552  37.869 457.504  1.00  0.00     0.020 A 
ENDROOT
BRANCH   1  12
ATOM     12  C   UNL     1     485.179  40.901 460.611  1.00  0.00     0.025 A 
ATOM     13  C   UNL     1     485.950  40.273 461.602  1.00  0.00     0.016 A 
ATOM     14  C   UNL     1     486.782  41.026 462.434  1.00  0.00     0.051 A 
ATOM     15  C   UNL     1     486.845  42.416 462.302  1.00  0.00     0.157 A 
ATOM     16  C   UNL     1     485.228  42.302 460.492  1.00  0.00     0.062 A 
ATOM     17  C   UNL     1     486.060  43.059 461.329  1.00  0.00     0.158 A 
BRANCH  15  18
ATOM     18  O   UNL     1     487.685  43.142 463.145  1.00  0.00    -0.504 OA
ATOM     19  H   UNL     1     488.693  43.056 463.105  1.00  0.00     0.293 HD
ENDBRANCH  15  18
BRANCH  17  20
ATOM     20  O   UNL     1     486.107  44.447 461.201  1.00  0.00    -0.504 OA
ATOM     21  H   UNL     1     486.276  45.048 462.000  1.00  0.00     0.293 HD
ENDBRANCH  17  20
ENDBRANCH   1  12
BRANCH   2  22
ATOM     22  O   UNL     1     486.110  39.490 458.249  1.00  0.00    -0.502 OA
ATOM     23  H   UNL     1     486.544  38.808 457.638  1.00  0.00     0.293 HD
ENDBRANCH   2  22
BRANCH   9  24
ATOM     24  O   UNL     1     478.526  38.395 459.557  1.00  0.00    -0.508 OA
ATOM     25  H   UNL     1     478.130  37.529 459.904  1.00  0.00     0.293 HD
ENDBRANCH   9  24
TORSDOF 5
ENDMDL
