MODEL 1
REMARK VINA RESULT:    -5.359      0.000      0.000
REMARK INTER + INTRA:          -5.874
REMARK INTER:                  -5.829
REMARK INTRA:                  -0.045
REMARK UNBOUND:                -0.045
REMARK SMILES COc1cc2ccc(=O)oc2cc1O
REMARK SMILES IDX 3 1 13 2 12 3 11 4 5 5 4 6 6 7 7 8 8 9 9 10 10 11 2 12 1 13
REMARK SMILES IDX 14 14
REMARK H PARENT 14 15
REMARK Flexibility Score: inf
ROOT
ATOM      1  C   UNL     1       9.420 -17.996   7.534  1.00  0.00     0.161 A 
ATOM      2  C   UNL     1       9.179 -16.686   7.978  1.00  0.00     0.161 A 
ATOM      3  C   UNL     1      10.220 -15.748   8.011  1.00  0.00     0.098 A 
ATOM      4  C   UNL     1      11.507 -16.108   7.603  1.00  0.00     0.142 A 
ATOM      5  C   UNL     1      11.758 -17.423   7.156  1.00  0.00     0.022 A 
ATOM      6  C   UNL     1      10.717 -18.361   7.122  1.00  0.00     0.062 A 
ATOM      7  C   UNL     1      13.056 -17.752   6.754  1.00  0.00     0.019 A 
ATOM      8  C   UNL     1      14.057 -16.783   6.806  1.00  0.00     0.094 A 
ATOM      9  C   UNL     1      13.734 -15.500   7.261  1.00  0.00     0.336 A 
ATOM     10  O   UNL     1      14.624 -14.611   7.315  1.00  0.00    -0.246 OA
ATOM     11  O   UNL     1      12.491 -15.212   7.637  1.00  0.00    -0.423 OA
ENDROOT
BRANCH   1  12
ATOM     12  O   UNL     1       8.348 -18.903   7.517  1.00  0.00    -0.493 OA
ATOM     13  C   UNL     1       7.497 -19.124   6.396  1.00  0.00     0.278 C 
ENDBRANCH   1  12
BRANCH   2  14
ATOM     14  O   UNL     1       7.896 -16.324   8.385  1.00  0.00    -0.504 OA
ATOM     15  H   UNL     1       7.240 -15.888   7.748  1.00  0.00     0.293 HD
ENDBRANCH   2  14
TORSDOF 2
ENDMDL
MODEL 2
REMARK VINA RESULT:    -5.330      1.350      4.749
REMARK INTER + INTRA:          -5.843
REMARK INTER:                  -5.796
REMARK INTRA:                  -0.047
REMARK UNBOUND:                -0.045
REMARK SMILES COc1cc2ccc(=O)oc2cc1O
REMARK SMILES IDX 3 1 13 2 12 3 11 4 5 5 4 6 6 7 7 8 8 9 9 10 10 11 2 12 1 13
REMARK SMILES IDX 14 14
REMARK H PARENT 14 15
REMARK Flexibility Score: inf
ROOT
ATOM      1  C   UNL     1      12.915 -17.306   7.087  1.00  0.00     0.161 A 
ATOM      2  C   UNL     1      12.775 -15.954   7.437  1.00  0.00     0.161 A 
ATOM      3  C   UNL     1      11.523 -15.449   7.818  1.00  0.00     0.098 A 
ATOM      4  C   UNL     1      10.405 -16.286   7.852  1.00  0.00     0.142 A 
ATOM      5  C   UNL     1      10.539 -17.646   7.502  1.00  0.00     0.022 A 
ATOM      6  C   UNL     1      11.789 -18.152   7.121  1.00  0.00     0.062 A 
ATOM      7  C   UNL     1       9.401 -18.459   7.546  1.00  0.00     0.019 A 
ATOM      8  C   UNL     1       8.180 -17.908   7.931  1.00  0.00     0.094 A 
ATOM      9  C   UNL     1       8.124 -16.551   8.265  1.00  0.00     0.336 A 
ATOM     10  O   UNL     1       7.030 -16.034   8.616  1.00  0.00    -0.246 OA
ATOM     11  O   UNL     1       9.221 -15.799   8.215  1.00  0.00    -0.423 OA
ENDROOT
BRANCH   1  12
ATOM     12  O   UNL     1      14.187 -17.770   6.713  1.00  0.00    -0.493 OA
ATOM     13  C   UNL     1      14.614 -19.124   6.817  1.00  0.00     0.278 C 
ENDBRANCH   1  12
BRANCH   2  14
ATOM     14  O   UNL     1      13.888 -15.116   7.404  1.00  0.00    -0.504 OA
ATOM     15  H   UNL     1      14.478 -15.049   6.583  1.00  0.00     0.293 HD
ENDBRANCH   2  14
TORSDOF 2
ENDMDL
MODEL 3
REMARK VINA RESULT:    -5.328      1.411      5.374
REMARK INTER + INTRA:          -5.840
REMARK INTER:                  -5.780
REMARK INTRA:                  -0.061
REMARK UNBOUND:                -0.045
REMARK SMILES COc1cc2ccc(=O)oc2cc1O
REMARK SMILES IDX 3 1 13 2 12 3 11 4 5 5 4 6 6 7 7 8 8 9 9 10 10 11 2 12 1 13
REMARK SMILES IDX 14 14
REMARK H PARENT 14 15
REMARK Flexibility Score: inf
ROOT
ATOM      1  C   UNL     1      12.694 -16.541   7.580  1.00  0.00     0.161 A 
ATOM      2  C   UNL     1      12.684 -17.779   6.918  1.00  0.00     0.161 A 
ATOM      3  C   UNL     1      11.477 -18.464   6.718  1.00  0.00     0.098 A 
ATOM      4  C   UNL     1      10.274 -17.921   7.176  1.00  0.00     0.142 A 
ATOM      5  C   UNL     1      10.275 -16.677   7.842  1.00  0.00     0.022 A 
ATOM      6  C   UNL     1      11.481 -15.991   8.042  1.00  0.00     0.062 A 
ATOM      7  C   UNL     1       9.055 -16.160   8.288  1.00  0.00     0.019 A 
ATOM      8  C   UNL     1       7.882 -16.881   8.065  1.00  0.00     0.094 A 
ATOM      9  C   UNL     1       7.958 -18.107   7.397  1.00  0.00     0.336 A 
ATOM     10  O   UNL     1       6.911 -18.773   7.185  1.00  0.00    -0.246 OA
ATOM     11  O   UNL     1       9.132 -18.577   6.982  1.00  0.00    -0.423 OA
ENDROOT
BRANCH   1  12
ATOM     12  O   UNL     1      13.925 -15.888   7.757  1.00  0.00    -0.493 OA
ATOM     13  C   UNL     1      14.246 -14.611   7.216  1.00  0.00     0.278 C 
ENDBRANCH   1  12
BRANCH   2  14
ATOM     14  O   UNL     1      13.882 -18.323   6.460  1.00  0.00    -0.504 OA
ATOM     15  H   UNL     1      14.773 -18.067   6.871  1.00  0.00     0.293 HD
ENDBRANCH   2  14
TORSDOF 2
ENDMDL
MODEL 4
REMARK VINA RESULT:    -5.027      1.589      5.551
REMARK INTER + INTRA:          -5.513
REMARK INTER:                  -5.463
REMARK INTRA:                  -0.050
REMARK UNBOUND:                -0.045
REMARK SMILES COc1cc2ccc(=O)oc2cc1O
REMARK SMILES IDX 3 1 13 2 12 3 11 4 5 5 4 6 6 7 7 8 8 9 9 10 10 11 2 12 1 13
REMARK SMILES IDX 14 14
REMARK H PARENT 14 15
REMARK Flexibility Score: inf
ROOT
ATOM      1  C   UNL     1      11.564 -16.722   7.700  1.00  0.00     0.161 A 
ATOM      2  C   UNL     1      11.481 -17.994   7.112  1.00  0.00     0.161 A 
ATOM      3  C   UNL     1      10.251 -18.664   7.048  1.00  0.00     0.098 A 
ATOM      4  C   UNL     1       9.098 -18.072   7.569  1.00  0.00     0.142 A 
ATOM      5  C   UNL     1       9.173 -16.794   8.162  1.00  0.00     0.022 A 
ATOM      6  C   UNL     1      10.402 -16.123   8.225  1.00  0.00     0.062 A 
ATOM      7  C   UNL     1       8.001 -16.228   8.674  1.00  0.00     0.019 A 
ATOM      8  C   UNL     1       6.803 -16.935   8.586  1.00  0.00     0.094 A 
ATOM      9  C   UNL     1       6.805 -18.198   7.984  1.00  0.00     0.336 A 
ATOM     10  O   UNL     1       5.733 -18.853   7.895  1.00  0.00    -0.246 OA
ATOM     11  O   UNL     1       7.933 -18.714   7.504  1.00  0.00    -0.423 OA
ENDROOT
BRANCH   1  12
ATOM     12  O   UNL     1      12.816 -16.087   7.742  1.00  0.00    -0.493 OA
ATOM     13  C   UNL     1      13.017 -14.688   7.567  1.00  0.00     0.278 C 
ENDBRANCH   1  12
BRANCH   2  14
ATOM     14  O   UNL     1      12.630 -18.588   6.592  1.00  0.00    -0.504 OA
ATOM     15  H   UNL     1      12.699 -18.841   5.614  1.00  0.00     0.293 HD
ENDBRANCH   2  14
TORSDOF 2
ENDMDL
MODEL 5
REMARK VINA RESULT:    -4.977      1.746      2.659
REMARK INTER + INTRA:          -5.458
REMARK INTER:                  -5.400
REMARK INTRA:                  -0.058
REMARK UNBOUND:                -0.045
REMARK SMILES COc1cc2ccc(=O)oc2cc1O
REMARK SMILES IDX 3 1 13 2 12 3 11 4 5 5 4 6 6 7 7 8 8 9 9 10 10 11 2 12 1 13
REMARK SMILES IDX 14 14
REMARK H PARENT 14 15
REMARK Flexibility Score: inf
ROOT
ATOM      1  C   UNL     1       9.000 -16.825   7.519  1.00  0.00     0.161 A 
ATOM      2  C   UNL     1       9.067 -18.129   7.004  1.00  0.00     0.161 A 
ATOM      3  C   UNL     1      10.309 -18.757   6.831  1.00  0.00     0.098 A 
ATOM      4  C   UNL     1      11.490 -18.091   7.169  1.00  0.00     0.142 A 
ATOM      5  C   UNL     1      11.430 -16.780   7.687  1.00  0.00     0.022 A 
ATOM      6  C   UNL     1      10.189 -16.151   7.861  1.00  0.00     0.062 A 
ATOM      7  C   UNL     1      12.629 -16.139   8.016  1.00  0.00     0.019 A 
ATOM      8  C   UNL     1      13.838 -16.807   7.825  1.00  0.00     0.094 A 
ATOM      9  C   UNL     1      13.819 -18.106   7.307  1.00  0.00     0.336 A 
ATOM     10  O   UNL     1      14.900 -18.726   7.127  1.00  0.00    -0.246 OA
ATOM     11  O   UNL     1      12.665 -18.693   7.002  1.00  0.00    -0.423 OA
ENDROOT
BRANCH   1  12
ATOM     12  O   UNL     1       7.735 -16.234   7.677  1.00  0.00    -0.493 OA
ATOM     13  C   UNL     1       6.994 -16.228   8.893  1.00  0.00     0.278 C 
ENDBRANCH   1  12
BRANCH   2  14
ATOM     14  O   UNL     1       7.892 -18.796   6.666  1.00  0.00    -0.504 OA
ATOM     15  H   UNL     1       7.008 -18.307   6.586  1.00  0.00     0.293 HD
ENDBRANCH   2  14
TORSDOF 2
ENDMDL
MODEL 6
REMARK VINA RESULT:    -4.606      1.374      4.992
REMARK INTER + INTRA:          -5.055
REMARK INTER:                  -4.991
REMARK INTRA:                  -0.065
REMARK UNBOUND:                -0.045
REMARK SMILES COc1cc2ccc(=O)oc2cc1O
REMARK SMILES IDX 3 1 13 2 12 3 11 4 5 5 4 6 6 7 7 8 8 9 9 10 10 11 2 12 1 13
REMARK SMILES IDX 14 14
REMARK H PARENT 14 15
REMARK Flexibility Score: inf
ROOT
ATOM      1  C   UNL     1      12.026 -17.595   7.015  1.00  0.00     0.161 A 
ATOM      2  C   UNL     1      11.761 -16.507   7.861  1.00  0.00     0.161 A 
ATOM      3  C   UNL     1      10.467 -16.297   8.358  1.00  0.00     0.098 A 
ATOM      4  C   UNL     1       9.430 -17.168   8.016  1.00  0.00     0.142 A 
ATOM      5  C   UNL     1       9.688 -18.264   7.165  1.00  0.00     0.022 A 
ATOM      6  C   UNL     1      10.982 -18.475   6.668  1.00  0.00     0.062 A 
ATOM      7  C   UNL     1       8.629 -19.118   6.841  1.00  0.00     0.019 A 
ATOM      8  C   UNL     1       7.361 -18.866   7.361  1.00  0.00     0.094 A 
ATOM      9  C   UNL     1       7.180 -17.760   8.198  1.00  0.00     0.336 A 
ATOM     10  O   UNL     1       6.042 -17.515   8.678  1.00  0.00    -0.246 OA
ATOM     11  O   UNL     1       8.204 -16.963   8.492  1.00  0.00    -0.423 OA
ENDROOT
BRANCH   1  12
ATOM     12  O   UNL     1      13.337 -17.768   6.541  1.00  0.00    -0.493 OA
ATOM     13  C   UNL     1      14.238 -18.767   7.007  1.00  0.00     0.278 C 
ENDBRANCH   1  12
BRANCH   2  14
ATOM     14  O   UNL     1      12.793 -15.636   8.205  1.00  0.00    -0.504 OA
ATOM     15  H   UNL     1      13.743 -15.963   8.332  1.00  0.00     0.293 HD
ENDBRANCH   2  14
TORSDOF 2
ENDMDL
MODEL 7
REMARK VINA RESULT:    -4.338      1.508      5.088
REMARK INTER + INTRA:          -4.764
REMARK INTER:                  -4.742
REMARK INTRA:                  -0.022
REMARK UNBOUND:                -0.045
REMARK SMILES COc1cc2ccc(=O)oc2cc1O
REMARK SMILES IDX 3 1 13 2 12 3 11 4 5 5 4 6 6 7 7 8 8 9 9 10 10 11 2 12 1 13
REMARK SMILES IDX 14 14
REMARK H PARENT 14 15
REMARK Flexibility Score: inf
ROOT
ATOM      1  C   UNL     1      12.200 -16.506   8.478  1.00  0.00     0.161 A 
ATOM      2  C   UNL     1      11.497 -15.499   7.799  1.00  0.00     0.161 A 
ATOM      3  C   UNL     1      10.137 -15.664   7.499  1.00  0.00     0.098 A 
ATOM      4  C   UNL     1       9.470 -16.833   7.874  1.00  0.00     0.142 A 
ATOM      5  C   UNL     1      10.169 -17.850   8.557  1.00  0.00     0.022 A 
ATOM      6  C   UNL     1      11.528 -17.685   8.857  1.00  0.00     0.062 A 
ATOM      7  C   UNL     1       9.473 -19.008   8.919  1.00  0.00     0.019 A 
ATOM      8  C   UNL     1       8.122 -19.125   8.597  1.00  0.00     0.094 A 
ATOM      9  C   UNL     1       7.494 -18.075   7.919  1.00  0.00     0.336 A 
ATOM     10  O   UNL     1       6.274 -18.160   7.620  1.00  0.00    -0.246 OA
ATOM     11  O   UNL     1       8.179 -16.983   7.587  1.00  0.00    -0.423 OA
ENDROOT
BRANCH   1  12
ATOM     12  O   UNL     1      13.560 -16.298   8.759  1.00  0.00    -0.493 OA
ATOM     13  C   UNL     1      14.625 -16.614   7.867  1.00  0.00     0.278 C 
ENDBRANCH   1  12
BRANCH   2  14
ATOM     14  O   UNL     1      12.159 -14.331   7.424  1.00  0.00    -0.504 OA
ATOM     15  H   UNL     1      13.024 -14.358   6.896  1.00  0.00     0.293 HD
ENDBRANCH   2  14
TORSDOF 2
ENDMDL
MODEL 8
REMARK VINA RESULT:    -4.193      1.560      2.127
REMARK INTER + INTRA:          -4.606
REMARK INTER:                  -4.725
REMARK INTRA:                   0.119
REMARK UNBOUND:                -0.045
REMARK SMILES COc1cc2ccc(=O)oc2cc1O
REMARK SMILES IDX 3 1 13 2 12 3 11 4 5 5 4 6 6 7 7 8 8 9 9 10 10 11 2 12 1 13
REMARK SMILES IDX 14 14
REMARK H PARENT 14 15
REMARK Flexibility Score: inf
ROOT
ATOM      1  C   UNL     1       7.524 -18.292   8.616  1.00  0.00     0.161 A 
ATOM      2  C   UNL     1       7.437 -16.893   8.679  1.00  0.00     0.161 A 
ATOM      3  C   UNL     1       8.567 -16.102   8.420  1.00  0.00     0.098 A 
ATOM      4  C   UNL     1       9.788 -16.700   8.099  1.00  0.00     0.142 A 
ATOM      5  C   UNL     1       9.883 -18.107   8.034  1.00  0.00     0.022 A 
ATOM      6  C   UNL     1       8.754 -18.898   8.291  1.00  0.00     0.062 A 
ATOM      7  C   UNL     1      11.118 -18.675   7.709  1.00  0.00     0.019 A 
ATOM      8  C   UNL     1      12.211 -17.846   7.462  1.00  0.00     0.094 A 
ATOM      9  C   UNL     1      12.042 -16.460   7.545  1.00  0.00     0.336 A 
ATOM     10  O   UNL     1      13.016 -15.693   7.325  1.00  0.00    -0.246 OA
ATOM     11  O   UNL     1      10.855 -15.944   7.855  1.00  0.00    -0.423 OA
ENDROOT
BRANCH   1  12
ATOM     12  O   UNL     1       6.368 -19.045   8.880  1.00  0.00    -0.493 OA
ATOM     13  C   UNL     1       5.241 -19.124   8.013  1.00  0.00     0.278 C 
ENDBRANCH   1  12
BRANCH   2  14
ATOM     14  O   UNL     1       6.221 -16.293   8.999  1.00  0.00    -0.504 OA
ATOM     15  H   UNL     1       5.374 -16.505   8.486  1.00  0.00     0.293 HD
ENDBRANCH   2  14
TORSDOF 2
ENDMDL
