MODEL 1
REMARK VINA RESULT:    -4.665      0.000      0.000
REMARK INTER + INTRA:          -5.271
REMARK INTER:                  -5.074
REMARK INTRA:                  -0.197
REMARK UNBOUND:                -0.197
REMARK SMILES Cc1ccc(C(C)C)c(O)c1
REMARK SMILES IDX 1 1 2 2 11 3 9 4 5 5 4 6 3 7 10 8 6 10 7 11 8 12
REMARK H PARENT 10 9
REMARK Flexibility Score: inf
ROOT
ATOM      1  C   UNL     1      17.611  22.248  23.204  1.00  0.00     0.044 C 
ATOM      2  C   UNL     1      18.382  22.701  22.000  1.00  0.00    -0.047 A 
ATOM      3  C   UNL     1      19.161  23.864  22.057  1.00  0.00     0.049 A 
ATOM      4  C   UNL     1      19.857  24.315  20.925  1.00  0.00     0.119 A 
ATOM      5  C   UNL     1      19.769  23.599  19.710  1.00  0.00    -0.004 A 
ATOM      6  C   UNL     1      18.967  22.443  19.660  1.00  0.00     0.008 A 
ATOM      7  C   UNL     1      18.278  22.002  20.791  1.00  0.00     0.004 A 
ENDROOT
BRANCH   4   8
ATOM      8  O   UNL     1      20.633  25.472  21.011  1.00  0.00    -0.508 OA
ATOM      9  H   UNL     1      21.346  25.687  20.325  1.00  0.00     0.293 HD
ENDBRANCH   4   8
BRANCH   5  10
ATOM     10  C   UNL     1      20.515  24.068  18.468  1.00  0.00     0.017 C 
ATOM     11  C   UNL     1      21.415  22.958  17.913  1.00  0.00     0.012 C 
ATOM     12  C   UNL     1      19.540  24.575  17.399  1.00  0.00     0.012 C 
ENDBRANCH   5  10
TORSDOF 2
ENDMDL
MODEL 2
REMARK VINA RESULT:    -4.380      1.880      2.676
REMARK INTER + INTRA:          -4.962
REMARK INTER:                  -4.762
REMARK INTRA:                  -0.200
REMARK UNBOUND:                -0.197
REMARK SMILES Cc1ccc(C(C)C)c(O)c1
REMARK SMILES IDX 1 1 2 2 11 3 9 4 5 5 4 6 3 7 10 8 6 10 7 11 8 12
REMARK H PARENT 10 9
REMARK Flexibility Score: inf
ROOT
ATOM      1  C   UNL     1      17.267  22.276  23.243  1.00  0.00     0.044 C 
ATOM      2  C   UNL     1      18.263  22.424  22.131  1.00  0.00    -0.047 A 
ATOM      3  C   UNL     1      18.378  21.430  21.150  1.00  0.00     0.049 A 
ATOM      4  C   UNL     1      19.332  21.543  20.128  1.00  0.00     0.119 A 
ATOM      5  C   UNL     1      20.194  22.661  20.085  1.00  0.00    -0.004 A 
ATOM      6  C   UNL     1      20.081  23.643  21.087  1.00  0.00     0.008 A 
ATOM      7  C   UNL     1      19.130  23.522  22.102  1.00  0.00     0.004 A 
ENDROOT
BRANCH   4   8
ATOM      8  O   UNL     1      19.419  20.544  19.157  1.00  0.00    -0.508 OA
ATOM      9  H   UNL     1      18.772  19.765  19.135  1.00  0.00     0.293 HD
ENDBRANCH   4   8
BRANCH   5  10
ATOM     10  C   UNL     1      21.236  22.806  18.984  1.00  0.00     0.017 C 
ATOM     11  C   UNL     1      21.214  24.217  18.384  1.00  0.00     0.012 C 
ATOM     12  C   UNL     1      22.635  22.449  19.500  1.00  0.00     0.012 C 
ENDBRANCH   5  10
TORSDOF 2
ENDMDL
MODEL 3
REMARK VINA RESULT:    -4.224      2.190      3.091
REMARK INTER + INTRA:          -4.791
REMARK INTER:                  -4.604
REMARK INTRA:                  -0.187
REMARK UNBOUND:                -0.197
REMARK SMILES Cc1ccc(C(C)C)c(O)c1
REMARK SMILES IDX 1 1 2 2 11 3 9 4 5 5 4 6 3 7 10 8 6 10 7 11 8 12
REMARK H PARENT 10 9
REMARK Flexibility Score: inf
ROOT
ATOM      1  C   UNL     1      22.807  21.303  21.759  1.00  0.00     0.044 C 
ATOM      2  C   UNL     1      21.957  22.007  20.743  1.00  0.00    -0.047 A 
ATOM      3  C   UNL     1      20.606  22.265  21.009  1.00  0.00     0.049 A 
ATOM      4  C   UNL     1      19.794  22.889  20.050  1.00  0.00     0.119 A 
ATOM      5  C   UNL     1      20.335  23.256  18.797  1.00  0.00    -0.004 A 
ATOM      6  C   UNL     1      21.689  22.973  18.534  1.00  0.00     0.008 A 
ATOM      7  C   UNL     1      22.488  22.351  19.494  1.00  0.00     0.004 A 
ENDROOT
BRANCH   4   8
ATOM      8  O   UNL     1      18.454  23.143  20.344  1.00  0.00    -0.508 OA
ATOM      9  H   UNL     1      18.024  24.037  20.140  1.00  0.00     0.293 HD
ENDBRANCH   4   8
BRANCH   5  10
ATOM     10  C   UNL     1      19.475  23.935  17.740  1.00  0.00     0.017 C 
ATOM     11  C   UNL     1      20.310  24.886  16.875  1.00  0.00     0.012 C 
ATOM     12  C   UNL     1      18.746  22.900  16.875  1.00  0.00     0.012 C 
ENDBRANCH   5  10
TORSDOF 2
ENDMDL
MODEL 4
REMARK VINA RESULT:    -4.056      1.739      4.428
REMARK INTER + INTRA:          -4.608
REMARK INTER:                  -4.412
REMARK INTRA:                  -0.196
REMARK UNBOUND:                -0.197
REMARK SMILES Cc1ccc(C(C)C)c(O)c1
REMARK SMILES IDX 1 1 2 2 11 3 9 4 5 5 4 6 3 7 10 8 6 10 7 11 8 12
REMARK H PARENT 10 9
REMARK Flexibility Score: inf
ROOT
ATOM      1  C   UNL     1      21.330  24.172  16.875  1.00  0.00     0.044 C 
ATOM      2  C   UNL     1      20.639  23.653  18.101  1.00  0.00    -0.047 A 
ATOM      3  C   UNL     1      21.145  22.534  18.775  1.00  0.00     0.049 A 
ATOM      4  C   UNL     1      20.485  22.019  19.901  1.00  0.00     0.119 A 
ATOM      5  C   UNL     1      19.293  22.623  20.360  1.00  0.00    -0.004 A 
ATOM      6  C   UNL     1      18.784  23.735  19.662  1.00  0.00     0.008 A 
ATOM      7  C   UNL     1      19.447  24.240  18.542  1.00  0.00     0.004 A 
ENDROOT
BRANCH   4   8
ATOM      8  O   UNL     1      21.015  20.908  20.560  1.00  0.00    -0.508 OA
ATOM      9  H   UNL     1      20.618  20.564  21.426  1.00  0.00     0.293 HD
ENDBRANCH   4   8
BRANCH   5  10
ATOM     10  C   UNL     1      18.559  22.083  21.580  1.00  0.00     0.017 C 
ATOM     11  C   UNL     1      18.529  23.119  22.710  1.00  0.00     0.012 C 
ATOM     12  C   UNL     1      17.142  21.626  21.213  1.00  0.00     0.012 C 
ENDBRANCH   5  10
TORSDOF 2
ENDMDL
MODEL 5
REMARK VINA RESULT:    -4.042      2.510      4.000
REMARK INTER + INTRA:          -4.594
REMARK INTER:                  -4.397
REMARK INTRA:                  -0.196
REMARK UNBOUND:                -0.197
REMARK SMILES Cc1ccc(C(C)C)c(O)c1
REMARK SMILES IDX 1 1 2 2 11 3 9 4 5 5 4 6 3 7 10 8 6 10 7 11 8 12
REMARK H PARENT 10 9
REMARK Flexibility Score: inf
ROOT
ATOM      1  C   UNL     1      17.316  21.192  17.006  1.00  0.00     0.044 C 
ATOM      2  C   UNL     1      18.455  21.538  17.919  1.00  0.00    -0.047 A 
ATOM      3  C   UNL     1      19.604  22.157  17.411  1.00  0.00     0.049 A 
ATOM      4  C   UNL     1      20.689  22.451  18.251  1.00  0.00     0.119 A 
ATOM      5  C   UNL     1      20.633  22.113  19.622  1.00  0.00    -0.004 A 
ATOM      6  C   UNL     1      19.481  21.474  20.116  1.00  0.00     0.008 A 
ATOM      7  C   UNL     1      18.407  21.185  19.273  1.00  0.00     0.004 A 
ENDROOT
BRANCH   4   8
ATOM      8  O   UNL     1      21.819  23.076  17.721  1.00  0.00    -0.508 OA
ATOM      9  H   UNL     1      22.755  22.784  17.972  1.00  0.00     0.293 HD
ENDBRANCH   4   8
BRANCH   5  10
ATOM     10  C   UNL     1      21.797  22.422  20.554  1.00  0.00     0.017 C 
ATOM     11  C   UNL     1      21.358  23.341  21.700  1.00  0.00     0.012 C 
ATOM     12  C   UNL     1      22.429  21.133  21.091  1.00  0.00     0.012 C 
ENDBRANCH   5  10
TORSDOF 2
ENDMDL
MODEL 6
REMARK VINA RESULT:    -4.030      1.347      4.121
REMARK INTER + INTRA:          -4.580
REMARK INTER:                  -4.388
REMARK INTRA:                  -0.192
REMARK UNBOUND:                -0.197
REMARK SMILES Cc1ccc(C(C)C)c(O)c1
REMARK SMILES IDX 1 1 2 2 11 3 9 4 5 5 4 6 3 7 10 8 6 10 7 11 8 12
REMARK H PARENT 10 9
REMARK Flexibility Score: inf
ROOT
ATOM      1  C   UNL     1      19.912  25.026  16.875  1.00  0.00     0.044 C 
ATOM      2  C   UNL     1      19.507  24.146  18.020  1.00  0.00    -0.047 A 
ATOM      3  C   UNL     1      19.660  24.590  19.340  1.00  0.00     0.049 A 
ATOM      4  C   UNL     1      19.319  23.759  20.418  1.00  0.00     0.119 A 
ATOM      5  C   UNL     1      18.824  22.458  20.179  1.00  0.00    -0.004 A 
ATOM      6  C   UNL     1      18.694  22.016  18.848  1.00  0.00     0.008 A 
ATOM      7  C   UNL     1      19.037  22.849  17.782  1.00  0.00     0.004 A 
ENDROOT
BRANCH   4   8
ATOM      8  O   UNL     1      19.472  24.230  21.723  1.00  0.00    -0.508 OA
ATOM      9  H   UNL     1      20.369  24.545  22.073  1.00  0.00     0.293 HD
ENDBRANCH   4   8
BRANCH   5  10
ATOM     10  C   UNL     1      18.447  21.538  21.332  1.00  0.00     0.017 C 
ATOM     11  C   UNL     1      16.986  21.747  21.750  1.00  0.00     0.012 C 
ATOM     12  C   UNL     1      18.713  20.071  20.976  1.00  0.00     0.012 C 
ENDBRANCH   5  10
TORSDOF 2
ENDMDL
MODEL 7
REMARK VINA RESULT:    -3.964      2.116      4.644
REMARK INTER + INTRA:          -4.509
REMARK INTER:                  -4.327
REMARK INTRA:                  -0.182
REMARK UNBOUND:                -0.197
REMARK SMILES Cc1ccc(C(C)C)c(O)c1
REMARK SMILES IDX 1 1 2 2 11 3 9 4 5 5 4 6 3 7 10 8 6 10 7 11 8 12
REMARK H PARENT 10 9
REMARK Flexibility Score: inf
ROOT
ATOM      1  C   UNL     1      21.400  23.428  17.696  1.00  0.00     0.044 C 
ATOM      2  C   UNL     1      20.396  22.959  18.707  1.00  0.00    -0.047 A 
ATOM      3  C   UNL     1      19.116  22.562  18.299  1.00  0.00     0.049 A 
ATOM      4  C   UNL     1      18.158  22.157  19.241  1.00  0.00     0.119 A 
ATOM      5  C   UNL     1      18.478  22.155  20.618  1.00  0.00    -0.004 A 
ATOM      6  C   UNL     1      19.761  22.575  21.016  1.00  0.00     0.008 A 
ATOM      7  C   UNL     1      20.707  22.977  20.072  1.00  0.00     0.004 A 
ENDROOT
BRANCH   4   8
ATOM      8  O   UNL     1      16.893  21.758  18.808  1.00  0.00    -0.508 OA
ATOM      9  H   UNL     1      16.572  20.803  18.910  1.00  0.00     0.293 HD
ENDBRANCH   4   8
BRANCH   5  10
ATOM     10  C   UNL     1      17.457  21.719  21.659  1.00  0.00     0.017 C 
ATOM     11  C   UNL     1      17.478  20.198  21.851  1.00  0.00     0.012 C 
ATOM     12  C   UNL     1      17.683  22.446  22.990  1.00  0.00     0.012 C 
ENDBRANCH   5  10
TORSDOF 2
ENDMDL
