MODEL 1
REMARK VINA RESULT:    -3.575      0.000      0.000
REMARK INTER + INTRA:          -4.521
REMARK INTER:                  -4.307
REMARK INTRA:                  -0.214
REMARK UNBOUND:                -0.214
REMARK SMILES OCC(O)CO
REMARK SMILES IDX 3 1 5 2 6 3 2 5 1 6 4 8
REMARK H PARENT 6 4 1 7 4 9
REMARK Flexibility Score: inf
ROOT
ATOM      1  C   UNL     1      -6.590  36.156  23.750  1.00  0.00     0.165 C 
ENDROOT
BRANCH   1   2
ATOM      2  C   UNL     1      -5.499  36.711  24.676  1.00  0.00     0.190 C 
BRANCH   2   3
ATOM      3  O   UNL     1      -5.925  36.674  26.012  1.00  0.00    -0.394 OA
ATOM      4  H   UNL     1      -6.267  35.756  26.176  1.00  0.00     0.210 HD
ENDBRANCH   2   3
ENDBRANCH   1   2
BRANCH   1   5
ATOM      5  C   UNL     1      -7.460  37.289  23.178  1.00  0.00     0.190 C 
BRANCH   5   6
ATOM      6  O   UNL     1      -7.802  38.213  24.176  1.00  0.00    -0.394 OA
ATOM      7  H   UNL     1      -8.612  38.689  23.858  1.00  0.00     0.210 HD
ENDBRANCH   5   6
ENDBRANCH   1   5
BRANCH   1   8
ATOM      8  O   UNL     1      -5.983  35.453  22.698  1.00  0.00    -0.388 OA
ATOM      9  H   UNL     1      -5.418  36.103  22.206  1.00  0.00     0.211 HD
ENDBRANCH   1   8
TORSDOF 5
ENDMDL
MODEL 2
REMARK VINA RESULT:    -3.543      1.150      2.464
REMARK INTER + INTRA:          -4.482
REMARK INTER:                  -4.261
REMARK INTRA:                  -0.221
REMARK UNBOUND:                -0.214
REMARK SMILES OCC(O)CO
REMARK SMILES IDX 3 1 5 2 6 3 2 5 1 6 4 8
REMARK H PARENT 6 4 1 7 4 9
REMARK Flexibility Score: inf
ROOT
ATOM      1  C   UNL     1      -5.968  37.228  25.052  1.00  0.00     0.165 C 
ENDROOT
BRANCH   1   2
ATOM      2  C   UNL     1      -6.665  36.244  24.101  1.00  0.00     0.190 C 
BRANCH   2   3
ATOM      3  O   UNL     1      -6.397  36.579  22.766  1.00  0.00    -0.394 OA
ATOM      4  H   UNL     1      -7.085  37.243  22.496  1.00  0.00     0.210 HD
ENDBRANCH   2   3
ENDBRANCH   1   2
BRANCH   1   5
ATOM      5  C   UNL     1      -6.894  38.402  25.411  1.00  0.00     0.190 C 
BRANCH   5   6
ATOM      6  O   UNL     1      -7.872  38.590  24.423  1.00  0.00    -0.394 OA
ATOM      7  H   UNL     1      -7.742  39.507  24.065  1.00  0.00     0.210 HD
ENDBRANCH   5   6
ENDBRANCH   1   5
BRANCH   1   8
ATOM      8  O   UNL     1      -5.595  36.547  26.221  1.00  0.00    -0.388 OA
ATOM      9  H   UNL     1      -4.650  36.267  26.102  1.00  0.00     0.211 HD
ENDBRANCH   1   8
TORSDOF 5
ENDMDL
MODEL 3
REMARK VINA RESULT:    -3.496      1.353      1.772
REMARK INTER + INTRA:          -4.425
REMARK INTER:                  -4.202
REMARK INTRA:                  -0.223
REMARK UNBOUND:                -0.214
REMARK SMILES OCC(O)CO
REMARK SMILES IDX 3 1 5 2 6 3 2 5 1 6 4 8
REMARK H PARENT 6 4 1 7 4 9
REMARK Flexibility Score: inf
ROOT
ATOM      1  C   UNL     1      -6.777  36.598  24.140  1.00  0.00     0.165 C 
ENDROOT
BRANCH   1   2
ATOM      2  C   UNL     1      -6.695  37.767  25.133  1.00  0.00     0.190 C 
BRANCH   2   3
ATOM      3  O   UNL     1      -7.700  38.708  24.865  1.00  0.00    -0.394 OA
ATOM      4  H   UNL     1      -7.305  39.603  25.036  1.00  0.00     0.210 HD
ENDBRANCH   2   3
ENDBRANCH   1   2
BRANCH   1   5
ATOM      5  C   UNL     1      -7.689  36.944  22.951  1.00  0.00     0.190 C 
BRANCH   5   6
ATOM      6  O   UNL     1      -7.074  37.873  22.099  1.00  0.00    -0.394 OA
ATOM      7  H   UNL     1      -6.896  38.684  22.644  1.00  0.00     0.210 HD
ENDBRANCH   5   6
ENDBRANCH   1   5
BRANCH   1   8
ATOM      8  O   UNL     1      -5.486  36.304  23.674  1.00  0.00    -0.388 OA
ATOM      9  H   UNL     1      -4.874  36.387  24.451  1.00  0.00     0.211 HD
ENDBRANCH   1   8
TORSDOF 5
ENDMDL
MODEL 4
REMARK VINA RESULT:    -3.442      1.588      2.143
REMARK INTER + INTRA:          -4.360
REMARK INTER:                  -4.358
REMARK INTRA:                  -0.002
REMARK UNBOUND:                -0.214
REMARK SMILES OCC(O)CO
REMARK SMILES IDX 3 1 5 2 6 3 2 5 1 6 4 8
REMARK H PARENT 6 4 1 7 4 9
REMARK Flexibility Score: inf
ROOT
ATOM      1  C   UNL     1      -7.482  37.004  23.375  1.00  0.00     0.165 C 
ENDROOT
BRANCH   1   2
ATOM      2  C   UNL     1      -6.968  35.557  23.377  1.00  0.00     0.190 C 
BRANCH   2   3
ATOM      3  O   UNL     1      -5.651  35.504  22.897  1.00  0.00    -0.394 OA
ATOM      4  H   UNL     1      -5.285  34.621  23.166  1.00  0.00     0.210 HD
ENDBRANCH   2   3
ENDBRANCH   1   2
BRANCH   1   5
ATOM      5  C   UNL     1      -7.025  37.756  24.637  1.00  0.00     0.190 C 
BRANCH   5   6
ATOM      6  O   UNL     1      -7.793  38.912  24.838  1.00  0.00    -0.394 OA
ATOM      7  H   UNL     1      -8.517  38.664  25.470  1.00  0.00     0.210 HD
ENDBRANCH   5   6
ENDBRANCH   1   5
BRANCH   1   8
ATOM      8  O   UNL     1      -6.997  37.660  22.234  1.00  0.00    -0.388 OA
ATOM      9  H   UNL     1      -7.120  37.038  21.470  1.00  0.00     0.211 HD
ENDBRANCH   1   8
TORSDOF 5
ENDMDL
MODEL 5
REMARK VINA RESULT:    -3.370      0.856      2.946
REMARK INTER + INTRA:          -4.274
REMARK INTER:                  -4.060
REMARK INTRA:                  -0.214
REMARK UNBOUND:                -0.214
REMARK SMILES OCC(O)CO
REMARK SMILES IDX 3 1 5 2 6 3 2 5 1 6 4 8
REMARK H PARENT 6 4 1 7 4 9
REMARK Flexibility Score: inf
ROOT
ATOM      1  C   UNL     1      -7.208  37.401  24.523  1.00  0.00     0.165 C 
ENDROOT
BRANCH   1   2
ATOM      2  C   UNL     1      -6.975  36.921  23.084  1.00  0.00     0.190 C 
BRANCH   2   3
ATOM      3  O   UNL     1      -5.900  36.022  23.035  1.00  0.00    -0.394 OA
ATOM      4  H   UNL     1      -5.178  36.411  23.595  1.00  0.00     0.210 HD
ENDBRANCH   2   3
ENDBRANCH   1   2
BRANCH   1   5
ATOM      5  C   UNL     1      -5.877  37.559  25.277  1.00  0.00     0.190 C 
BRANCH   5   6
ATOM      6  O   UNL     1      -5.590  36.414  26.035  1.00  0.00    -0.394 OA
ATOM      7  H   UNL     1      -5.423  36.723  26.964  1.00  0.00     0.210 HD
ENDBRANCH   5   6
ENDBRANCH   1   5
BRANCH   1   8
ATOM      8  O   UNL     1      -7.880  38.633  24.491  1.00  0.00    -0.388 OA
ATOM      9  H   UNL     1      -8.849  38.430  24.420  1.00  0.00     0.211 HD
ENDBRANCH   1   8
TORSDOF 5
ENDMDL
MODEL 6
REMARK VINA RESULT:    -3.298      1.355      2.605
REMARK INTER + INTRA:          -4.187
REMARK INTER:                  -3.972
REMARK INTRA:                  -0.215
REMARK UNBOUND:                -0.214
REMARK SMILES OCC(O)CO
REMARK SMILES IDX 3 1 5 2 6 3 2 5 1 6 4 8
REMARK H PARENT 6 4 1 7 4 9
REMARK Flexibility Score: inf
ROOT
ATOM      1  C   UNL     1      -7.222  37.017  23.128  1.00  0.00     0.165 C 
ENDROOT
BRANCH   1   2
ATOM      2  C   UNL     1      -6.222  36.372  24.099  1.00  0.00     0.190 C 
BRANCH   2   3
ATOM      3  O   UNL     1      -5.258  35.638  23.394  1.00  0.00    -0.394 OA
ATOM      4  H   UNL     1      -4.920  36.231  22.673  1.00  0.00     0.210 HD
ENDBRANCH   2   3
ENDBRANCH   1   2
BRANCH   1   5
ATOM      5  C   UNL     1      -8.260  35.992  22.640  1.00  0.00     0.190 C 
BRANCH   5   6
ATOM      6  O   UNL     1      -7.632  34.875  22.069  1.00  0.00    -0.394 OA
ATOM      7  H   UNL     1      -7.933  34.084  22.588  1.00  0.00     0.210 HD
ENDBRANCH   5   6
ENDBRANCH   1   5
BRANCH   1   8
ATOM      8  O   UNL     1      -7.875  38.074  23.779  1.00  0.00    -0.388 OA
ATOM      9  H   UNL     1      -8.620  38.360  23.188  1.00  0.00     0.211 HD
ENDBRANCH   1   8
TORSDOF 5
ENDMDL
MODEL 7
REMARK VINA RESULT:    -3.296     18.952     19.571
REMARK INTER + INTRA:          -4.185
REMARK INTER:                  -3.961
REMARK INTRA:                  -0.224
REMARK UNBOUND:                -0.214
REMARK SMILES OCC(O)CO
REMARK SMILES IDX 3 1 5 2 6 3 2 5 1 6 4 8
REMARK H PARENT 6 4 1 7 4 9
REMARK Flexibility Score: inf
ROOT
ATOM      1  C   UNL     1     -15.245  40.680  40.539  1.00  0.00     0.165 C 
ENDROOT
BRANCH   1   2
ATOM      2  C   UNL     1     -14.290  41.878  40.640  1.00  0.00     0.190 C 
BRANCH   2   3
ATOM      3  O   UNL     1     -13.562  41.825  41.837  1.00  0.00    -0.394 OA
ATOM      4  H   UNL     1     -13.379  42.765  42.100  1.00  0.00     0.210 HD
ENDBRANCH   2   3
ENDBRANCH   1   2
BRANCH   1   5
ATOM      5  C   UNL     1     -16.494  40.894  41.411  1.00  0.00     0.190 C 
BRANCH   5   6
ATOM      6  O   UNL     1     -16.485  42.167  41.999  1.00  0.00    -0.394 OA
ATOM      7  H   UNL     1     -16.500  42.823  41.254  1.00  0.00     0.210 HD
ENDBRANCH   5   6
ENDBRANCH   1   5
BRANCH   1   8
ATOM      8  O   UNL     1     -15.629  40.512  39.200  1.00  0.00    -0.388 OA
ATOM      9  H   UNL     1     -15.108  39.744  38.846  1.00  0.00     0.211 HD
ENDBRANCH   1   8
TORSDOF 5
ENDMDL
MODEL 8
REMARK VINA RESULT:    -3.266     17.388     17.547
REMARK INTER + INTRA:          -4.148
REMARK INTER:                  -3.935
REMARK INTRA:                  -0.213
REMARK UNBOUND:                -0.214
REMARK SMILES OCC(O)CO
REMARK SMILES IDX 3 1 5 2 6 3 2 5 1 6 4 8
REMARK H PARENT 6 4 1 7 4 9
REMARK Flexibility Score: inf
ROOT
ATOM      1  C   UNL     1     -14.201  42.801  37.831  1.00  0.00     0.165 C 
ENDROOT
BRANCH   1   2
ATOM      2  C   UNL     1     -15.428  41.895  37.651  1.00  0.00     0.190 C 
BRANCH   2   3
ATOM      3  O   UNL     1     -16.288  42.010  38.753  1.00  0.00    -0.394 OA
ATOM      4  H   UNL     1     -16.188  42.937  39.096  1.00  0.00     0.210 HD
ENDBRANCH   2   3
ENDBRANCH   1   2
BRANCH   1   5
ATOM      5  C   UNL     1     -14.397  44.146  37.111  1.00  0.00     0.190 C 
BRANCH   5   6
ATOM      6  O   UNL     1     -15.737  44.555  37.166  1.00  0.00    -0.394 OA
ATOM      7  H   UNL     1     -15.736  45.485  37.514  1.00  0.00     0.210 HD
ENDBRANCH   5   6
ENDBRANCH   1   5
BRANCH   1   8
ATOM      8  O   UNL     1     -13.995  43.025  39.200  1.00  0.00    -0.388 OA
ATOM      9  H   UNL     1     -13.655  42.174  39.584  1.00  0.00     0.211 HD
ENDBRANCH   1   8
TORSDOF 5
ENDMDL
MODEL 9
REMARK VINA RESULT:    -3.195     17.332     17.436
REMARK INTER + INTRA:          -4.063
REMARK INTER:                  -3.839
REMARK INTRA:                  -0.224
REMARK UNBOUND:                -0.214
REMARK SMILES OCC(O)CO
REMARK SMILES IDX 3 1 5 2 6 3 2 5 1 6 4 8
REMARK H PARENT 6 4 1 7 4 9
REMARK Flexibility Score: inf
ROOT
ATOM      1  C   UNL     1     -14.813  43.417  36.956  1.00  0.00     0.165 C 
ENDROOT
BRANCH   1   2
ATOM      2  C   UNL     1     -13.541  43.645  37.785  1.00  0.00     0.190 C 
BRANCH   2   3
ATOM      3  O   UNL     1     -13.851  43.709  39.151  1.00  0.00    -0.394 OA
ATOM      4  H   UNL     1     -13.592  44.617  39.460  1.00  0.00     0.210 HD
ENDBRANCH   2   3
ENDBRANCH   1   2
BRANCH   1   5
ATOM      5  C   UNL     1     -15.424  42.035  37.249  1.00  0.00     0.190 C 
BRANCH   5   6
ATOM      6  O   UNL     1     -16.169  42.057  38.436  1.00  0.00    -0.394 OA
ATOM      7  H   UNL     1     -15.645  42.589  39.090  1.00  0.00     0.210 HD
ENDBRANCH   5   6
ENDBRANCH   1   5
BRANCH   1   8
ATOM      8  O   UNL     1     -15.746  44.418  37.264  1.00  0.00    -0.388 OA
ATOM      9  H   UNL     1     -15.236  45.264  37.368  1.00  0.00     0.211 HD
ENDBRANCH   1   8
TORSDOF 5
ENDMDL
