MODEL 1
REMARK VINA RESULT:     0.181      0.000      0.000
REMARK INTER + INTRA:           0.516
REMARK INTER:                   0.207
REMARK INTRA:                   0.309
REMARK UNBOUND:                 0.309
REMARK SMILES COc1cc(C(C)=O)ccc1O
REMARK SMILES IDX 5 1 4 2 3 3 11 4 10 5 9 6 6 7 7 8 8 9 2 10 1 11 12 12
REMARK H PARENT 12 13
REMARK Flexibility Score: inf
ROOT
ATOM      1  C   UNL     1      93.609  15.824 120.221  1.00  0.00     0.021 A 
ATOM      2  C   UNL     1      92.570  16.416 120.964  1.00  0.00     0.062 A 
ATOM      3  C   UNL     1      91.762  17.425 120.404  1.00  0.00     0.161 A 
ATOM      4  C   UNL     1      92.001  17.842 119.083  1.00  0.00     0.157 A 
ATOM      5  C   UNL     1      93.030  17.258 118.341  1.00  0.00     0.051 A 
ATOM      6  C   UNL     1      93.828  16.260 118.901  1.00  0.00     0.016 A 
ENDROOT
BRANCH   1   7
ATOM      7  C   UNL     1      94.452  14.761 120.833  1.00  0.00     0.159 C 
ATOM      8  C   UNL     1      93.916  13.391 121.122  1.00  0.00     0.093 C 
ATOM      9  O   UNL     1      95.655  15.004 121.123  1.00  0.00    -0.295 OA
ENDBRANCH   1   7
BRANCH   3  10
ATOM     10  O   UNL     1      90.719  18.030 121.125  1.00  0.00    -0.493 OA
ATOM     11  C   UNL     1      89.385  18.175 120.650  1.00  0.00     0.278 C 
ENDBRANCH   3  10
BRANCH   4  12
ATOM     12  O   UNL     1      91.224  18.836 118.489  1.00  0.00    -0.504 OA
ATOM     13  H   UNL     1      91.534  19.799 118.423  1.00  0.00     0.293 HD
ENDBRANCH   4  12
TORSDOF 3
ENDMDL
MODEL 2
REMARK VINA RESULT:     1.222      1.577      4.657
REMARK INTER + INTRA:           1.710
REMARK INTER:                   1.823
REMARK INTRA:                  -0.113
REMARK UNBOUND:                 0.309
REMARK SMILES COc1cc(C(C)=O)ccc1O
REMARK SMILES IDX 5 1 4 2 3 3 11 4 10 5 9 6 6 7 7 8 8 9 2 10 1 11 12 12
REMARK H PARENT 12 13
REMARK Flexibility Score: inf
ROOT
ATOM      1  C   UNL     1      92.563  17.078 119.647  1.00  0.00     0.021 A 
ATOM      2  C   UNL     1      93.704  17.083 120.474  1.00  0.00     0.062 A 
ATOM      3  C   UNL     1      94.724  16.126 120.307  1.00  0.00     0.161 A 
ATOM      4  C   UNL     1      94.596  15.154 119.300  1.00  0.00     0.157 A 
ATOM      5  C   UNL     1      93.467  15.144 118.478  1.00  0.00     0.051 A 
ATOM      6  C   UNL     1      92.459  16.094 118.647  1.00  0.00     0.016 A 
ENDROOT
BRANCH   1   7
ATOM      7  C   UNL     1      91.496  18.098 119.841  1.00  0.00     0.159 C 
ATOM      8  C   UNL     1      90.681  18.164 121.097  1.00  0.00     0.093 C 
ATOM      9  O   UNL     1      91.257  18.936 118.929  1.00  0.00    -0.295 OA
ENDBRANCH   1   7
BRANCH   3  10
ATOM     10  O   UNL     1      95.870  16.112 121.118  1.00  0.00    -0.493 OA
ATOM     11  C   UNL     1      96.984  16.985 120.961  1.00  0.00     0.278 C 
ENDBRANCH   3  10
BRANCH   4  12
ATOM     12  O   UNL     1      95.583  14.189 119.101  1.00  0.00    -0.504 OA
ATOM     13  H   UNL     1      96.268  14.260 118.357  1.00  0.00     0.293 HD
ENDBRANCH   4  12
TORSDOF 3
ENDMDL
MODEL 3
REMARK VINA RESULT:     2.669      3.949      7.402
REMARK INTER + INTRA:           3.368
REMARK INTER:                   3.440
REMARK INTRA:                  -0.072
REMARK UNBOUND:                 0.309
REMARK SMILES COc1cc(C(C)=O)ccc1O
REMARK SMILES IDX 5 1 4 2 3 3 11 4 10 5 9 6 6 7 7 8 8 9 2 10 1 11 12 12
REMARK H PARENT 12 13
REMARK Flexibility Score: inf
ROOT
ATOM      1  C   UNL     1      85.687  18.018 120.847  1.00  0.00     0.021 A 
ATOM      2  C   UNL     1      87.025  17.576 120.853  1.00  0.00     0.062 A 
ATOM      3  C   UNL     1      88.090  18.493 120.945  1.00  0.00     0.161 A 
ATOM      4  C   UNL     1      87.809  19.867 121.031  1.00  0.00     0.157 A 
ATOM      5  C   UNL     1      86.484  20.311 121.025  1.00  0.00     0.051 A 
ATOM      6  C   UNL     1      85.432  19.399 120.933  1.00  0.00     0.016 A 
ENDROOT
BRANCH   1   7
ATOM      7  C   UNL     1      84.576  17.033 120.747  1.00  0.00     0.159 C 
ATOM      8  C   UNL     1      83.138  17.457 120.740  1.00  0.00     0.093 C 
ATOM      9  O   UNL     1      84.835  15.801 120.668  1.00  0.00    -0.295 OA
ENDBRANCH   1   7
BRANCH   3  10
ATOM     10  O   UNL     1      89.431  18.076 120.954  1.00  0.00    -0.493 OA
ATOM     11  C   UNL     1      90.295  18.107 119.822  1.00  0.00     0.278 C 
ENDBRANCH   3  10
BRANCH   4  12
ATOM     12  O   UNL     1      88.834  20.808 121.125  1.00  0.00    -0.504 OA
ATOM     13  H   UNL     1      88.665  21.803 121.031  1.00  0.00     0.293 HD
ENDBRANCH   4  12
TORSDOF 3
ENDMDL
