MODEL 1
REMARK VINA RESULT:    -4.240      0.000      0.000
REMARK INTER + INTRA:          -5.444
REMARK INTER:                  -5.355
REMARK INTRA:                  -0.088
REMARK UNBOUND:                -0.088
REMARK SMILES CCCCCCO
REMARK SMILES IDX 4 1 3 2 2 3 1 4 5 5 6 6 7 7
REMARK H PARENT 7 8
REMARK Flexibility Score: inf
ROOT
ATOM      1  C   UNL     1      34.636 -17.921 -28.523  1.00  0.00     0.002 C 
ENDROOT
BRANCH   1   2
ATOM      2  C   UNL     1      33.415 -18.691 -27.996  1.00  0.00    -0.000 C 
BRANCH   2   3
ATOM      3  C   UNL     1      32.127 -18.348 -28.759  1.00  0.00    -0.003 C 
ATOM      4  C   UNL     1      31.740 -19.471 -29.716  1.00  0.00     0.004 C 
ENDBRANCH   2   3
ENDBRANCH   1   2
BRANCH   1   5
ATOM      5  C   UNL     1      35.497 -18.761 -29.481  1.00  0.00     0.028 C 
BRANCH   5   6
ATOM      6  C   UNL     1      36.791 -18.035 -29.864  1.00  0.00     0.156 C 
BRANCH   6   7
ATOM      7  O   UNL     1      37.788 -18.948 -30.234  1.00  0.00    -0.396 OA
ATOM      8  H   UNL     1      38.611 -18.417 -30.402  1.00  0.00     0.210 HD
ENDBRANCH   6   7
ENDBRANCH   5   6
ENDBRANCH   1   5
TORSDOF 5
ENDMDL
MODEL 2
REMARK VINA RESULT:    -4.179      0.913      1.193
REMARK INTER + INTRA:          -5.367
REMARK INTER:                  -5.312
REMARK INTRA:                  -0.056
REMARK UNBOUND:                -0.088
REMARK SMILES CCCCCCO
REMARK SMILES IDX 4 1 3 2 2 3 1 4 5 5 6 6 7 7
REMARK H PARENT 7 8
REMARK Flexibility Score: inf
ROOT
ATOM      1  C   UNL     1      35.232 -18.581 -29.111  1.00  0.00     0.002 C 
ENDROOT
BRANCH   1   2
ATOM      2  C   UNL     1      34.113 -17.864 -28.339  1.00  0.00    -0.000 C 
BRANCH   2   3
ATOM      3  C   UNL     1      32.885 -18.758 -28.114  1.00  0.00    -0.003 C 
ATOM      4  C   UNL     1      32.169 -19.050 -29.429  1.00  0.00     0.004 C 
ENDBRANCH   2   3
ENDBRANCH   1   2
BRANCH   1   5
ATOM      5  C   UNL     1      36.359 -17.627 -29.540  1.00  0.00     0.028 C 
BRANCH   5   6
ATOM      6  C   UNL     1      37.425 -18.348 -30.373  1.00  0.00     0.156 C 
BRANCH   6   7
ATOM      7  O   UNL     1      37.111 -18.300 -31.738  1.00  0.00    -0.396 OA
ATOM      8  H   UNL     1      36.339 -17.682 -31.831  1.00  0.00     0.210 HD
ENDBRANCH   6   7
ENDBRANCH   5   6
ENDBRANCH   1   5
TORSDOF 5
ENDMDL
MODEL 3
REMARK VINA RESULT:    -3.846      1.370      1.370
REMARK INTER + INTRA:          -4.946
REMARK INTER:                  -4.902
REMARK INTRA:                  -0.044
REMARK UNBOUND:                -0.088
REMARK SMILES CCCCCCO
REMARK SMILES IDX 4 1 3 2 2 3 1 4 5 5 6 6 7 7
REMARK H PARENT 7 8
REMARK Flexibility Score: inf
ROOT
ATOM      1  C   UNL     1      34.608 -18.676 -28.164  1.00  0.00     0.002 C 
ENDROOT
BRANCH   1   2
ATOM      2  C   UNL     1      33.206 -18.070 -28.336  1.00  0.00    -0.000 C 
BRANCH   2   3
ATOM      3  C   UNL     1      32.098 -19.133 -28.323  1.00  0.00    -0.003 C 
ATOM      4  C   UNL     1      31.685 -19.514 -29.741  1.00  0.00     0.004 C 
ENDBRANCH   2   3
ENDBRANCH   1   2
BRANCH   1   5
ATOM      5  C   UNL     1      35.382 -18.761 -29.490  1.00  0.00     0.028 C 
BRANCH   5   6
ATOM      6  C   UNL     1      36.464 -17.679 -29.583  1.00  0.00     0.156 C 
BRANCH   6   7
ATOM      7  O   UNL     1      35.948 -16.422 -29.239  1.00  0.00    -0.396 OA
ATOM      8  H   UNL     1      36.456 -15.752 -29.768  1.00  0.00     0.210 HD
ENDBRANCH   6   7
ENDBRANCH   5   6
ENDBRANCH   1   5
TORSDOF 5
ENDMDL
MODEL 4
REMARK VINA RESULT:    -3.841      2.101      2.302
REMARK INTER + INTRA:          -4.940
REMARK INTER:                  -4.897
REMARK INTRA:                  -0.043
REMARK UNBOUND:                -0.088
REMARK SMILES CCCCCCO
REMARK SMILES IDX 4 1 3 2 2 3 1 4 5 5 6 6 7 7
REMARK H PARENT 7 8
REMARK Flexibility Score: inf
ROOT
ATOM      1  C   UNL     1      33.106 -17.895 -28.111  1.00  0.00     0.002 C 
ENDROOT
BRANCH   1   2
ATOM      2  C   UNL     1      32.156 -19.083 -28.325  1.00  0.00    -0.000 C 
BRANCH   2   3
ATOM      3  C   UNL     1      31.593 -19.139 -29.753  1.00  0.00    -0.003 C 
ATOM      4  C   UNL     1      32.429 -20.058 -30.638  1.00  0.00     0.004 C 
ENDBRANCH   2   3
ENDBRANCH   1   2
BRANCH   1   5
ATOM      5  C   UNL     1      34.565 -18.233 -28.460  1.00  0.00     0.028 C 
BRANCH   5   6
ATOM      6  C   UNL     1      35.370 -16.977 -28.807  1.00  0.00     0.156 C 
BRANCH   6   7
ATOM      7  O   UNL     1      34.699 -15.819 -28.388  1.00  0.00    -0.396 OA
ATOM      8  H   UNL     1      34.149 -16.079 -27.602  1.00  0.00     0.210 HD
ENDBRANCH   6   7
ENDBRANCH   5   6
ENDBRANCH   1   5
TORSDOF 5
ENDMDL
MODEL 5
REMARK VINA RESULT:    -3.799      1.961      3.997
REMARK INTER + INTRA:          -4.887
REMARK INTER:                  -4.767
REMARK INTRA:                  -0.120
REMARK UNBOUND:                -0.088
REMARK SMILES CCCCCCO
REMARK SMILES IDX 4 1 3 2 2 3 1 4 5 5 6 6 7 7
REMARK H PARENT 7 8
REMARK Flexibility Score: inf
ROOT
ATOM      1  C   UNL     1      33.415 -18.679 -28.055  1.00  0.00     0.002 C 
ENDROOT
BRANCH   1   2
ATOM      2  C   UNL     1      34.618 -17.815 -28.466  1.00  0.00    -0.000 C 
BRANCH   2   3
ATOM      3  C   UNL     1      35.678 -18.610 -29.242  1.00  0.00    -0.003 C 
ATOM      4  C   UNL     1      36.725 -17.682 -29.849  1.00  0.00     0.004 C 
ENDBRANCH   2   3
ENDBRANCH   1   2
BRANCH   1   5
ATOM      5  C   UNL     1      32.160 -18.381 -28.893  1.00  0.00     0.028 C 
BRANCH   5   6
ATOM      6  C   UNL     1      31.743 -19.591 -29.736  1.00  0.00     0.156 C 
BRANCH   6   7
ATOM      7  O   UNL     1      32.740 -19.923 -30.664  1.00  0.00    -0.396 OA
ATOM      8  H   UNL     1      33.128 -19.065 -30.983  1.00  0.00     0.210 HD
ENDBRANCH   6   7
ENDBRANCH   5   6
ENDBRANCH   1   5
TORSDOF 5
ENDMDL
MODEL 6
REMARK VINA RESULT:    -3.658      2.064      3.257
REMARK INTER + INTRA:          -4.708
REMARK INTER:                  -4.626
REMARK INTRA:                  -0.083
REMARK UNBOUND:                -0.088
REMARK SMILES CCCCCCO
REMARK SMILES IDX 4 1 3 2 2 3 1 4 5 5 6 6 7 7
REMARK H PARENT 7 8
REMARK Flexibility Score: inf
ROOT
ATOM      1  C   UNL     1      31.771 -18.666 -29.451  1.00  0.00     0.002 C 
ENDROOT
BRANCH   1   2
ATOM      2  C   UNL     1      32.332 -18.447 -28.037  1.00  0.00    -0.000 C 
BRANCH   2   3
ATOM      3  C   UNL     1      33.864 -18.339 -28.019  1.00  0.00    -0.003 C 
ATOM      4  C   UNL     1      34.317 -16.911 -28.303  1.00  0.00     0.004 C 
ENDBRANCH   2   3
ENDBRANCH   1   2
BRANCH   1   5
ATOM      5  C   UNL     1      32.167 -20.030 -30.040  1.00  0.00     0.028 C 
BRANCH   5   6
ATOM      6  C   UNL     1      33.081 -19.876 -31.260  1.00  0.00     0.156 C 
BRANCH   6   7
ATOM      7  O   UNL     1      34.429 -19.851 -30.877  1.00  0.00    -0.396 OA
ATOM      8  H   UNL     1      34.514 -19.149 -30.179  1.00  0.00     0.210 HD
ENDBRANCH   6   7
ENDBRANCH   5   6
ENDBRANCH   1   5
TORSDOF 5
ENDMDL
MODEL 7
REMARK VINA RESULT:    -3.620      2.579      4.437
REMARK INTER + INTRA:          -4.661
REMARK INTER:                  -4.616
REMARK INTRA:                  -0.045
REMARK UNBOUND:                -0.088
REMARK SMILES CCCCCCO
REMARK SMILES IDX 4 1 3 2 2 3 1 4 5 5 6 6 7 7
REMARK H PARENT 7 8
REMARK Flexibility Score: inf
ROOT
ATOM      1  C   UNL     1      35.137 -18.682 -29.208  1.00  0.00     0.002 C 
ENDROOT
BRANCH   1   2
ATOM      2  C   UNL     1      36.215 -17.606 -29.408  1.00  0.00    -0.000 C 
BRANCH   2   3
ATOM      3  C   UNL     1      37.323 -18.051 -30.374  1.00  0.00    -0.003 C 
ATOM      4  C   UNL     1      36.846 -17.986 -31.822  1.00  0.00     0.004 C 
ENDBRANCH   2   3
ENDBRANCH   1   2
BRANCH   1   5
ATOM      5  C   UNL     1      34.224 -18.389 -28.006  1.00  0.00     0.028 C 
BRANCH   5   6
ATOM      6  C   UNL     1      32.760 -18.718 -28.314  1.00  0.00     0.156 C 
BRANCH   6   7
ATOM      7  O   UNL     1      31.954 -17.577 -28.196  1.00  0.00    -0.396 OA
ATOM      8  H   UNL     1      31.379 -17.550 -29.005  1.00  0.00     0.210 HD
ENDBRANCH   6   7
ENDBRANCH   5   6
ENDBRANCH   1   5
TORSDOF 5
ENDMDL
MODEL 8
REMARK VINA RESULT:    -3.479      1.101      1.434
REMARK INTER + INTRA:          -4.483
REMARK INTER:                  -4.404
REMARK INTRA:                  -0.079
REMARK UNBOUND:                -0.088
REMARK SMILES CCCCCCO
REMARK SMILES IDX 4 1 3 2 2 3 1 4 5 5 6 6 7 7
REMARK H PARENT 7 8
REMARK Flexibility Score: inf
ROOT
ATOM      1  C   UNL     1      34.709 -18.589 -29.031  1.00  0.00     0.002 C 
ENDROOT
BRANCH   1   2
ATOM      2  C   UNL     1      33.991 -19.336 -30.166  1.00  0.00    -0.000 C 
BRANCH   2   3
ATOM      3  C   UNL     1      32.487 -19.506 -29.903  1.00  0.00    -0.003 C 
ATOM      4  C   UNL     1      32.111 -18.995 -28.516  1.00  0.00     0.004 C 
ENDBRANCH   2   3
ENDBRANCH   1   2
BRANCH   1   5
ATOM      5  C   UNL     1      36.236 -18.571 -29.208  1.00  0.00     0.028 C 
BRANCH   5   6
ATOM      6  C   UNL     1      36.639 -18.038 -30.587  1.00  0.00     0.156 C 
BRANCH   6   7
ATOM      7  O   UNL     1      37.897 -17.421 -30.538  1.00  0.00    -0.396 OA
ATOM      8  H   UNL     1      38.565 -18.147 -30.417  1.00  0.00     0.210 HD
ENDBRANCH   6   7
ENDBRANCH   5   6
ENDBRANCH   1   5
TORSDOF 5
ENDMDL
MODEL 9
REMARK VINA RESULT:    -3.409      1.447      2.139
REMARK INTER + INTRA:          -4.394
REMARK INTER:                  -4.363
REMARK INTRA:                  -0.031
REMARK UNBOUND:                -0.088
REMARK SMILES CCCCCCO
REMARK SMILES IDX 4 1 3 2 2 3 1 4 5 5 6 6 7 7
REMARK H PARENT 7 8
REMARK Flexibility Score: inf
ROOT
ATOM      1  C   UNL     1      35.529 -18.805 -29.624  1.00  0.00     0.002 C 
ENDROOT
BRANCH   1   2
ATOM      2  C   UNL     1      34.838 -18.652 -28.260  1.00  0.00    -0.000 C 
BRANCH   2   3
ATOM      3  C   UNL     1      33.660 -17.669 -28.301  1.00  0.00    -0.003 C 
ATOM      4  C   UNL     1      34.128 -16.239 -28.050  1.00  0.00     0.004 C 
ENDBRANCH   2   3
ENDBRANCH   1   2
BRANCH   1   5
ATOM      5  C   UNL     1      36.750 -17.883 -29.774  1.00  0.00     0.028 C 
BRANCH   5   6
ATOM      6  C   UNL     1      37.785 -18.466 -30.743  1.00  0.00     0.156 C 
BRANCH   6   7
ATOM      7  O   UNL     1      38.403 -19.598 -30.194  1.00  0.00    -0.396 OA
ATOM      8  H   UNL     1      39.379 -19.415 -30.191  1.00  0.00     0.210 HD
ENDBRANCH   6   7
ENDBRANCH   5   6
ENDBRANCH   1   5
TORSDOF 5
ENDMDL
