MODEL 1
REMARK VINA RESULT:    -3.409      0.000      0.000
REMARK INTER + INTRA:          -3.819
REMARK INTER:                  -3.808
REMARK INTRA:                  -0.011
REMARK UNBOUND:                -0.011
REMARK SMILES CCCC(=O)[O-]
REMARK SMILES IDX 3 1 4 2 5 3 6 4 2 5 1 6
REMARK H PARENT
REMARK Flexibility Score: inf
ROOT
ATOM      1  C   UNL     1     -14.271   4.240  13.549  1.00  0.00     0.052 C 
ENDROOT
BRANCH   1   2
ATOM      2  C   UNL     1     -12.869   4.755  13.638  1.00  0.00     0.041 C 
ATOM      3  O   UNL     1     -12.438   5.236  14.719  1.00  0.00    -0.550 OA
ATOM      4  O   UNL     1     -12.054   4.750  12.513  1.00  0.00    -0.550 OA
ENDBRANCH   1   2
BRANCH   1   5
ATOM      5  C   UNL     1     -14.629   3.907  12.098  1.00  0.00     0.003 C 
ATOM      6  C   UNL     1     -15.914   3.088  12.020  1.00  0.00     0.004 C 
ENDBRANCH   1   5
TORSDOF 2
ENDMDL
MODEL 2
REMARK VINA RESULT:    -3.398      0.083      1.323
REMARK INTER + INTRA:          -3.806
REMARK INTER:                  -3.793
REMARK INTRA:                  -0.013
REMARK UNBOUND:                -0.011
REMARK SMILES CCCC(=O)[O-]
REMARK SMILES IDX 3 1 4 2 5 3 6 4 2 5 1 6
REMARK H PARENT
REMARK Flexibility Score: inf
ROOT
ATOM      1  C   UNL     1     -14.283   4.259  13.523  1.00  0.00     0.052 C 
ENDROOT
BRANCH   1   2
ATOM      2  C   UNL     1     -12.873   4.753  13.592  1.00  0.00     0.041 C 
ATOM      3  O   UNL     1     -12.136   4.708  12.572  1.00  0.00    -0.550 OA
ATOM      4  O   UNL     1     -12.358   5.221  14.794  1.00  0.00    -0.550 OA
ENDBRANCH   1   2
BRANCH   1   5
ATOM      5  C   UNL     1     -14.625   3.810  12.100  1.00  0.00     0.003 C 
ATOM      6  C   UNL     1     -15.964   3.079  12.058  1.00  0.00     0.004 C 
ENDBRANCH   1   5
TORSDOF 2
ENDMDL
MODEL 3
REMARK VINA RESULT:    -3.371      1.737      2.278
REMARK INTER + INTRA:          -3.776
REMARK INTER:                  -3.756
REMARK INTRA:                  -0.020
REMARK UNBOUND:                -0.011
REMARK SMILES CCCC(=O)[O-]
REMARK SMILES IDX 3 1 4 2 5 3 6 4 2 5 1 6
REMARK H PARENT
REMARK Flexibility Score: inf
ROOT
ATOM      1  C   UNL     1     -14.160   4.479  13.630  1.00  0.00     0.052 C 
ENDROOT
BRANCH   1   2
ATOM      2  C   UNL     1     -13.570   5.118  14.847  1.00  0.00     0.041 C 
ATOM      3  O   UNL     1     -12.328   5.310  14.923  1.00  0.00    -0.550 OA
ATOM      4  O   UNL     1     -14.385   5.458  15.919  1.00  0.00    -0.550 OA
ENDBRANCH   1   2
BRANCH   1   5
ATOM      5  C   UNL     1     -13.165   4.520  12.468  1.00  0.00     0.003 C 
ATOM      6  C   UNL     1     -13.833   5.007  11.185  1.00  0.00     0.004 C 
ENDBRANCH   1   5
TORSDOF 2
ENDMDL
MODEL 4
REMARK VINA RESULT:    -3.284      1.915      2.184
REMARK INTER + INTRA:          -3.679
REMARK INTER:                  -3.643
REMARK INTRA:                  -0.036
REMARK UNBOUND:                -0.011
REMARK SMILES CCCC(=O)[O-]
REMARK SMILES IDX 3 1 4 2 5 3 6 4 2 5 1 6
REMARK H PARENT
REMARK Flexibility Score: inf
ROOT
ATOM      1  C   UNL     1     -13.916   4.856  13.472  1.00  0.00     0.052 C 
ENDROOT
BRANCH   1   2
ATOM      2  C   UNL     1     -13.493   5.137  14.879  1.00  0.00     0.041 C 
ATOM      3  O   UNL     1     -14.347   5.465  15.744  1.00  0.00    -0.550 OA
ATOM      4  O   UNL     1     -12.149   5.083  15.225  1.00  0.00    -0.550 OA
ENDBRANCH   1   2
BRANCH   1   5
ATOM      5  C   UNL     1     -12.715   4.424  12.627  1.00  0.00     0.003 C 
ATOM      6  C   UNL     1     -12.822   2.957  12.223  1.00  0.00     0.004 C 
ENDBRANCH   1   5
TORSDOF 2
ENDMDL
MODEL 5
REMARK VINA RESULT:    -3.212     19.371     19.647
REMARK INTER + INTRA:          -3.599
REMARK INTER:                  -3.592
REMARK INTRA:                  -0.006
REMARK UNBOUND:                -0.011
REMARK SMILES CCCC(=O)[O-]
REMARK SMILES IDX 3 1 4 2 5 3 6 4 2 5 1 6
REMARK H PARENT
REMARK Flexibility Score: inf
ROOT
ATOM      1  C   UNL     1     -19.563  19.485  22.873  1.00  0.00     0.052 C 
ENDROOT
BRANCH   1   2
ATOM      2  C   UNL     1     -19.426  19.587  24.359  1.00  0.00     0.041 C 
ATOM      3  O   UNL     1     -18.398  20.109  24.866  1.00  0.00    -0.550 OA
ATOM      4  O   UNL     1     -20.410  19.062  25.187  1.00  0.00    -0.550 OA
ENDBRANCH   1   2
BRANCH   1   5
ATOM      5  C   UNL     1     -20.945  19.971  22.428  1.00  0.00     0.003 C 
ATOM      6  C   UNL     1     -21.062  19.986  20.907  1.00  0.00     0.004 C 
ENDBRANCH   1   5
TORSDOF 2
ENDMDL
MODEL 6
REMARK VINA RESULT:    -3.193      1.658      2.717
REMARK INTER + INTRA:          -3.577
REMARK INTER:                  -3.560
REMARK INTRA:                  -0.017
REMARK UNBOUND:                -0.011
REMARK SMILES CCCC(=O)[O-]
REMARK SMILES IDX 3 1 4 2 5 3 6 4 2 5 1 6
REMARK H PARENT
REMARK Flexibility Score: inf
ROOT
ATOM      1  C   UNL     1     -14.083   4.463  13.290  1.00  0.00     0.052 C 
ENDROOT
BRANCH   1   2
ATOM      2  C   UNL     1     -13.136   4.629  12.144  1.00  0.00     0.041 C 
ATOM      3  O   UNL     1     -11.913   4.839  12.358  1.00  0.00    -0.550 OA
ATOM      4  O   UNL     1     -13.611   4.600  10.839  1.00  0.00    -0.550 OA
ENDBRANCH   1   2
BRANCH   1   5
ATOM      5  C   UNL     1     -13.525   5.133  14.548  1.00  0.00     0.003 C 
ATOM      6  C   UNL     1     -13.012   4.098  15.545  1.00  0.00     0.004 C 
ENDBRANCH   1   5
TORSDOF 2
ENDMDL
MODEL 7
REMARK VINA RESULT:    -3.092      2.443      3.386
REMARK INTER + INTRA:          -3.465
REMARK INTER:                  -3.455
REMARK INTRA:                  -0.010
REMARK UNBOUND:                -0.011
REMARK SMILES CCCC(=O)[O-]
REMARK SMILES IDX 3 1 4 2 5 3 6 4 2 5 1 6
REMARK H PARENT
REMARK Flexibility Score: inf
ROOT
ATOM      1  C   UNL     1     -14.125   4.799  12.349  1.00  0.00     0.052 C 
ENDROOT
BRANCH   1   2
ATOM      2  C   UNL     1     -14.185   4.076  11.041  1.00  0.00     0.041 C 
ATOM      3  O   UNL     1     -15.263   4.027  10.393  1.00  0.00    -0.550 OA
ATOM      4  O   UNL     1     -13.063   3.414  10.560  1.00  0.00    -0.550 OA
ENDBRANCH   1   2
BRANCH   1   5
ATOM      5  C   UNL     1     -12.874   4.390  13.131  1.00  0.00     0.003 C 
ATOM      6  C   UNL     1     -12.902   4.951  14.550  1.00  0.00     0.004 C 
ENDBRANCH   1   5
TORSDOF 2
ENDMDL
MODEL 8
REMARK VINA RESULT:    -2.785      7.631      8.246
REMARK INTER + INTRA:          -3.122
REMARK INTER:                  -3.113
REMARK INTRA:                  -0.009
REMARK UNBOUND:                -0.011
REMARK SMILES CCCC(=O)[O-]
REMARK SMILES IDX 3 1 4 2 5 3 6 4 2 5 1 6
REMARK H PARENT
REMARK Flexibility Score: inf
ROOT
ATOM      1  C   UNL     1     -18.751   6.235  19.736  1.00  0.00     0.052 C 
ENDROOT
BRANCH   1   2
ATOM      2  C   UNL     1     -17.282   6.079  19.499  1.00  0.00     0.041 C 
ATOM      3  O   UNL     1     -16.565   5.481  20.343  1.00  0.00    -0.550 OA
ATOM      4  O   UNL     1     -16.697   6.635  18.369  1.00  0.00    -0.550 OA
ENDBRANCH   1   2
BRANCH   1   5
ATOM      5  C   UNL     1     -19.332   4.963  20.357  1.00  0.00     0.003 C 
ATOM      6  C   UNL     1     -20.805   4.795  19.998  1.00  0.00     0.004 C 
ENDBRANCH   1   5
TORSDOF 2
ENDMDL
MODEL 9
REMARK VINA RESULT:    -2.764      7.023      7.775
REMARK INTER + INTRA:          -3.099
REMARK INTER:                  -3.086
REMARK INTRA:                  -0.013
REMARK UNBOUND:                -0.011
REMARK SMILES CCCC(=O)[O-]
REMARK SMILES IDX 3 1 4 2 5 3 6 4 2 5 1 6
REMARK H PARENT
REMARK Flexibility Score: inf
ROOT
ATOM      1  C   UNL     1     -16.844   4.830  20.267  1.00  0.00     0.052 C 
ENDROOT
BRANCH   1   2
ATOM      2  C   UNL     1     -16.967   5.992  19.333  1.00  0.00     0.041 C 
ATOM      3  O   UNL     1     -17.643   7.001  19.663  1.00  0.00    -0.550 OA
ATOM      4  O   UNL     1     -16.373   5.941  18.078  1.00  0.00    -0.550 OA
ENDBRANCH   1   2
BRANCH   1   5
ATOM      5  C   UNL     1     -15.502   4.120  20.066  1.00  0.00     0.003 C 
ATOM      6  C   UNL     1     -14.767   3.943  21.390  1.00  0.00     0.004 C 
ENDBRANCH   1   5
TORSDOF 2
ENDMDL
