MODEL 1
REMARK VINA RESULT:    -4.734      0.000      0.000
REMARK INTER + INTRA:          -7.487
REMARK INTER:                  -6.395
REMARK INTRA:                  -1.092
REMARK UNBOUND:                -1.092
REMARK SMILES C=CC(C)=CCC=C(C)CCC=C(C)C
REMARK SMILES IDX 8 1 7 2 9 3 10 4 11 5 12 6 14 7 13 8 15 9 6 10 5 11 3 12
REMARK SMILES IDX 4 13 2 14 1 15
REMARK H PARENT
REMARK Flexibility Score: inf
ROOT
ATOM      1  C   UNL     1     137.869 139.307 133.640  1.00  0.00    -0.077 C 
ATOM      2  C   UNL     1     138.033 140.088 134.733  1.00  0.00    -0.024 C 
ATOM      3  C   UNL     1     138.894 138.272 133.239  1.00  0.00     0.039 C 
ENDROOT
BRANCH   1   4
ATOM      4  C   UNL     1     136.626 139.477 132.794  1.00  0.00     0.034 C 
BRANCH   4   5
ATOM      5  C   UNL     1     135.664 140.478 133.443  1.00  0.00     0.032 C 
BRANCH   5   6
ATOM      6  C   UNL     1     134.502 139.767 134.091  1.00  0.00    -0.028 C 
ATOM      7  C   UNL     1     134.824 140.917 136.287  1.00  0.00     0.039 C 
ATOM      8  C   UNL     1     134.093 139.983 135.358  1.00  0.00    -0.080 C 
ATOM      9  C   UNL     1     132.903 139.231 135.897  1.00  0.00     0.039 C 
ENDBRANCH   5   6
ENDBRANCH   4   5
ENDBRANCH   1   4
BRANCH   2  10
ATOM     10  C   UNL     1     139.237 140.039 135.643  1.00  0.00     0.055 C 
BRANCH  10  11
ATOM     11  C   UNL     1     138.992 139.156 136.841  1.00  0.00    -0.020 C 
ATOM     12  C   UNL     1     139.706 138.055 137.158  1.00  0.00    -0.055 C 
ATOM     13  C   UNL     1     140.880 137.583 136.326  1.00  0.00     0.044 C 
BRANCH  12  14
ATOM     14  C   UNL     1     139.270 137.265 138.340  1.00  0.00    -0.005 C 
ATOM     15  C   UNL     1     139.775 137.425 139.564  1.00  0.00     0.009 C 
ENDBRANCH  12  14
ENDBRANCH  10  11
ENDBRANCH   2  10
TORSDOF 6
ENDMDL
MODEL 2
REMARK VINA RESULT:    -4.660      3.594      5.655
REMARK INTER + INTRA:          -7.386
REMARK INTER:                  -6.306
REMARK INTRA:                  -1.080
REMARK UNBOUND:                -1.092
REMARK SMILES C=CC(C)=CCC=C(C)CCC=C(C)C
REMARK SMILES IDX 8 1 7 2 9 3 10 4 11 5 12 6 14 7 13 8 15 9 6 10 5 11 3 12
REMARK SMILES IDX 4 13 2 14 1 15
REMARK H PARENT
REMARK Flexibility Score: inf
ROOT
ATOM      1  C   UNL     1     139.235 134.839 133.729  1.00  0.00    -0.077 C 
ATOM      2  C   UNL     1     140.058 134.667 134.790  1.00  0.00    -0.024 C 
ATOM      3  C   UNL     1     138.215 133.796 133.335  1.00  0.00     0.039 C 
ENDROOT
BRANCH   1   4
ATOM      4  C   UNL     1     139.341 136.109 132.913  1.00  0.00     0.034 C 
BRANCH   4   5
ATOM      5  C   UNL     1     140.379 137.057 133.523  1.00  0.00     0.032 C 
BRANCH   5   6
ATOM      6  C   UNL     1     139.708 138.216 134.216  1.00  0.00    -0.028 C 
ATOM      7  C   UNL     1     140.897 137.811 136.377  1.00  0.00     0.039 C 
ATOM      8  C   UNL     1     139.960 138.587 135.489  1.00  0.00    -0.080 C 
ATOM      9  C   UNL     1     139.246 139.778 136.075  1.00  0.00     0.039 C 
ENDBRANCH   5   6
ENDBRANCH   4   5
ENDBRANCH   1   4
BRANCH   2  10
ATOM     10  C   UNL     1     140.074 133.439 135.667  1.00  0.00     0.055 C 
BRANCH  10  11
ATOM     11  C   UNL     1     139.160 133.593 136.856  1.00  0.00    -0.020 C 
ATOM     12  C   UNL     1     138.107 132.797 137.140  1.00  0.00    -0.055 C 
ATOM     13  C   UNL     1     137.730 131.613 136.275  1.00  0.00     0.044 C 
BRANCH  12  14
ATOM     14  C   UNL     1     137.272 133.150 138.319  1.00  0.00    -0.005 C 
ATOM     15  C   UNL     1     136.224 133.972 138.263  1.00  0.00     0.009 C 
ENDBRANCH  12  14
ENDBRANCH  10  11
ENDBRANCH   2  10
TORSDOF 6
ENDMDL
MODEL 3
REMARK VINA RESULT:    -4.641      3.649      6.370
REMARK INTER + INTRA:          -7.360
REMARK INTER:                  -5.486
REMARK INTRA:                  -1.874
REMARK UNBOUND:                -1.092
REMARK SMILES C=CC(C)=CCC=C(C)CCC=C(C)C
REMARK SMILES IDX 8 1 7 2 9 3 10 4 11 5 12 6 14 7 13 8 15 9 6 10 5 11 3 12
REMARK SMILES IDX 4 13 2 14 1 15
REMARK H PARENT
REMARK Flexibility Score: inf
ROOT
ATOM      1  C   UNL     1     137.588 133.105 137.294  1.00  0.00    -0.077 C 
ATOM      2  C   UNL     1     138.617 133.753 137.888  1.00  0.00    -0.024 C 
ATOM      3  C   UNL     1     136.156 133.555 137.470  1.00  0.00     0.039 C 
ENDROOT
BRANCH   1   4
ATOM      4  C   UNL     1     137.877 131.896 136.431  1.00  0.00     0.034 C 
BRANCH   4   5
ATOM      5  C   UNL     1     138.817 132.268 135.279  1.00  0.00     0.032 C 
BRANCH   5   6
ATOM      6  C   UNL     1     138.267 133.429 134.489  1.00  0.00    -0.028 C 
ATOM      7  C   UNL     1     140.369 134.766 134.700  1.00  0.00     0.039 C 
ATOM      8  C   UNL     1     138.968 134.543 134.191  1.00  0.00    -0.080 C 
ATOM      9  C   UNL     1     138.325 135.633 133.373  1.00  0.00     0.039 C 
ENDBRANCH   5   6
ENDBRANCH   4   5
ENDBRANCH   1   4
BRANCH   2  10
ATOM     10  C   UNL     1     138.463 134.952 138.792  1.00  0.00     0.055 C 
BRANCH  10  11
ATOM     11  C   UNL     1     139.234 136.139 138.277  1.00  0.00    -0.020 C 
ATOM     12  C   UNL     1     138.780 137.033 137.373  1.00  0.00    -0.055 C 
ATOM     13  C   UNL     1     137.392 136.944 136.773  1.00  0.00     0.044 C 
BRANCH  12  14
ATOM     14  C   UNL     1     139.714 138.101 136.926  1.00  0.00    -0.005 C 
ATOM     15  C   UNL     1     140.912 137.859 136.392  1.00  0.00     0.009 C 
ENDBRANCH  12  14
ENDBRANCH  10  11
ENDBRANCH   2  10
TORSDOF 6
ENDMDL
MODEL 4
REMARK VINA RESULT:    -4.624      5.148      6.828
REMARK INTER + INTRA:          -7.338
REMARK INTER:                  -5.467
REMARK INTRA:                  -1.871
REMARK UNBOUND:                -1.092
REMARK SMILES C=CC(C)=CCC=C(C)CCC=C(C)C
REMARK SMILES IDX 8 1 7 2 9 3 10 4 11 5 12 6 14 7 13 8 15 9 6 10 5 11 3 12
REMARK SMILES IDX 4 13 2 14 1 15
REMARK H PARENT
REMARK Flexibility Score: inf
ROOT
ATOM      1  C   UNL     1     133.124 135.069 137.415  1.00  0.00    -0.077 C 
ATOM      2  C   UNL     1     133.753 134.014 137.983  1.00  0.00    -0.024 C 
ATOM      3  C   UNL     1     133.584 136.489 137.645  1.00  0.00     0.039 C 
ENDROOT
BRANCH   1   4
ATOM      4  C   UNL     1     131.924 134.820 136.527  1.00  0.00     0.034 C 
BRANCH   4   5
ATOM      5  C   UNL     1     132.283 133.852 135.394  1.00  0.00     0.032 C 
BRANCH   5   6
ATOM      6  C   UNL     1     133.471 134.355 134.613  1.00  0.00    -0.028 C 
ATOM      7  C   UNL     1     134.722 132.202 134.834  1.00  0.00     0.039 C 
ATOM      8  C   UNL     1     134.558 133.610 134.324  1.00  0.00    -0.080 C 
ATOM      9  C   UNL     1     135.680 134.208 133.514  1.00  0.00     0.039 C 
ENDBRANCH   5   6
ENDBRANCH   4   5
ENDBRANCH   1   4
BRANCH   2  10
ATOM     10  C   UNL     1     134.940 134.127 138.909  1.00  0.00     0.055 C 
BRANCH  10  11
ATOM     11  C   UNL     1     136.135 133.379 138.374  1.00  0.00    -0.020 C 
ATOM     12  C   UNL     1     137.014 133.858 137.468  1.00  0.00    -0.055 C 
ATOM     13  C   UNL     1     136.900 135.252 136.887  1.00  0.00     0.044 C 
BRANCH  12  14
ATOM     14  C   UNL     1     138.091 132.946 137.000  1.00  0.00    -0.005 C 
ATOM     15  C   UNL     1     137.862 131.773 136.410  1.00  0.00     0.009 C 
ENDBRANCH  12  14
ENDBRANCH  10  11
ENDBRANCH   2  10
TORSDOF 6
ENDMDL
MODEL 5
REMARK VINA RESULT:    -4.621      5.591      7.928
REMARK INTER + INTRA:          -7.333
REMARK INTER:                  -6.259
REMARK INTRA:                  -1.075
REMARK UNBOUND:                -1.092
REMARK SMILES C=CC(C)=CCC=C(C)CCC=C(C)C
REMARK SMILES IDX 8 1 7 2 9 3 10 4 11 5 12 6 14 7 13 8 15 9 6 10 5 11 3 12
REMARK SMILES IDX 4 13 2 14 1 15
REMARK H PARENT
REMARK Flexibility Score: inf
ROOT
ATOM      1  C   UNL     1     134.787 133.534 133.583  1.00  0.00    -0.077 C 
ATOM      2  C   UNL     1     134.600 132.759 134.677  1.00  0.00    -0.024 C 
ATOM      3  C   UNL     1     133.688 134.413 133.032  1.00  0.00     0.039 C 
ENDROOT
BRANCH   1   4
ATOM      4  C   UNL     1     136.132 133.519 132.891  1.00  0.00     0.034 C 
BRANCH   4   5
ATOM      5  C   UNL     1     137.016 132.400 133.453  1.00  0.00     0.032 C 
BRANCH   5   6
ATOM      6  C   UNL     1     138.212 132.971 134.174  1.00  0.00    -0.028 C 
ATOM      7  C   UNL     1     137.685 131.782 136.309  1.00  0.00     0.039 C 
ATOM      8  C   UNL     1     138.543 132.672 135.447  1.00  0.00    -0.080 C 
ATOM      9  C   UNL     1     139.776 133.282 136.061  1.00  0.00     0.039 C 
ENDBRANCH   5   6
ENDBRANCH   4   5
ENDBRANCH   1   4
BRANCH   2  10
ATOM     10  C   UNL     1     133.302 132.662 135.441  1.00  0.00     0.055 C 
BRANCH  10  11
ATOM     11  C   UNL     1     133.375 133.395 136.757  1.00  0.00    -0.020 C 
ATOM     12  C   UNL     1     132.749 134.556 137.039  1.00  0.00    -0.055 C 
ATOM     13  C   UNL     1     131.860 135.262 136.037  1.00  0.00     0.044 C 
BRANCH  12  14
ATOM     14  C   UNL     1     133.000 135.172 138.370  1.00  0.00    -0.005 C 
ATOM     15  C   UNL     1     133.972 136.055 138.604  1.00  0.00     0.009 C 
ENDBRANCH  12  14
ENDBRANCH  10  11
ENDBRANCH   2  10
TORSDOF 6
ENDMDL
MODEL 6
REMARK VINA RESULT:    -4.602      4.946      7.765
REMARK INTER + INTRA:          -7.308
REMARK INTER:                  -6.025
REMARK INTRA:                  -1.282
REMARK UNBOUND:                -1.092
REMARK SMILES C=CC(C)=CCC=C(C)CCC=C(C)C
REMARK SMILES IDX 8 1 7 2 9 3 10 4 11 5 12 6 14 7 13 8 15 9 6 10 5 11 3 12
REMARK SMILES IDX 4 13 2 14 1 15
REMARK H PARENT
REMARK Flexibility Score: inf
ROOT
ATOM      1  C   UNL     1     134.151 133.019 134.492  1.00  0.00    -0.077 C 
ATOM      2  C   UNL     1     133.306 133.135 135.544  1.00  0.00    -0.024 C 
ATOM      3  C   UNL     1     134.112 133.984 133.330  1.00  0.00     0.039 C 
ENDROOT
BRANCH   1   4
ATOM      4  C   UNL     1     135.160 131.892 134.479  1.00  0.00     0.034 C 
BRANCH   4   5
ATOM      5  C   UNL     1     136.580 132.436 134.670  1.00  0.00     0.032 C 
BRANCH   5   6
ATOM      6  C   UNL     1     137.038 132.254 136.096  1.00  0.00    -0.028 C 
ATOM      7  C   UNL     1     136.520 134.616 136.726  1.00  0.00     0.039 C 
ATOM      8  C   UNL     1     136.982 133.217 137.039  1.00  0.00    -0.080 C 
ATOM      9  C   UNL     1     137.446 132.917 138.441  1.00  0.00     0.039 C 
ENDBRANCH   5   6
ENDBRANCH   4   5
ENDBRANCH   1   4
BRANCH   2  10
ATOM     10  C   UNL     1     132.238 134.194 135.667  1.00  0.00     0.055 C 
BRANCH  10  11
ATOM     11  C   UNL     1     132.794 135.482 136.219  1.00  0.00    -0.020 C 
ATOM     12  C   UNL     1     132.661 136.698 135.647  1.00  0.00    -0.055 C 
ATOM     13  C   UNL     1     131.898 136.907 134.357  1.00  0.00     0.044 C 
BRANCH  12  14
ATOM     14  C   UNL     1     133.344 137.847 136.299  1.00  0.00    -0.005 C 
ATOM     15  C   UNL     1     132.974 139.118 136.135  1.00  0.00     0.009 C 
ENDBRANCH  12  14
ENDBRANCH  10  11
ENDBRANCH   2  10
TORSDOF 6
ENDMDL
MODEL 7
REMARK VINA RESULT:    -4.579      4.466      6.625
REMARK INTER + INTRA:          -7.277
REMARK INTER:                  -5.965
REMARK INTRA:                  -1.312
REMARK UNBOUND:                -1.092
REMARK SMILES C=CC(C)=CCC=C(C)CCC=C(C)C
REMARK SMILES IDX 8 1 7 2 9 3 10 4 11 5 12 6 14 7 13 8 15 9 6 10 5 11 3 12
REMARK SMILES IDX 4 13 2 14 1 15
REMARK H PARENT
REMARK Flexibility Score: inf
ROOT
ATOM      1  C   UNL     1     139.681 134.214 134.500  1.00  0.00    -0.077 C 
ATOM      2  C   UNL     1     139.578 133.399 135.576  1.00  0.00    -0.024 C 
ATOM      3  C   UNL     1     138.733 134.111 133.329  1.00  0.00     0.039 C 
ENDROOT
BRANCH   1   4
ATOM      4  C   UNL     1     140.778 135.255 134.468  1.00  0.00     0.034 C 
BRANCH   4   5
ATOM      5  C   UNL     1     140.199 136.657 134.692  1.00  0.00     0.032 C 
BRANCH   5   6
ATOM      6  C   UNL     1     140.389 137.096 136.122  1.00  0.00    -0.028 C 
ATOM      7  C   UNL     1     138.026 136.581 136.755  1.00  0.00     0.039 C 
ATOM      8  C   UNL     1     139.429 137.032 137.068  1.00  0.00    -0.080 C 
ATOM      9  C   UNL     1     139.737 137.476 138.475  1.00  0.00     0.039 C 
ENDBRANCH   5   6
ENDBRANCH   4   5
ENDBRANCH   1   4
BRANCH   2  10
ATOM     10  C   UNL     1     138.550 132.303 135.720  1.00  0.00     0.055 C 
BRANCH  10  11
ATOM     11  C   UNL     1     137.251 132.830 136.275  1.00  0.00    -0.020 C 
ATOM     12  C   UNL     1     136.040 132.687 135.697  1.00  0.00    -0.055 C 
ATOM     13  C   UNL     1     135.847 131.941 134.394  1.00  0.00     0.044 C 
BRANCH  12  14
ATOM     14  C   UNL     1     134.878 133.342 136.355  1.00  0.00    -0.005 C 
ATOM     15  C   UNL     1     133.607 133.038 136.085  1.00  0.00     0.009 C 
ENDBRANCH  12  14
ENDBRANCH  10  11
ENDBRANCH   2  10
TORSDOF 6
ENDMDL
MODEL 8
REMARK VINA RESULT:    -4.579      5.027      5.938
REMARK INTER + INTRA:          -7.277
REMARK INTER:                  -6.345
REMARK INTRA:                  -0.932
REMARK UNBOUND:                -1.092
REMARK SMILES C=CC(C)=CCC=C(C)CCC=C(C)C
REMARK SMILES IDX 8 1 7 2 9 3 10 4 11 5 12 6 14 7 13 8 15 9 6 10 5 11 3 12
REMARK SMILES IDX 4 13 2 14 1 15
REMARK H PARENT
REMARK Flexibility Score: inf
ROOT
ATOM      1  C   UNL     1     136.820 132.647 134.157  1.00  0.00    -0.077 C 
ATOM      2  C   UNL     1     137.226 132.763 135.443  1.00  0.00    -0.024 C 
ATOM      3  C   UNL     1     137.795 132.717 133.005  1.00  0.00     0.039 C 
ENDROOT
BRANCH   1   4
ATOM      4  C   UNL     1     135.350 132.445 133.864  1.00  0.00     0.034 C 
BRANCH   4   5
ATOM      5  C   UNL     1     134.564 132.236 135.164  1.00  0.00     0.032 C 
BRANCH   5   6
ATOM      6  C   UNL     1     133.373 133.160 135.227  1.00  0.00    -0.028 C 
ATOM      7  C   UNL     1     133.740 133.718 137.635  1.00  0.00     0.039 C 
ATOM      8  C   UNL     1     133.014 133.860 136.323  1.00  0.00    -0.080 C 
ATOM      9  C   UNL     1     131.817 134.773 136.266  1.00  0.00     0.039 C 
ENDBRANCH   5   6
ENDBRANCH   4   5
ENDBRANCH   1   4
BRANCH   2  10
ATOM     10  C   UNL     1     138.656 132.994 135.869  1.00  0.00     0.055 C 
BRANCH  10  11
ATOM     11  C   UNL     1     138.872 134.410 136.339  1.00  0.00    -0.020 C 
ATOM     12  C   UNL     1     139.679 135.315 135.745  1.00  0.00    -0.055 C 
ATOM     13  C   UNL     1     140.465 134.999 134.490  1.00  0.00     0.044 C 
BRANCH  12  14
ATOM     14  C   UNL     1     139.825 136.644 136.397  1.00  0.00    -0.005 C 
ATOM     15  C   UNL     1     140.778 137.522 136.079  1.00  0.00     0.009 C 
ENDBRANCH  12  14
ENDBRANCH  10  11
ENDBRANCH   2  10
TORSDOF 6
ENDMDL
MODEL 9
REMARK VINA RESULT:    -4.576      3.106      5.889
REMARK INTER + INTRA:          -7.274
REMARK INTER:                  -6.571
REMARK INTRA:                  -0.703
REMARK UNBOUND:                -1.092
REMARK SMILES C=CC(C)=CCC=C(C)CCC=C(C)C
REMARK SMILES IDX 8 1 7 2 9 3 10 4 11 5 12 6 14 7 13 8 15 9 6 10 5 11 3 12
REMARK SMILES IDX 4 13 2 14 1 15
REMARK H PARENT
REMARK Flexibility Score: inf
ROOT
ATOM      1  C   UNL     1     140.162 137.264 134.668  1.00  0.00    -0.077 C 
ATOM      2  C   UNL     1     140.012 138.060 135.753  1.00  0.00    -0.024 C 
ATOM      3  C   UNL     1     139.727 137.706 133.291  1.00  0.00     0.039 C 
ENDROOT
BRANCH   1   4
ATOM      4  C   UNL     1     140.779 135.894 134.840  1.00  0.00     0.034 C 
BRANCH   4   5
ATOM      5  C   UNL     1     139.874 134.814 134.236  1.00  0.00     0.032 C 
BRANCH   5   6
ATOM      6  C   UNL     1     139.375 133.872 135.302  1.00  0.00    -0.028 C 
ATOM      7  C   UNL     1     137.878 132.637 133.725  1.00  0.00     0.039 C 
ATOM      8  C   UNL     1     138.505 132.865 135.077  1.00  0.00    -0.080 C 
ATOM      9  C   UNL     1     138.091 131.967 136.214  1.00  0.00     0.039 C 
ENDBRANCH   5   6
ENDBRANCH   4   5
ENDBRANCH   1   4
BRANCH   2  10
ATOM     10  C   UNL     1     139.388 139.434 135.724  1.00  0.00     0.055 C 
BRANCH  10  11
ATOM     11  C   UNL     1     137.902 139.374 135.973  1.00  0.00    -0.020 C 
ATOM     12  C   UNL     1     136.965 140.045 135.271  1.00  0.00    -0.055 C 
ATOM     13  C   UNL     1     137.317 140.947 134.107  1.00  0.00     0.044 C 
BRANCH  12  14
ATOM     14  C   UNL     1     135.550 139.921 135.712  1.00  0.00    -0.005 C 
ATOM     15  C   UNL     1     134.881 140.893 136.333  1.00  0.00     0.009 C 
ENDBRANCH  12  14
ENDBRANCH  10  11
ENDBRANCH   2  10
TORSDOF 6
ENDMDL
