MODEL 1
REMARK VINA RESULT:    -4.688      0.000      0.000
REMARK INTER + INTRA:          -5.366
REMARK INTER:                  -5.099
REMARK INTRA:                  -0.267
REMARK UNBOUND:                -0.267
REMARK SMILES C=C1C[C@@]2(O)O[C@@]3(C[C@@H]2C(C)C)[C@H](C)CC[C@@H]13
REMARK SMILES IDX 14 1 13 2 15 3 16 4 17 5 7 6 8 7 9 8 4 9 6 10 3 11 2 12 1 13
REMARK SMILES IDX 10 14 11 15 12 16 5 17
REMARK H PARENT 5 18
REMARK Flexibility Score: inf
ROOT
ATOM      1  C   UNL     1      25.972   6.607  26.536  1.00  0.00     0.011 C 
ATOM      2  C   UNL     1      25.380   5.746  25.403  1.00  0.00     0.019 C 
ATOM      3  C   UNL     1      25.169   6.597  24.143  1.00  0.00     0.007 C 
ATOM      4  C   UNL     1      23.703   7.043  24.144  1.00  0.00     0.011 C 
ATOM      5  C   UNL     1      23.027   6.349  25.334  1.00  0.00     0.047 C 
ATOM      6  C   UNL     1      23.975   5.194  25.708  1.00  0.00     0.081 C 
ATOM      7  C   UNL     1      23.745   4.681  27.136  1.00  0.00     0.046 C 
ATOM      8  C   UNL     1      22.730   3.554  26.942  1.00  0.00     0.054 C 
ATOM      9  C   UNL     1      22.546   3.517  25.398  1.00  0.00     0.173 C 
ATOM     10  O   UNL     1      23.709   4.096  24.858  1.00  0.00    -0.342 OA
ATOM     11  C   UNL     1      21.333   4.370  24.929  1.00  0.00     0.096 C 
ATOM     12  C   UNL     1      21.626   5.855  25.009  1.00  0.00    -0.066 C 
ATOM     13  C   UNL     1      20.642   6.736  24.780  1.00  0.00     0.008 C 
ENDROOT
BRANCH   8  14
ATOM     14  C   UNL     1      23.160   2.201  27.600  1.00  0.00    -0.009 C 
ATOM     15  C   UNL     1      24.672   2.077  27.889  1.00  0.00     0.008 C 
ATOM     16  C   UNL     1      22.357   1.929  28.880  1.00  0.00     0.008 C 
ENDBRANCH   8  14
BRANCH   9  17
ATOM     17  O   UNL     1      22.413   2.206  24.903  1.00  0.00    -0.365 OA
ATOM     18  H   UNL     1      23.286   1.750  25.029  1.00  0.00     0.214 HD
ENDBRANCH   9  17
TORSDOF 2
ENDMDL
MODEL 2
REMARK VINA RESULT:    -4.479      1.760      4.126
REMARK INTER + INTRA:          -5.139
REMARK INTER:                  -4.877
REMARK INTRA:                  -0.262
REMARK UNBOUND:                -0.267
REMARK SMILES C=C1C[C@@]2(O)O[C@@]3(C[C@@H]2C(C)C)[C@H](C)CC[C@@H]13
REMARK SMILES IDX 14 1 13 2 15 3 16 4 17 5 7 6 8 7 9 8 4 9 6 10 3 11 2 12 1 13
REMARK SMILES IDX 10 14 11 15 12 16 5 17
REMARK H PARENT 5 18
REMARK Flexibility Score: inf
ROOT
ATOM      1  C   UNL     1      25.599   6.545  27.940  1.00  0.00     0.011 C 
ATOM      2  C   UNL     1      24.180   6.253  27.413  1.00  0.00     0.019 C 
ATOM      3  C   UNL     1      23.222   5.988  28.583  1.00  0.00     0.007 C 
ATOM      4  C   UNL     1      23.132   4.467  28.752  1.00  0.00     0.011 C 
ATOM      5  C   UNL     1      23.934   3.843  27.603  1.00  0.00     0.047 C 
ATOM      6  C   UNL     1      24.080   4.972  26.564  1.00  0.00     0.081 C 
ATOM      7  C   UNL     1      25.231   4.722  25.580  1.00  0.00     0.046 C 
ATOM      8  C   UNL     1      24.549   3.985  24.427  1.00  0.00     0.054 C 
ATOM      9  C   UNL     1      23.057   3.958  24.868  1.00  0.00     0.173 C 
ATOM     10  O   UNL     1      22.907   5.019  25.779  1.00  0.00    -0.342 OA
ATOM     11  C   UNL     1      22.689   2.643  25.613  1.00  0.00     0.096 C 
ATOM     12  C   UNL     1      23.262   2.612  27.016  1.00  0.00    -0.066 C 
ATOM     13  C   UNL     1      23.162   1.492  27.746  1.00  0.00     0.008 C 
ENDROOT
BRANCH   8  14
ATOM     14  C   UNL     1      24.822   4.625  23.024  1.00  0.00    -0.009 C 
ATOM     15  C   UNL     1      25.424   6.046  23.070  1.00  0.00     0.008 C 
ATOM     16  C   UNL     1      25.702   3.709  22.162  1.00  0.00     0.008 C 
ENDBRANCH   8  14
BRANCH   9  17
ATOM     17  O   UNL     1      22.173   4.147  23.791  1.00  0.00    -0.365 OA
ATOM     18  H   UNL     1      21.650   3.310  23.683  1.00  0.00     0.214 HD
ENDBRANCH   9  17
TORSDOF 2
ENDMDL
MODEL 3
REMARK VINA RESULT:    -4.469      1.822      3.263
REMARK INTER + INTRA:          -5.128
REMARK INTER:                  -4.889
REMARK INTRA:                  -0.239
REMARK UNBOUND:                -0.267
REMARK SMILES C=C1C[C@@]2(O)O[C@@]3(C[C@@H]2C(C)C)[C@H](C)CC[C@@H]13
REMARK SMILES IDX 14 1 13 2 15 3 16 4 17 5 7 6 8 7 9 8 4 9 6 10 3 11 2 12 1 13
REMARK SMILES IDX 10 14 11 15 12 16 5 17
REMARK H PARENT 5 18
REMARK Flexibility Score: inf
ROOT
ATOM      1  C   UNL     1      20.126   5.259  25.625  1.00  0.00     0.011 C 
ATOM      2  C   UNL     1      21.532   5.647  26.125  1.00  0.00     0.019 C 
ATOM      3  C   UNL     1      22.126   6.751  25.239  1.00  0.00     0.007 C 
ATOM      4  C   UNL     1      23.026   6.063  24.207  1.00  0.00     0.011 C 
ATOM      5  C   UNL     1      23.059   4.573  24.569  1.00  0.00     0.047 C 
ATOM      6  C   UNL     1      22.565   4.509  26.027  1.00  0.00     0.081 C 
ATOM      7  C   UNL     1      22.070   3.111  26.421  1.00  0.00     0.046 C 
ATOM      8  C   UNL     1      23.321   2.449  27.000  1.00  0.00     0.054 C 
ATOM      9  C   UNL     1      24.381   3.585  26.923  1.00  0.00     0.173 C 
ATOM     10  O   UNL     1      23.652   4.788  26.886  1.00  0.00    -0.342 OA
ATOM     11  C   UNL     1      25.230   3.510  25.622  1.00  0.00     0.096 C 
ATOM     12  C   UNL     1      24.441   3.958  24.408  1.00  0.00    -0.066 C 
ATOM     13  C   UNL     1      24.974   3.820  23.185  1.00  0.00     0.008 C 
ENDROOT
BRANCH   8  14
ATOM     14  C   UNL     1      23.105   1.829  28.421  1.00  0.00    -0.009 C 
ATOM     15  C   UNL     1      21.663   1.944  28.961  1.00  0.00     0.008 C 
ATOM     16  C   UNL     1      23.565   0.364  28.460  1.00  0.00     0.008 C 
ENDBRANCH   8  14
BRANCH   9  17
ATOM     17  O   UNL     1      25.238   3.600  28.039  1.00  0.00    -0.365 OA
ATOM     18  H   UNL     1      25.751   2.750  28.032  1.00  0.00     0.214 HD
ENDBRANCH   9  17
TORSDOF 2
ENDMDL
MODEL 4
REMARK VINA RESULT:    -4.446      1.748      3.947
REMARK INTER + INTRA:          -5.102
REMARK INTER:                  -4.862
REMARK INTRA:                  -0.241
REMARK UNBOUND:                -0.267
REMARK SMILES C=C1C[C@@]2(O)O[C@@]3(C[C@@H]2C(C)C)[C@H](C)CC[C@@H]13
REMARK SMILES IDX 14 1 13 2 15 3 16 4 17 5 7 6 8 7 9 8 4 9 6 10 3 11 2 12 1 13
REMARK SMILES IDX 10 14 11 15 12 16 5 17
REMARK H PARENT 5 18
REMARK Flexibility Score: inf
ROOT
ATOM      1  C   UNL     1      23.963   4.487  29.264  1.00  0.00     0.011 C 
ATOM      2  C   UNL     1      23.401   3.528  28.196  1.00  0.00     0.019 C 
ATOM      3  C   UNL     1      24.503   2.583  27.697  1.00  0.00     0.007 C 
ATOM      4  C   UNL     1      25.063   3.190  26.406  1.00  0.00     0.011 C 
ATOM      5  C   UNL     1      24.205   4.419  26.082  1.00  0.00     0.047 C 
ATOM      6  C   UNL     1      22.921   4.234  26.914  1.00  0.00     0.081 C 
ATOM      7  C   UNL     1      22.154   5.549  27.113  1.00  0.00     0.046 C 
ATOM      8  C   UNL     1      21.179   5.565  25.935  1.00  0.00     0.054 C 
ATOM      9  C   UNL     1      21.469   4.209  25.228  1.00  0.00     0.173 C 
ATOM     10  O   UNL     1      22.043   3.380  26.209  1.00  0.00    -0.342 OA
ATOM     11  C   UNL     1      22.499   4.357  24.073  1.00  0.00     0.096 C 
ATOM     12  C   UNL     1      23.907   4.556  24.597  1.00  0.00    -0.066 C 
ATOM     13  C   UNL     1      24.897   4.843  23.740  1.00  0.00     0.008 C 
ENDROOT
BRANCH   8  14
ATOM     14  C   UNL     1      19.690   5.799  26.354  1.00  0.00    -0.009 C 
ATOM     15  C   UNL     1      19.471   6.003  27.869  1.00  0.00     0.008 C 
ATOM     16  C   UNL     1      19.073   6.968  25.572  1.00  0.00     0.008 C 
ENDBRANCH   8  14
BRANCH   9  17
ATOM     17  O   UNL     1      20.301   3.598  24.737  1.00  0.00    -0.365 OA
ATOM     18  H   UNL     1      20.097   2.825  25.326  1.00  0.00     0.214 HD
ENDBRANCH   9  17
TORSDOF 2
ENDMDL
MODEL 5
REMARK VINA RESULT:    -4.442      1.585      4.940
REMARK INTER + INTRA:          -5.098
REMARK INTER:                  -4.848
REMARK INTRA:                  -0.250
REMARK UNBOUND:                -0.267
REMARK SMILES C=C1C[C@@]2(O)O[C@@]3(C[C@@H]2C(C)C)[C@H](C)CC[C@@H]13
REMARK SMILES IDX 14 1 13 2 15 3 16 4 17 5 7 6 8 7 9 8 4 9 6 10 3 11 2 12 1 13
REMARK SMILES IDX 10 14 11 15 12 16 5 17
REMARK H PARENT 5 18
REMARK Flexibility Score: inf
ROOT
ATOM      1  C   UNL     1      21.343   2.564  29.227  1.00  0.00     0.011 C 
ATOM      2  C   UNL     1      21.998   2.014  27.944  1.00  0.00     0.019 C 
ATOM      3  C   UNL     1      23.002   0.907  28.292  1.00  0.00     0.007 C 
ATOM      4  C   UNL     1      24.389   1.559  28.343  1.00  0.00     0.011 C 
ATOM      5  C   UNL     1      24.211   3.017  27.900  1.00  0.00     0.047 C 
ATOM      6  C   UNL     1      22.847   3.049  27.183  1.00  0.00     0.081 C 
ATOM      7  C   UNL     1      22.263   4.466  27.090  1.00  0.00     0.046 C 
ATOM      8  C   UNL     1      22.786   4.970  25.745  1.00  0.00     0.054 C 
ATOM      9  C   UNL     1      23.567   3.741  25.195  1.00  0.00     0.173 C 
ATOM     10  O   UNL     1      23.027   2.619  25.849  1.00  0.00    -0.342 OA
ATOM     11  C   UNL     1      25.082   3.805  25.540  1.00  0.00     0.096 C 
ATOM     12  C   UNL     1      25.338   3.502  27.003  1.00  0.00    -0.066 C 
ATOM     13  C   UNL     1      26.573   3.654  27.502  1.00  0.00     0.008 C 
ENDROOT
BRANCH   8  14
ATOM     14  C   UNL     1      21.667   5.530  24.805  1.00  0.00    -0.009 C 
ATOM     15  C   UNL     1      20.231   5.377  25.351  1.00  0.00     0.008 C 
ATOM     16  C   UNL     1      21.936   6.997  24.438  1.00  0.00     0.008 C 
ENDBRANCH   8  14
BRANCH   9  17
ATOM     17  O   UNL     1      23.411   3.582  23.805  1.00  0.00    -0.365 OA
ATOM     18  H   UNL     1      22.460   3.768  23.588  1.00  0.00     0.214 HD
ENDBRANCH   9  17
TORSDOF 2
ENDMDL
MODEL 6
REMARK VINA RESULT:    -4.334     11.436     14.530
REMARK INTER + INTRA:          -4.980
REMARK INTER:                  -4.721
REMARK INTRA:                  -0.259
REMARK UNBOUND:                -0.267
REMARK SMILES C=C1C[C@@]2(O)O[C@@]3(C[C@@H]2C(C)C)[C@H](C)CC[C@@H]13
REMARK SMILES IDX 14 1 13 2 15 3 16 4 17 5 7 6 8 7 9 8 4 9 6 10 3 11 2 12 1 13
REMARK SMILES IDX 10 14 11 15 12 16 5 17
REMARK H PARENT 5 18
REMARK Flexibility Score: inf
ROOT
ATOM      1  C   UNL     1      17.934 -10.271  29.278  1.00  0.00     0.011 C 
ATOM      2  C   UNL     1      16.643  -9.494  28.950  1.00  0.00     0.019 C 
ATOM      3  C   UNL     1      15.610 -10.428  28.304  1.00  0.00     0.007 C 
ATOM      4  C   UNL     1      15.730 -10.248  26.787  1.00  0.00     0.011 C 
ATOM      5  C   UNL     1      16.742  -9.119  26.551  1.00  0.00     0.047 C 
ATOM      6  C   UNL     1      16.834  -8.382  27.901  1.00  0.00     0.081 C 
ATOM      7  C   UNL     1      18.113  -7.544  28.029  1.00  0.00     0.046 C 
ATOM      8  C   UNL     1      17.684  -6.172  27.508  1.00  0.00     0.054 C 
ATOM      9  C   UNL     1      16.173  -6.377  27.199  1.00  0.00     0.173 C 
ATOM     10  O   UNL     1      15.763  -7.465  27.991  1.00  0.00    -0.342 OA
ATOM     11  C   UNL     1      15.924  -6.757  25.711  1.00  0.00     0.096 C 
ATOM     12  C   UNL     1      16.332  -8.187  25.420  1.00  0.00    -0.066 C 
ATOM     13  C   UNL     1      16.319  -8.634  24.157  1.00  0.00     0.008 C 
ENDROOT
BRANCH   8  14
ATOM     14  C   UNL     1      18.015  -4.996  28.487  1.00  0.00    -0.009 C 
ATOM     15  C   UNL     1      18.457  -5.438  29.899  1.00  0.00     0.008 C 
ATOM     16  C   UNL     1      19.062  -4.051  27.881  1.00  0.00     0.008 C 
ENDBRANCH   8  14
BRANCH   9  17
ATOM     17  O   UNL     1      15.397  -5.250  27.528  1.00  0.00    -0.365 OA
ATOM     18  H   UNL     1      15.306  -5.229  28.517  1.00  0.00     0.214 HD
ENDBRANCH   9  17
TORSDOF 2
ENDMDL
MODEL 7
REMARK VINA RESULT:    -4.291     13.394     16.326
REMARK INTER + INTRA:          -4.934
REMARK INTER:                  -4.670
REMARK INTRA:                  -0.265
REMARK UNBOUND:                -0.267
REMARK SMILES C=C1C[C@@]2(O)O[C@@]3(C[C@@H]2C(C)C)[C@H](C)CC[C@@H]13
REMARK SMILES IDX 14 1 13 2 15 3 16 4 17 5 7 6 8 7 9 8 4 9 6 10 3 11 2 12 1 13
REMARK SMILES IDX 10 14 11 15 12 16 5 17
REMARK H PARENT 5 18
REMARK Flexibility Score: inf
ROOT
ATOM      1  C   UNL     1      14.290 -11.031  28.400  1.00  0.00     0.011 C 
ATOM      2  C   UNL     1      13.991 -10.385  27.032  1.00  0.00     0.019 C 
ATOM      3  C   UNL     1      13.580 -11.458  26.015  1.00  0.00     0.007 C 
ATOM      4  C   UNL     1      14.836 -11.822  25.215  1.00  0.00     0.011 C 
ATOM      5  C   UNL     1      15.949 -10.872  25.677  1.00  0.00     0.047 C 
ATOM      6  C   UNL     1      15.214  -9.714  26.378  1.00  0.00     0.081 C 
ATOM      7  C   UNL     1      16.130  -8.916  27.317  1.00  0.00     0.046 C 
ATOM      8  C   UNL     1      16.664  -7.801  26.417  1.00  0.00     0.054 C 
ATOM      9  C   UNL     1      15.931  -8.063  25.070  1.00  0.00     0.173 C 
ATOM     10  O   UNL     1      14.775  -8.795  25.398  1.00  0.00    -0.342 OA
ATOM     11  C   UNL     1      16.779  -8.931  24.098  1.00  0.00     0.096 C 
ATOM     12  C   UNL     1      16.820 -10.383  24.531  1.00  0.00    -0.066 C 
ATOM     13  C   UNL     1      17.623 -11.242  23.887  1.00  0.00     0.008 C 
ENDROOT
BRANCH   8  14
ATOM     14  C   UNL     1      16.478  -6.367  27.015  1.00  0.00    -0.009 C 
ATOM     15  C   UNL     1      15.224  -6.196  27.900  1.00  0.00     0.008 C 
ATOM     16  C   UNL     1      17.730  -5.923  27.786  1.00  0.00     0.008 C 
ENDBRANCH   8  14
BRANCH   9  17
ATOM     17  O   UNL     1      15.552  -6.872  24.423  1.00  0.00    -0.365 OA
ATOM     18  H   UNL     1      16.384  -6.399  24.159  1.00  0.00     0.214 HD
ENDBRANCH   9  17
TORSDOF 2
ENDMDL
MODEL 8
REMARK VINA RESULT:    -4.279      9.570     12.613
REMARK INTER + INTRA:          -4.921
REMARK INTER:                  -4.660
REMARK INTRA:                  -0.261
REMARK UNBOUND:                -0.267
REMARK SMILES C=C1C[C@@]2(O)O[C@@]3(C[C@@H]2C(C)C)[C@H](C)CC[C@@H]13
REMARK SMILES IDX 14 1 13 2 15 3 16 4 17 5 7 6 8 7 9 8 4 9 6 10 3 11 2 12 1 13
REMARK SMILES IDX 10 14 11 15 12 16 5 17
REMARK H PARENT 5 18
REMARK Flexibility Score: inf
ROOT
ATOM      1  C   UNL     1      14.695  -3.837  30.198  1.00  0.00     0.011 C 
ATOM      2  C   UNL     1      15.919  -4.724  30.498  1.00  0.00     0.019 C 
ATOM      3  C   UNL     1      16.846  -4.029  31.505  1.00  0.00     0.007 C 
ATOM      4  C   UNL     1      17.945  -3.331  30.696  1.00  0.00     0.011 C 
ATOM      5  C   UNL     1      17.734  -3.725  29.228  1.00  0.00     0.047 C 
ATOM      6  C   UNL     1      16.827  -4.969  29.279  1.00  0.00     0.081 C 
ATOM      7  C   UNL     1      16.113  -5.233  27.946  1.00  0.00     0.046 C 
ATOM      8  C   UNL     1      17.071  -6.175  27.218  1.00  0.00     0.054 C 
ATOM      9  C   UNL     1      18.205  -6.390  28.262  1.00  0.00     0.173 C 
ATOM     10  O   UNL     1      17.632  -6.107  29.514  1.00  0.00    -0.342 OA
ATOM     11  C   UNL     1      19.391  -5.404  28.052  1.00  0.00     0.096 C 
ATOM     12  C   UNL     1      19.039  -3.999  28.498  1.00  0.00    -0.066 C 
ATOM     13  C   UNL     1      19.895  -2.996  28.257  1.00  0.00     0.008 C 
ENDROOT
BRANCH   8  14
ATOM     14  C   UNL     1      16.389  -7.482  26.690  1.00  0.00    -0.009 C 
ATOM     15  C   UNL     1      14.978  -7.746  27.259  1.00  0.00     0.008 C 
ATOM     16  C   UNL     1      16.350  -7.503  25.155  1.00  0.00     0.008 C 
ENDBRANCH   8  14
BRANCH   9  17
ATOM     17  O   UNL     1      18.691  -7.710  28.266  1.00  0.00    -0.365 OA
ATOM     18  H   UNL     1      18.488  -8.100  29.156  1.00  0.00     0.214 HD
ENDBRANCH   9  17
TORSDOF 2
ENDMDL
MODEL 9
REMARK VINA RESULT:    -4.150      1.643      2.281
REMARK INTER + INTRA:          -4.780
REMARK INTER:                  -4.554
REMARK INTRA:                  -0.226
REMARK UNBOUND:                -0.267
REMARK SMILES C=C1C[C@@]2(O)O[C@@]3(C[C@@H]2C(C)C)[C@H](C)CC[C@@H]13
REMARK SMILES IDX 14 1 13 2 15 3 16 4 17 5 7 6 8 7 9 8 4 9 6 10 3 11 2 12 1 13
REMARK SMILES IDX 10 14 11 15 12 16 5 17
REMARK H PARENT 5 18
REMARK Flexibility Score: inf
ROOT
ATOM      1  C   UNL     1      25.037   6.702  28.626  1.00  0.00     0.011 C 
ATOM      2  C   UNL     1      25.527   5.498  27.797  1.00  0.00     0.019 C 
ATOM      3  C   UNL     1      26.127   5.976  26.467  1.00  0.00     0.007 C 
ATOM      4  C   UNL     1      25.025   5.855  25.409  1.00  0.00     0.011 C 
ATOM      5  C   UNL     1      23.824   5.188  26.092  1.00  0.00     0.047 C 
ATOM      6  C   UNL     1      24.402   4.539  27.364  1.00  0.00     0.081 C 
ATOM      7  C   UNL     1      23.325   4.242  28.416  1.00  0.00     0.046 C 
ATOM      8  C   UNL     1      22.904   2.809  28.087  1.00  0.00     0.054 C 
ATOM      9  C   UNL     1      23.848   2.433  26.909  1.00  0.00     0.173 C 
ATOM     10  O   UNL     1      24.960   3.287  27.021  1.00  0.00    -0.342 OA
ATOM     11  C   UNL     1      23.191   2.692  25.524  1.00  0.00     0.096 C 
ATOM     12  C   UNL     1      23.129   4.172  25.199  1.00  0.00    -0.066 C 
ATOM     13  C   UNL     1      22.465   4.582  24.109  1.00  0.00     0.008 C 
ENDROOT
BRANCH   8  14
ATOM     14  C   UNL     1      22.948   1.843  29.318  1.00  0.00    -0.009 C 
ATOM     15  C   UNL     1      23.199   2.538  30.674  1.00  0.00     0.008 C 
ATOM     16  C   UNL     1      21.676   0.986  29.394  1.00  0.00     0.008 C 
ENDBRANCH   8  14
BRANCH   9  17
ATOM     17  O   UNL     1      24.286   1.097  26.975  1.00  0.00    -0.365 OA
ATOM     18  H   UNL     1      23.483   0.526  27.096  1.00  0.00     0.214 HD
ENDBRANCH   9  17
TORSDOF 2
ENDMDL
