MODEL 1
REMARK VINA RESULT:    -6.917      0.000      0.000
REMARK INTER + INTRA:          -8.398
REMARK INTER:                  -8.332
REMARK INTRA:                  -0.066
REMARK UNBOUND:                -0.066
REMARK SMILES O=c1c(O)c(-c2ccc(O)c(O)c2)oc2cc(O)cc(O)c12
REMARK SMILES IDX 5 1 3 2 2 3 1 4 22 5 20 6 19 7 17 8 16 9 15 10 14 11 6 12
REMARK SMILES IDX 7 13 8 14 9 15 13 16 11 17 10 18 12 20 4 22 21 24 18 26
REMARK H PARENT 10 19 12 21 4 23 21 25 18 27
REMARK Flexibility Score: inf
ROOT
ATOM      1  C   UNL     1      57.683  -2.071  -0.151  1.00  0.00     0.180 A 
ATOM      2  C   UNL     1      56.396  -2.256   0.381  1.00  0.00     0.208 A 
ATOM      3  C   UNL     1      56.161  -3.350   1.229  1.00  0.00     0.238 A 
ATOM      4  O   UNL     1      54.989  -3.553   1.641  1.00  0.00    -0.285 OA
ATOM      5  C   UNL     1      57.228  -4.212   1.580  1.00  0.00     0.111 A 
ATOM      6  C   UNL     1      57.115  -5.325   2.468  1.00  0.00     0.134 A 
ATOM      7  C   UNL     1      58.215  -6.171   2.659  1.00  0.00     0.093 A 
ATOM      8  C   UNL     1      59.441  -5.908   2.045  1.00  0.00     0.123 A 
ATOM      9  C   UNL     1      59.577  -4.794   1.221  1.00  0.00     0.094 A 
ATOM     10  C   UNL     1      58.488  -3.952   0.980  1.00  0.00     0.146 A 
ATOM     11  O   UNL     1      58.657  -2.914   0.170  1.00  0.00    -0.452 OA
ENDROOT
BRANCH   1  12
ATOM     12  C   UNL     1      58.005  -0.950  -1.064  1.00  0.00     0.025 A 
ATOM     13  C   UNL     1      58.563  -1.177  -2.335  1.00  0.00     0.016 A 
ATOM     14  C   UNL     1      58.881  -0.103  -3.169  1.00  0.00     0.051 A 
ATOM     15  C   UNL     1      58.662   1.211  -2.744  1.00  0.00     0.157 A 
ATOM     16  C   UNL     1      57.806   0.371  -0.632  1.00  0.00     0.062 A 
ATOM     17  C   UNL     1      58.124   1.451  -1.468  1.00  0.00     0.158 A 
BRANCH  15  18
ATOM     18  O   UNL     1      58.988   2.263  -3.599  1.00  0.00    -0.504 OA
ATOM     19  H   UNL     1      58.748   2.251  -4.583  1.00  0.00     0.293 HD
ENDBRANCH  15  18
BRANCH  17  20
ATOM     20  O   UNL     1      57.910   2.759  -1.036  1.00  0.00    -0.504 OA
ATOM     21  H   UNL     1      57.016   3.219  -1.161  1.00  0.00     0.293 HD
ENDBRANCH  17  20
ENDBRANCH   1  12
BRANCH   2  22
ATOM     22  O   UNL     1      55.374  -1.351   0.083  1.00  0.00    -0.502 OA
ATOM     23  H   UNL     1      55.557  -0.388  -0.171  1.00  0.00     0.293 HD
ENDBRANCH   2  22
BRANCH   6  24
ATOM     24  O   UNL     1      55.963  -5.629   3.202  1.00  0.00    -0.507 OA
ATOM     25  H   UNL     1      55.268  -4.958   3.488  1.00  0.00     0.293 HD
ENDBRANCH   6  24
BRANCH   8  26
ATOM     26  O   UNL     1      60.535  -6.745   2.254  1.00  0.00    -0.508 OA
ATOM     27  H   UNL     1      60.617  -7.639   1.783  1.00  0.00     0.293 HD
ENDBRANCH   8  26
TORSDOF 6
ENDMDL
MODEL 2
REMARK VINA RESULT:    -6.795      1.960      2.550
REMARK INTER + INTRA:          -8.252
REMARK INTER:                  -7.950
REMARK INTRA:                  -0.303
REMARK UNBOUND:                -0.066
REMARK SMILES O=c1c(O)c(-c2ccc(O)c(O)c2)oc2cc(O)cc(O)c12
REMARK SMILES IDX 5 1 3 2 2 3 1 4 22 5 20 6 19 7 17 8 16 9 15 10 14 11 6 12
REMARK SMILES IDX 7 13 8 14 9 15 13 16 11 17 10 18 12 20 4 22 21 24 18 26
REMARK H PARENT 10 19 12 21 4 23 21 25 18 27
REMARK Flexibility Score: inf
ROOT
ATOM      1  C   UNL     1      58.611  -0.810  -0.234  1.00  0.00     0.180 A 
ATOM      2  C   UNL     1      57.566  -1.748  -0.220  1.00  0.00     0.208 A 
ATOM      3  C   UNL     1      57.627  -2.822   0.682  1.00  0.00     0.238 A 
ATOM      4  O   UNL     1      56.725  -3.700   0.638  1.00  0.00    -0.285 OA
ATOM      5  C   UNL     1      58.703  -2.913   1.598  1.00  0.00     0.111 A 
ATOM      6  C   UNL     1      58.844  -3.933   2.588  1.00  0.00     0.134 A 
ATOM      7  C   UNL     1      60.005  -3.982   3.369  1.00  0.00     0.093 A 
ATOM      8  C   UNL     1      61.001  -3.011   3.241  1.00  0.00     0.123 A 
ATOM      9  C   UNL     1      60.848  -1.981   2.317  1.00  0.00     0.094 A 
ATOM     10  C   UNL     1      59.719  -1.926   1.496  1.00  0.00     0.146 A 
ATOM     11  O   UNL     1      59.624  -0.939   0.614  1.00  0.00    -0.452 OA
ENDROOT
BRANCH   1  12
ATOM     12  C   UNL     1      58.625   0.341  -1.166  1.00  0.00     0.025 A 
ATOM     13  C   UNL     1      57.879   1.504  -0.905  1.00  0.00     0.016 A 
ATOM     14  C   UNL     1      57.888   2.567  -1.812  1.00  0.00     0.051 A 
ATOM     15  C   UNL     1      58.628   2.481  -2.995  1.00  0.00     0.157 A 
ATOM     16  C   UNL     1      59.351   0.250  -2.365  1.00  0.00     0.062 A 
ATOM     17  C   UNL     1      59.362   1.316  -3.276  1.00  0.00     0.158 A 
BRANCH  15  18
ATOM     18  O   UNL     1      58.620   3.560  -3.879  1.00  0.00    -0.504 OA
ATOM     19  H   UNL     1      58.235   3.487  -4.813  1.00  0.00     0.293 HD
ENDBRANCH  15  18
BRANCH  17  20
ATOM     20  O   UNL     1      60.097   1.222  -4.456  1.00  0.00    -0.504 OA
ATOM     21  H   UNL     1      60.591   0.373  -4.708  1.00  0.00     0.293 HD
ENDBRANCH  17  20
ENDBRANCH   1  12
BRANCH   2  22
ATOM     22  O   UNL     1      56.474  -1.599  -1.080  1.00  0.00    -0.502 OA
ATOM     23  H   UNL     1      56.276  -2.254  -1.826  1.00  0.00     0.293 HD
ENDBRANCH   2  22
BRANCH   6  24
ATOM     24  O   UNL     1      57.871  -4.900   2.860  1.00  0.00    -0.507 OA
ATOM     25  H   UNL     1      57.211  -4.857   3.621  1.00  0.00     0.293 HD
ENDBRANCH   6  24
BRANCH   8  26
ATOM     26  O   UNL     1      62.145  -3.058   4.035  1.00  0.00    -0.508 OA
ATOM     27  H   UNL     1      62.946  -3.624   3.778  1.00  0.00     0.293 HD
ENDBRANCH   8  26
TORSDOF 6
ENDMDL
MODEL 3
REMARK VINA RESULT:    -6.733      1.588      2.459
REMARK INTER + INTRA:          -8.178
REMARK INTER:                  -7.884
REMARK INTRA:                  -0.293
REMARK UNBOUND:                -0.066
REMARK SMILES O=c1c(O)c(-c2ccc(O)c(O)c2)oc2cc(O)cc(O)c12
REMARK SMILES IDX 5 1 3 2 2 3 1 4 22 5 20 6 19 7 17 8 16 9 15 10 14 11 6 12
REMARK SMILES IDX 7 13 8 14 9 15 13 16 11 17 10 18 12 20 4 22 21 24 18 26
REMARK H PARENT 10 19 12 21 4 23 21 25 18 27
REMARK Flexibility Score: inf
ROOT
ATOM      1  C   UNL     1      58.353  -1.781  -0.120  1.00  0.00     0.180 A 
ATOM      2  C   UNL     1      59.025  -1.778   1.114  1.00  0.00     0.208 A 
ATOM      3  C   UNL     1      58.802  -2.834   2.013  1.00  0.00     0.238 A 
ATOM      4  O   UNL     1      59.347  -2.787   3.146  1.00  0.00    -0.285 OA
ATOM      5  C   UNL     1      57.954  -3.907   1.645  1.00  0.00     0.111 A 
ATOM      6  C   UNL     1      57.691  -5.051   2.457  1.00  0.00     0.134 A 
ATOM      7  C   UNL     1      56.752  -5.999   2.032  1.00  0.00     0.093 A 
ATOM      8  C   UNL     1      56.115  -5.878   0.796  1.00  0.00     0.123 A 
ATOM      9  C   UNL     1      56.405  -4.794  -0.029  1.00  0.00     0.094 A 
ATOM     10  C   UNL     1      57.309  -3.812   0.383  1.00  0.00     0.146 A 
ATOM     11  O   UNL     1      57.539  -2.785  -0.425  1.00  0.00    -0.452 OA
ENDROOT
BRANCH   1  12
ATOM     12  C   UNL     1      58.526  -0.696  -1.113  1.00  0.00     0.025 A 
ATOM     13  C   UNL     1      59.411  -0.831  -2.197  1.00  0.00     0.016 A 
ATOM     14  C   UNL     1      59.576   0.216  -3.108  1.00  0.00     0.051 A 
ATOM     15  C   UNL     1      58.873   1.413  -2.945  1.00  0.00     0.157 A 
ATOM     16  C   UNL     1      57.837   0.515  -0.940  1.00  0.00     0.062 A 
ATOM     17  C   UNL     1      58.000   1.566  -1.854  1.00  0.00     0.158 A 
BRANCH  15  18
ATOM     18  O   UNL     1      59.056   2.439  -3.871  1.00  0.00    -0.504 OA
ATOM     19  H   UNL     1      58.940   3.414  -3.624  1.00  0.00     0.293 HD
ENDBRANCH  15  18
BRANCH  17  20
ATOM     20  O   UNL     1      57.301   2.760  -1.681  1.00  0.00    -0.504 OA
ATOM     21  H   UNL     1      56.485   2.982  -2.239  1.00  0.00     0.293 HD
ENDBRANCH  17  20
ENDBRANCH   1  12
BRANCH   2  22
ATOM     22  O   UNL     1      59.916  -0.749   1.429  1.00  0.00    -0.502 OA
ATOM     23  H   UNL     1      60.739  -0.553   0.872  1.00  0.00     0.293 HD
ENDBRANCH   2  22
BRANCH   6  24
ATOM     24  O   UNL     1      58.337  -5.317   3.669  1.00  0.00    -0.507 OA
ATOM     25  H   UNL     1      59.135  -4.811   4.021  1.00  0.00     0.293 HD
ENDBRANCH   6  24
BRANCH   8  26
ATOM     26  O   UNL     1      55.195  -6.835   0.373  1.00  0.00    -0.508 OA
ATOM     27  H   UNL     1      55.291  -7.306  -0.519  1.00  0.00     0.293 HD
ENDBRANCH   8  26
TORSDOF 6
ENDMDL
MODEL 4
REMARK VINA RESULT:    -6.708      2.053      2.191
REMARK INTER + INTRA:          -8.147
REMARK INTER:                  -7.825
REMARK INTRA:                  -0.322
REMARK UNBOUND:                -0.066
REMARK SMILES O=c1c(O)c(-c2ccc(O)c(O)c2)oc2cc(O)cc(O)c12
REMARK SMILES IDX 5 1 3 2 2 3 1 4 22 5 20 6 19 7 17 8 16 9 15 10 14 11 6 12
REMARK SMILES IDX 7 13 8 14 9 15 13 16 11 17 10 18 12 20 4 22 21 24 18 26
REMARK H PARENT 10 19 12 21 4 23 21 25 18 27
REMARK Flexibility Score: inf
ROOT
ATOM      1  C   UNL     1      58.909  -1.624   0.168  1.00  0.00     0.180 A 
ATOM      2  C   UNL     1      57.917  -2.615   0.256  1.00  0.00     0.208 A 
ATOM      3  C   UNL     1      57.997  -3.570   1.282  1.00  0.00     0.238 A 
ATOM      4  O   UNL     1      57.148  -4.499   1.309  1.00  0.00    -0.285 OA
ATOM      5  C   UNL     1      59.035  -3.489   2.241  1.00  0.00     0.111 A 
ATOM      6  C   UNL     1      59.188  -4.375   3.351  1.00  0.00     0.134 A 
ATOM      7  C   UNL     1      60.315  -4.263   4.175  1.00  0.00     0.093 A 
ATOM      8  C   UNL     1      61.260  -3.256   3.969  1.00  0.00     0.123 A 
ATOM      9  C   UNL     1      61.092  -2.352   2.923  1.00  0.00     0.094 A 
ATOM     10  C   UNL     1      59.998  -2.461   2.060  1.00  0.00     0.146 A 
ATOM     11  O   UNL     1      59.889  -1.592   1.064  1.00  0.00    -0.452 OA
ENDROOT
BRANCH   1  12
ATOM     12  C   UNL     1      58.901  -0.591  -0.893  1.00  0.00     0.025 A 
ATOM     13  C   UNL     1      59.642  -0.753  -2.077  1.00  0.00     0.016 A 
ATOM     14  C   UNL     1      59.638   0.246  -3.054  1.00  0.00     0.051 A 
ATOM     15  C   UNL     1      58.910   1.423  -2.860  1.00  0.00     0.157 A 
ATOM     16  C   UNL     1      58.188   0.602  -0.691  1.00  0.00     0.062 A 
ATOM     17  C   UNL     1      58.183   1.605  -1.671  1.00  0.00     0.158 A 
BRANCH  15  18
ATOM     18  O   UNL     1      58.924   2.401  -3.853  1.00  0.00    -0.504 OA
ATOM     19  H   UNL     1      58.080   2.870  -4.158  1.00  0.00     0.293 HD
ENDBRANCH  15  18
BRANCH  17  20
ATOM     20  O   UNL     1      57.461   2.780  -1.467  1.00  0.00    -0.504 OA
ATOM     21  H   UNL     1      56.541   2.913  -1.870  1.00  0.00     0.293 HD
ENDBRANCH  17  20
ENDBRANCH   1  12
BRANCH   2  22
ATOM     22  O   UNL     1      56.858  -2.633  -0.656  1.00  0.00    -0.502 OA
ATOM     23  H   UNL     1      56.980  -2.408  -1.636  1.00  0.00     0.293 HD
ENDBRANCH   2  22
BRANCH   6  24
ATOM     24  O   UNL     1      58.258  -5.360   3.700  1.00  0.00    -0.507 OA
ATOM     25  H   UNL     1      57.695  -5.881   3.046  1.00  0.00     0.293 HD
ENDBRANCH   6  24
BRANCH   8  26
ATOM     26  O   UNL     1      62.369  -3.141   4.805  1.00  0.00    -0.508 OA
ATOM     27  H   UNL     1      62.286  -3.229   5.811  1.00  0.00     0.293 HD
ENDBRANCH   8  26
TORSDOF 6
ENDMDL
MODEL 5
REMARK VINA RESULT:    -6.433      1.719      1.905
REMARK INTER + INTRA:          -7.815
REMARK INTER:                  -7.485
REMARK INTRA:                  -0.330
REMARK UNBOUND:                -0.066
REMARK SMILES O=c1c(O)c(-c2ccc(O)c(O)c2)oc2cc(O)cc(O)c12
REMARK SMILES IDX 5 1 3 2 2 3 1 4 22 5 20 6 19 7 17 8 16 9 15 10 14 11 6 12
REMARK SMILES IDX 7 13 8 14 9 15 13 16 11 17 10 18 12 20 4 22 21 24 18 26
REMARK H PARENT 10 19 12 21 4 23 21 25 18 27
REMARK Flexibility Score: inf
ROOT
ATOM      1  C   UNL     1      58.436  -1.477  -0.829  1.00  0.00     0.180 A 
ATOM      2  C   UNL     1      57.585  -2.522  -1.225  1.00  0.00     0.208 A 
ATOM      3  C   UNL     1      57.485  -3.663  -0.413  1.00  0.00     0.238 A 
ATOM      4  O   UNL     1      56.780  -4.628  -0.812  1.00  0.00    -0.285 OA
ATOM      5  C   UNL     1      58.192  -3.722   0.812  1.00  0.00     0.111 A 
ATOM      6  C   UNL     1      58.129  -4.808   1.737  1.00  0.00     0.134 A 
ATOM      7  C   UNL     1      58.955  -4.802   2.868  1.00  0.00     0.093 A 
ATOM      8  C   UNL     1      59.793  -3.720   3.142  1.00  0.00     0.123 A 
ATOM      9  C   UNL     1      59.821  -2.629   2.276  1.00  0.00     0.094 A 
ATOM     10  C   UNL     1      59.037  -2.623   1.119  1.00  0.00     0.146 A 
ATOM     11  O   UNL     1      59.111  -1.573   0.310  1.00  0.00    -0.452 OA
ENDROOT
BRANCH   1  12
ATOM     12  C   UNL     1      58.605  -0.249  -1.638  1.00  0.00     0.025 A 
ATOM     13  C   UNL     1      59.571  -0.171  -2.657  1.00  0.00     0.016 A 
ATOM     14  C   UNL     1      59.730   1.007  -3.392  1.00  0.00     0.051 A 
ATOM     15  C   UNL     1      58.940   2.127  -3.112  1.00  0.00     0.157 A 
ATOM     16  C   UNL     1      57.828   0.884  -1.346  1.00  0.00     0.062 A 
ATOM     17  C   UNL     1      57.986   2.067  -2.083  1.00  0.00     0.158 A 
BRANCH  15  18
ATOM     18  O   UNL     1      59.119   3.287  -3.863  1.00  0.00    -0.504 OA
ATOM     19  H   UNL     1      58.648   3.434  -4.748  1.00  0.00     0.293 HD
ENDBRANCH  15  18
BRANCH  17  20
ATOM     20  O   UNL     1      57.200   3.182  -1.794  1.00  0.00    -0.504 OA
ATOM     21  H   UNL     1      57.054   3.919  -2.474  1.00  0.00     0.293 HD
ENDBRANCH  17  20
ENDBRANCH   1  12
BRANCH   2  22
ATOM     22  O   UNL     1      56.837  -2.414  -2.401  1.00  0.00    -0.502 OA
ATOM     23  H   UNL     1      55.922  -2.836  -2.504  1.00  0.00     0.293 HD
ENDBRANCH   2  22
BRANCH   6  24
ATOM     24  O   UNL     1      57.263  -5.899   1.606  1.00  0.00    -0.507 OA
ATOM     25  H   UNL     1      57.109  -6.602   2.312  1.00  0.00     0.293 HD
ENDBRANCH   6  24
BRANCH   8  26
ATOM     26  O   UNL     1      60.598  -3.714   4.279  1.00  0.00    -0.508 OA
ATOM     27  H   UNL     1      60.250  -4.030   5.177  1.00  0.00     0.293 HD
ENDBRANCH   8  26
TORSDOF 6
ENDMDL
MODEL 6
REMARK VINA RESULT:    -6.376      1.789      3.292
REMARK INTER + INTRA:          -7.747
REMARK INTER:                  -7.728
REMARK INTRA:                  -0.019
REMARK UNBOUND:                -0.066
REMARK SMILES O=c1c(O)c(-c2ccc(O)c(O)c2)oc2cc(O)cc(O)c12
REMARK SMILES IDX 5 1 3 2 2 3 1 4 22 5 20 6 19 7 17 8 16 9 15 10 14 11 6 12
REMARK SMILES IDX 7 13 8 14 9 15 13 16 11 17 10 18 12 20 4 22 21 24 18 26
REMARK H PARENT 10 19 12 21 4 23 21 25 18 27
REMARK Flexibility Score: inf
ROOT
ATOM      1  C   UNL     1      59.614  -1.300  -0.453  1.00  0.00     0.180 A 
ATOM      2  C   UNL     1      60.921  -1.625  -0.055  1.00  0.00     0.208 A 
ATOM      3  C   UNL     1      61.116  -2.686   0.844  1.00  0.00     0.238 A 
ATOM      4  O   UNL     1      62.282  -2.923   1.255  1.00  0.00    -0.285 OA
ATOM      5  C   UNL     1      60.007  -3.444   1.291  1.00  0.00     0.111 A 
ATOM      6  C   UNL     1      60.090  -4.569   2.167  1.00  0.00     0.134 A 
ATOM      7  C   UNL     1      58.915  -5.176   2.625  1.00  0.00     0.093 A 
ATOM      8  C   UNL     1      57.662  -4.742   2.189  1.00  0.00     0.123 A 
ATOM      9  C   UNL     1      57.571  -3.681   1.292  1.00  0.00     0.094 A 
ATOM     10  C   UNL     1      58.724  -3.029   0.846  1.00  0.00     0.146 A 
ATOM     11  O   UNL     1      58.589  -2.009   0.008  1.00  0.00    -0.452 OA
ENDROOT
BRANCH   1  12
ATOM     12  C   UNL     1      59.327  -0.187  -1.387  1.00  0.00     0.025 A 
ATOM     13  C   UNL     1      59.979  -0.087  -2.628  1.00  0.00     0.016 A 
ATOM     14  C   UNL     1      59.711   0.986  -3.482  1.00  0.00     0.051 A 
ATOM     15  C   UNL     1      58.801   1.979  -3.106  1.00  0.00     0.157 A 
ATOM     16  C   UNL     1      58.430   0.823  -1.002  1.00  0.00     0.062 A 
ATOM     17  C   UNL     1      58.159   1.900  -1.859  1.00  0.00     0.158 A 
BRANCH  15  18
ATOM     18  O   UNL     1      58.552   3.037  -3.980  1.00  0.00    -0.504 OA
ATOM     19  H   UNL     1      59.174   3.833  -4.052  1.00  0.00     0.293 HD
ENDBRANCH  15  18
BRANCH  17  20
ATOM     20  O   UNL     1      57.257   2.891  -1.474  1.00  0.00    -0.504 OA
ATOM     21  H   UNL     1      56.516   2.704  -0.808  1.00  0.00     0.293 HD
ENDBRANCH  17  20
ENDBRANCH   1  12
BRANCH   2  22
ATOM     22  O   UNL     1      62.010  -0.913  -0.566  1.00  0.00    -0.502 OA
ATOM     23  H   UNL     1      62.967  -1.130  -0.316  1.00  0.00     0.293 HD
ENDBRANCH   2  22
BRANCH   6  24
ATOM     24  O   UNL     1      61.293  -5.141   2.595  1.00  0.00    -0.507 OA
ATOM     25  H   UNL     1      62.105  -4.622   2.892  1.00  0.00     0.293 HD
ENDBRANCH   6  24
BRANCH   8  26
ATOM     26  O   UNL     1      56.498  -5.364   2.637  1.00  0.00    -0.508 OA
ATOM     27  H   UNL     1      55.590  -4.927   2.534  1.00  0.00     0.293 HD
ENDBRANCH   8  26
TORSDOF 6
ENDMDL
MODEL 7
REMARK VINA RESULT:    -6.258      1.696      7.254
REMARK INTER + INTRA:          -7.605
REMARK INTER:                  -7.782
REMARK INTRA:                   0.176
REMARK UNBOUND:                -0.066
REMARK SMILES O=c1c(O)c(-c2ccc(O)c(O)c2)oc2cc(O)cc(O)c12
REMARK SMILES IDX 5 1 3 2 2 3 1 4 22 5 20 6 19 7 17 8 16 9 15 10 14 11 6 12
REMARK SMILES IDX 7 13 8 14 9 15 13 16 11 17 10 18 12 20 4 22 21 24 18 26
REMARK H PARENT 10 19 12 21 4 23 21 25 18 27
REMARK Flexibility Score: inf
ROOT
ATOM      1  C   UNL     1      58.415  -1.964  -0.669  1.00  0.00     0.180 A 
ATOM      2  C   UNL     1      59.505  -2.364  -1.461  1.00  0.00     0.208 A 
ATOM      3  C   UNL     1      60.052  -1.451  -2.377  1.00  0.00     0.238 A 
ATOM      4  O   UNL     1      60.978  -1.840  -3.136  1.00  0.00    -0.285 OA
ATOM      5  C   UNL     1      59.540  -0.133  -2.452  1.00  0.00     0.111 A 
ATOM      6  C   UNL     1      60.047   0.889  -3.311  1.00  0.00     0.134 A 
ATOM      7  C   UNL     1      59.392   2.125  -3.375  1.00  0.00     0.093 A 
ATOM      8  C   UNL     1      58.289   2.399  -2.564  1.00  0.00     0.123 A 
ATOM      9  C   UNL     1      57.821   1.428  -1.682  1.00  0.00     0.094 A 
ATOM     10  C   UNL     1      58.428   0.172  -1.623  1.00  0.00     0.146 A 
ATOM     11  O   UNL     1      57.935  -0.731  -0.783  1.00  0.00    -0.452 OA
ENDROOT
BRANCH   1  12
ATOM     12  C   UNL     1      57.775  -2.873   0.309  1.00  0.00     0.025 A 
ATOM     13  C   UNL     1      58.533  -3.782   1.068  1.00  0.00     0.016 A 
ATOM     14  C   UNL     1      57.905  -4.647   1.967  1.00  0.00     0.051 A 
ATOM     15  C   UNL     1      56.514  -4.629   2.112  1.00  0.00     0.157 A 
ATOM     16  C   UNL     1      56.377  -2.871   0.441  1.00  0.00     0.062 A 
ATOM     17  C   UNL     1      55.745  -3.738   1.344  1.00  0.00     0.158 A 
BRANCH  15  18
ATOM     18  O   UNL     1      55.915  -5.502   3.019  1.00  0.00    -0.504 OA
ATOM     19  H   UNL     1      55.386  -6.312   2.717  1.00  0.00     0.293 HD
ENDBRANCH  15  18
BRANCH  17  20
ATOM     20  O   UNL     1      54.358  -3.719   1.479  1.00  0.00    -0.504 OA
ATOM     21  H   UNL     1      53.867  -4.422   2.020  1.00  0.00     0.293 HD
ENDBRANCH  17  20
ENDBRANCH   1  12
BRANCH   2  22
ATOM     22  O   UNL     1      60.045  -3.645  -1.320  1.00  0.00    -0.502 OA
ATOM     23  H   UNL     1      59.467  -4.471  -1.223  1.00  0.00     0.293 HD
ENDBRANCH   2  22
BRANCH   6  24
ATOM     24  O   UNL     1      61.195   0.752  -4.098  1.00  0.00    -0.507 OA
ATOM     25  H   UNL     1      62.141   0.843  -3.761  1.00  0.00     0.293 HD
ENDBRANCH   6  24
BRANCH   8  26
ATOM     26  O   UNL     1      57.655   3.638  -2.621  1.00  0.00    -0.508 OA
ATOM     27  H   UNL     1      58.175   4.504  -2.538  1.00  0.00     0.293 HD
ENDBRANCH   8  26
TORSDOF 6
ENDMDL
MODEL 8
REMARK VINA RESULT:    -6.211      2.060      2.702
REMARK INTER + INTRA:          -7.549
REMARK INTER:                  -7.281
REMARK INTRA:                  -0.268
REMARK UNBOUND:                -0.066
REMARK SMILES O=c1c(O)c(-c2ccc(O)c(O)c2)oc2cc(O)cc(O)c12
REMARK SMILES IDX 5 1 3 2 2 3 1 4 22 5 20 6 19 7 17 8 16 9 15 10 14 11 6 12
REMARK SMILES IDX 7 13 8 14 9 15 13 16 11 17 10 18 12 20 4 22 21 24 18 26
REMARK H PARENT 10 19 12 21 4 23 21 25 18 27
REMARK Flexibility Score: inf
ROOT
ATOM      1  C   UNL     1      58.579  -1.411  -0.959  1.00  0.00     0.180 A 
ATOM      2  C   UNL     1      58.949  -1.526   0.392  1.00  0.00     0.208 A 
ATOM      3  C   UNL     1      58.712  -2.737   1.061  1.00  0.00     0.238 A 
ATOM      4  O   UNL     1      58.976  -2.809   2.290  1.00  0.00    -0.285 OA
ATOM      5  C   UNL     1      58.161  -3.836   0.358  1.00  0.00     0.111 A 
ATOM      6  C   UNL     1      57.920  -5.125   0.924  1.00  0.00     0.134 A 
ATOM      7  C   UNL     1      57.272  -6.104   0.160  1.00  0.00     0.093 A 
ATOM      8  C   UNL     1      56.915  -5.863  -1.168  1.00  0.00     0.123 A 
ATOM      9  C   UNL     1      57.195  -4.628  -1.746  1.00  0.00     0.094 A 
ATOM     10  C   UNL     1      57.806  -3.617  -0.999  1.00  0.00     0.146 A 
ATOM     11  O   UNL     1      58.035  -2.448  -1.584  1.00  0.00    -0.452 OA
ENDROOT
BRANCH   1  12
ATOM     12  C   UNL     1      58.784  -0.162  -1.728  1.00  0.00     0.025 A 
ATOM     13  C   UNL     1      59.849  -0.027  -2.636  1.00  0.00     0.016 A 
ATOM     14  C   UNL     1      60.037   1.169  -3.332  1.00  0.00     0.051 A 
ATOM     15  C   UNL     1      59.176   2.251  -3.124  1.00  0.00     0.157 A 
ATOM     16  C   UNL     1      57.933   0.933  -1.506  1.00  0.00     0.062 A 
ATOM     17  C   UNL     1      58.120   2.135  -2.204  1.00  0.00     0.158 A 
BRANCH  15  18
ATOM     18  O   UNL     1      59.386   3.432  -3.835  1.00  0.00    -0.504 OA
ATOM     19  H   UNL     1      59.886   4.218  -3.437  1.00  0.00     0.293 HD
ENDBRANCH  15  18
BRANCH  17  20
ATOM     20  O   UNL     1      57.262   3.212  -1.987  1.00  0.00    -0.504 OA
ATOM     21  H   UNL     1      56.262   3.081  -1.879  1.00  0.00     0.293 HD
ENDBRANCH  17  20
ENDBRANCH   1  12
BRANCH   2  22
ATOM     22  O   UNL     1      59.562  -0.455   1.048  1.00  0.00    -0.502 OA
ATOM     23  H   UNL     1      60.219  -0.587   1.807  1.00  0.00     0.293 HD
ENDBRANCH   2  22
BRANCH   6  24
ATOM     24  O   UNL     1      58.315  -5.502   2.212  1.00  0.00    -0.507 OA
ATOM     25  H   UNL     1      58.920  -4.962   2.811  1.00  0.00     0.293 HD
ENDBRANCH   6  24
BRANCH   8  26
ATOM     26  O   UNL     1      56.287  -6.849  -1.925  1.00  0.00    -0.508 OA
ATOM     27  H   UNL     1      56.459  -6.944  -2.920  1.00  0.00     0.293 HD
ENDBRANCH   8  26
TORSDOF 6
ENDMDL
MODEL 9
REMARK VINA RESULT:    -6.160      1.923      7.119
REMARK INTER + INTRA:          -7.486
REMARK INTER:                  -7.157
REMARK INTRA:                  -0.329
REMARK UNBOUND:                -0.066
REMARK SMILES O=c1c(O)c(-c2ccc(O)c(O)c2)oc2cc(O)cc(O)c12
REMARK SMILES IDX 5 1 3 2 2 3 1 4 22 5 20 6 19 7 17 8 16 9 15 10 14 11 6 12
REMARK SMILES IDX 7 13 8 14 9 15 13 16 11 17 10 18 12 20 4 22 21 24 18 26
REMARK H PARENT 10 19 12 21 4 23 21 25 18 27
REMARK Flexibility Score: inf
ROOT
ATOM      1  C   UNL     1      57.211  -3.680  -0.183  1.00  0.00     0.180 A 
ATOM      2  C   UNL     1      58.167  -4.166  -1.091  1.00  0.00     0.208 A 
ATOM      3  C   UNL     1      58.872  -3.253  -1.891  1.00  0.00     0.238 A 
ATOM      4  O   UNL     1      59.672  -3.699  -2.755  1.00  0.00    -0.285 OA
ATOM      5  C   UNL     1      58.654  -1.863  -1.734  1.00  0.00     0.111 A 
ATOM      6  C   UNL     1      59.345  -0.844  -2.459  1.00  0.00     0.134 A 
ATOM      7  C   UNL     1      58.970   0.495  -2.296  1.00  0.00     0.093 A 
ATOM      8  C   UNL     1      57.974   0.859  -1.387  1.00  0.00     0.123 A 
ATOM      9  C   UNL     1      57.333  -0.121  -0.634  1.00  0.00     0.094 A 
ATOM     10  C   UNL     1      57.657  -1.470  -0.802  1.00  0.00     0.146 A 
ATOM     11  O   UNL     1      57.005  -2.373  -0.080  1.00  0.00    -0.452 OA
ENDROOT
BRANCH   1  12
ATOM     12  C   UNL     1      56.418  -4.581   0.684  1.00  0.00     0.025 A 
ATOM     13  C   UNL     1      55.162  -5.067   0.280  1.00  0.00     0.016 A 
ATOM     14  C   UNL     1      54.421  -5.896   1.126  1.00  0.00     0.051 A 
ATOM     15  C   UNL     1      54.913  -6.241   2.389  1.00  0.00     0.157 A 
ATOM     16  C   UNL     1      56.901  -4.912   1.961  1.00  0.00     0.062 A 
ATOM     17  C   UNL     1      56.158  -5.745   2.810  1.00  0.00     0.158 A 
BRANCH  15  18
ATOM     18  O   UNL     1      54.152  -7.072   3.209  1.00  0.00    -0.504 OA
ATOM     19  H   UNL     1      54.374  -8.052   3.337  1.00  0.00     0.293 HD
ENDBRANCH  15  18
BRANCH  17  20
ATOM     20  O   UNL     1      56.652  -6.079   4.071  1.00  0.00    -0.504 OA
ATOM     21  H   UNL     1      57.486  -5.644   4.446  1.00  0.00     0.293 HD
ENDBRANCH  17  20
ENDBRANCH   1  12
BRANCH   2  22
ATOM     22  O   UNL     1      58.423  -5.537  -1.178  1.00  0.00    -0.502 OA
ATOM     23  H   UNL     1      59.230  -5.969  -0.744  1.00  0.00     0.293 HD
ENDBRANCH   2  22
BRANCH   6  24
ATOM     24  O   UNL     1      60.415  -1.089  -3.327  1.00  0.00    -0.507 OA
ATOM     25  H   UNL     1      61.382  -0.893  -3.120  1.00  0.00     0.293 HD
ENDBRANCH   6  24
BRANCH   8  26
ATOM     26  O   UNL     1      57.620   2.196  -1.218  1.00  0.00    -0.508 OA
ATOM     27  H   UNL     1      58.105   2.939  -1.708  1.00  0.00     0.293 HD
ENDBRANCH   8  26
TORSDOF 6
ENDMDL
