MODEL 1
REMARK VINA RESULT:    -5.960      0.000      0.000
REMARK INTER + INTRA:          -7.270
REMARK INTER:                  -7.005
REMARK INTRA:                  -0.264
REMARK UNBOUND:                -0.264
REMARK SMILES O=c1cc(-c2ccc(O)c(O)c2)oc2cc(O)cc(O)c12
REMARK SMILES IDX 4 1 3 2 2 3 1 4 21 5 19 6 18 7 16 8 15 9 14 10 13 11 5 12
REMARK SMILES IDX 6 13 7 14 8 15 12 16 10 17 9 18 11 20 20 22 17 24
REMARK H PARENT 9 19 11 21 20 23 17 25
REMARK Flexibility Score: inf
ROOT
ATOM      1  C   UNL     1      26.964  40.880  15.607  1.00  0.00     0.138 A 
ATOM      2  C   UNL     1      26.210  40.223  14.625  1.00  0.00     0.100 A 
ATOM      3  C   UNL     1      25.937  40.867  13.418  1.00  0.00     0.197 A 
ATOM      4  O   UNL     1      25.206  40.278  12.581  1.00  0.00    -0.289 OA
ATOM      5  C   UNL     1      26.451  42.165  13.181  1.00  0.00     0.107 A 
ATOM      6  C   UNL     1      26.273  42.902  11.972  1.00  0.00     0.134 A 
ATOM      7  C   UNL     1      26.728  44.224  11.897  1.00  0.00     0.093 A 
ATOM      8  C   UNL     1      27.410  44.814  12.965  1.00  0.00     0.123 A 
ATOM      9  C   UNL     1      27.637  44.084  14.129  1.00  0.00     0.094 A 
ATOM     10  C   UNL     1      27.164  42.775  14.249  1.00  0.00     0.146 A 
ATOM     11  O   UNL     1      27.389  42.118  15.381  1.00  0.00    -0.456 OA
ENDROOT
BRANCH   1  12
ATOM     12  C   UNL     1      27.284  40.240  16.907  1.00  0.00     0.021 A 
ATOM     13  C   UNL     1      26.817  40.767  18.127  1.00  0.00     0.016 A 
ATOM     14  C   UNL     1      27.125  40.137  19.335  1.00  0.00     0.051 A 
ATOM     15  C   UNL     1      27.897  38.969  19.349  1.00  0.00     0.157 A 
ATOM     16  C   UNL     1      28.047  39.058  16.929  1.00  0.00     0.062 A 
ATOM     17  C   UNL     1      28.357  38.426  18.139  1.00  0.00     0.158 A 
BRANCH  15  18
ATOM     18  O   UNL     1      28.203  38.345  20.557  1.00  0.00    -0.504 OA
ATOM     19  H   UNL     1      29.160  38.135  20.819  1.00  0.00     0.293 HD
ENDBRANCH  15  18
BRANCH  17  20
ATOM     20  O   UNL     1      29.124  37.262  18.117  1.00  0.00    -0.504 OA
ATOM     21  H   UNL     1      29.080  36.603  17.347  1.00  0.00     0.293 HD
ENDBRANCH  17  20
ENDBRANCH   1  12
BRANCH   6  22
ATOM     22  O   UNL     1      25.682  42.379  10.819  1.00  0.00    -0.507 OA
ATOM     23  H   UNL     1      25.063  42.887  10.207  1.00  0.00     0.293 HD
ENDBRANCH   6  22
BRANCH   8  24
ATOM     24  O   UNL     1      27.873  46.125  12.874  1.00  0.00    -0.508 OA
ATOM     25  H   UNL     1      28.465  46.529  13.589  1.00  0.00     0.293 HD
ENDBRANCH   8  24
TORSDOF 5
ENDMDL
MODEL 2
REMARK VINA RESULT:    -5.867      3.790      6.697
REMARK INTER + INTRA:          -7.161
REMARK INTER:                  -6.854
REMARK INTRA:                  -0.306
REMARK UNBOUND:                -0.264
REMARK SMILES O=c1cc(-c2ccc(O)c(O)c2)oc2cc(O)cc(O)c12
REMARK SMILES IDX 4 1 3 2 2 3 1 4 21 5 19 6 18 7 16 8 15 9 14 10 13 11 5 12
REMARK SMILES IDX 6 13 7 14 8 15 12 16 10 17 9 18 11 20 20 22 17 24
REMARK H PARENT 9 19 11 21 20 23 17 25
REMARK Flexibility Score: inf
ROOT
ATOM      1  C   UNL     1      28.990  38.183  14.820  1.00  0.00     0.138 A 
ATOM      2  C   UNL     1      28.188  39.247  14.387  1.00  0.00     0.100 A 
ATOM      3  C   UNL     1      27.497  40.017  15.323  1.00  0.00     0.197 A 
ATOM      4  O   UNL     1      26.738  40.926  14.901  1.00  0.00    -0.289 OA
ATOM      5  C   UNL     1      27.637  39.738  16.704  1.00  0.00     0.107 A 
ATOM      6  C   UNL     1      27.015  40.482  17.750  1.00  0.00     0.134 A 
ATOM      7  C   UNL     1      27.132  40.041  19.074  1.00  0.00     0.093 A 
ATOM      8  C   UNL     1      27.901  38.919  19.395  1.00  0.00     0.123 A 
ATOM      9  C   UNL     1      28.558  38.218  18.386  1.00  0.00     0.094 A 
ATOM     10  C   UNL     1      28.431  38.612  17.051  1.00  0.00     0.146 A 
ATOM     11  O   UNL     1      29.061  37.908  16.118  1.00  0.00    -0.456 OA
ENDROOT
BRANCH   1  12
ATOM     12  C   UNL     1      29.747  37.333  13.866  1.00  0.00     0.021 A 
ATOM     13  C   UNL     1      30.251  37.847  12.656  1.00  0.00     0.016 A 
ATOM     14  C   UNL     1      30.969  37.026  11.782  1.00  0.00     0.051 A 
ATOM     15  C   UNL     1      31.202  35.682  12.103  1.00  0.00     0.157 A 
ATOM     16  C   UNL     1      29.998  35.987  14.187  1.00  0.00     0.062 A 
ATOM     17  C   UNL     1      30.715  35.162  13.313  1.00  0.00     0.158 A 
BRANCH  15  18
ATOM     18  O   UNL     1      31.916  34.867  11.227  1.00  0.00    -0.504 OA
ATOM     19  H   UNL     1      31.623  34.733  10.266  1.00  0.00     0.293 HD
ENDBRANCH  15  18
BRANCH  17  20
ATOM     20  O   UNL     1      30.934  33.830  13.664  1.00  0.00    -0.504 OA
ATOM     21  H   UNL     1      31.846  33.491  13.945  1.00  0.00     0.293 HD
ENDBRANCH  17  20
ENDBRANCH   1  12
BRANCH   6  22
ATOM     22  O   UNL     1      26.297  41.664  17.548  1.00  0.00    -0.507 OA
ATOM     23  H   UNL     1      26.551  42.388  16.895  1.00  0.00     0.293 HD
ENDBRANCH   6  22
BRANCH   8  24
ATOM     24  O   UNL     1      28.025  38.497  20.717  1.00  0.00    -0.508 OA
ATOM     25  H   UNL     1      27.963  37.518  20.969  1.00  0.00     0.293 HD
ENDBRANCH   8  24
TORSDOF 5
ENDMDL
MODEL 3
REMARK VINA RESULT:    -5.766      2.584      6.572
REMARK INTER + INTRA:          -7.042
REMARK INTER:                  -6.738
REMARK INTRA:                  -0.304
REMARK UNBOUND:                -0.264
REMARK SMILES O=c1cc(-c2ccc(O)c(O)c2)oc2cc(O)cc(O)c12
REMARK SMILES IDX 4 1 3 2 2 3 1 4 21 5 19 6 18 7 16 8 15 9 14 10 13 11 5 12
REMARK SMILES IDX 6 13 7 14 8 15 12 16 10 17 9 18 11 20 20 22 17 24
REMARK H PARENT 9 19 11 21 20 23 17 25
REMARK Flexibility Score: inf
ROOT
ATOM      1  C   UNL     1      27.093  40.952  16.324  1.00  0.00     0.138 A 
ATOM      2  C   UNL     1      27.196  40.387  17.602  1.00  0.00     0.100 A 
ATOM      3  C   UNL     1      27.920  39.207  17.780  1.00  0.00     0.197 A 
ATOM      4  O   UNL     1      27.943  38.690  18.926  1.00  0.00    -0.289 OA
ATOM      5  C   UNL     1      28.572  38.609  16.674  1.00  0.00     0.107 A 
ATOM      6  C   UNL     1      29.372  37.430  16.744  1.00  0.00     0.134 A 
ATOM      7  C   UNL     1      29.871  36.864  15.563  1.00  0.00     0.093 A 
ATOM      8  C   UNL     1      29.650  37.471  14.324  1.00  0.00     0.123 A 
ATOM      9  C   UNL     1      28.917  38.653  14.252  1.00  0.00     0.094 A 
ATOM     10  C   UNL     1      28.375  39.222  15.407  1.00  0.00     0.146 A 
ATOM     11  O   UNL     1      27.669  40.341  15.294  1.00  0.00    -0.456 OA
ENDROOT
BRANCH   1  12
ATOM     12  C   UNL     1      26.337  42.206  16.081  1.00  0.00     0.021 A 
ATOM     13  C   UNL     1      26.279  43.234  17.040  1.00  0.00     0.016 A 
ATOM     14  C   UNL     1      25.567  44.408  16.779  1.00  0.00     0.051 A 
ATOM     15  C   UNL     1      24.907  44.579  15.556  1.00  0.00     0.157 A 
ATOM     16  C   UNL     1      25.682  42.392  14.849  1.00  0.00     0.062 A 
ATOM     17  C   UNL     1      24.968  43.566  14.586  1.00  0.00     0.158 A 
BRANCH  15  18
ATOM     18  O   UNL     1      24.197  45.751  15.300  1.00  0.00    -0.504 OA
ATOM     19  H   UNL     1      23.262  45.896  15.666  1.00  0.00     0.293 HD
ENDBRANCH  15  18
BRANCH  17  20
ATOM     20  O   UNL     1      24.326  43.706  13.356  1.00  0.00    -0.504 OA
ATOM     21  H   UNL     1      24.731  44.240  12.595  1.00  0.00     0.293 HD
ENDBRANCH  17  20
ENDBRANCH   1  12
BRANCH   6  22
ATOM     22  O   UNL     1      29.723  36.793  17.937  1.00  0.00    -0.507 OA
ATOM     23  H   UNL     1      30.206  37.234  18.704  1.00  0.00     0.293 HD
ENDBRANCH   6  22
BRANCH   8  24
ATOM     24  O   UNL     1      30.165  36.910  13.157  1.00  0.00    -0.508 OA
ATOM     25  H   UNL     1      29.750  37.095  12.252  1.00  0.00     0.293 HD
ENDBRANCH   8  24
TORSDOF 5
ENDMDL
MODEL 4
REMARK VINA RESULT:    -5.693      2.578      3.271
REMARK INTER + INTRA:          -6.956
REMARK INTER:                  -6.656
REMARK INTRA:                  -0.300
REMARK UNBOUND:                -0.264
REMARK SMILES O=c1cc(-c2ccc(O)c(O)c2)oc2cc(O)cc(O)c12
REMARK SMILES IDX 4 1 3 2 2 3 1 4 21 5 19 6 18 7 16 8 15 9 14 10 13 11 5 12
REMARK SMILES IDX 6 13 7 14 8 15 12 16 10 17 9 18 11 20 20 22 17 24
REMARK H PARENT 9 19 11 21 20 23 17 25
REMARK Flexibility Score: inf
ROOT
ATOM      1  C   UNL     1      26.695  42.052  16.160  1.00  0.00     0.138 A 
ATOM      2  C   UNL     1      27.337  42.393  14.962  1.00  0.00     0.100 A 
ATOM      3  C   UNL     1      26.866  43.467  14.207  1.00  0.00     0.197 A 
ATOM      4  O   UNL     1      27.424  43.710  13.106  1.00  0.00    -0.289 OA
ATOM      5  C   UNL     1      25.763  44.223  14.671  1.00  0.00     0.107 A 
ATOM      6  C   UNL     1      25.223  45.364  14.007  1.00  0.00     0.134 A 
ATOM      7  C   UNL     1      24.056  45.963  14.501  1.00  0.00     0.093 A 
ATOM      8  C   UNL     1      23.448  45.498  15.671  1.00  0.00     0.123 A 
ATOM      9  C   UNL     1      24.000  44.420  16.357  1.00  0.00     0.094 A 
ATOM     10  C   UNL     1      25.142  43.779  15.870  1.00  0.00     0.146 A 
ATOM     11  O   UNL     1      25.628  42.744  16.547  1.00  0.00    -0.456 OA
ENDROOT
BRANCH   1  12
ATOM     12  C   UNL     1      27.156  40.920  17.002  1.00  0.00     0.021 A 
ATOM     13  C   UNL     1      27.664  39.735  16.436  1.00  0.00     0.016 A 
ATOM     14  C   UNL     1      28.100  38.689  17.254  1.00  0.00     0.051 A 
ATOM     15  C   UNL     1      28.045  38.810  18.648  1.00  0.00     0.157 A 
ATOM     16  C   UNL     1      27.117  41.038  18.404  1.00  0.00     0.062 A 
ATOM     17  C   UNL     1      27.552  39.991  19.224  1.00  0.00     0.158 A 
BRANCH  15  18
ATOM     18  O   UNL     1      28.479  37.763  19.460  1.00  0.00    -0.504 OA
ATOM     19  H   UNL     1      29.400  37.355  19.352  1.00  0.00     0.293 HD
ENDBRANCH  15  18
BRANCH  17  20
ATOM     20  O   UNL     1      27.487  40.146  20.609  1.00  0.00    -0.504 OA
ATOM     21  H   UNL     1      28.083  40.798  21.106  1.00  0.00     0.293 HD
ENDBRANCH  17  20
ENDBRANCH   1  12
BRANCH   6  22
ATOM     22  O   UNL     1      25.800  45.959  12.881  1.00  0.00    -0.507 OA
ATOM     23  H   UNL     1      26.746  46.303  12.833  1.00  0.00     0.293 HD
ENDBRANCH   6  22
BRANCH   8  24
ATOM     24  O   UNL     1      22.297  46.110  16.163  1.00  0.00    -0.508 OA
ATOM     25  H   UNL     1      22.290  46.584  17.059  1.00  0.00     0.293 HD
ENDBRANCH   8  24
TORSDOF 5
ENDMDL
MODEL 5
REMARK VINA RESULT:    -5.642      1.771      6.929
REMARK INTER + INTRA:          -6.896
REMARK INTER:                  -6.628
REMARK INTRA:                  -0.269
REMARK UNBOUND:                -0.264
REMARK SMILES O=c1cc(-c2ccc(O)c(O)c2)oc2cc(O)cc(O)c12
REMARK SMILES IDX 4 1 3 2 2 3 1 4 21 5 19 6 18 7 16 8 15 9 14 10 13 11 5 12
REMARK SMILES IDX 6 13 7 14 8 15 12 16 10 17 9 18 11 20 20 22 17 24
REMARK H PARENT 9 19 11 21 20 23 17 25
REMARK Flexibility Score: inf
ROOT
ATOM      1  C   UNL     1      26.592  41.400  15.093  1.00  0.00     0.138 A 
ATOM      2  C   UNL     1      27.304  40.374  14.458  1.00  0.00     0.100 A 
ATOM      3  C   UNL     1      27.944  39.400  15.225  1.00  0.00     0.197 A 
ATOM      4  O   UNL     1      28.626  38.527  14.629  1.00  0.00    -0.289 OA
ATOM      5  C   UNL     1      27.842  39.437  16.636  1.00  0.00     0.107 A 
ATOM      6  C   UNL     1      28.417  38.473  17.518  1.00  0.00     0.134 A 
ATOM      7  C   UNL     1      28.350  38.678  18.902  1.00  0.00     0.093 A 
ATOM      8  C   UNL     1      27.674  39.779  19.436  1.00  0.00     0.123 A 
ATOM      9  C   UNL     1      27.062  40.695  18.584  1.00  0.00     0.094 A 
ATOM     10  C   UNL     1      27.142  40.539  17.198  1.00  0.00     0.146 A 
ATOM     11  O   UNL     1      26.558  41.443  16.421  1.00  0.00    -0.456 OA
ENDROOT
BRANCH   1  12
ATOM     12  C   UNL     1      25.893  42.461  14.325  1.00  0.00     0.021 A 
ATOM     13  C   UNL     1      24.594  42.272  13.816  1.00  0.00     0.016 A 
ATOM     14  C   UNL     1      23.956  43.292  13.105  1.00  0.00     0.051 A 
ATOM     15  C   UNL     1      24.599  44.519  12.897  1.00  0.00     0.157 A 
ATOM     16  C   UNL     1      26.525  43.701  14.123  1.00  0.00     0.062 A 
ATOM     17  C   UNL     1      25.889  44.724  13.411  1.00  0.00     0.158 A 
BRANCH  15  18
ATOM     18  O   UNL     1      23.959  45.533  12.185  1.00  0.00    -0.504 OA
ATOM     19  H   UNL     1      23.106  45.361  11.666  1.00  0.00     0.293 HD
ENDBRANCH  15  18
BRANCH  17  20
ATOM     20  O   UNL     1      26.555  45.935  13.225  1.00  0.00    -0.504 OA
ATOM     21  H   UNL     1      27.347  46.022  12.598  1.00  0.00     0.293 HD
ENDBRANCH  17  20
ENDBRANCH   1  12
BRANCH   6  22
ATOM     22  O   UNL     1      29.039  37.297  17.091  1.00  0.00    -0.507 OA
ATOM     23  H   UNL     1      30.036  37.163  17.028  1.00  0.00     0.293 HD
ENDBRANCH   6  22
BRANCH   8  24
ATOM     24  O   UNL     1      27.598  39.965  20.814  1.00  0.00    -0.508 OA
ATOM     25  H   UNL     1      28.187  39.443  21.453  1.00  0.00     0.293 HD
ENDBRANCH   8  24
TORSDOF 5
ENDMDL
MODEL 6
REMARK VINA RESULT:    -5.589      1.382      3.024
REMARK INTER + INTRA:          -6.834
REMARK INTER:                  -6.557
REMARK INTRA:                  -0.277
REMARK UNBOUND:                -0.264
REMARK SMILES O=c1cc(-c2ccc(O)c(O)c2)oc2cc(O)cc(O)c12
REMARK SMILES IDX 4 1 3 2 2 3 1 4 21 5 19 6 18 7 16 8 15 9 14 10 13 11 5 12
REMARK SMILES IDX 6 13 7 14 8 15 12 16 10 17 9 18 11 20 20 22 17 24
REMARK H PARENT 9 19 11 21 20 23 17 25
REMARK Flexibility Score: inf
ROOT
ATOM      1  C   UNL     1      26.744  40.859  15.569  1.00  0.00     0.138 A 
ATOM      2  C   UNL     1      27.117  42.149  15.168  1.00  0.00     0.100 A 
ATOM      3  C   UNL     1      26.690  42.639  13.933  1.00  0.00     0.197 A 
ATOM      4  O   UNL     1      27.091  43.775  13.573  1.00  0.00    -0.289 OA
ATOM      5  C   UNL     1      25.858  41.842  13.110  1.00  0.00     0.107 A 
ATOM      6  C   UNL     1      25.327  42.254  11.851  1.00  0.00     0.134 A 
ATOM      7  C   UNL     1      24.611  41.336  11.072  1.00  0.00     0.093 A 
ATOM      8  C   UNL     1      24.354  40.043  11.535  1.00  0.00     0.123 A 
ATOM      9  C   UNL     1      24.820  39.650  12.787  1.00  0.00     0.094 A 
ATOM     10  C   UNL     1      25.568  40.530  13.573  1.00  0.00     0.146 A 
ATOM     11  O   UNL     1      26.007  40.112  14.754  1.00  0.00    -0.456 OA
ENDROOT
BRANCH   1  12
ATOM     12  C   UNL     1      27.170  40.290  16.873  1.00  0.00     0.021 A 
ATOM     13  C   UNL     1      26.767  40.859  18.096  1.00  0.00     0.016 A 
ATOM     14  C   UNL     1      27.175  40.295  19.308  1.00  0.00     0.051 A 
ATOM     15  C   UNL     1      27.985  39.152  19.321  1.00  0.00     0.157 A 
ATOM     16  C   UNL     1      27.972  39.134  16.895  1.00  0.00     0.062 A 
ATOM     17  C   UNL     1      28.382  38.569  18.108  1.00  0.00     0.158 A 
BRANCH  15  18
ATOM     18  O   UNL     1      28.391  38.595  20.532  1.00  0.00    -0.504 OA
ATOM     19  H   UNL     1      28.787  37.663  20.582  1.00  0.00     0.293 HD
ENDBRANCH  15  18
BRANCH  17  20
ATOM     20  O   UNL     1      29.185  37.428  18.085  1.00  0.00    -0.504 OA
ATOM     21  H   UNL     1      29.984  37.321  18.699  1.00  0.00     0.293 HD
ENDBRANCH  17  20
ENDBRANCH   1  12
BRANCH   6  22
ATOM     22  O   UNL     1      25.454  43.546  11.335  1.00  0.00    -0.507 OA
ATOM     23  H   UNL     1      24.893  44.335  11.614  1.00  0.00     0.293 HD
ENDBRANCH   6  22
BRANCH   8  24
ATOM     24  O   UNL     1      23.626  39.143  10.759  1.00  0.00    -0.508 OA
ATOM     25  H   UNL     1      23.272  39.396   9.844  1.00  0.00     0.293 HD
ENDBRANCH   8  24
TORSDOF 5
ENDMDL
MODEL 7
REMARK VINA RESULT:    -5.583      5.000      7.316
REMARK INTER + INTRA:          -6.827
REMARK INTER:                  -6.548
REMARK INTRA:                  -0.279
REMARK UNBOUND:                -0.264
REMARK SMILES O=c1cc(-c2ccc(O)c(O)c2)oc2cc(O)cc(O)c12
REMARK SMILES IDX 4 1 3 2 2 3 1 4 21 5 19 6 18 7 16 8 15 9 14 10 13 11 5 12
REMARK SMILES IDX 6 13 7 14 8 15 12 16 10 17 9 18 11 20 20 22 17 24
REMARK H PARENT 9 19 11 21 20 23 17 25
REMARK Flexibility Score: inf
ROOT
ATOM      1  C   UNL     1      29.631  37.384  14.892  1.00  0.00     0.138 A 
ATOM      2  C   UNL     1      30.136  38.100  13.799  1.00  0.00     0.100 A 
ATOM      3  C   UNL     1      30.764  37.418  12.756  1.00  0.00     0.197 A 
ATOM      4  O   UNL     1      31.261  38.093  11.819  1.00  0.00    -0.289 OA
ATOM      5  C   UNL     1      30.858  36.006  12.795  1.00  0.00     0.107 A 
ATOM      6  C   UNL     1      31.438  35.202  11.770  1.00  0.00     0.134 A 
ATOM      7  C   UNL     1      31.580  33.823  11.972  1.00  0.00     0.093 A 
ATOM      8  C   UNL     1      31.105  33.213  13.136  1.00  0.00     0.123 A 
ATOM      9  C   UNL     1      30.487  33.982  14.119  1.00  0.00     0.094 A 
ATOM     10  C   UNL     1      30.363  35.364  13.963  1.00  0.00     0.146 A 
ATOM     11  O   UNL     1      29.780  36.064  14.930  1.00  0.00    -0.456 OA
ENDROOT
BRANCH   1  12
ATOM     12  C   UNL     1      28.954  38.060  16.027  1.00  0.00     0.021 A 
ATOM     13  C   UNL     1      29.199  37.689  17.363  1.00  0.00     0.016 A 
ATOM     14  C   UNL     1      28.555  38.351  18.412  1.00  0.00     0.051 A 
ATOM     15  C   UNL     1      27.661  39.396  18.147  1.00  0.00     0.157 A 
ATOM     16  C   UNL     1      28.065  39.120  15.771  1.00  0.00     0.062 A 
ATOM     17  C   UNL     1      27.418  39.783  16.820  1.00  0.00     0.158 A 
BRANCH  15  18
ATOM     18  O   UNL     1      27.019  40.051  19.197  1.00  0.00    -0.504 OA
ATOM     19  H   UNL     1      27.355  40.937  19.554  1.00  0.00     0.293 HD
ENDBRANCH  15  18
BRANCH  17  20
ATOM     20  O   UNL     1      26.536  40.822  16.522  1.00  0.00    -0.504 OA
ATOM     21  H   UNL     1      26.863  41.747  16.266  1.00  0.00     0.293 HD
ENDBRANCH  17  20
ENDBRANCH   1  12
BRANCH   6  22
ATOM     22  O   UNL     1      31.866  35.699  10.536  1.00  0.00    -0.507 OA
ATOM     23  H   UNL     1      32.717  36.217  10.387  1.00  0.00     0.293 HD
ENDBRANCH   6  22
BRANCH   8  24
ATOM     24  O   UNL     1      31.237  31.838  13.321  1.00  0.00    -0.508 OA
ATOM     25  H   UNL     1      30.692  31.175  12.782  1.00  0.00     0.293 HD
ENDBRANCH   8  24
TORSDOF 5
ENDMDL
MODEL 8
REMARK VINA RESULT:    -5.560      1.856      2.814
REMARK INTER + INTRA:          -6.799
REMARK INTER:                  -6.510
REMARK INTRA:                  -0.289
REMARK UNBOUND:                -0.264
REMARK SMILES O=c1cc(-c2ccc(O)c(O)c2)oc2cc(O)cc(O)c12
REMARK SMILES IDX 4 1 3 2 2 3 1 4 21 5 19 6 18 7 16 8 15 9 14 10 13 11 5 12
REMARK SMILES IDX 6 13 7 14 8 15 12 16 10 17 9 18 11 20 20 22 17 24
REMARK H PARENT 9 19 11 21 20 23 17 25
REMARK Flexibility Score: inf
ROOT
ATOM      1  C   UNL     1      26.680  42.052  16.313  1.00  0.00     0.138 A 
ATOM      2  C   UNL     1      25.806  43.029  16.809  1.00  0.00     0.100 A 
ATOM      3  C   UNL     1      25.410  44.084  15.986  1.00  0.00     0.197 A 
ATOM      4  O   UNL     1      24.675  44.978  16.478  1.00  0.00    -0.289 OA
ATOM      5  C   UNL     1      25.868  44.142  14.648  1.00  0.00     0.107 A 
ATOM      6  C   UNL     1      25.497  45.147  13.705  1.00  0.00     0.134 A 
ATOM      7  C   UNL     1      26.105  45.167  12.443  1.00  0.00     0.093 A 
ATOM      8  C   UNL     1      27.024  44.182  12.070  1.00  0.00     0.123 A 
ATOM      9  C   UNL     1      27.351  43.165  12.964  1.00  0.00     0.094 A 
ATOM     10  C   UNL     1      26.788  43.138  14.242  1.00  0.00     0.146 A 
ATOM     11  O   UNL     1      27.138  42.160  15.070  1.00  0.00    -0.456 OA
ENDROOT
BRANCH   1  12
ATOM     12  C   UNL     1      27.131  40.909  17.145  1.00  0.00     0.021 A 
ATOM     13  C   UNL     1      27.610  39.717  16.569  1.00  0.00     0.016 A 
ATOM     14  C   UNL     1      28.039  38.661  17.378  1.00  0.00     0.051 A 
ATOM     15  C   UNL     1      28.003  38.778  18.773  1.00  0.00     0.157 A 
ATOM     16  C   UNL     1      27.112  41.023  18.547  1.00  0.00     0.062 A 
ATOM     17  C   UNL     1      27.540  39.966  19.359  1.00  0.00     0.158 A 
BRANCH  15  18
ATOM     18  O   UNL     1      28.429  37.721  19.576  1.00  0.00    -0.504 OA
ATOM     19  H   UNL     1      27.776  37.170  20.119  1.00  0.00     0.293 HD
ENDBRANCH  15  18
BRANCH  17  20
ATOM     20  O   UNL     1      27.495  40.117  20.745  1.00  0.00    -0.504 OA
ATOM     21  H   UNL     1      27.934  40.900  21.215  1.00  0.00     0.293 HD
ENDBRANCH  17  20
ENDBRANCH   1  12
BRANCH   6  22
ATOM     22  O   UNL     1      24.528  46.125  13.946  1.00  0.00    -0.507 OA
ATOM     23  H   UNL     1      24.701  47.118  13.952  1.00  0.00     0.293 HD
ENDBRANCH   6  22
BRANCH   8  24
ATOM     24  O   UNL     1      27.611  44.202  10.807  1.00  0.00    -0.508 OA
ATOM     25  H   UNL     1      28.399  44.803  10.598  1.00  0.00     0.293 HD
ENDBRANCH   8  24
TORSDOF 5
ENDMDL
MODEL 9
REMARK VINA RESULT:    -5.359      2.137      3.439
REMARK INTER + INTRA:          -6.562
REMARK INTER:                  -6.282
REMARK INTRA:                  -0.280
REMARK UNBOUND:                -0.264
REMARK SMILES O=c1cc(-c2ccc(O)c(O)c2)oc2cc(O)cc(O)c12
REMARK SMILES IDX 4 1 3 2 2 3 1 4 21 5 19 6 18 7 16 8 15 9 14 10 13 11 5 12
REMARK SMILES IDX 6 13 7 14 8 15 12 16 10 17 9 18 11 20 20 22 17 24
REMARK H PARENT 9 19 11 21 20 23 17 25
REMARK Flexibility Score: inf
ROOT
ATOM      1  C   UNL     1      26.679  41.236  15.999  1.00  0.00     0.138 A 
ATOM      2  C   UNL     1      26.620  42.418  16.750  1.00  0.00     0.100 A 
ATOM      3  C   UNL     1      25.873  43.499  16.279  1.00  0.00     0.197 A 
ATOM      4  O   UNL     1      25.889  44.567  16.943  1.00  0.00    -0.289 OA
ATOM      5  C   UNL     1      25.155  43.381  15.065  1.00  0.00     0.107 A 
ATOM      6  C   UNL     1      24.326  44.401  14.509  1.00  0.00     0.134 A 
ATOM      7  C   UNL     1      23.758  44.215  13.243  1.00  0.00     0.093 A 
ATOM      8  C   UNL     1      23.938  43.019  12.541  1.00  0.00     0.123 A 
ATOM      9  C   UNL     1      24.700  41.996  13.100  1.00  0.00     0.094 A 
ATOM     10  C   UNL     1      25.309  42.166  14.345  1.00  0.00     0.146 A 
ATOM     11  O   UNL     1      26.040  41.171  14.836  1.00  0.00    -0.456 OA
ENDROOT
BRANCH   1  12
ATOM     12  C   UNL     1      27.458  40.057  16.454  1.00  0.00     0.021 A 
ATOM     13  C   UNL     1      28.213  39.278  15.557  1.00  0.00     0.016 A 
ATOM     14  C   UNL     1      28.946  38.180  16.016  1.00  0.00     0.051 A 
ATOM     15  C   UNL     1      28.943  37.844  17.376  1.00  0.00     0.157 A 
ATOM     16  C   UNL     1      27.472  39.721  17.820  1.00  0.00     0.062 A 
ATOM     17  C   UNL     1      28.204  38.621  18.281  1.00  0.00     0.158 A 
BRANCH  15  18
ATOM     18  O   UNL     1      29.673  36.746  17.828  1.00  0.00    -0.504 OA
ATOM     19  H   UNL     1      29.478  35.807  17.500  1.00  0.00     0.293 HD
ENDBRANCH  15  18
BRANCH  17  20
ATOM     20  O   UNL     1      28.182  38.316  19.643  1.00  0.00    -0.504 OA
ATOM     21  H   UNL     1      28.637  38.904  20.332  1.00  0.00     0.293 HD
ENDBRANCH  17  20
ENDBRANCH   1  12
BRANCH   6  22
ATOM     22  O   UNL     1      24.013  45.596  15.163  1.00  0.00    -0.507 OA
ATOM     23  H   UNL     1      24.441  45.914  16.019  1.00  0.00     0.293 HD
ENDBRANCH   6  22
BRANCH   8  24
ATOM     24  O   UNL     1      23.355  42.837  11.288  1.00  0.00    -0.508 OA
ATOM     25  H   UNL     1      23.203  41.913  10.903  1.00  0.00     0.293 HD
ENDBRANCH   8  24
TORSDOF 5
ENDMDL
