MODEL 1
REMARK VINA RESULT:     1.774      0.000      0.000
REMARK INTER + INTRA:           2.051
REMARK INTER:                   2.397
REMARK INTRA:                  -0.346
REMARK UNBOUND:                -0.346
REMARK SMILES C=CC(C)=CCC=C(C)CCC=C(C)C
REMARK SMILES IDX 8 1 7 2 9 3 10 4 11 5 12 6 14 7 13 8 15 9 6 10 5 11 3 12
REMARK SMILES IDX 4 13 2 14 1 15
REMARK H PARENT
REMARK Flexibility Score: inf
ROOT
ATOM      1  C   UNL     1     135.441 140.004 162.936  1.00  0.00    -0.077 C 
ATOM      2  C   UNL     1     135.990 141.233 162.803  1.00  0.00    -0.024 C 
ATOM      3  C   UNL     1     135.449 139.357 164.296  1.00  0.00     0.039 C 
ENDROOT
BRANCH   1   4
ATOM      4  C   UNL     1     134.875 139.225 161.765  1.00  0.00     0.034 C 
BRANCH   4   5
ATOM      5  C   UNL     1     134.923 137.719 162.043  1.00  0.00     0.032 C 
BRANCH   5   6
ATOM      6  C   UNL     1     136.349 137.230 162.095  1.00  0.00    -0.028 C 
ATOM      7  C   UNL     1     135.730 134.875 161.507  1.00  0.00     0.039 C 
ATOM      8  C   UNL     1     136.729 135.961 161.822  1.00  0.00    -0.080 C 
ATOM      9  C   UNL     1     138.188 135.588 161.878  1.00  0.00     0.039 C 
ENDBRANCH   5   6
ENDBRANCH   4   5
ENDBRANCH   1   4
BRANCH   2  10
ATOM     10  C   UNL     1     136.061 142.004 161.508  1.00  0.00     0.055 C 
BRANCH  10  11
ATOM     11  C   UNL     1     137.485 142.342 161.151  1.00  0.00    -0.020 C 
ATOM     12  C   UNL     1     137.829 143.139 160.120  1.00  0.00    -0.055 C 
ATOM     13  C   UNL     1     139.292 143.429 159.883  1.00  0.00     0.044 C 
BRANCH  12  14
ATOM     14  C   UNL     1     136.797 143.754 159.236  1.00  0.00    -0.005 C 
ATOM     15  C   UNL     1     137.069 144.259 158.032  1.00  0.00     0.009 C 
ENDBRANCH  12  14
ENDBRANCH  10  11
ENDBRANCH   2  10
TORSDOF 6
ENDMDL
MODEL 2
REMARK VINA RESULT:     2.194      0.852      6.350
REMARK INTER + INTRA:           2.618
REMARK INTER:                   3.128
REMARK INTRA:                  -0.511
REMARK UNBOUND:                -0.346
REMARK SMILES C=CC(C)=CCC=C(C)CCC=C(C)C
REMARK SMILES IDX 8 1 7 2 9 3 10 4 11 5 12 6 14 7 13 8 15 9 6 10 5 11 3 12
REMARK SMILES IDX 4 13 2 14 1 15
REMARK H PARENT
REMARK Flexibility Score: inf
ROOT
ATOM      1  C   UNL     1     135.851 140.258 163.895  1.00  0.00    -0.077 C 
ATOM      2  C   UNL     1     135.532 139.018 163.460  1.00  0.00    -0.024 C 
ATOM      3  C   UNL     1     136.295 140.426 165.325  1.00  0.00     0.039 C 
ENDROOT
BRANCH   1   4
ATOM      4  C   UNL     1     135.720 141.494 163.027  1.00  0.00     0.034 C 
BRANCH   4   5
ATOM      5  C   UNL     1     136.936 141.640 162.107  1.00  0.00     0.032 C 
BRANCH   5   6
ATOM      6  C   UNL     1     136.594 142.472 160.896  1.00  0.00    -0.028 C 
ATOM      7  C   UNL     1     138.978 143.103 160.458  1.00  0.00     0.039 C 
ATOM      8  C   UNL     1     137.507 143.107 160.126  1.00  0.00    -0.080 C 
ATOM      9  C   UNL     1     137.054 143.889 158.920  1.00  0.00     0.039 C 
ENDBRANCH   5   6
ENDBRANCH   4   5
ENDBRANCH   1   4
BRANCH   2  10
ATOM     10  C   UNL     1     135.068 138.695 162.062  1.00  0.00     0.055 C 
BRANCH  10  11
ATOM     11  C   UNL     1     134.875 137.212 161.879  1.00  0.00    -0.020 C 
ATOM     12  C   UNL     1     135.887 136.344 161.680  1.00  0.00    -0.055 C 
ATOM     13  C   UNL     1     135.566 134.875 161.541  1.00  0.00     0.044 C 
BRANCH  12  14
ATOM     14  C   UNL     1     137.304 136.804 161.621  1.00  0.00    -0.005 C 
ATOM     15  C   UNL     1     138.348 135.990 161.788  1.00  0.00     0.009 C 
ENDBRANCH  12  14
ENDBRANCH  10  11
ENDBRANCH   2  10
TORSDOF 6
ENDMDL
MODEL 3
REMARK VINA RESULT:     4.354     12.384     14.993
REMARK INTER + INTRA:           5.535
REMARK INTER:                   6.116
REMARK INTRA:                  -0.581
REMARK UNBOUND:                -0.346
REMARK SMILES C=CC(C)=CCC=C(C)CCC=C(C)C
REMARK SMILES IDX 8 1 7 2 9 3 10 4 11 5 12 6 14 7 13 8 15 9 6 10 5 11 3 12
REMARK SMILES IDX 4 13 2 14 1 15
REMARK H PARENT
REMARK Flexibility Score: inf
ROOT
ATOM      1  C   UNL     1     151.360 134.940 162.208  1.00  0.00    -0.077 C 
ATOM      2  C   UNL     1     150.736 134.904 161.009  1.00  0.00    -0.024 C 
ATOM      3  C   UNL     1     152.865 134.875 162.236  1.00  0.00     0.039 C 
ENDROOT
BRANCH   1   4
ATOM      4  C   UNL     1     150.611 134.978 163.525  1.00  0.00     0.034 C 
BRANCH   4   5
ATOM      5  C   UNL     1     150.620 136.393 164.113  1.00  0.00     0.032 C 
BRANCH   5   6
ATOM      6  C   UNL     1     151.549 136.474 165.299  1.00  0.00    -0.028 C 
ATOM      7  C   UNL     1     150.804 138.782 165.926  1.00  0.00     0.039 C 
ATOM      8  C   UNL     1     151.616 137.529 166.142  1.00  0.00    -0.080 C 
ATOM      9  C   UNL     1     152.563 137.491 167.314  1.00  0.00     0.039 C 
ENDBRANCH   5   6
ENDBRANCH   4   5
ENDBRANCH   1   4
BRANCH   2  10
ATOM     10  C   UNL     1     149.240 134.955 160.821  1.00  0.00     0.055 C 
BRANCH  10  11
ATOM     11  C   UNL     1     148.871 134.921 159.361  1.00  0.00    -0.020 C 
ATOM     12  C   UNL     1     147.846 135.619 158.831  1.00  0.00    -0.055 C 
ATOM     13  C   UNL     1     147.596 135.526 157.345  1.00  0.00     0.044 C 
BRANCH  12  14
ATOM     14  C   UNL     1     146.982 136.492 159.677  1.00  0.00    -0.005 C 
ATOM     15  C   UNL     1     146.269 137.509 159.192  1.00  0.00     0.009 C 
ENDBRANCH  12  14
ENDBRANCH  10  11
ENDBRANCH   2  10
TORSDOF 6
ENDMDL
MODEL 4
REMARK VINA RESULT:     4.603      2.400      6.063
REMARK INTER + INTRA:           5.872
REMARK INTER:                   6.614
REMARK INTRA:                  -0.742
REMARK UNBOUND:                -0.346
REMARK SMILES C=CC(C)=CCC=C(C)CCC=C(C)C
REMARK SMILES IDX 8 1 7 2 9 3 10 4 11 5 12 6 14 7 13 8 15 9 6 10 5 11 3 12
REMARK SMILES IDX 4 13 2 14 1 15
REMARK H PARENT
REMARK Flexibility Score: inf
ROOT
ATOM      1  C   UNL     1     135.703 140.158 162.671  1.00  0.00    -0.077 C 
ATOM      2  C   UNL     1     134.925 139.185 162.144  1.00  0.00    -0.024 C 
ATOM      3  C   UNL     1     135.647 141.533 162.058  1.00  0.00     0.039 C 
ENDROOT
BRANCH   1   4
ATOM      4  C   UNL     1     136.674 139.909 163.808  1.00  0.00     0.034 C 
BRANCH   4   5
ATOM      5  C   UNL     1     135.969 140.045 165.161  1.00  0.00     0.032 C 
BRANCH   5   6
ATOM      6  C   UNL     1     136.215 138.829 166.018  1.00  0.00    -0.028 C 
ATOM      7  C   UNL     1     138.658 139.315 166.287  1.00  0.00     0.039 C 
ATOM      8  C   UNL     1     137.412 138.507 166.559  1.00  0.00    -0.080 C 
ATOM      9  C   UNL     1     137.538 137.280 167.424  1.00  0.00     0.039 C 
ENDBRANCH   5   6
ENDBRANCH   4   5
ENDBRANCH   1   4
BRANCH   2  10
ATOM     10  C   UNL     1     134.877 137.763 162.644  1.00  0.00     0.055 C 
BRANCH  10  11
ATOM     11  C   UNL     1     135.152 136.783 161.534  1.00  0.00    -0.020 C 
ATOM     12  C   UNL     1     136.226 135.969 161.503  1.00  0.00    -0.055 C 
ATOM     13  C   UNL     1     136.375 135.007 160.349  1.00  0.00     0.044 C 
BRANCH  12  14
ATOM     14  C   UNL     1     137.245 135.986 162.592  1.00  0.00    -0.005 C 
ATOM     15  C   UNL     1     137.754 134.881 163.138  1.00  0.00     0.009 C 
ENDBRANCH  12  14
ENDBRANCH  10  11
ENDBRANCH   2  10
TORSDOF 6
ENDMDL
