MODEL 1
REMARK VINA RESULT:    -4.839      0.000      0.000
REMARK INTER + INTRA:          -6.482
REMARK INTER:                  -6.253
REMARK INTRA:                  -0.229
REMARK UNBOUND:                -0.229
REMARK SMILES C=CC(=O)CCCCC
REMARK SMILES IDX 6 1 7 2 8 3 9 4 5 5 3 6 4 7 2 8 1 9
REMARK H PARENT
REMARK Flexibility Score: inf
ROOT
ATOM      1  C   UNL     1      25.979 -13.724  28.317  1.00  0.00     0.008 C 
ENDROOT
BRANCH   1   2
ATOM      2  C   UNL     1      25.733 -14.491  29.626  1.00  0.00     0.000 C 
BRANCH   2   3
ATOM      3  C   UNL     1      26.685 -14.059  30.752  1.00  0.00    -0.003 C 
ATOM      4  C   UNL     1      26.372 -14.799  32.049  1.00  0.00     0.004 C 
ENDBRANCH   2   3
ENDBRANCH   1   2
BRANCH   1   5
ATOM      5  C   UNL     1      27.045 -12.624  28.464  1.00  0.00     0.080 C 
BRANCH   5   6
ATOM      6  C   UNL     1      28.272 -12.876  27.619  1.00  0.00     0.155 C 
ATOM      7  O   UNL     1      29.295 -13.406  28.133  1.00  0.00    -0.295 OA
BRANCH   6   8
ATOM      8  C   UNL     1      28.315 -12.533  26.182  1.00  0.00     0.039 C 
ATOM      9  C   UNL     1      28.590 -11.313  25.723  1.00  0.00     0.012 C 
ENDBRANCH   6   8
ENDBRANCH   5   6
ENDBRANCH   1   5
TORSDOF 5
ENDMDL
MODEL 2
REMARK VINA RESULT:    -4.758      0.953      1.855
REMARK INTER + INTRA:          -6.378
REMARK INTER:                  -6.190
REMARK INTRA:                  -0.188
REMARK UNBOUND:                -0.229
REMARK SMILES C=CC(=O)CCCCC
REMARK SMILES IDX 6 1 7 2 8 3 9 4 5 5 3 6 4 7 2 8 1 9
REMARK H PARENT
REMARK Flexibility Score: inf
ROOT
ATOM      1  C   UNL     1      27.001 -13.425  29.864  1.00  0.00     0.008 C 
ENDROOT
BRANCH   1   2
ATOM      2  C   UNL     1      25.890 -14.483  29.778  1.00  0.00     0.000 C 
BRANCH   2   3
ATOM      3  C   UNL     1      25.244 -14.550  28.387  1.00  0.00    -0.003 C 
ATOM      4  C   UNL     1      23.959 -15.374  28.417  1.00  0.00     0.004 C 
ENDBRANCH   2   3
ENDBRANCH   1   2
BRANCH   1   5
ATOM      5  C   UNL     1      27.080 -12.543  28.606  1.00  0.00     0.080 C 
BRANCH   5   6
ATOM      6  C   UNL     1      28.300 -12.828  27.762  1.00  0.00     0.155 C 
ATOM      7  O   UNL     1      29.312 -13.378  28.278  1.00  0.00    -0.295 OA
BRANCH   6   8
ATOM      8  C   UNL     1      28.348 -12.496  26.322  1.00  0.00     0.039 C 
ATOM      9  C   UNL     1      28.694 -11.298  25.853  1.00  0.00     0.012 C 
ENDBRANCH   6   8
ENDBRANCH   5   6
ENDBRANCH   1   5
TORSDOF 5
ENDMDL
MODEL 3
REMARK VINA RESULT:    -4.658      1.313      1.357
REMARK INTER + INTRA:          -6.248
REMARK INTER:                  -6.025
REMARK INTRA:                  -0.223
REMARK UNBOUND:                -0.229
REMARK SMILES C=CC(=O)CCCCC
REMARK SMILES IDX 6 1 7 2 8 3 9 4 5 5 3 6 4 7 2 8 1 9
REMARK H PARENT
REMARK Flexibility Score: inf
ROOT
ATOM      1  C   UNL     1      26.035 -13.608  28.437  1.00  0.00     0.008 C 
ENDROOT
BRANCH   1   2
ATOM      2  C   UNL     1      25.829 -14.440  29.713  1.00  0.00     0.000 C 
BRANCH   2   3
ATOM      3  C   UNL     1      26.751 -14.003  30.860  1.00  0.00    -0.003 C 
ATOM      4  C   UNL     1      26.435 -14.769  32.141  1.00  0.00     0.004 C 
ENDBRANCH   2   3
ENDBRANCH   1   2
BRANCH   1   5
ATOM      5  C   UNL     1      27.510 -13.238  28.202  1.00  0.00     0.080 C 
BRANCH   5   6
ATOM      6  C   UNL     1      27.717 -11.758  27.975  1.00  0.00     0.155 C 
ATOM      7  O   UNL     1      27.024 -10.918  28.612  1.00  0.00    -0.295 OA
BRANCH   6   8
ATOM      8  C   UNL     1      28.732 -11.248  27.030  1.00  0.00     0.039 C 
ATOM      9  C   UNL     1      28.664 -11.424  25.710  1.00  0.00     0.012 C 
ENDBRANCH   6   8
ENDBRANCH   5   6
ENDBRANCH   1   5
TORSDOF 5
ENDMDL
MODEL 4
REMARK VINA RESULT:    -4.547      2.186      4.034
REMARK INTER + INTRA:          -6.105
REMARK INTER:                  -5.704
REMARK INTRA:                  -0.401
REMARK UNBOUND:                -0.229
REMARK SMILES C=CC(=O)CCCCC
REMARK SMILES IDX 6 1 7 2 8 3 9 4 5 5 3 6 4 7 2 8 1 9
REMARK H PARENT
REMARK Flexibility Score: inf
ROOT
ATOM      1  C   UNL     1      27.095 -12.510  28.983  1.00  0.00     0.008 C 
ENDROOT
BRANCH   1   2
ATOM      2  C   UNL     1      26.221 -13.476  28.168  1.00  0.00     0.000 C 
BRANCH   2   3
ATOM      3  C   UNL     1      25.544 -14.542  29.042  1.00  0.00    -0.003 C 
ATOM      4  C   UNL     1      24.280 -15.077  28.377  1.00  0.00     0.004 C 
ENDBRANCH   2   3
ENDBRANCH   1   2
BRANCH   1   5
ATOM      5  C   UNL     1      28.382 -13.170  29.505  1.00  0.00     0.080 C 
BRANCH   5   6
ATOM      6  C   UNL     1      28.558 -13.019  30.998  1.00  0.00     0.155 C 
ATOM      7  O   UNL     1      29.690 -12.733  31.476  1.00  0.00    -0.295 OA
BRANCH   6   8
ATOM      8  C   UNL     1      27.428 -13.180  31.937  1.00  0.00     0.039 C 
ATOM      9  C   UNL     1      27.048 -14.354  32.440  1.00  0.00     0.012 C 
ENDBRANCH   6   8
ENDBRANCH   5   6
ENDBRANCH   1   5
TORSDOF 5
ENDMDL
MODEL 5
REMARK VINA RESULT:    -4.513      1.221      4.666
REMARK INTER + INTRA:          -6.061
REMARK INTER:                  -5.796
REMARK INTRA:                  -0.264
REMARK UNBOUND:                -0.229
REMARK SMILES C=CC(=O)CCCCC
REMARK SMILES IDX 6 1 7 2 8 3 9 4 5 5 3 6 4 7 2 8 1 9
REMARK H PARENT
REMARK Flexibility Score: inf
ROOT
ATOM      1  C   UNL     1      26.753 -13.314  27.801  1.00  0.00     0.008 C 
ENDROOT
BRANCH   1   2
ATOM      2  C   UNL     1      28.019 -13.483  26.945  1.00  0.00     0.000 C 
BRANCH   2   3
ATOM      3  C   UNL     1      28.914 -12.235  26.961  1.00  0.00    -0.003 C 
ATOM      4  C   UNL     1      28.618 -11.332  25.767  1.00  0.00     0.004 C 
ENDBRANCH   2   3
ENDBRANCH   1   2
BRANCH   1   5
ATOM      5  C   UNL     1      27.007 -12.502  29.083  1.00  0.00     0.080 C 
BRANCH   5   6
ATOM      6  C   UNL     1      27.345 -13.370  30.273  1.00  0.00     0.155 C 
ATOM      7  O   UNL     1      28.471 -13.266  30.832  1.00  0.00    -0.295 OA
BRANCH   6   8
ATOM      8  C   UNL     1      26.380 -14.343  30.828  1.00  0.00     0.039 C 
ATOM      9  C   UNL     1      26.421 -14.787  32.083  1.00  0.00     0.012 C 
ENDBRANCH   6   8
ENDBRANCH   5   6
ENDBRANCH   1   5
TORSDOF 5
ENDMDL
MODEL 6
REMARK VINA RESULT:    -4.508      1.562      4.576
REMARK INTER + INTRA:          -6.056
REMARK INTER:                  -5.859
REMARK INTRA:                  -0.196
REMARK UNBOUND:                -0.229
REMARK SMILES C=CC(=O)CCCCC
REMARK SMILES IDX 6 1 7 2 8 3 9 4 5 5 3 6 4 7 2 8 1 9
REMARK H PARENT
REMARK Flexibility Score: inf
ROOT
ATOM      1  C   UNL     1      27.145 -11.382  28.769  1.00  0.00     0.008 C 
ENDROOT
BRANCH   1   2
ATOM      2  C   UNL     1      28.516 -10.971  28.209  1.00  0.00     0.000 C 
BRANCH   2   3
ATOM      3  C   UNL     1      29.009 -11.914  27.101  1.00  0.00    -0.003 C 
ATOM      4  C   UNL     1      28.688 -11.353  25.719  1.00  0.00     0.004 C 
ENDBRANCH   2   3
ENDBRANCH   1   2
BRANCH   1   5
ATOM      5  C   UNL     1      26.746 -12.814  28.372  1.00  0.00     0.080 C 
BRANCH   5   6
ATOM      6  C   UNL     1      26.625 -13.742  29.558  1.00  0.00     0.155 C 
ATOM      7  O   UNL     1      27.473 -13.690  30.491  1.00  0.00    -0.295 OA
BRANCH   6   8
ATOM      8  C   UNL     1      25.521 -14.717  29.676  1.00  0.00     0.039 C 
ATOM      9  C   UNL     1      24.787 -15.129  28.643  1.00  0.00     0.012 C 
ENDBRANCH   6   8
ENDBRANCH   5   6
ENDBRANCH   1   5
TORSDOF 5
ENDMDL
MODEL 7
REMARK VINA RESULT:    -4.484      2.809      3.676
REMARK INTER + INTRA:          -6.024
REMARK INTER:                  -5.742
REMARK INTRA:                  -0.282
REMARK UNBOUND:                -0.229
REMARK SMILES C=CC(=O)CCCCC
REMARK SMILES IDX 6 1 7 2 8 3 9 4 5 5 3 6 4 7 2 8 1 9
REMARK H PARENT
REMARK Flexibility Score: inf
ROOT
ATOM      1  C   UNL     1      28.393 -12.443  30.599  1.00  0.00     0.008 C 
ENDROOT
BRANCH   1   2
ATOM      2  C   UNL     1      27.396 -13.496  30.089  1.00  0.00     0.000 C 
BRANCH   2   3
ATOM      3  C   UNL     1      26.938 -13.227  28.648  1.00  0.00    -0.003 C 
ATOM      4  C   UNL     1      25.674 -14.015  28.318  1.00  0.00     0.004 C 
ENDBRANCH   2   3
ENDBRANCH   1   2
BRANCH   1   5
ATOM      5  C   UNL     1      29.630 -13.069  31.266  1.00  0.00     0.080 C 
BRANCH   5   6
ATOM      6  C   UNL     1      30.898 -12.856  30.474  1.00  0.00     0.155 C 
ATOM      7  O   UNL     1      31.968 -12.543  31.064  1.00  0.00    -0.295 OA
BRANCH   6   8
ATOM      8  C   UNL     1      30.937 -13.020  29.005  1.00  0.00     0.039 C 
ATOM      9  C   UNL     1      31.642 -13.967  28.387  1.00  0.00     0.012 C 
ENDBRANCH   6   8
ENDBRANCH   5   6
ENDBRANCH   1   5
TORSDOF 5
ENDMDL
MODEL 8
REMARK VINA RESULT:    -4.402      1.671      2.783
REMARK INTER + INTRA:          -5.918
REMARK INTER:                  -5.462
REMARK INTRA:                  -0.456
REMARK UNBOUND:                -0.229
REMARK SMILES C=CC(=O)CCCCC
REMARK SMILES IDX 6 1 7 2 8 3 9 4 5 5 3 6 4 7 2 8 1 9
REMARK H PARENT
REMARK Flexibility Score: inf
ROOT
ATOM      1  C   UNL     1      27.947 -12.385  30.226  1.00  0.00     0.008 C 
ENDROOT
BRANCH   1   2
ATOM      2  C   UNL     1      28.351 -13.273  31.414  1.00  0.00     0.000 C 
BRANCH   2   3
ATOM      3  C   UNL     1      27.180 -13.552  32.369  1.00  0.00    -0.003 C 
ATOM      4  C   UNL     1      26.479 -14.859  32.011  1.00  0.00     0.004 C 
ENDBRANCH   2   3
ENDBRANCH   1   2
BRANCH   1   5
ATOM      5  C   UNL     1      28.502 -12.898  28.886  1.00  0.00     0.080 C 
BRANCH   5   6
ATOM      6  C   UNL     1      27.417 -13.251  27.896  1.00  0.00     0.155 C 
ATOM      7  O   UNL     1      27.708 -13.462  26.686  1.00  0.00    -0.295 OA
BRANCH   6   8
ATOM      8  C   UNL     1      26.001 -13.379  28.302  1.00  0.00     0.039 C 
ATOM      9  C   UNL     1      25.308 -14.513  28.213  1.00  0.00     0.012 C 
ENDBRANCH   6   8
ENDBRANCH   5   6
ENDBRANCH   1   5
TORSDOF 5
ENDMDL
MODEL 9
REMARK VINA RESULT:    -4.393      2.247      3.521
REMARK INTER + INTRA:          -5.906
REMARK INTER:                  -5.561
REMARK INTRA:                  -0.345
REMARK UNBOUND:                -0.229
REMARK SMILES C=CC(=O)CCCCC
REMARK SMILES IDX 6 1 7 2 8 3 9 4 5 5 3 6 4 7 2 8 1 9
REMARK H PARENT
REMARK Flexibility Score: inf
ROOT
ATOM      1  C   UNL     1      28.581 -11.925  27.758  1.00  0.00     0.008 C 
ENDROOT
BRANCH   1   2
ATOM      2  C   UNL     1      27.167 -11.995  28.356  1.00  0.00     0.000 C 
BRANCH   2   3
ATOM      3  C   UNL     1      26.846 -13.373  28.955  1.00  0.00    -0.003 C 
ATOM      4  C   UNL     1      25.669 -14.024  28.234  1.00  0.00     0.004 C 
ENDBRANCH   2   3
ENDBRANCH   1   2
BRANCH   1   5
ATOM      5  C   UNL     1      29.286 -13.293  27.737  1.00  0.00     0.080 C 
BRANCH   5   6
ATOM      6  C   UNL     1      30.595 -13.292  28.492  1.00  0.00     0.155 C 
ATOM      7  O   UNL     1      31.546 -14.027  28.108  1.00  0.00    -0.295 OA
BRANCH   6   8
ATOM      8  C   UNL     1      30.812 -12.435  29.676  1.00  0.00     0.039 C 
ATOM      9  C   UNL     1      31.196 -12.901  30.864  1.00  0.00     0.012 C 
ENDBRANCH   6   8
ENDBRANCH   5   6
ENDBRANCH   1   5
TORSDOF 5
ENDMDL
