MODEL 1
REMARK VINA RESULT:    -3.971      0.000      0.000
REMARK INTER + INTRA:          -4.087
REMARK INTER:                  -4.087
REMARK INTRA:                   0.000
REMARK UNBOUND:                 0.000
REMARK SMILES Cc1cccc(O)c1C
REMARK SMILES IDX 1 1 2 2 8 3 6 4 5 5 4 6 3 7 9 8 7 9
REMARK H PARENT 7 10
REMARK Flexibility Score: inf
ROOT
ATOM      1  C   UNL     1     164.714 177.376 187.026  1.00  0.00     0.045 C 
ATOM      2  C   UNL     1     163.224 177.601 187.017  1.00  0.00    -0.045 A 
ATOM      3  C   UNL     1     162.521 177.858 185.812  1.00  0.00    -0.006 A 
ATOM      4  C   UNL     1     161.120 178.039 185.855  1.00  0.00     0.118 A 
ATOM      5  C   UNL     1     160.446 178.006 187.081  1.00  0.00     0.046 A 
ATOM      6  C   UNL     1     161.147 177.785 188.266  1.00  0.00     0.004 A 
ATOM      7  C   UNL     1     162.526 177.583 188.235  1.00  0.00     0.004 A 
ATOM      8  C   UNL     1     163.245 177.882 184.487  1.00  0.00     0.048 C 
ENDROOT
BRANCH   4   9
ATOM      9  O   UNL     1     160.399 178.251 184.679  1.00  0.00    -0.508 OA
ATOM     10  H   UNL     1     160.212 177.499 184.026  1.00  0.00     0.293 HD
ENDBRANCH   4   9
TORSDOF 1
ENDMDL
MODEL 2
REMARK VINA RESULT:    -3.931      2.039      3.055
REMARK INTER + INTRA:          -4.046
REMARK INTER:                  -4.046
REMARK INTRA:                   0.000
REMARK UNBOUND:                 0.000
REMARK SMILES Cc1cccc(O)c1C
REMARK SMILES IDX 1 1 2 2 8 3 6 4 5 5 4 6 3 7 9 8 7 9
REMARK H PARENT 7 10
REMARK Flexibility Score: inf
ROOT
ATOM      1  C   UNL     1     160.859 177.216 184.123  1.00  0.00     0.045 C 
ATOM      2  C   UNL     1     161.878 177.625 185.156  1.00  0.00    -0.045 A 
ATOM      3  C   UNL     1     163.215 177.932 184.797  1.00  0.00    -0.006 A 
ATOM      4  C   UNL     1     164.125 178.333 185.801  1.00  0.00     0.118 A 
ATOM      5  C   UNL     1     163.717 178.383 187.139  1.00  0.00     0.046 A 
ATOM      6  C   UNL     1     162.410 178.048 187.490  1.00  0.00     0.004 A 
ATOM      7  C   UNL     1     161.496 177.672 186.507  1.00  0.00     0.004 A 
ATOM      8  C   UNL     1     163.654 177.892 183.353  1.00  0.00     0.048 C 
ENDROOT
BRANCH   4   9
ATOM      9  O   UNL     1     165.435 178.682 185.469  1.00  0.00    -0.508 OA
ATOM     10  H   UNL     1     166.231 178.289 185.957  1.00  0.00     0.293 HD
ENDBRANCH   4   9
TORSDOF 1
ENDMDL
MODEL 3
REMARK VINA RESULT:    -3.772     10.162     12.129
REMARK INTER + INTRA:          -3.883
REMARK INTER:                  -3.883
REMARK INTRA:                   0.000
REMARK UNBOUND:                 0.000
REMARK SMILES Cc1cccc(O)c1C
REMARK SMILES IDX 1 1 2 2 8 3 6 4 5 5 4 6 3 7 9 8 7 9
REMARK H PARENT 7 10
REMARK Flexibility Score: inf
ROOT
ATOM      1  C   UNL     1     171.408 179.280 187.265  1.00  0.00     0.045 C 
ATOM      2  C   UNL     1     172.852 179.571 186.948  1.00  0.00    -0.045 A 
ATOM      3  C   UNL     1     173.325 179.608 185.611  1.00  0.00    -0.006 A 
ATOM      4  C   UNL     1     174.683 179.908 185.366  1.00  0.00     0.118 A 
ATOM      5  C   UNL     1     175.558 180.125 186.437  1.00  0.00     0.046 A 
ATOM      6  C   UNL     1     175.096 180.055 187.750  1.00  0.00     0.004 A 
ATOM      7  C   UNL     1     173.753 179.781 188.005  1.00  0.00     0.004 A 
ATOM      8  C   UNL     1     172.380 179.388 184.454  1.00  0.00     0.048 C 
ENDROOT
BRANCH   4   9
ATOM      9  O   UNL     1     175.163 179.993 184.058  1.00  0.00    -0.508 OA
ATOM     10  H   UNL     1     175.742 180.766 183.753  1.00  0.00     0.293 HD
ENDBRANCH   4   9
TORSDOF 1
ENDMDL
MODEL 4
REMARK VINA RESULT:    -3.771      2.190      2.747
REMARK INTER + INTRA:          -3.881
REMARK INTER:                  -3.881
REMARK INTRA:                   0.000
REMARK UNBOUND:                 0.000
REMARK SMILES Cc1cccc(O)c1C
REMARK SMILES IDX 1 1 2 2 8 3 6 4 5 5 4 6 3 7 9 8 7 9
REMARK H PARENT 7 10
REMARK Flexibility Score: inf
ROOT
ATOM      1  C   UNL     1     160.492 174.024 187.072  1.00  0.00     0.045 C 
ATOM      2  C   UNL     1     160.677 175.496 186.808  1.00  0.00    -0.045 A 
ATOM      3  C   UNL     1     160.918 175.989 185.500  1.00  0.00    -0.006 A 
ATOM      4  C   UNL     1     161.061 177.381 185.302  1.00  0.00     0.118 A 
ATOM      5  C   UNL     1     161.007 178.254 186.395  1.00  0.00     0.046 A 
ATOM      6  C   UNL     1     160.802 177.761 187.682  1.00  0.00     0.004 A 
ATOM      7  C   UNL     1     160.638 176.392 187.889  1.00  0.00     0.004 A 
ATOM      8  C   UNL     1     160.963 175.050 184.318  1.00  0.00     0.048 C 
ENDROOT
BRANCH   4   9
ATOM      9  O   UNL     1     161.256 177.896 184.020  1.00  0.00    -0.508 OA
ATOM     10  H   UNL     1     160.902 177.423 183.196  1.00  0.00     0.293 HD
ENDBRANCH   4   9
TORSDOF 1
ENDMDL
MODEL 5
REMARK VINA RESULT:    -3.741     12.545     13.519
REMARK INTER + INTRA:          -3.850
REMARK INTER:                  -3.850
REMARK INTRA:                   0.000
REMARK UNBOUND:                 0.000
REMARK SMILES Cc1cccc(O)c1C
REMARK SMILES IDX 1 1 2 2 8 3 6 4 5 5 4 6 3 7 9 8 7 9
REMARK H PARENT 7 10
REMARK Flexibility Score: inf
ROOT
ATOM      1  C   UNL     1     175.147 179.270 188.413  1.00  0.00     0.045 C 
ATOM      2  C   UNL     1     175.043 179.155 186.914  1.00  0.00    -0.045 A 
ATOM      3  C   UNL     1     175.899 178.298 186.175  1.00  0.00    -0.006 A 
ATOM      4  C   UNL     1     175.745 178.208 184.773  1.00  0.00     0.118 A 
ATOM      5  C   UNL     1     174.785 178.992 184.121  1.00  0.00     0.046 A 
ATOM      6  C   UNL     1     173.969 179.857 184.849  1.00  0.00     0.004 A 
ATOM      7  C   UNL     1     174.095 179.938 186.234  1.00  0.00     0.004 A 
ATOM      8  C   UNL     1     176.925 177.442 186.878  1.00  0.00     0.048 C 
ENDROOT
BRANCH   4   9
ATOM      9  O   UNL     1     176.545 177.341 184.029  1.00  0.00    -0.508 OA
ATOM     10  H   UNL     1     176.250 176.986 183.127  1.00  0.00     0.293 HD
ENDBRANCH   4   9
TORSDOF 1
ENDMDL
MODEL 6
REMARK VINA RESULT:    -3.740      1.628      2.632
REMARK INTER + INTRA:          -3.849
REMARK INTER:                  -3.849
REMARK INTRA:                   0.000
REMARK UNBOUND:                 0.000
REMARK SMILES Cc1cccc(O)c1C
REMARK SMILES IDX 1 1 2 2 8 3 6 4 5 5 4 6 3 7 9 8 7 9
REMARK H PARENT 7 10
REMARK Flexibility Score: inf
ROOT
ATOM      1  C   UNL     1     162.163 177.536 188.612  1.00  0.00     0.045 C 
ATOM      2  C   UNL     1     162.068 177.478 187.109  1.00  0.00    -0.045 A 
ATOM      3  C   UNL     1     163.052 178.075 186.280  1.00  0.00    -0.006 A 
ATOM      4  C   UNL     1     162.928 177.972 184.877  1.00  0.00     0.118 A 
ATOM      5  C   UNL     1     161.821 177.324 184.315  1.00  0.00     0.046 A 
ATOM      6  C   UNL     1     160.840 176.768 185.135  1.00  0.00     0.004 A 
ATOM      7  C   UNL     1     160.961 176.844 186.521  1.00  0.00     0.004 A 
ATOM      8  C   UNL     1     164.254 178.762 186.884  1.00  0.00     0.048 C 
ENDROOT
BRANCH   4   9
ATOM      9  O   UNL     1     163.905 178.513 184.040  1.00  0.00    -0.508 OA
ATOM     10  H   UNL     1     164.308 179.426 184.211  1.00  0.00     0.293 HD
ENDBRANCH   4   9
TORSDOF 1
ENDMDL
MODEL 7
REMARK VINA RESULT:    -3.673      2.626      3.383
REMARK INTER + INTRA:          -3.781
REMARK INTER:                  -3.781
REMARK INTRA:                   0.000
REMARK UNBOUND:                 0.000
REMARK SMILES Cc1cccc(O)c1C
REMARK SMILES IDX 1 1 2 2 8 3 6 4 5 5 4 6 3 7 9 8 7 9
REMARK H PARENT 7 10
REMARK Flexibility Score: inf
ROOT
ATOM      1  C   UNL     1     160.242 177.617 183.986  1.00  0.00     0.045 C 
ATOM      2  C   UNL     1     160.553 177.314 185.429  1.00  0.00    -0.045 A 
ATOM      3  C   UNL     1     160.853 175.997 185.861  1.00  0.00    -0.006 A 
ATOM      4  C   UNL     1     161.161 175.770 187.221  1.00  0.00     0.118 A 
ATOM      5  C   UNL     1     161.126 176.830 188.136  1.00  0.00     0.046 A 
ATOM      6  C   UNL     1     160.797 178.116 187.711  1.00  0.00     0.004 A 
ATOM      7  C   UNL     1     160.513 178.358 186.368  1.00  0.00     0.004 A 
ATOM      8  C   UNL     1     160.905 174.855 184.875  1.00  0.00     0.048 C 
ENDROOT
BRANCH   4   9
ATOM      9  O   UNL     1     161.502 174.491 187.665  1.00  0.00    -0.508 OA
ATOM     10  H   UNL     1     161.854 173.784 187.030  1.00  0.00     0.293 HD
ENDBRANCH   4   9
TORSDOF 1
ENDMDL
MODEL 8
REMARK VINA RESULT:    -3.574     11.446     13.442
REMARK INTER + INTRA:          -3.679
REMARK INTER:                  -3.679
REMARK INTRA:                   0.000
REMARK UNBOUND:                 0.000
REMARK SMILES Cc1cccc(O)c1C
REMARK SMILES IDX 1 1 2 2 8 3 6 4 5 5 4 6 3 7 9 8 7 9
REMARK H PARENT 7 10
REMARK Flexibility Score: inf
ROOT
ATOM      1  C   UNL     1     172.671 176.572 187.495  1.00  0.00     0.045 C 
ATOM      2  C   UNL     1     174.091 177.028 187.281  1.00  0.00    -0.045 A 
ATOM      3  C   UNL     1     174.998 176.279 186.487  1.00  0.00    -0.006 A 
ATOM      4  C   UNL     1     176.312 176.762 186.298  1.00  0.00     0.118 A 
ATOM      5  C   UNL     1     176.722 177.946 186.925  1.00  0.00     0.046 A 
ATOM      6  C   UNL     1     175.836 178.660 187.730  1.00  0.00     0.004 A 
ATOM      7  C   UNL     1     174.530 178.206 187.907  1.00  0.00     0.004 A 
ATOM      8  C   UNL     1     174.554 175.010 185.800  1.00  0.00     0.048 C 
ENDROOT
BRANCH   4   9
ATOM      9  O   UNL     1     177.210 176.067 185.488  1.00  0.00    -0.508 OA
ATOM     10  H   UNL     1     176.973 175.794 184.541  1.00  0.00     0.293 HD
ENDBRANCH   4   9
TORSDOF 1
ENDMDL
