MODEL 1
REMARK VINA RESULT:    -3.731      0.000      0.000
REMARK INTER + INTRA:          -4.214
REMARK INTER:                  -3.949
REMARK INTRA:                  -0.265
REMARK UNBOUND:                -0.265
REMARK SMILES O=c1cc(-c2ccccc2)oc2ccccc12
REMARK SMILES IDX 4 1 3 2 2 3 1 4 17 5 16 6 15 7 14 8 13 9 12 10 11 11 5 12
REMARK SMILES IDX 8 13 7 14 9 15 6 16 10 17
REMARK H PARENT
REMARK Flexibility Score: inf
ROOT
ATOM      1  C   UNL     1      20.352 -16.732   1.992  1.00  0.00     0.138 A 
ATOM      2  C   UNL     1      20.264 -15.414   1.493  1.00  0.00     0.100 A 
ATOM      3  C   UNL     1      20.431 -14.335   2.363  1.00  0.00     0.193 A 
ATOM      4  O   UNL     1      20.351 -13.158   1.916  1.00  0.00    -0.289 OA
ATOM      5  C   UNL     1      20.686 -14.575   3.720  1.00  0.00     0.065 A 
ATOM      6  C   UNL     1      20.865 -13.534   4.650  1.00  0.00     0.016 A 
ATOM      7  C   UNL     1      21.116 -13.830   5.993  1.00  0.00     0.001 A 
ATOM      8  C   UNL     1      21.192 -15.160   6.418  1.00  0.00     0.004 A 
ATOM      9  C   UNL     1      21.015 -16.200   5.501  1.00  0.00     0.048 A 
ATOM     10  C   UNL     1      20.763 -15.916   4.155  1.00  0.00     0.138 A 
ATOM     11  O   UNL     1      20.596 -16.913   3.291  1.00  0.00    -0.456 OA
ENDROOT
BRANCH   1  12
ATOM     12  C   UNL     1      20.186 -17.942   1.131  1.00  0.00     0.017 A 
ATOM     13  C   UNL     1      19.876 -20.283  -0.416  1.00  0.00     0.000 A 
ATOM     14  C   UNL     1      19.898 -19.034  -1.036  1.00  0.00     0.001 A 
ATOM     15  C   UNL     1      20.008 -20.374   0.969  1.00  0.00     0.001 A 
ATOM     16  C   UNL     1      20.051 -17.871  -0.275  1.00  0.00     0.012 A 
ATOM     17  C   UNL     1      20.161 -19.215   1.737  1.00  0.00     0.012 A 
ENDBRANCH   1  12
TORSDOF 1
ENDMDL
MODEL 2
REMARK VINA RESULT:    -3.688      1.109      5.870
REMARK INTER + INTRA:          -4.169
REMARK INTER:                  -3.907
REMARK INTRA:                  -0.263
REMARK UNBOUND:                -0.265
REMARK SMILES O=c1cc(-c2ccccc2)oc2ccccc12
REMARK SMILES IDX 4 1 3 2 2 3 1 4 17 5 16 6 15 7 14 8 13 9 12 10 11 11 5 12
REMARK SMILES IDX 8 13 7 14 9 15 6 16 10 17
REMARK H PARENT
REMARK Flexibility Score: inf
ROOT
ATOM      1  C   UNL     1      20.427 -16.191   2.728  1.00  0.00     0.138 A 
ATOM      2  C   UNL     1      20.261 -15.469   1.526  1.00  0.00     0.100 A 
ATOM      3  C   UNL     1      20.078 -16.161   0.327  1.00  0.00     0.193 A 
ATOM      4  O   UNL     1      19.931 -15.515  -0.746  1.00  0.00    -0.289 OA
ATOM      5  C   UNL     1      20.062 -17.563   0.334  1.00  0.00     0.065 A 
ATOM      6  C   UNL     1      19.883 -18.321  -0.838  1.00  0.00     0.016 A 
ATOM      7  C   UNL     1      19.875 -19.717  -0.774  1.00  0.00     0.001 A 
ATOM      8  C   UNL     1      20.045 -20.366   0.453  1.00  0.00     0.004 A 
ATOM      9  C   UNL     1      20.223 -19.621   1.622  1.00  0.00     0.048 A 
ATOM     10  C   UNL     1      20.233 -18.223   1.570  1.00  0.00     0.138 A 
ATOM     11  O   UNL     1      20.404 -17.524   2.688  1.00  0.00    -0.456 OA
ENDROOT
BRANCH   1  12
ATOM     12  C   UNL     1      20.627 -15.529   4.054  1.00  0.00     0.017 A 
ATOM     13  C   UNL     1      21.026 -14.197   6.511  1.00  0.00     0.000 A 
ATOM     14  C   UNL     1      20.678 -15.548   6.497  1.00  0.00     0.001 A 
ATOM     15  C   UNL     1      21.177 -13.506   5.309  1.00  0.00     0.001 A 
ATOM     16  C   UNL     1      20.479 -16.213   5.283  1.00  0.00     0.012 A 
ATOM     17  C   UNL     1      20.980 -14.164   4.092  1.00  0.00     0.012 A 
ENDBRANCH   1  12
TORSDOF 1
ENDMDL
MODEL 3
REMARK VINA RESULT:    -3.549     20.892     22.107
REMARK INTER + INTRA:          -4.021
REMARK INTER:                  -3.791
REMARK INTRA:                  -0.230
REMARK UNBOUND:                -0.265
REMARK SMILES O=c1cc(-c2ccccc2)oc2ccccc12
REMARK SMILES IDX 4 1 3 2 2 3 1 4 17 5 16 6 15 7 14 8 13 9 12 10 11 11 5 12
REMARK SMILES IDX 8 13 7 14 9 15 6 16 10 17
REMARK H PARENT
REMARK Flexibility Score: inf
ROOT
ATOM      1  C   UNL     1      35.100 -31.791   9.142  1.00  0.00     0.138 A 
ATOM      2  C   UNL     1      34.609 -32.726  10.080  1.00  0.00     0.100 A 
ATOM      3  C   UNL     1      34.187 -32.285  11.335  1.00  0.00     0.193 A 
ATOM      4  O   UNL     1      33.750 -33.122  12.172  1.00  0.00    -0.289 OA
ATOM      5  C   UNL     1      34.255 -30.921  11.647  1.00  0.00     0.065 A 
ATOM      6  C   UNL     1      33.846 -30.411  12.893  1.00  0.00     0.016 A 
ATOM      7  C   UNL     1      33.936 -29.040  13.152  1.00  0.00     0.001 A 
ATOM      8  C   UNL     1      34.431 -28.170  12.176  1.00  0.00     0.004 A 
ATOM      9  C   UNL     1      34.840 -28.669  10.935  1.00  0.00     0.048 A 
ATOM     10  C   UNL     1      34.755 -30.038  10.665  1.00  0.00     0.138 A 
ATOM     11  O   UNL     1      35.147 -30.502   9.482  1.00  0.00    -0.456 OA
ENDROOT
BRANCH   1  12
ATOM     12  C   UNL     1      35.572 -32.178   7.777  1.00  0.00     0.017 A 
ATOM     13  C   UNL     1      36.374 -32.938   5.179  1.00  0.00     0.000 A 
ATOM     14  C   UNL     1      37.299 -32.375   6.059  1.00  0.00     0.001 A 
ATOM     15  C   UNL     1      35.053 -33.125   5.586  1.00  0.00     0.001 A 
ATOM     16  C   UNL     1      36.907 -31.997   7.347  1.00  0.00     0.012 A 
ATOM     17  C   UNL     1      34.654 -32.749   6.872  1.00  0.00     0.012 A 
ENDBRANCH   1  12
TORSDOF 1
ENDMDL
MODEL 4
REMARK VINA RESULT:    -3.227      0.988      5.741
REMARK INTER + INTRA:          -3.681
REMARK INTER:                  -3.416
REMARK INTRA:                  -0.265
REMARK UNBOUND:                -0.265
REMARK SMILES O=c1cc(-c2ccccc2)oc2ccccc12
REMARK SMILES IDX 4 1 3 2 2 3 1 4 17 5 16 6 15 7 14 8 13 9 12 10 11 11 5 12
REMARK SMILES IDX 8 13 7 14 9 15 6 16 10 17
REMARK H PARENT
REMARK Flexibility Score: inf
ROOT
ATOM      1  C   UNL     1      20.592 -15.595   3.087  1.00  0.00     0.138 A 
ATOM      2  C   UNL     1      20.460 -14.762   1.955  1.00  0.00     0.100 A 
ATOM      3  C   UNL     1      20.245 -15.334   0.700  1.00  0.00     0.193 A 
ATOM      4  O   UNL     1      20.128 -14.588  -0.311  1.00  0.00    -0.289 OA
ATOM      5  C   UNL     1      20.163 -16.728   0.581  1.00  0.00     0.065 A 
ATOM      6  C   UNL     1      19.948 -17.368  -0.653  1.00  0.00     0.016 A 
ATOM      7  C   UNL     1      19.875 -18.763  -0.715  1.00  0.00     0.001 A 
ATOM      8  C   UNL     1      20.014 -19.527   0.447  1.00  0.00     0.004 A 
ATOM      9  C   UNL     1      20.228 -18.899   1.678  1.00  0.00     0.048 A 
ATOM     10  C   UNL     1      20.303 -17.504   1.752  1.00  0.00     0.138 A 
ATOM     11  O   UNL     1      20.507 -16.917   2.927  1.00  0.00    -0.456 OA
ENDROOT
BRANCH   1  12
ATOM     12  C   UNL     1      20.824 -15.066   4.466  1.00  0.00     0.017 A 
ATOM     13  C   UNL     1      21.251 -14.157   7.104  1.00  0.00     0.000 A 
ATOM     14  C   UNL     1      21.283 -13.254   6.041  1.00  0.00     0.001 A 
ATOM     15  C   UNL     1      21.006 -15.508   6.862  1.00  0.00     0.001 A 
ATOM     16  C   UNL     1      21.073 -13.699   4.731  1.00  0.00     0.012 A 
ATOM     17  C   UNL     1      20.795 -15.960   5.556  1.00  0.00     0.012 A 
ENDBRANCH   1  12
TORSDOF 1
ENDMDL
MODEL 5
REMARK VINA RESULT:    -3.123      1.475      6.122
REMARK INTER + INTRA:          -3.571
REMARK INTER:                  -3.305
REMARK INTRA:                  -0.266
REMARK UNBOUND:                -0.265
REMARK SMILES O=c1cc(-c2ccccc2)oc2ccccc12
REMARK SMILES IDX 4 1 3 2 2 3 1 4 17 5 16 6 15 7 14 8 13 9 12 10 11 11 5 12
REMARK SMILES IDX 8 13 7 14 9 15 6 16 10 17
REMARK H PARENT
REMARK Flexibility Score: inf
ROOT
ATOM      1  C   UNL     1      20.411 -16.348   2.742  1.00  0.00     0.138 A 
ATOM      2  C   UNL     1      20.250 -17.751   2.750  1.00  0.00     0.100 A 
ATOM      3  C   UNL     1      20.072 -18.430   1.543  1.00  0.00     0.193 A 
ATOM      4  O   UNL     1      19.927 -19.683   1.551  1.00  0.00    -0.289 OA
ATOM      5  C   UNL     1      20.057 -17.710   0.341  1.00  0.00     0.065 A 
ATOM      6  C   UNL     1      19.882 -18.333  -0.909  1.00  0.00     0.016 A 
ATOM      7  C   UNL     1      19.875 -17.566  -2.078  1.00  0.00     0.001 A 
ATOM      8  C   UNL     1      20.042 -16.180  -2.011  1.00  0.00     0.004 A 
ATOM      9  C   UNL     1      20.216 -15.553  -0.774  1.00  0.00     0.048 A 
ATOM     10  C   UNL     1      20.225 -16.310   0.402  1.00  0.00     0.138 A 
ATOM     11  O   UNL     1      20.390 -15.704   1.574  1.00  0.00    -0.456 OA
ENDROOT
BRANCH   1  12
ATOM     12  C   UNL     1      20.606 -15.544   3.987  1.00  0.00     0.017 A 
ATOM     13  C   UNL     1      20.972 -14.108   6.390  1.00  0.00     0.000 A 
ATOM     14  C   UNL     1      20.913 -13.429   5.173  1.00  0.00     0.001 A 
ATOM     15  C   UNL     1      20.849 -15.497   6.418  1.00  0.00     0.001 A 
ATOM     16  C   UNL     1      20.732 -14.135   3.979  1.00  0.00     0.012 A 
ATOM     17  C   UNL     1      20.668 -16.209   5.229  1.00  0.00     0.012 A 
ENDBRANCH   1  12
TORSDOF 1
ENDMDL
MODEL 6
REMARK VINA RESULT:    -3.104      2.472      4.248
REMARK INTER + INTRA:          -3.551
REMARK INTER:                  -3.300
REMARK INTRA:                  -0.251
REMARK UNBOUND:                -0.265
REMARK SMILES O=c1cc(-c2ccccc2)oc2ccccc12
REMARK SMILES IDX 4 1 3 2 2 3 1 4 17 5 16 6 15 7 14 8 13 9 12 10 11 11 5 12
REMARK SMILES IDX 8 13 7 14 9 15 6 16 10 17
REMARK H PARENT
REMARK Flexibility Score: inf
ROOT
ATOM      1  C   UNL     1      21.474 -15.244   4.828  1.00  0.00     0.138 A 
ATOM      2  C   UNL     1      21.201 -14.076   5.572  1.00  0.00     0.100 A 
ATOM      3  C   UNL     1      21.760 -13.922   6.842  1.00  0.00     0.193 A 
ATOM      4  O   UNL     1      21.515 -12.878   7.507  1.00  0.00    -0.289 OA
ATOM      5  C   UNL     1      22.585 -14.930   7.361  1.00  0.00     0.065 A 
ATOM      6  C   UNL     1      23.179 -14.838   8.633  1.00  0.00     0.016 A 
ATOM      7  C   UNL     1      23.994 -15.873   9.101  1.00  0.00     0.001 A 
ATOM      8  C   UNL     1      24.222 -17.003   8.309  1.00  0.00     0.004 A 
ATOM      9  C   UNL     1      23.635 -17.102   7.044  1.00  0.00     0.048 A 
ATOM     10  C   UNL     1      22.818 -16.073   6.565  1.00  0.00     0.138 A 
ATOM     11  O   UNL     1      22.264 -16.178   5.361  1.00  0.00    -0.456 OA
ENDROOT
BRANCH   1  12
ATOM     12  C   UNL     1      20.917 -15.489   3.462  1.00  0.00     0.017 A 
ATOM     13  C   UNL     1      19.875 -15.856   0.864  1.00  0.00     0.000 A 
ATOM     14  C   UNL     1      19.996 -16.944   1.728  1.00  0.00     0.001 A 
ATOM     15  C   UNL     1      20.269 -14.586   1.286  1.00  0.00     0.001 A 
ATOM     16  C   UNL     1      20.511 -16.768   3.017  1.00  0.00     0.012 A 
ATOM     17  C   UNL     1      20.785 -14.403   2.572  1.00  0.00     0.012 A 
ENDBRANCH   1  12
TORSDOF 1
ENDMDL
MODEL 7
REMARK VINA RESULT:    -2.962      2.614      6.189
REMARK INTER + INTRA:          -3.401
REMARK INTER:                  -3.139
REMARK INTRA:                  -0.262
REMARK UNBOUND:                -0.265
REMARK SMILES O=c1cc(-c2ccccc2)oc2ccccc12
REMARK SMILES IDX 4 1 3 2 2 3 1 4 17 5 16 6 15 7 14 8 13 9 12 10 11 11 5 12
REMARK SMILES IDX 8 13 7 14 9 15 6 16 10 17
REMARK H PARENT
REMARK Flexibility Score: inf
ROOT
ATOM      1  C   UNL     1      21.734 -15.246   4.883  1.00  0.00     0.138 A 
ATOM      2  C   UNL     1      21.083 -16.418   4.441  1.00  0.00     0.100 A 
ATOM      3  C   UNL     1      20.457 -16.430   3.193  1.00  0.00     0.193 A 
ATOM      4  O   UNL     1      19.875 -17.477   2.800  1.00  0.00    -0.289 OA
ATOM      5  C   UNL     1      20.485 -15.277   2.395  1.00  0.00     0.065 A 
ATOM      6  C   UNL     1      19.875 -15.222   1.129  1.00  0.00     0.016 A 
ATOM      7  C   UNL     1      19.933 -14.046   0.375  1.00  0.00     0.001 A 
ATOM      8  C   UNL     1      20.597 -12.922   0.874  1.00  0.00     0.004 A 
ATOM      9  C   UNL     1      21.205 -12.968   2.132  1.00  0.00     0.048 A 
ATOM     10  C   UNL     1      21.154 -14.139   2.895  1.00  0.00     0.138 A 
ATOM     11  O   UNL     1      21.736 -14.172   4.091  1.00  0.00    -0.456 OA
ENDROOT
BRANCH   1  12
ATOM     12  C   UNL     1      22.428 -15.148   6.204  1.00  0.00     0.017 A 
ATOM     13  C   UNL     1      23.739 -15.060   8.702  1.00  0.00     0.000 A 
ATOM     14  C   UNL     1      23.395 -13.875   8.052  1.00  0.00     0.001 A 
ATOM     15  C   UNL     1      23.434 -16.288   8.116  1.00  0.00     0.001 A 
ATOM     16  C   UNL     1      22.745 -13.912   6.814  1.00  0.00     0.012 A 
ATOM     17  C   UNL     1      22.785 -16.333   6.879  1.00  0.00     0.012 A 
ENDBRANCH   1  12
TORSDOF 1
ENDMDL
MODEL 8
REMARK VINA RESULT:    -2.608      1.769      6.386
REMARK INTER + INTRA:          -3.026
REMARK INTER:                  -2.805
REMARK INTRA:                  -0.220
REMARK UNBOUND:                -0.265
REMARK SMILES O=c1cc(-c2ccccc2)oc2ccccc12
REMARK SMILES IDX 4 1 3 2 2 3 1 4 17 5 16 6 15 7 14 8 13 9 12 10 11 11 5 12
REMARK SMILES IDX 8 13 7 14 9 15 6 16 10 17
REMARK H PARENT
REMARK Flexibility Score: inf
ROOT
ATOM      1  C   UNL     1      20.721 -15.070   4.228  1.00  0.00     0.138 A 
ATOM      2  C   UNL     1      20.436 -16.453   4.230  1.00  0.00     0.100 A 
ATOM      3  C   UNL     1      20.152 -17.099   3.025  1.00  0.00     0.193 A 
ATOM      4  O   UNL     1      19.896 -18.334   3.028  1.00  0.00    -0.289 OA
ATOM      5  C   UNL     1      20.155 -16.366   1.830  1.00  0.00     0.065 A 
ATOM      6  C   UNL     1      19.877 -16.955   0.583  1.00  0.00     0.016 A 
ATOM      7  C   UNL     1      19.893 -16.176  -0.577  1.00  0.00     0.001 A 
ATOM      8  C   UNL     1      20.185 -14.811  -0.505  1.00  0.00     0.004 A 
ATOM      9  C   UNL     1      20.462 -14.218   0.730  1.00  0.00     0.048 A 
ATOM     10  C   UNL     1      20.449 -14.986   1.898  1.00  0.00     0.138 A 
ATOM     11  O   UNL     1      20.713 -14.412   3.068  1.00  0.00    -0.456 OA
ENDROOT
BRANCH   1  12
ATOM     12  C   UNL     1      21.035 -14.302   5.472  1.00  0.00     0.017 A 
ATOM     13  C   UNL     1      21.721 -12.878   7.811  1.00  0.00     0.000 A 
ATOM     14  C   UNL     1      20.402 -12.882   7.358  1.00  0.00     0.001 A 
ATOM     15  C   UNL     1      22.700 -13.579   7.107  1.00  0.00     0.001 A 
ATOM     16  C   UNL     1      20.056 -13.586   6.199  1.00  0.00     0.012 A 
ATOM     17  C   UNL     1      22.362 -14.285   5.949  1.00  0.00     0.012 A 
ENDBRANCH   1  12
TORSDOF 1
ENDMDL
