MODEL 1
REMARK VINA RESULT:   123.131      0.000      0.000
REMARK INTER + INTRA:         133.790
REMARK INTER:                 133.928
REMARK INTRA:                  -0.138
REMARK UNBOUND:                -0.138
REMARK SMILES CC1(C)CC[C@@]2(C(=O)[O-])CC[C@]3(C)C(=CC[C@H]4[C@@]5(C)CC[C@@H](O)C(C)(C)[C@H]5CC[C@]43C)[C@H]2C1
REMARK SMILES IDX 6 1 5 2 10 3 32 4 4 5 11 6 14 7 33 8 2 9 12 10 15 11 1 12
REMARK SMILES IDX 3 13 13 14 30 15 16 16 17 17 29 18 31 19 18 20 28 21 27 22
REMARK SMILES IDX 20 23 19 24 24 25 21 26 22 27 25 28 26 29 7 30 8 31 9 32
REMARK SMILES IDX 23 33
REMARK H PARENT 23 34
REMARK Flexibility Score: inf
ROOT
ATOM      1  C   UNL     1       9.371  -2.834   7.914  1.00  0.00     0.017 C 
ATOM      2  C   UNL     1       9.294  -3.832   6.708  1.00  0.00     0.014 C 
ATOM      3  C   UNL     1       9.154  -3.660   9.229  1.00  0.00     0.014 C 
ATOM      4  C   UNL     1      10.744  -2.038   7.880  1.00  0.00     0.028 C 
ATOM      5  C   UNL     1       9.851  -3.225   5.415  1.00  0.00     0.007 C 
ATOM      6  C   UNL     1      10.453  -3.952   9.988  1.00  0.00     0.013 C 
ATOM      7  C   UNL     1      11.338  -1.725   9.257  1.00  0.00    -0.064 C 
ATOM      8  C   UNL     1      11.819  -2.724   7.001  1.00  0.00     0.015 C 
ATOM      9  C   UNL     1      11.377  -2.924   5.518  1.00  0.00    -0.035 C 
ATOM     10  C   UNL     1      11.160  -2.643  10.468  1.00  0.00    -0.006 C 
ATOM     11  C   UNL     1      12.144  -0.656   9.377  1.00  0.00    -0.027 C 
ATOM     12  C   UNL     1      11.699  -1.656   4.695  1.00  0.00     0.011 C 
ATOM     13  C   UNL     1      12.180  -4.101   4.921  1.00  0.00     0.011 C 
ATOM     14  C   UNL     1      10.197  -1.939  11.483  1.00  0.00     0.017 C 
ATOM     15  C   UNL     1      12.604  -2.922  11.136  1.00  0.00    -0.020 C 
ATOM     16  C   UNL     1      12.793  -0.317  10.682  1.00  0.00     0.032 C 
ATOM     17  C   UNL     1      13.446  -1.578  11.352  1.00  0.00     0.006 C 
ATOM     18  C   UNL     1      12.428  -3.657  12.475  1.00  0.00     0.008 C 
ATOM     19  C   UNL     1      13.444  -3.868  10.212  1.00  0.00     0.012 C 
ATOM     20  C   UNL     1      14.148  -1.321  12.787  1.00  0.00    -0.025 C 
ATOM     21  C   UNL     1      13.731  -3.909  13.219  1.00  0.00     0.005 C 
ATOM     22  C   UNL     1      14.660  -2.669  13.468  1.00  0.00     0.003 C 
ATOM     23  C   UNL     1      13.275  -0.502  13.819  1.00  0.00     0.010 C 
ATOM     24  C   UNL     1      15.400  -0.432  12.435  1.00  0.00     0.012 C 
ATOM     25  C   UNL     1      15.014  -2.542  15.020  1.00  0.00    -0.006 C 
ATOM     26  C   UNL     1      12.738  -1.247  15.061  1.00  0.00     0.033 C 
ATOM     27  C   UNL     1      13.742  -2.134  15.842  1.00  0.00     0.120 C 
ATOM     28  C   UNL     1      15.631  -3.876  15.553  1.00  0.00     0.014 C 
ATOM     29  C   UNL     1      16.124  -1.492  15.302  1.00  0.00     0.014 C 
ENDROOT
BRANCH   1  30
ATOM     30  C   UNL     1       8.232  -1.817   7.826  1.00  0.00     0.048 C 
ATOM     31  O   UNL     1       7.177  -2.060   7.177  1.00  0.00    -0.550 OA
ATOM     32  O   UNL     1       8.359  -0.580   8.452  1.00  0.00    -0.550 OA
ENDBRANCH   1  30
BRANCH  27  33
ATOM     33  O   UNL     1      13.069  -3.273  16.322  1.00  0.00    -0.393 OA
ATOM     34  H   UNL     1      13.023  -3.194  17.309  1.00  0.00     0.210 HD
ENDBRANCH  27  33
TORSDOF 2
ENDMDL
