MODEL 1
REMARK VINA RESULT:    -4.171      0.000      0.000
REMARK INTER + INTRA:          -6.170
REMARK INTER:                  -5.878
REMARK INTRA:                  -0.292
REMARK UNBOUND:                -0.292
REMARK SMILES CC1=CCC(=C(C)C)CCC(C)=CCC1
REMARK SMILES IDX 5 1 6 2 7 3 8 4 9 5 10 6 11 7 12 8 13 9 4 11 3 12 2 13 1 14
REMARK SMILES IDX 15 15 14 16
REMARK H PARENT
REMARK Flexibility Score: 60.00
ROOT
ATOM      1  C   UNL     1     -48.167 -49.448  18.112  1.00  0.00    -0.067 C 
ATOM      2  C   UNL     1     -47.850 -49.417  16.778  1.00  0.00    -0.077 C 
ATOM      3  C   UNL     1     -46.962 -48.337  16.198  1.00  0.00     0.039 C 
ATOM      4  C   UNL     1     -48.385 -50.461  15.820  1.00  0.00     0.039 C 
ENDROOT
BRANCH   1   5
ATOM      5  C   UNL     1     -47.485 -48.495  19.102  1.00  0.00     0.035 C 
BRANCH   5   6
ATOM      6  C   UNL     1     -48.457 -47.547  19.838  1.00  0.00     0.035 C 
BRANCH   6   7
ATOM      7  C   UNL     1     -48.626 -47.850  21.319  1.00  0.00    -0.077 C 
ATOM      8  C   UNL     1     -47.422 -47.753  22.222  1.00  0.00     0.039 C 
ATOM      9  C   UNL     1     -49.805 -48.204  21.877  1.00  0.00    -0.028 CG0
ATOM     10  G   UNL     1     -51.112 -48.388  21.144  1.00  0.00     0.000 G0
ENDBRANCH   6   7
ENDBRANCH   5   6
ENDBRANCH   1   5
BRANCH   1  11
ATOM     11  C   UNL     1     -49.098 -50.532  18.668  1.00  0.00     0.058 C 
BRANCH  11  12
ATOM     12  C   UNL     1     -50.548 -50.298  18.321  1.00  0.00    -0.024 C 
ATOM     13  C   UNL     1     -51.525 -49.958  19.195  1.00  0.00    -0.077 C 
ATOM     14  C   UNL     1     -52.903 -49.697  18.639  1.00  0.00     0.039 C 
BRANCH  13  15
ATOM     15  C   UNL     1     -51.310 -49.842  20.694  1.00  0.00     0.034 C 
BRANCH  15  16
ATOM     16  C   UNL     1     -51.117 -48.384  21.156  1.00  0.00     0.032 CG0
ATOM     17  G   UNL     1     -49.804 -48.203  21.878  1.00  0.00     0.000 G0
ENDBRANCH  15  16
ENDBRANCH  13  15
ENDBRANCH  11  12
ENDBRANCH   1  11
TORSDOF 0
ENDMDL
MODEL 2
REMARK VINA RESULT:    -4.140      2.584      5.264
REMARK INTER + INTRA:          -6.126
REMARK INTER:                  -6.054
REMARK INTRA:                  -0.072
REMARK UNBOUND:                -0.292
REMARK SMILES CC1=CCC(=C(C)C)CCC(C)=CCC1
REMARK SMILES IDX 5 1 6 2 7 3 8 4 9 5 10 6 11 7 12 8 13 9 4 11 3 12 2 13 1 14
REMARK SMILES IDX 15 15 14 16
REMARK H PARENT
REMARK Flexibility Score: 60.00
ROOT
ATOM      1  C   UNL     1     -53.770 -47.591  21.991  1.00  0.00    -0.067 C 
ATOM      2  C   UNL     1     -54.910 -47.340  21.270  1.00  0.00    -0.077 C 
ATOM      3  C   UNL     1     -55.631 -46.013  21.361  1.00  0.00     0.039 C 
ATOM      4  C   UNL     1     -55.506 -48.389  20.354  1.00  0.00     0.039 C 
ENDROOT
BRANCH   1   5
ATOM      5  C   UNL     1     -53.079 -46.471  22.778  1.00  0.00     0.035 C 
BRANCH   5   6
ATOM      6  C   UNL     1     -51.545 -46.429  22.604  1.00  0.00     0.035 C 
BRANCH   6   7
ATOM      7  C   UNL     1     -50.770 -47.109  23.722  1.00  0.00    -0.077 C 
ATOM      8  C   UNL     1     -51.064 -46.723  25.150  1.00  0.00     0.039 C 
ATOM      9  C   UNL     1     -49.824 -48.050  23.506  1.00  0.00    -0.028 CG0
ATOM     10  G   UNL     1     -49.362 -48.549  22.158  1.00  0.00     0.000 G0
ENDBRANCH   6   7
ENDBRANCH   5   6
ENDBRANCH   1   5
BRANCH   1  11
ATOM     11  C   UNL     1     -53.079 -48.956  21.908  1.00  0.00     0.058 C 
BRANCH  11  12
ATOM     12  C   UNL     1     -52.311 -49.152  20.623  1.00  0.00    -0.024 C 
ATOM     13  C   UNL     1     -51.026 -49.568  20.525  1.00  0.00    -0.077 C 
ATOM     14  C   UNL     1     -50.458 -49.771  19.142  1.00  0.00     0.039 C 
BRANCH  13  15
ATOM     15  C   UNL     1     -50.131 -49.822  21.726  1.00  0.00     0.034 C 
BRANCH  15  16
ATOM     16  C   UNL     1     -49.343 -48.567  22.156  1.00  0.00     0.032 CG0
ATOM     17  G   UNL     1     -49.821 -48.046  23.489  1.00  0.00     0.000 G0
ENDBRANCH  15  16
ENDBRANCH  13  15
ENDBRANCH  11  12
ENDBRANCH   1  11
TORSDOF 0
ENDMDL
MODEL 3
REMARK VINA RESULT:    -4.137      9.368     13.023
REMARK INTER + INTRA:          -6.123
REMARK INTER:                  -5.800
REMARK INTRA:                  -0.323
REMARK UNBOUND:                -0.292
REMARK SMILES CC1=CCC(=C(C)C)CCC(C)=CCC1
REMARK SMILES IDX 5 1 6 2 7 3 8 4 9 5 10 6 11 7 12 8 13 9 4 11 3 12 2 13 1 14
REMARK SMILES IDX 15 15 14 16
REMARK H PARENT
REMARK Flexibility Score: 60.00
ROOT
ATOM      1  C   UNL     1     -44.834 -50.400  30.982  1.00  0.00    -0.067 C 
ATOM      2  C   UNL     1     -45.414 -50.626  32.204  1.00  0.00    -0.077 C 
ATOM      3  C   UNL     1     -46.673 -49.900  32.632  1.00  0.00     0.039 C 
ATOM      4  C   UNL     1     -44.815 -51.609  33.189  1.00  0.00     0.039 C 
ENDROOT
BRANCH   1   5
ATOM      5  C   UNL     1     -45.539 -49.539  29.927  1.00  0.00     0.035 C 
BRANCH   5   6
ATOM      6  C   UNL     1     -44.707 -48.335  29.435  1.00  0.00     0.035 C 
BRANCH   6   7
ATOM      7  C   UNL     1     -44.316 -48.402  27.967  1.00  0.00    -0.077 C 
ATOM      8  C   UNL     1     -45.406 -48.495  26.929  1.00  0.00     0.039 C 
ATOM      9  C   UNL     1     -43.035 -48.380  27.536  1.00  0.00    -0.028 CG0
ATOM     10  G   UNL     1     -41.807 -48.322  28.411  1.00  0.00     0.000 G0
ENDBRANCH   6   7
ENDBRANCH   5   6
ENDBRANCH   1   5
BRANCH   1  11
ATOM     11  C   UNL     1     -43.541 -51.122  30.588  1.00  0.00     0.058 C 
BRANCH  11  12
ATOM     12  C   UNL     1     -42.303 -50.459  31.143  1.00  0.00    -0.024 C 
ATOM     13  C   UNL     1     -41.365 -49.804  30.420  1.00  0.00    -0.077 C 
ATOM     14  C   UNL     1     -40.234 -49.145  31.171  1.00  0.00     0.039 C 
BRANCH  13  15
ATOM     15  C   UNL     1     -41.384 -49.712  28.904  1.00  0.00     0.034 C 
BRANCH  15  16
ATOM     16  C   UNL     1     -41.803 -48.317  28.398  1.00  0.00     0.032 CG0
ATOM     17  G   UNL     1     -43.031 -48.394  27.522  1.00  0.00     0.000 G0
ENDBRANCH  15  16
ENDBRANCH  13  15
ENDBRANCH  11  12
ENDBRANCH   1  11
TORSDOF 0
ENDMDL
MODEL 4
REMARK VINA RESULT:    -4.033      8.196     11.577
REMARK INTER + INTRA:          -5.975
REMARK INTER:                  -5.681
REMARK INTRA:                  -0.294
REMARK UNBOUND:                -0.292
REMARK SMILES CC1=CCC(=C(C)C)CCC(C)=CCC1
REMARK SMILES IDX 5 1 6 2 7 3 8 4 9 5 10 6 11 7 12 8 13 9 4 11 3 12 2 13 1 14
REMARK SMILES IDX 15 15 14 16
REMARK H PARENT
REMARK Flexibility Score: 60.00
ROOT
ATOM      1  C   UNL     1     -43.084 -49.416  29.797  1.00  0.00    -0.067 C 
ATOM      2  C   UNL     1     -43.525 -50.248  30.795  1.00  0.00    -0.077 C 
ATOM      3  C   UNL     1     -42.570 -51.117  31.585  1.00  0.00     0.039 C 
ATOM      4  C   UNL     1     -44.996 -50.340  31.148  1.00  0.00     0.039 C 
ENDROOT
BRANCH   1   5
ATOM      5  C   UNL     1     -41.584 -49.199  29.565  1.00  0.00     0.035 C 
BRANCH   5   6
ATOM      6  C   UNL     1     -41.160 -49.254  28.081  1.00  0.00     0.035 C 
BRANCH   6   7
ATOM      7  C   UNL     1     -40.827 -47.900  27.474  1.00  0.00    -0.077 C 
ATOM      8  C   UNL     1     -39.804 -47.028  28.160  1.00  0.00     0.039 C 
ATOM      9  C   UNL     1     -41.400 -47.428  26.345  1.00  0.00    -0.028 CG0
ATOM     10  G   UNL     1     -42.463 -48.128  25.532  1.00  0.00     0.000 G0
ENDBRANCH   6   7
ENDBRANCH   5   6
ENDBRANCH   1   5
BRANCH   1  11
ATOM     11  C   UNL     1     -44.077 -48.574  28.989  1.00  0.00     0.058 C 
BRANCH  11  12
ATOM     12  C   UNL     1     -44.713 -49.339  27.853  1.00  0.00    -0.024 C 
ATOM     13  C   UNL     1     -44.604 -49.037  26.538  1.00  0.00    -0.077 C 
ATOM     14  C   UNL     1     -45.258 -49.970  25.549  1.00  0.00     0.039 C 
BRANCH  13  15
ATOM     15  C   UNL     1     -43.878 -47.810  26.014  1.00  0.00     0.034 C 
BRANCH  15  16
ATOM     16  C   UNL     1     -42.452 -48.130  25.519  1.00  0.00     0.032 CG0
ATOM     17  G   UNL     1     -41.409 -47.426  26.353  1.00  0.00     0.000 G0
ENDBRANCH  15  16
ENDBRANCH  13  15
ENDBRANCH  11  12
ENDBRANCH   1  11
TORSDOF 0
ENDMDL
MODEL 5
REMARK VINA RESULT:    -4.027      2.468      4.910
REMARK INTER + INTRA:          -5.967
REMARK INTER:                  -5.716
REMARK INTRA:                  -0.251
REMARK UNBOUND:                -0.292
REMARK SMILES CC1=CCC(=C(C)C)CCC(C)=CCC1
REMARK SMILES IDX 5 1 6 2 7 3 8 4 9 5 10 6 11 7 12 8 13 9 4 11 3 12 2 13 1 14
REMARK SMILES IDX 15 15 14 16
REMARK H PARENT
REMARK Flexibility Score: 60.00
ROOT
ATOM      1  C   UNL     1     -49.963 -48.533  19.789  1.00  0.00    -0.067 C 
ATOM      2  C   UNL     1     -50.517 -48.590  21.042  1.00  0.00    -0.077 C 
ATOM      3  C   UNL     1     -50.101 -47.633  22.139  1.00  0.00     0.039 C 
ATOM      4  C   UNL     1     -51.569 -49.624  21.389  1.00  0.00     0.039 C 
ENDROOT
BRANCH   1   5
ATOM      5  C   UNL     1     -49.032 -47.379  19.397  1.00  0.00     0.035 C 
BRANCH   5   6
ATOM      6  C   UNL     1     -47.797 -47.814  18.577  1.00  0.00     0.035 C 
BRANCH   6   7
ATOM      7  C   UNL     1     -47.844 -47.408  17.112  1.00  0.00    -0.077 C 
ATOM      8  C   UNL     1     -48.140 -45.970  16.766  1.00  0.00     0.039 C 
ATOM      9  C   UNL     1     -47.631 -48.271  16.093  1.00  0.00    -0.028 CG0
ATOM     10  G   UNL     1     -47.354 -49.748  16.228  1.00  0.00     0.000 G0
ENDBRANCH   6   7
ENDBRANCH   5   6
ENDBRANCH   1   5
BRANCH   1  11
ATOM     11  C   UNL     1     -50.375 -49.537  18.707  1.00  0.00     0.058 C 
BRANCH  11  12
ATOM     12  C   UNL     1     -49.548 -50.799  18.727  1.00  0.00    -0.024 C 
ATOM     13  C   UNL     1     -48.756 -51.242  17.723  1.00  0.00    -0.077 C 
ATOM     14  C   UNL     1     -47.950 -52.494  17.964  1.00  0.00     0.039 C 
BRANCH  13  15
ATOM     15  C   UNL     1     -48.651 -50.557  16.371  1.00  0.00     0.034 C 
BRANCH  15  16
ATOM     16  C   UNL     1     -47.349 -49.745  16.215  1.00  0.00     0.032 CG0
ATOM     17  G   UNL     1     -47.633 -48.268  16.080  1.00  0.00     0.000 G0
ENDBRANCH  15  16
ENDBRANCH  13  15
ENDBRANCH  11  12
ENDBRANCH   1  11
TORSDOF 0
ENDMDL
MODEL 6
REMARK VINA RESULT:    -4.015      9.195     12.541
REMARK INTER + INTRA:          -5.951
REMARK INTER:                  -5.793
REMARK INTRA:                  -0.157
REMARK UNBOUND:                -0.292
REMARK SMILES CC1=CCC(=C(C)C)CCC(C)=CCC1
REMARK SMILES IDX 5 1 6 2 7 3 8 4 9 5 10 6 11 7 12 8 13 9 4 11 3 12 2 13 1 14
REMARK SMILES IDX 15 15 14 16
REMARK H PARENT
REMARK Flexibility Score: 60.00
ROOT
ATOM      1  C   UNL     1     -44.460 -50.167  31.044  1.00  0.00    -0.067 C 
ATOM      2  C   UNL     1     -45.495 -50.613  31.825  1.00  0.00    -0.077 C 
ATOM      3  C   UNL     1     -45.361 -51.845  32.694  1.00  0.00     0.039 C 
ATOM      4  C   UNL     1     -46.828 -49.894  31.847  1.00  0.00     0.039 C 
ENDROOT
BRANCH   1   5
ATOM      5  C   UNL     1     -43.065 -50.794  31.159  1.00  0.00     0.035 C 
BRANCH   5   6
ATOM      6  C   UNL     1     -42.238 -50.741  29.856  1.00  0.00     0.035 C 
BRANCH   6   7
ATOM      7  C   UNL     1     -41.280 -49.564  29.770  1.00  0.00    -0.077 C 
ATOM      8  C   UNL     1     -40.394 -49.260  30.953  1.00  0.00     0.039 C 
ATOM      9  C   UNL     1     -41.174 -48.767  28.683  1.00  0.00    -0.028 CG0
ATOM     10  G   UNL     1     -41.990 -48.884  27.418  1.00  0.00     0.000 G0
ENDBRANCH   6   7
ENDBRANCH   5   6
ENDBRANCH   1   5
BRANCH   1  11
ATOM     11  C   UNL     1     -44.634 -48.938  30.145  1.00  0.00     0.058 C 
BRANCH  11  12
ATOM     12  C   UNL     1     -45.121 -49.284  28.759  1.00  0.00    -0.024 C 
ATOM     13  C   UNL     1     -44.518 -48.935  27.599  1.00  0.00    -0.077 C 
ATOM     14  C   UNL     1     -45.125 -49.441  26.313  1.00  0.00     0.039 C 
BRANCH  13  15
ATOM     15  C   UNL     1     -43.282 -48.054  27.525  1.00  0.00     0.034 C 
BRANCH  15  16
ATOM     16  C   UNL     1     -41.977 -48.868  27.419  1.00  0.00     0.032 CG0
ATOM     17  G   UNL     1     -41.160 -48.768  28.684  1.00  0.00     0.000 G0
ENDBRANCH  15  16
ENDBRANCH  13  15
ENDBRANCH  11  12
ENDBRANCH   1  11
TORSDOF 0
ENDMDL
MODEL 7
REMARK VINA RESULT:    -3.948      2.289      4.552
REMARK INTER + INTRA:          -5.856
REMARK INTER:                  -5.539
REMARK INTRA:                  -0.317
REMARK UNBOUND:                -0.292
REMARK SMILES CC1=CCC(=C(C)C)CCC(C)=CCC1
REMARK SMILES IDX 5 1 6 2 7 3 8 4 9 5 10 6 11 7 12 8 13 9 4 11 3 12 2 13 1 14
REMARK SMILES IDX 15 15 14 16
REMARK H PARENT
REMARK Flexibility Score: 60.00
ROOT
ATOM      1  C   UNL     1     -51.109 -49.127  20.065  1.00  0.00    -0.067 C 
ATOM      2  C   UNL     1     -50.818 -49.970  19.023  1.00  0.00    -0.077 C 
ATOM      3  C   UNL     1     -51.898 -50.754  18.310  1.00  0.00     0.039 C 
ATOM      4  C   UNL     1     -49.393 -50.163  18.544  1.00  0.00     0.039 C 
ENDROOT
BRANCH   1   5
ATOM      5  C   UNL     1     -52.564 -48.806  20.428  1.00  0.00     0.035 C 
BRANCH   5   6
ATOM      6  C   UNL     1     -52.928 -49.101  21.900  1.00  0.00     0.035 C 
BRANCH   6   7
ATOM      7  C   UNL     1     -53.251 -47.865  22.725  1.00  0.00    -0.077 C 
ATOM      8  C   UNL     1     -54.369 -46.959  22.269  1.00  0.00     0.039 C 
ATOM      9  C   UNL     1     -52.590 -47.529  23.854  1.00  0.00    -0.028 CG0
ATOM     10  G   UNL     1     -51.427 -48.281  24.456  1.00  0.00     0.000 G0
ENDBRANCH   6   7
ENDBRANCH   5   6
ENDBRANCH   1   5
BRANCH   1  11
ATOM     11  C   UNL     1     -49.992 -48.372  20.794  1.00  0.00     0.058 C 
BRANCH  11  12
ATOM     12  C   UNL     1     -49.296 -49.212  21.837  1.00  0.00    -0.024 C 
ATOM     13  C   UNL     1     -49.360 -49.023  23.176  1.00  0.00    -0.077 C 
ATOM     14  C   UNL     1     -48.648 -50.018  24.059  1.00  0.00     0.039 C 
BRANCH  13  15
ATOM     15  C   UNL     1     -50.091 -47.862  23.827  1.00  0.00     0.034 C 
BRANCH  15  16
ATOM     16  C   UNL     1     -51.430 -48.286  24.466  1.00  0.00     0.032 CG0
ATOM     17  G   UNL     1     -52.591 -47.532  23.863  1.00  0.00     0.000 G0
ENDBRANCH  15  16
ENDBRANCH  13  15
ENDBRANCH  11  12
ENDBRANCH   1  11
TORSDOF 0
ENDMDL
MODEL 8
REMARK VINA RESULT:    -3.916      1.522      2.887
REMARK INTER + INTRA:          -5.810
REMARK INTER:                  -6.275
REMARK INTRA:                   0.465
REMARK UNBOUND:                -0.292
REMARK SMILES CC1=CCC(=C(C)C)CCC(C)=CCC1
REMARK SMILES IDX 5 1 6 2 7 3 8 4 9 5 10 6 11 7 12 8 13 9 4 11 3 12 2 13 1 14
REMARK SMILES IDX 15 15 14 16
REMARK H PARENT
REMARK Flexibility Score: 60.00
ROOT
ATOM      1  C   UNL     1     -48.045 -48.227  17.992  1.00  0.00    -0.067 C 
ATOM      2  C   UNL     1     -47.762 -47.426  16.916  1.00  0.00    -0.077 C 
ATOM      3  C   UNL     1     -48.211 -45.981  16.860  1.00  0.00     0.039 C 
ATOM      4  C   UNL     1     -46.990 -47.956  15.724  1.00  0.00     0.039 C 
ENDROOT
BRANCH   1   5
ATOM      5  C   UNL     1     -48.671 -47.638  19.263  1.00  0.00     0.035 C 
BRANCH   5   6
ATOM      6  C   UNL     1     -48.869 -48.661  20.403  1.00  0.00     0.035 C 
BRANCH   6   7
ATOM      7  C   UNL     1     -50.320 -49.033  20.665  1.00  0.00    -0.077 C 
ATOM      8  C   UNL     1     -51.090 -48.262  21.708  1.00  0.00     0.039 C 
ATOM      9  C   UNL     1     -50.965 -50.024  20.010  1.00  0.00    -0.028 CG0
ATOM     10  G   UNL     1     -50.365 -50.928  18.960  1.00  0.00     0.000 G0
ENDBRANCH   6   7
ENDBRANCH   5   6
ENDBRANCH   1   5
BRANCH   1  11
ATOM     11  C   UNL     1     -47.610 -49.696  18.008  1.00  0.00     0.058 C 
BRANCH  11  12
ATOM     12  C   UNL     1     -48.144 -50.482  16.835  1.00  0.00    -0.024 C 
ATOM     13  C   UNL     1     -49.448 -50.755  16.594  1.00  0.00    -0.077 C 
ATOM     14  C   UNL     1     -49.786 -51.497  15.324  1.00  0.00     0.039 C 
BRANCH  13  15
ATOM     15  C   UNL     1     -50.576 -50.371  17.537  1.00  0.00     0.034 C 
BRANCH  15  16
ATOM     16  C   UNL     1     -50.381 -50.938  18.958  1.00  0.00     0.032 CG0
ATOM     17  G   UNL     1     -50.968 -50.019  20.003  1.00  0.00     0.000 G0
ENDBRANCH  15  16
ENDBRANCH  13  15
ENDBRANCH  11  12
ENDBRANCH   1  11
TORSDOF 0
ENDMDL
MODEL 9
REMARK VINA RESULT:    -3.870      8.891     12.142
REMARK INTER + INTRA:          -5.746
REMARK INTER:                  -5.720
REMARK INTRA:                  -0.025
REMARK UNBOUND:                -0.292
REMARK SMILES CC1=CCC(=C(C)C)CCC(C)=CCC1
REMARK SMILES IDX 5 1 6 2 7 3 8 4 9 5 10 6 11 7 12 8 13 9 4 11 3 12 2 13 1 14
REMARK SMILES IDX 15 15 14 16
REMARK H PARENT
REMARK Flexibility Score: 60.00
ROOT
ATOM      1  C   UNL     1     -40.213 -47.639  28.131  1.00  0.00    -0.067 C 
ATOM      2  C   UNL     1     -38.998 -47.407  28.723  1.00  0.00    -0.077 C 
ATOM      3  C   UNL     1     -37.967 -48.504  28.878  1.00  0.00     0.039 C 
ATOM      4  C   UNL     1     -38.635 -46.037  29.260  1.00  0.00     0.039 C 
ENDROOT
BRANCH   1   5
ATOM      5  C   UNL     1     -40.504 -48.976  27.439  1.00  0.00     0.035 C 
BRANCH   5   6
ATOM      6  C   UNL     1     -41.071 -50.064  28.376  1.00  0.00     0.035 C 
BRANCH   6   7
ATOM      7  C   UNL     1     -41.910 -49.526  29.525  1.00  0.00    -0.077 C 
ATOM      8  C   UNL     1     -41.343 -49.572  30.923  1.00  0.00     0.039 C 
ATOM      9  C   UNL     1     -43.145 -49.002  29.363  1.00  0.00    -0.028 CG0
ATOM     10  G   UNL     1     -43.897 -48.895  28.058  1.00  0.00     0.000 G0
ENDBRANCH   6   7
ENDBRANCH   5   6
ENDBRANCH   1   5
BRANCH   1  11
ATOM     11  C   UNL     1     -41.253 -46.519  28.020  1.00  0.00     0.058 C 
BRANCH  11  12
ATOM     12  C   UNL     1     -42.019 -46.552  26.719  1.00  0.00    -0.024 C 
ATOM     13  C   UNL     1     -43.318 -46.904  26.575  1.00  0.00    -0.077 C 
ATOM     14  C   UNL     1     -43.923 -46.802  25.196  1.00  0.00     0.039 C 
BRANCH  13  15
ATOM     15  C   UNL     1     -44.185 -47.407  27.717  1.00  0.00     0.034 C 
BRANCH  15  16
ATOM     16  C   UNL     1     -43.904 -48.882  28.070  1.00  0.00     0.032 CG0
ATOM     17  G   UNL     1     -43.144 -49.003  29.369  1.00  0.00     0.000 G0
ENDBRANCH  15  16
ENDBRANCH  13  15
ENDBRANCH  11  12
ENDBRANCH   1  11
TORSDOF 0
ENDMDL
