MODEL 1
REMARK VINA RESULT:    -2.839      0.000      0.000
REMARK INTER + INTRA:          -3.445
REMARK INTER:                  -3.171
REMARK INTRA:                  -0.274
REMARK UNBOUND:                -0.274
REMARK SMILES O=C([O-])C=Cc1ccccc1
REMARK SMILES IDX 4 1 5 2 2 3 1 4 3 5 6 6 7 7 11 8 8 9 10 10 9 11
REMARK H PARENT
REMARK Flexibility Score: inf
ROOT
ATOM      1  C   UNL     1       1.509  12.816  -3.913  1.00  0.00     0.025 C 
ATOM      2  C   UNL     1       0.324  13.410  -4.129  1.00  0.00     0.010 C 
ENDROOT
BRANCH   1   3
ATOM      3  C   UNL     1       2.127  12.578  -2.595  1.00  0.00     0.064 C 
ATOM      4  O   UNL     1       2.007  11.475  -2.000  1.00  0.00    -0.545 OA
ATOM      5  O   UNL     1       2.917  13.571  -2.029  1.00  0.00    -0.545 OA
ENDBRANCH   1   3
BRANCH   2   6
ATOM      6  C   UNL     1      -0.491  14.093  -3.102  1.00  0.00    -0.026 A 
ATOM      7  C   UNL     1      -0.284  15.448  -2.791  1.00  0.00     0.008 A 
ATOM      8  C   UNL     1      -1.558  13.405  -2.503  1.00  0.00     0.008 A 
ATOM      9  C   UNL     1      -1.102  16.089  -1.854  1.00  0.00     0.001 A 
ATOM     10  C   UNL     1      -2.373  14.048  -1.567  1.00  0.00     0.001 A 
ATOM     11  C   UNL     1      -2.142  15.387  -1.238  1.00  0.00     0.000 A 
ENDBRANCH   2   6
TORSDOF 2
ENDMDL
MODEL 2
REMARK VINA RESULT:    -2.837      0.248      1.773
REMARK INTER + INTRA:          -3.442
REMARK INTER:                  -3.167
REMARK INTRA:                  -0.275
REMARK UNBOUND:                -0.274
REMARK SMILES O=C([O-])C=Cc1ccccc1
REMARK SMILES IDX 4 1 5 2 2 3 1 4 3 5 6 6 7 7 11 8 8 9 10 10 9 11
REMARK H PARENT
REMARK Flexibility Score: inf
ROOT
ATOM      1  C   UNL     1       1.556  12.759  -3.673  1.00  0.00     0.025 C 
ATOM      2  C   UNL     1       0.409  13.356  -4.034  1.00  0.00     0.010 C 
ENDROOT
BRANCH   1   3
ATOM      3  C   UNL     1       2.022  12.552  -2.289  1.00  0.00     0.064 C 
ATOM      4  O   UNL     1       2.686  13.432  -1.678  1.00  0.00    -0.545 OA
ATOM      5  O   UNL     1       1.662  11.390  -1.620  1.00  0.00    -0.545 OA
ENDBRANCH   1   3
BRANCH   2   6
ATOM      6  C   UNL     1      -0.507  14.073  -3.123  1.00  0.00    -0.026 A 
ATOM      7  C   UNL     1      -1.556  13.403  -2.469  1.00  0.00     0.008 A 
ATOM      8  C   UNL     1      -0.262  15.422  -2.825  1.00  0.00     0.008 A 
ATOM      9  C   UNL     1      -2.379  14.089  -1.570  1.00  0.00     0.001 A 
ATOM     10  C   UNL     1      -1.087  16.106  -1.926  1.00  0.00     0.001 A 
ATOM     11  C   UNL     1      -2.148  15.442  -1.303  1.00  0.00     0.000 A 
ENDBRANCH   2   6
TORSDOF 2
ENDMDL
MODEL 3
REMARK VINA RESULT:    -2.760      1.591      2.966
REMARK INTER + INTRA:          -3.357
REMARK INTER:                  -3.078
REMARK INTRA:                  -0.279
REMARK UNBOUND:                -0.274
REMARK SMILES O=C([O-])C=Cc1ccccc1
REMARK SMILES IDX 4 1 5 2 2 3 1 4 3 5 6 6 7 7 11 8 8 9 10 10 9 11
REMARK H PARENT
REMARK Flexibility Score: inf
ROOT
ATOM      1  C   UNL     1      -0.730  12.867  -0.892  1.00  0.00     0.025 C 
ATOM      2  C   UNL     1      -1.233  13.637  -1.869  1.00  0.00     0.010 C 
ENDROOT
BRANCH   1   3
ATOM      3  C   UNL     1       0.685  12.475  -0.746  1.00  0.00     0.064 C 
ATOM      4  O   UNL     1       1.120  11.389  -1.213  1.00  0.00    -0.545 OA
ATOM      5  O   UNL     1       1.572  13.355  -0.140  1.00  0.00    -0.545 OA
ENDBRANCH   1   3
BRANCH   2   6
ATOM      6  C   UNL     1      -0.500  14.084  -3.072  1.00  0.00    -0.026 A 
ATOM      7  C   UNL     1       0.240  15.279  -3.072  1.00  0.00     0.008 A 
ATOM      8  C   UNL     1      -0.456  13.249  -4.199  1.00  0.00     0.008 A 
ATOM      9  C   UNL     1       0.969  15.657  -4.204  1.00  0.00     0.001 A 
ATOM     10  C   UNL     1       0.274  13.629  -5.330  1.00  0.00     0.001 A 
ATOM     11  C   UNL     1       0.982  14.835  -5.334  1.00  0.00     0.000 A 
ENDBRANCH   2   6
TORSDOF 2
ENDMDL
MODEL 4
REMARK VINA RESULT:    -2.728      1.647      3.261
REMARK INTER + INTRA:          -3.321
REMARK INTER:                  -3.044
REMARK INTRA:                  -0.277
REMARK UNBOUND:                -0.274
REMARK SMILES O=C([O-])C=Cc1ccccc1
REMARK SMILES IDX 4 1 5 2 2 3 1 4 3 5 6 6 7 7 11 8 8 9 10 10 9 11
REMARK H PARENT
REMARK Flexibility Score: inf
ROOT
ATOM      1  C   UNL     1      -0.869  12.833  -0.913  1.00  0.00     0.025 C 
ATOM      2  C   UNL     1      -1.300  13.588  -1.936  1.00  0.00     0.010 C 
ENDROOT
BRANCH   1   3
ATOM      3  C   UNL     1       0.535  12.466  -0.643  1.00  0.00     0.064 C 
ATOM      4  O   UNL     1       1.049  11.424  -1.129  1.00  0.00    -0.545 OA
ATOM      5  O   UNL     1       1.326  13.326   0.107  1.00  0.00    -0.545 OA
ENDBRANCH   1   3
BRANCH   2   6
ATOM      6  C   UNL     1      -0.473  14.040  -3.075  1.00  0.00    -0.026 A 
ATOM      7  C   UNL     1      -0.389  13.285  -4.258  1.00  0.00     0.008 A 
ATOM      8  C   UNL     1       0.154  15.294  -3.014  1.00  0.00     0.008 A 
ATOM      9  C   UNL     1       0.357  13.757  -5.343  1.00  0.00     0.001 A 
ATOM     10  C   UNL     1       0.899  15.763  -4.100  1.00  0.00     0.001 A 
ATOM     11  C   UNL     1       1.005  14.993  -5.262  1.00  0.00     0.000 A 
ENDBRANCH   2   6
TORSDOF 2
ENDMDL
MODEL 5
REMARK VINA RESULT:    -2.691      7.500      8.616
REMARK INTER + INTRA:          -3.279
REMARK INTER:                  -3.009
REMARK INTRA:                  -0.270
REMARK UNBOUND:                -0.274
REMARK SMILES O=C([O-])C=Cc1ccccc1
REMARK SMILES IDX 4 1 5 2 2 3 1 4 3 5 6 6 7 7 11 8 8 9 10 10 9 11
REMARK H PARENT
REMARK Flexibility Score: inf
ROOT
ATOM      1  C   UNL     1      -0.260  11.499  -9.627  1.00  0.00     0.025 C 
ATOM      2  C   UNL     1      -0.841  10.324  -9.917  1.00  0.00     0.010 C 
ENDROOT
BRANCH   1   3
ATOM      3  C   UNL     1      -0.942  12.686  -9.077  1.00  0.00     0.064 C 
ATOM      4  O   UNL     1      -0.884  12.971  -7.851  1.00  0.00    -0.545 OA
ATOM      5  O   UNL     1      -1.605  13.547  -9.941  1.00  0.00    -0.545 OA
ENDBRANCH   1   3
BRANCH   2   6
ATOM      6  C   UNL     1      -2.296  10.063  -9.908  1.00  0.00    -0.026 A 
ATOM      7  C   UNL     1      -3.086  10.301 -11.047  1.00  0.00     0.008 A 
ATOM      8  C   UNL     1      -2.881   9.470  -8.779  1.00  0.00     0.008 A 
ATOM      9  C   UNL     1      -4.451   9.998 -11.034  1.00  0.00     0.001 A 
ATOM     10  C   UNL     1      -4.246   9.168  -8.769  1.00  0.00     0.001 A 
ATOM     11  C   UNL     1      -5.032   9.436  -9.894  1.00  0.00     0.000 A 
ENDBRANCH   2   6
TORSDOF 2
ENDMDL
MODEL 6
REMARK VINA RESULT:    -2.681      7.509      8.682
REMARK INTER + INTRA:          -3.268
REMARK INTER:                  -3.014
REMARK INTRA:                  -0.254
REMARK UNBOUND:                -0.274
REMARK SMILES O=C([O-])C=Cc1ccccc1
REMARK SMILES IDX 4 1 5 2 2 3 1 4 3 5 6 6 7 7 11 8 8 9 10 10 9 11
REMARK H PARENT
REMARK Flexibility Score: inf
ROOT
ATOM      1  C   UNL     1      -0.285  11.516  -9.647  1.00  0.00     0.025 C 
ATOM      2  C   UNL     1      -0.795  10.310  -9.941  1.00  0.00     0.010 C 
ENDROOT
BRANCH   1   3
ATOM      3  C   UNL     1      -1.035  12.657  -9.086  1.00  0.00     0.064 C 
ATOM      4  O   UNL     1      -0.943  12.972  -7.870  1.00  0.00    -0.545 OA
ATOM      5  O   UNL     1      -1.806  13.442  -9.932  1.00  0.00    -0.545 OA
ENDBRANCH   1   3
BRANCH   2   6
ATOM      6  C   UNL     1      -2.231   9.961  -9.925  1.00  0.00    -0.026 A 
ATOM      7  C   UNL     1      -2.840   9.434  -8.772  1.00  0.00     0.008 A 
ATOM      8  C   UNL     1      -3.023  10.257 -11.046  1.00  0.00     0.008 A 
ATOM      9  C   UNL     1      -4.212   9.159  -8.763  1.00  0.00     0.001 A 
ATOM     10  C   UNL     1      -4.393   9.982 -11.033  1.00  0.00     0.001 A 
ATOM     11  C   UNL     1      -4.987   9.428  -9.895  1.00  0.00     0.000 A 
ENDBRANCH   2   6
TORSDOF 2
ENDMDL
MODEL 7
REMARK VINA RESULT:    -2.673      1.955      2.558
REMARK INTER + INTRA:          -3.260
REMARK INTER:                  -2.997
REMARK INTRA:                  -0.262
REMARK UNBOUND:                -0.274
REMARK SMILES O=C([O-])C=Cc1ccccc1
REMARK SMILES IDX 4 1 5 2 2 3 1 4 3 5 6 6 7 7 11 8 8 9 10 10 9 11
REMARK H PARENT
REMARK Flexibility Score: inf
ROOT
ATOM      1  C   UNL     1       1.844  12.508  -6.332  1.00  0.00     0.025 C 
ATOM      2  C   UNL     1       0.704  13.171  -6.082  1.00  0.00     0.010 C 
ENDROOT
BRANCH   1   3
ATOM      3  C   UNL     1       2.904  12.214  -5.348  1.00  0.00     0.064 C 
ATOM      4  O   UNL     1       3.827  13.037  -5.108  1.00  0.00    -0.545 OA
ATOM      5  O   UNL     1       2.845  11.033  -4.621  1.00  0.00    -0.545 OA
ENDBRANCH   1   3
BRANCH   2   6
ATOM      6  C   UNL     1       0.384  13.881  -4.826  1.00  0.00    -0.026 A 
ATOM      7  C   UNL     1       0.869  15.178  -4.579  1.00  0.00     0.008 A 
ATOM      8  C   UNL     1      -0.504  13.294  -3.912  1.00  0.00     0.008 A 
ATOM      9  C   UNL     1       0.510  15.852  -3.407  1.00  0.00     0.001 A 
ATOM     10  C   UNL     1      -0.861  13.971  -2.741  1.00  0.00     0.001 A 
ATOM     11  C   UNL     1      -0.350  15.247  -2.487  1.00  0.00     0.000 A 
ENDBRANCH   2   6
TORSDOF 2
ENDMDL
MODEL 8
REMARK VINA RESULT:    -2.623      3.775      4.785
REMARK INTER + INTRA:          -3.204
REMARK INTER:                  -2.948
REMARK INTRA:                  -0.256
REMARK UNBOUND:                -0.274
REMARK SMILES O=C([O-])C=Cc1ccccc1
REMARK SMILES IDX 4 1 5 2 2 3 1 4 3 5 6 6 7 7 11 8 8 9 10 10 9 11
REMARK H PARENT
REMARK Flexibility Score: inf
ROOT
ATOM      1  C   UNL     1       1.186  12.314  -7.558  1.00  0.00     0.025 C 
ATOM      2  C   UNL     1       1.697  12.567  -6.342  1.00  0.00     0.010 C 
ENDROOT
BRANCH   1   3
ATOM      3  C   UNL     1       0.166  13.125  -8.250  1.00  0.00     0.064 C 
ATOM      4  O   UNL     1       0.484  13.998  -9.101  1.00  0.00    -0.545 OA
ATOM      5  O   UNL     1      -1.178  12.872  -8.009  1.00  0.00    -0.545 OA
ENDBRANCH   1   3
BRANCH   2   6
ATOM      6  C   UNL     1       1.204  13.596  -5.403  1.00  0.00    -0.026 A 
ATOM      7  C   UNL     1       0.295  13.274  -4.380  1.00  0.00     0.008 A 
ATOM      8  C   UNL     1       1.732  14.895  -5.469  1.00  0.00     0.008 A 
ATOM      9  C   UNL     1      -0.118  14.252  -3.470  1.00  0.00     0.001 A 
ATOM     10  C   UNL     1       1.318  15.871  -4.557  1.00  0.00     0.001 A 
ATOM     11  C   UNL     1       0.389  15.551  -3.562  1.00  0.00     0.000 A 
ENDBRANCH   2   6
TORSDOF 2
ENDMDL
MODEL 9
REMARK VINA RESULT:    -2.534      2.470      3.093
REMARK INTER + INTRA:          -3.104
REMARK INTER:                  -2.842
REMARK INTRA:                  -0.262
REMARK UNBOUND:                -0.274
REMARK SMILES O=C([O-])C=Cc1ccccc1
REMARK SMILES IDX 4 1 5 2 2 3 1 4 3 5 6 6 7 7 11 8 8 9 10 10 9 11
REMARK H PARENT
REMARK Flexibility Score: inf
ROOT
ATOM      1  C   UNL     1       0.906  14.873  -5.138  1.00  0.00     0.025 C 
ATOM      2  C   UNL     1       0.658  15.179  -3.855  1.00  0.00     0.010 C 
ENDROOT
BRANCH   1   3
ATOM      3  C   UNL     1       0.579  13.595  -5.799  1.00  0.00     0.064 C 
ATOM      4  O   UNL     1      -0.505  13.431  -6.419  1.00  0.00    -0.545 OA
ATOM      5  O   UNL     1       1.518  12.572  -5.795  1.00  0.00    -0.545 OA
ENDBRANCH   1   3
BRANCH   2   6
ATOM      6  C   UNL     1       0.178  14.233  -2.826  1.00  0.00    -0.026 A 
ATOM      7  C   UNL     1       1.065  13.366  -2.163  1.00  0.00     0.008 A 
ATOM      8  C   UNL     1      -1.168  14.272  -2.431  1.00  0.00     0.008 A 
ATOM      9  C   UNL     1       0.598  12.515  -1.156  1.00  0.00     0.001 A 
ATOM     10  C   UNL     1      -1.632  13.420  -1.423  1.00  0.00     0.001 A 
ATOM     11  C   UNL     1      -0.751  12.539  -0.790  1.00  0.00     0.000 A 
ENDBRANCH   2   6
TORSDOF 2
ENDMDL
