MODEL 1
REMARK VINA RESULT:    -2.777      0.000      0.000
REMARK INTER + INTRA:          -3.390
REMARK INTER:                  -3.264
REMARK INTRA:                  -0.126
REMARK UNBOUND:                -0.126
REMARK SMILES CCCCC(=O)[O-]
REMARK SMILES IDX 4 1 5 2 6 3 7 4 3 5 2 6 1 7
REMARK H PARENT
REMARK Flexibility Score: inf
ROOT
ATOM      1  C   UNL     1      69.934  15.900  77.085  1.00  0.00     0.053 C 
ENDROOT
BRANCH   1   2
ATOM      2  C   UNL     1      70.033  15.324  78.461  1.00  0.00     0.041 C 
ATOM      3  O   UNL     1      71.040  14.645  78.793  1.00  0.00    -0.550 OA
ATOM      4  O   UNL     1      69.035  15.578  79.395  1.00  0.00    -0.550 OA
ENDBRANCH   1   2
BRANCH   1   5
ATOM      5  C   UNL     1      69.657  14.793  76.059  1.00  0.00     0.006 C 
BRANCH   5   6
ATOM      6  C   UNL     1      68.215  14.269  76.131  1.00  0.00    -0.003 C 
ATOM      7  C   UNL     1      67.174  15.380  75.993  1.00  0.00     0.004 C 
ENDBRANCH   5   6
ENDBRANCH   1   5
TORSDOF 3
ENDMDL
MODEL 2
REMARK VINA RESULT:    -2.736      1.137      1.652
REMARK INTER + INTRA:          -3.342
REMARK INTER:                  -3.259
REMARK INTRA:                  -0.083
REMARK UNBOUND:                -0.126
REMARK SMILES CCCCC(=O)[O-]
REMARK SMILES IDX 4 1 5 2 6 3 7 4 3 5 2 6 1 7
REMARK H PARENT
REMARK Flexibility Score: inf
ROOT
ATOM      1  C   UNL     1      71.022  15.141  78.448  1.00  0.00     0.053 C 
ENDROOT
BRANCH   1   2
ATOM      2  C   UNL     1      70.383  15.480  79.758  1.00  0.00     0.041 C 
ATOM      3  O   UNL     1      71.096  15.731  80.765  1.00  0.00    -0.550 OA
ATOM      4  O   UNL     1      68.999  15.568  79.854  1.00  0.00    -0.550 OA
ENDBRANCH   1   2
BRANCH   1   5
ATOM      5  C   UNL     1      70.254  15.796  77.293  1.00  0.00     0.006 C 
BRANCH   5   6
ATOM      6  C   UNL     1      69.875  14.793  76.193  1.00  0.00    -0.003 C 
ATOM      7  C   UNL     1      68.393  14.416  76.221  1.00  0.00     0.004 C 
ENDBRANCH   5   6
ENDBRANCH   1   5
TORSDOF 3
ENDMDL
MODEL 3
REMARK VINA RESULT:    -2.585      2.217      3.437
REMARK INTER + INTRA:          -3.165
REMARK INTER:                  -3.091
REMARK INTRA:                  -0.073
REMARK UNBOUND:                -0.126
REMARK SMILES CCCCC(=O)[O-]
REMARK SMILES IDX 4 1 5 2 6 3 7 4 3 5 2 6 1 7
REMARK H PARENT
REMARK Flexibility Score: inf
ROOT
ATOM      1  C   UNL     1      69.610  15.907  76.621  1.00  0.00     0.053 C 
ENDROOT
BRANCH   1   2
ATOM      2  C   UNL     1      68.241  15.358  76.372  1.00  0.00     0.041 C 
ATOM      3  O   UNL     1      67.254  16.134  76.277  1.00  0.00    -0.550 OA
ATOM      4  O   UNL     1      68.063  13.992  76.194  1.00  0.00    -0.550 OA
ENDBRANCH   1   2
BRANCH   1   5
ATOM      5  C   UNL     1      70.649  14.778  76.613  1.00  0.00     0.006 C 
BRANCH   5   6
ATOM      6  C   UNL     1      71.523  14.772  77.877  1.00  0.00    -0.003 C 
ATOM      7  C   UNL     1      70.734  15.104  79.143  1.00  0.00     0.004 C 
ENDBRANCH   5   6
ENDBRANCH   1   5
TORSDOF 3
ENDMDL
MODEL 4
REMARK VINA RESULT:    -2.584      1.779      1.963
REMARK INTER + INTRA:          -3.164
REMARK INTER:                  -3.053
REMARK INTRA:                  -0.110
REMARK UNBOUND:                -0.126
REMARK SMILES CCCCC(=O)[O-]
REMARK SMILES IDX 4 1 5 2 6 3 7 4 3 5 2 6 1 7
REMARK H PARENT
REMARK Flexibility Score: inf
ROOT
ATOM      1  C   UNL     1      70.184  15.540  77.516  1.00  0.00     0.053 C 
ENDROOT
BRANCH   1   2
ATOM      2  C   UNL     1      70.071  17.031  77.510  1.00  0.00     0.041 C 
ATOM      3  O   UNL     1      69.799  17.642  76.443  1.00  0.00    -0.550 OA
ATOM      4  O   UNL     1      70.216  17.744  78.694  1.00  0.00    -0.550 OA
ENDBRANCH   1   2
BRANCH   1   5
ATOM      5  C   UNL     1      69.772  14.966  76.154  1.00  0.00     0.006 C 
BRANCH   5   6
ATOM      6  C   UNL     1      68.412  14.251  76.203  1.00  0.00    -0.003 C 
ATOM      7  C   UNL     1      67.243  15.180  75.875  1.00  0.00     0.004 C 
ENDBRANCH   5   6
ENDBRANCH   1   5
TORSDOF 3
ENDMDL
MODEL 5
REMARK VINA RESULT:    -2.573      2.263      3.484
REMARK INTER + INTRA:          -3.150
REMARK INTER:                  -3.082
REMARK INTRA:                  -0.069
REMARK UNBOUND:                -0.126
REMARK SMILES CCCCC(=O)[O-]
REMARK SMILES IDX 4 1 5 2 6 3 7 4 3 5 2 6 1 7
REMARK H PARENT
REMARK Flexibility Score: inf
ROOT
ATOM      1  C   UNL     1      68.719  14.408  76.208  1.00  0.00     0.053 C 
ENDROOT
BRANCH   1   2
ATOM      2  C   UNL     1      67.453  15.193  76.339  1.00  0.00     0.041 C 
ATOM      3  O   UNL     1      66.341  14.603  76.372  1.00  0.00    -0.550 OA
ATOM      4  O   UNL     1      67.503  16.575  76.474  1.00  0.00    -0.550 OA
ENDBRANCH   1   2
BRANCH   1   5
ATOM      5  C   UNL     1      69.937  15.335  76.317  1.00  0.00     0.006 C 
BRANCH   5   6
ATOM      6  C   UNL     1      70.987  14.815  77.311  1.00  0.00    -0.003 C 
ATOM      7  C   UNL     1      70.624  15.113  78.766  1.00  0.00     0.004 C 
ENDBRANCH   5   6
ENDBRANCH   1   5
TORSDOF 3
ENDMDL
MODEL 6
REMARK VINA RESULT:    -2.525      2.426      3.486
REMARK INTER + INTRA:          -3.094
REMARK INTER:                  -2.981
REMARK INTRA:                  -0.113
REMARK UNBOUND:                -0.126
REMARK SMILES CCCCC(=O)[O-]
REMARK SMILES IDX 4 1 5 2 6 3 7 4 3 5 2 6 1 7
REMARK H PARENT
REMARK Flexibility Score: inf
ROOT
ATOM      1  C   UNL     1      67.874  15.528  77.173  1.00  0.00     0.053 C 
ENDROOT
BRANCH   1   2
ATOM      2  C   UNL     1      67.512  16.825  76.522  1.00  0.00     0.041 C 
ATOM      3  O   UNL     1      66.437  16.932  75.875  1.00  0.00    -0.550 OA
ATOM      4  O   UNL     1      68.339  17.932  76.671  1.00  0.00    -0.550 OA
ENDBRANCH   1   2
BRANCH   1   5
ATOM      5  C   UNL     1      68.586  14.608  76.174  1.00  0.00     0.006 C 
BRANCH   5   6
ATOM      6  C   UNL     1      70.106  14.830  76.147  1.00  0.00    -0.003 C 
ATOM      7  C   UNL     1      70.691  15.086  77.535  1.00  0.00     0.004 C 
ENDBRANCH   5   6
ENDBRANCH   1   5
TORSDOF 3
ENDMDL
MODEL 7
REMARK VINA RESULT:    -2.403     21.455     22.712
REMARK INTER + INTRA:          -2.950
REMARK INTER:                  -2.877
REMARK INTRA:                  -0.073
REMARK UNBOUND:                -0.126
REMARK SMILES CCCCC(=O)[O-]
REMARK SMILES IDX 4 1 5 2 6 3 7 4 3 5 2 6 1 7
REMARK H PARENT
REMARK Flexibility Score: inf
ROOT
ATOM      1  C   UNL     1      70.194  30.122  96.052  1.00  0.00     0.053 C 
ENDROOT
BRANCH   1   2
ATOM      2  C   UNL     1      69.334  28.898  96.092  1.00  0.00     0.041 C 
ATOM      3  O   UNL     1      68.080  29.002  96.052  1.00  0.00    -0.550 OA
ATOM      4  O   UNL     1      69.920  27.638  96.124  1.00  0.00    -0.550 OA
ENDBRANCH   1   2
BRANCH   1   5
ATOM      5  C   UNL     1      71.094  30.103  94.810  1.00  0.00     0.006 C 
BRANCH   5   6
ATOM      6  C   UNL     1      70.306  29.859  93.513  1.00  0.00    -0.003 C 
ATOM      7  C   UNL     1      71.152  29.208  92.420  1.00  0.00     0.004 C 
ENDBRANCH   5   6
ENDBRANCH   1   5
TORSDOF 3
ENDMDL
MODEL 8
REMARK VINA RESULT:    -2.380     20.871     22.124
REMARK INTER + INTRA:          -2.924
REMARK INTER:                  -2.875
REMARK INTRA:                  -0.049
REMARK UNBOUND:                -0.126
REMARK SMILES CCCCC(=O)[O-]
REMARK SMILES IDX 4 1 5 2 6 3 7 4 3 5 2 6 1 7
REMARK H PARENT
REMARK Flexibility Score: inf
ROOT
ATOM      1  C   UNL     1      70.389  29.727  93.404  1.00  0.00     0.053 C 
ENDROOT
BRANCH   1   2
ATOM      2  C   UNL     1      71.342  28.801  92.718  1.00  0.00     0.041 C 
ATOM      3  O   UNL     1      71.829  29.107  91.598  1.00  0.00    -0.550 OA
ATOM      4  O   UNL     1      71.733  27.620  93.339  1.00  0.00    -0.550 OA
ENDBRANCH   1   2
BRANCH   1   5
ATOM      5  C   UNL     1      70.985  30.225  94.727  1.00  0.00     0.006 C 
BRANCH   5   6
ATOM      6  C   UNL     1      70.186  29.749  95.950  1.00  0.00    -0.003 C 
ATOM      7  C   UNL     1      68.867  30.502  96.125  1.00  0.00     0.004 C 
ENDBRANCH   5   6
ENDBRANCH   1   5
TORSDOF 3
ENDMDL
MODEL 9
REMARK VINA RESULT:    -2.339      2.256      3.762
REMARK INTER + INTRA:          -2.876
REMARK INTER:                  -2.776
REMARK INTRA:                  -0.099
REMARK UNBOUND:                -0.126
REMARK SMILES CCCCC(=O)[O-]
REMARK SMILES IDX 4 1 5 2 6 3 7 4 3 5 2 6 1 7
REMARK H PARENT
REMARK Flexibility Score: inf
ROOT
ATOM      1  C   UNL     1      71.033  14.785  78.064  1.00  0.00     0.053 C 
ENDROOT
BRANCH   1   2
ATOM      2  C   UNL     1      70.179  15.357  76.978  1.00  0.00     0.041 C 
ATOM      3  O   UNL     1      69.990  16.600  76.908  1.00  0.00    -0.550 OA
ATOM      4  O   UNL     1      69.632  14.522  76.011  1.00  0.00    -0.550 OA
ENDBRANCH   1   2
BRANCH   1   5
ATOM      5  C   UNL     1      71.635  15.907  78.919  1.00  0.00     0.006 C 
BRANCH   5   6
ATOM      6  C   UNL     1      71.267  15.779  80.405  1.00  0.00    -0.003 C 
ATOM      7  C   UNL     1      69.768  15.938  80.659  1.00  0.00     0.004 C 
ENDBRANCH   5   6
ENDBRANCH   1   5
TORSDOF 3
ENDMDL
