MODEL 1
REMARK VINA RESULT:    -4.636      0.000      0.000
REMARK INTER + INTRA:          -5.882
REMARK INTER:                  -5.584
REMARK INTRA:                  -0.298
REMARK UNBOUND:                -0.298
REMARK SMILES O=c1c(O)c(-c2ccc(O)c(O)c2)oc2cc(O)cc(O)c12
REMARK SMILES IDX 5 1 3 2 2 3 1 4 22 5 20 6 19 7 17 8 16 9 15 10 14 11 6 12
REMARK SMILES IDX 7 13 8 14 9 15 13 16 11 17 10 18 12 20 4 22 21 24 18 26
REMARK H PARENT 10 19 12 21 4 23 21 25 18 27
REMARK Flexibility Score: inf
ROOT
ATOM      1  C   UNL     1      -4.468  -7.732   8.678  1.00  0.00     0.180 A 
ATOM      2  C   UNL     1      -3.978  -8.870   8.014  1.00  0.00     0.208 A 
ATOM      3  C   UNL     1      -2.590  -9.042   7.893  1.00  0.00     0.238 A 
ATOM      4  O   UNL     1      -2.160 -10.023   7.233  1.00  0.00    -0.285 OA
ATOM      5  C   UNL     1      -1.709  -8.105   8.486  1.00  0.00     0.111 A 
ATOM      6  C   UNL     1      -0.284  -8.203   8.463  1.00  0.00     0.134 A 
ATOM      7  C   UNL     1       0.488  -7.160   8.991  1.00  0.00     0.093 A 
ATOM      8  C   UNL     1      -0.109  -6.055   9.595  1.00  0.00     0.123 A 
ATOM      9  C   UNL     1      -1.500  -5.975   9.670  1.00  0.00     0.094 A 
ATOM     10  C   UNL     1      -2.299  -6.980   9.120  1.00  0.00     0.146 A 
ATOM     11  O   UNL     1      -3.618  -6.853   9.195  1.00  0.00    -0.452 OA
ENDROOT
BRANCH   1  12
ATOM     12  C   UNL     1      -5.918  -7.473   8.833  1.00  0.00     0.025 A 
ATOM     13  C   UNL     1      -6.603  -7.823  10.009  1.00  0.00     0.016 A 
ATOM     14  C   UNL     1      -7.977  -7.591  10.122  1.00  0.00     0.051 A 
ATOM     15  C   UNL     1      -8.688  -7.021   9.063  1.00  0.00     0.157 A 
ATOM     16  C   UNL     1      -6.639  -6.919   7.763  1.00  0.00     0.062 A 
ATOM     17  C   UNL     1      -8.017  -6.685   7.875  1.00  0.00     0.158 A 
BRANCH  15  18
ATOM     18  O   UNL     1     -10.057  -6.799   9.206  1.00  0.00    -0.504 OA
ATOM     19  H   UNL     1     -10.703  -7.547   9.429  1.00  0.00     0.293 HD
ENDBRANCH  15  18
BRANCH  17  20
ATOM     20  O   UNL     1      -8.721  -6.123   6.810  1.00  0.00    -0.504 OA
ATOM     21  H   UNL     1      -9.428  -6.645   6.306  1.00  0.00     0.293 HD
ENDBRANCH  17  20
ENDBRANCH   1  12
BRANCH   2  22
ATOM     22  O   UNL     1      -4.864  -9.822   7.503  1.00  0.00    -0.502 OA
ATOM     23  H   UNL     1      -4.584 -10.776   7.309  1.00  0.00     0.293 HD
ENDBRANCH   2  22
BRANCH   6  24
ATOM     24  O   UNL     1       0.417  -9.304   7.965  1.00  0.00    -0.507 OA
ATOM     25  H   UNL     1       0.024 -10.219   7.811  1.00  0.00     0.293 HD
ENDBRANCH   6  24
BRANCH   8  26
ATOM     26  O   UNL     1       0.690  -5.045  10.125  1.00  0.00    -0.508 OA
ATOM     27  H   UNL     1       0.449  -4.067  10.017  1.00  0.00     0.293 HD
ENDBRANCH   8  26
TORSDOF 6
ENDMDL
MODEL 2
REMARK VINA RESULT:    -4.506      1.873      3.051
REMARK INTER + INTRA:          -5.726
REMARK INTER:                  -5.395
REMARK INTRA:                  -0.331
REMARK UNBOUND:                -0.298
REMARK SMILES O=c1c(O)c(-c2ccc(O)c(O)c2)oc2cc(O)cc(O)c12
REMARK SMILES IDX 5 1 3 2 2 3 1 4 22 5 20 6 19 7 17 8 16 9 15 10 14 11 6 12
REMARK SMILES IDX 7 13 8 14 9 15 13 16 11 17 10 18 12 20 4 22 21 24 18 26
REMARK H PARENT 10 19 12 21 4 23 21 25 18 27
REMARK Flexibility Score: inf
ROOT
ATOM      1  C   UNL     1      -5.036  -7.880   8.482  1.00  0.00     0.180 A 
ATOM      2  C   UNL     1      -4.879  -6.584   9.002  1.00  0.00     0.208 A 
ATOM      3  C   UNL     1      -3.586  -6.116   9.287  1.00  0.00     0.238 A 
ATOM      4  O   UNL     1      -3.459  -4.984   9.822  1.00  0.00    -0.285 OA
ATOM      5  C   UNL     1      -2.463  -6.927   8.995  1.00  0.00     0.111 A 
ATOM      6  C   UNL     1      -1.104  -6.537   9.201  1.00  0.00     0.134 A 
ATOM      7  C   UNL     1      -0.079  -7.465   8.975  1.00  0.00     0.093 A 
ATOM      8  C   UNL     1      -0.355  -8.742   8.492  1.00  0.00     0.123 A 
ATOM      9  C   UNL     1      -1.675  -9.115   8.236  1.00  0.00     0.094 A 
ATOM     10  C   UNL     1      -2.724  -8.227   8.487  1.00  0.00     0.146 A 
ATOM     11  O   UNL     1      -3.966  -8.630   8.249  1.00  0.00    -0.452 OA
ENDROOT
BRANCH   1  12
ATOM     12  C   UNL     1      -6.367  -8.449   8.171  1.00  0.00     0.025 A 
ATOM     13  C   UNL     1      -7.099  -9.170   9.131  1.00  0.00     0.016 A 
ATOM     14  C   UNL     1      -8.342  -9.718   8.806  1.00  0.00     0.051 A 
ATOM     15  C   UNL     1      -8.868  -9.568   7.519  1.00  0.00     0.157 A 
ATOM     16  C   UNL     1      -6.888  -8.319   6.873  1.00  0.00     0.062 A 
ATOM     17  C   UNL     1      -8.136  -8.868   6.546  1.00  0.00     0.158 A 
BRANCH  15  18
ATOM     18  O   UNL     1     -10.112 -10.125   7.225  1.00  0.00    -0.504 OA
ATOM     19  H   UNL     1     -10.613  -9.902   6.374  1.00  0.00     0.293 HD
ENDBRANCH  15  18
BRANCH  17  20
ATOM     20  O   UNL     1      -8.650  -8.721   5.257  1.00  0.00    -0.504 OA
ATOM     21  H   UNL     1      -8.352  -7.967   4.649  1.00  0.00     0.293 HD
ENDBRANCH  17  20
ENDBRANCH   1  12
BRANCH   2  22
ATOM     22  O   UNL     1      -5.996  -5.770   9.211  1.00  0.00    -0.502 OA
ATOM     23  H   UNL     1      -6.936  -6.143   9.274  1.00  0.00     0.293 HD
ENDBRANCH   2  22
BRANCH   6  24
ATOM     24  O   UNL     1      -0.709  -5.256   9.596  1.00  0.00    -0.507 OA
ATOM     25  H   UNL     1       0.246  -4.943   9.672  1.00  0.00     0.293 HD
ENDBRANCH   6  24
BRANCH   8  26
ATOM     26  O   UNL     1       0.692  -9.633   8.263  1.00  0.00    -0.508 OA
ATOM     27  H   UNL     1       0.524 -10.572   7.925  1.00  0.00     0.293 HD
ENDBRANCH   8  26
TORSDOF 6
ENDMDL
MODEL 3
REMARK VINA RESULT:    -4.453      5.949      8.061
REMARK INTER + INTRA:          -5.663
REMARK INTER:                  -5.514
REMARK INTRA:                  -0.148
REMARK UNBOUND:                -0.298
REMARK SMILES O=c1c(O)c(-c2ccc(O)c(O)c2)oc2cc(O)cc(O)c12
REMARK SMILES IDX 5 1 3 2 2 3 1 4 22 5 20 6 19 7 17 8 16 9 15 10 14 11 6 12
REMARK SMILES IDX 7 13 8 14 9 15 13 16 11 17 10 18 12 20 4 22 21 24 18 26
REMARK H PARENT 10 19 12 21 4 23 21 25 18 27
REMARK Flexibility Score: inf
ROOT
ATOM      1  C   UNL     1      -8.862  -4.401   7.588  1.00  0.00     0.180 A 
ATOM      2  C   UNL     1      -8.057  -3.879   8.616  1.00  0.00     0.208 A 
ATOM      3  C   UNL     1      -7.803  -2.498   8.647  1.00  0.00     0.238 A 
ATOM      4  O   UNL     1      -7.022  -2.049   9.525  1.00  0.00    -0.285 OA
ATOM      5  C   UNL     1      -8.404  -1.649   7.686  1.00  0.00     0.111 A 
ATOM      6  C   UNL     1      -8.253  -0.229   7.649  1.00  0.00     0.134 A 
ATOM      7  C   UNL     1      -8.808   0.496   6.587  1.00  0.00     0.093 A 
ATOM      8  C   UNL     1      -9.560  -0.135   5.598  1.00  0.00     0.123 A 
ATOM      9  C   UNL     1      -9.759  -1.515   5.654  1.00  0.00     0.094 A 
ATOM     10  C   UNL     1      -9.187  -2.272   6.678  1.00  0.00     0.146 A 
ATOM     11  O   UNL     1      -9.384  -3.585   6.681  1.00  0.00    -0.452 OA
ENDROOT
BRANCH   1  12
ATOM     12  C   UNL     1      -9.161  -5.848   7.479  1.00  0.00     0.025 A 
ATOM     13  C   UNL     1      -9.874  -6.526   8.483  1.00  0.00     0.016 A 
ATOM     14  C   UNL     1     -10.123  -7.896   8.369  1.00  0.00     0.051 A 
ATOM     15  C   UNL     1      -9.656  -8.611   7.263  1.00  0.00     0.157 A 
ATOM     16  C   UNL     1      -8.675  -6.573   6.379  1.00  0.00     0.062 A 
ATOM     17  C   UNL     1      -8.924  -7.947   6.263  1.00  0.00     0.158 A 
BRANCH  15  18
ATOM     18  O   UNL     1      -9.922  -9.977   7.176  1.00  0.00    -0.504 OA
ATOM     19  H   UNL     1      -9.922 -10.470   6.291  1.00  0.00     0.293 HD
ENDBRANCH  15  18
BRANCH  17  20
ATOM     20  O   UNL     1      -8.448  -8.656   5.160  1.00  0.00    -0.504 OA
ATOM     21  H   UNL     1      -7.504  -8.528   4.814  1.00  0.00     0.293 HD
ENDBRANCH  17  20
ENDBRANCH   1  12
BRANCH   2  22
ATOM     22  O   UNL     1      -7.536  -4.724   9.599  1.00  0.00    -0.502 OA
ATOM     23  H   UNL     1      -6.562  -4.698   9.878  1.00  0.00     0.293 HD
ENDBRANCH   2  22
BRANCH   6  24
ATOM     24  O   UNL     1      -7.598   0.514   8.635  1.00  0.00    -0.507 OA
ATOM     25  H   UNL     1      -6.930   0.142   9.292  1.00  0.00     0.293 HD
ENDBRANCH   6  24
BRANCH   8  26
ATOM     26  O   UNL     1     -10.112   0.621   4.566  1.00  0.00    -0.508 OA
ATOM     27  H   UNL     1     -10.134   0.281   3.612  1.00  0.00     0.293 HD
ENDBRANCH   8  26
TORSDOF 6
ENDMDL
MODEL 4
REMARK VINA RESULT:    -4.377     18.279     20.322
REMARK INTER + INTRA:          -5.571
REMARK INTER:                  -5.251
REMARK INTRA:                  -0.321
REMARK UNBOUND:                -0.298
REMARK SMILES O=c1c(O)c(-c2ccc(O)c(O)c2)oc2cc(O)cc(O)c12
REMARK SMILES IDX 5 1 3 2 2 3 1 4 22 5 20 6 19 7 17 8 16 9 15 10 14 11 6 12
REMARK SMILES IDX 7 13 8 14 9 15 13 16 11 17 10 18 12 20 4 22 21 24 18 26
REMARK H PARENT 10 19 12 21 4 23 21 25 18 27
REMARK Flexibility Score: inf
ROOT
ATOM      1  C   UNL     1      -9.188   6.188  -4.550  1.00  0.00     0.180 A 
ATOM      2  C   UNL     1      -9.099   6.750  -5.836  1.00  0.00     0.208 A 
ATOM      3  C   UNL     1      -9.241   5.913  -6.955  1.00  0.00     0.238 A 
ATOM      4  O   UNL     1      -9.086   6.409  -8.101  1.00  0.00    -0.285 OA
ATOM      5  C   UNL     1      -9.526   4.538  -6.776  1.00  0.00     0.111 A 
ATOM      6  C   UNL     1      -9.733   3.606  -7.838  1.00  0.00     0.134 A 
ATOM      7  C   UNL     1      -9.903   2.248  -7.541  1.00  0.00     0.093 A 
ATOM      8  C   UNL     1      -9.937   1.796  -6.224  1.00  0.00     0.123 A 
ATOM      9  C   UNL     1      -9.789   2.706  -5.176  1.00  0.00     0.094 A 
ATOM     10  C   UNL     1      -9.580   4.061  -5.439  1.00  0.00     0.146 A 
ATOM     11  O   UNL     1      -9.424   4.889  -4.413  1.00  0.00    -0.452 OA
ENDROOT
BRANCH   1  12
ATOM     12  C   UNL     1      -9.035   7.002  -3.322  1.00  0.00     0.025 A 
ATOM     13  C   UNL     1     -10.125   7.682  -2.753  1.00  0.00     0.016 A 
ATOM     14  C   UNL     1      -9.950   8.464  -1.608  1.00  0.00     0.051 A 
ATOM     15  C   UNL     1      -8.687   8.589  -1.023  1.00  0.00     0.157 A 
ATOM     16  C   UNL     1      -7.763   7.147  -2.744  1.00  0.00     0.062 A 
ATOM     17  C   UNL     1      -7.586   7.931  -1.595  1.00  0.00     0.158 A 
BRANCH  15  18
ATOM     18  O   UNL     1      -8.544   9.375   0.121  1.00  0.00    -0.504 OA
ATOM     19  H   UNL     1      -9.061  10.235   0.251  1.00  0.00     0.293 HD
ENDBRANCH  15  18
BRANCH  17  20
ATOM     20  O   UNL     1      -6.321   8.057  -1.021  1.00  0.00    -0.504 OA
ATOM     21  H   UNL     1      -6.057   7.532  -0.196  1.00  0.00     0.293 HD
ENDBRANCH  17  20
ENDBRANCH   1  12
BRANCH   2  22
ATOM     22  O   UNL     1      -8.893   8.123  -5.991  1.00  0.00    -0.502 OA
ATOM     23  H   UNL     1      -8.386   8.511  -6.777  1.00  0.00     0.293 HD
ENDBRANCH   2  22
BRANCH   6  24
ATOM     24  O   UNL     1      -9.808   3.962  -9.188  1.00  0.00    -0.507 OA
ATOM     25  H   UNL     1     -10.206   4.819  -9.539  1.00  0.00     0.293 HD
ENDBRANCH   6  24
BRANCH   8  26
ATOM     26  O   UNL     1     -10.125   0.440  -5.966  1.00  0.00    -0.508 OA
ATOM     27  H   UNL     1      -9.408  -0.119  -5.520  1.00  0.00     0.293 HD
ENDBRANCH   8  26
TORSDOF 6
ENDMDL
MODEL 5
REMARK VINA RESULT:    -4.308      3.960      7.517
REMARK INTER + INTRA:          -5.488
REMARK INTER:                  -5.226
REMARK INTRA:                  -0.262
REMARK UNBOUND:                -0.298
REMARK SMILES O=c1c(O)c(-c2ccc(O)c(O)c2)oc2cc(O)cc(O)c12
REMARK SMILES IDX 5 1 3 2 2 3 1 4 22 5 20 6 19 7 17 8 16 9 15 10 14 11 6 12
REMARK SMILES IDX 7 13 8 14 9 15 13 16 11 17 10 18 12 20 4 22 21 24 18 26
REMARK H PARENT 10 19 12 21 4 23 21 25 18 27
REMARK Flexibility Score: inf
ROOT
ATOM      1  C   UNL     1      -8.368  -4.944   8.002  1.00  0.00     0.180 A 
ATOM      2  C   UNL     1      -9.062  -4.732   6.798  1.00  0.00     0.208 A 
ATOM      3  C   UNL     1      -9.336  -3.416   6.393  1.00  0.00     0.238 A 
ATOM      4  O   UNL     1     -10.022  -3.235   5.353  1.00  0.00    -0.285 OA
ATOM      5  C   UNL     1      -8.864  -2.327   7.166  1.00  0.00     0.111 A 
ATOM      6  C   UNL     1      -9.045  -0.951   6.828  1.00  0.00     0.134 A 
ATOM      7  C   UNL     1      -8.627   0.040   7.724  1.00  0.00     0.093 A 
ATOM      8  C   UNL     1      -7.979  -0.289   8.914  1.00  0.00     0.123 A 
ATOM      9  C   UNL     1      -7.749  -1.628   9.229  1.00  0.00     0.094 A 
ATOM     10  C   UNL     1      -8.187  -2.643   8.375  1.00  0.00     0.146 A 
ATOM     11  O   UNL     1      -7.967  -3.904   8.723  1.00  0.00    -0.452 OA
ENDROOT
BRANCH   1  12
ATOM     12  C   UNL     1      -8.056  -6.302   8.503  1.00  0.00     0.025 A 
ATOM     13  C   UNL     1      -9.052  -7.128   9.052  1.00  0.00     0.016 A 
ATOM     14  C   UNL     1      -8.728  -8.397   9.540  1.00  0.00     0.051 A 
ATOM     15  C   UNL     1      -7.408  -8.854   9.502  1.00  0.00     0.157 A 
ATOM     16  C   UNL     1      -6.727  -6.756   8.485  1.00  0.00     0.062 A 
ATOM     17  C   UNL     1      -6.400  -8.029   8.974  1.00  0.00     0.158 A 
BRANCH  15  18
ATOM     18  O   UNL     1      -7.115 -10.125   9.995  1.00  0.00    -0.504 OA
ATOM     19  H   UNL     1      -6.180 -10.512   9.965  1.00  0.00     0.293 HD
ENDBRANCH  15  18
BRANCH  17  20
ATOM     20  O   UNL     1      -5.079  -8.475   8.939  1.00  0.00    -0.504 OA
ATOM     21  H   UNL     1      -4.783  -9.208   8.305  1.00  0.00     0.293 HD
ENDBRANCH  17  20
ENDBRANCH   1  12
BRANCH   2  22
ATOM     22  O   UNL     1      -9.453  -5.818   6.011  1.00  0.00    -0.502 OA
ATOM     23  H   UNL     1     -10.263  -5.786   5.403  1.00  0.00     0.293 HD
ENDBRANCH   2  22
BRANCH   6  24
ATOM     24  O   UNL     1      -9.599  -0.508   5.624  1.00  0.00    -0.507 OA
ATOM     25  H   UNL     1     -10.584  -0.395   5.448  1.00  0.00     0.293 HD
ENDBRANCH   6  24
BRANCH   8  26
ATOM     26  O   UNL     1      -7.562   0.725   9.773  1.00  0.00    -0.508 OA
ATOM     27  H   UNL     1      -6.585   0.852  10.007  1.00  0.00     0.293 HD
ENDBRANCH   8  26
TORSDOF 6
ENDMDL
MODEL 6
REMARK VINA RESULT:    -4.240     22.323     23.225
REMARK INTER + INTRA:          -5.405
REMARK INTER:                  -5.074
REMARK INTRA:                  -0.331
REMARK UNBOUND:                -0.298
REMARK SMILES O=c1c(O)c(-c2ccc(O)c(O)c2)oc2cc(O)cc(O)c12
REMARK SMILES IDX 5 1 3 2 2 3 1 4 22 5 20 6 19 7 17 8 16 9 15 10 14 11 6 12
REMARK SMILES IDX 7 13 8 14 9 15 13 16 11 17 10 18 12 20 4 22 21 24 18 26
REMARK H PARENT 10 19 12 21 4 23 21 25 18 27
REMARK Flexibility Score: inf
ROOT
ATOM      1  C   UNL     1      -4.793   7.134  -9.262  1.00  0.00     0.180 A 
ATOM      2  C   UNL     1      -4.779   5.739  -9.434  1.00  0.00     0.208 A 
ATOM      3  C   UNL     1      -3.555   5.094  -9.670  1.00  0.00     0.238 A 
ATOM      4  O   UNL     1      -3.560   3.856  -9.896  1.00  0.00    -0.285 OA
ATOM      5  C   UNL     1      -2.353   5.842  -9.673  1.00  0.00     0.111 A 
ATOM      6  C   UNL     1      -1.050   5.286  -9.858  1.00  0.00     0.134 A 
ATOM      7  C   UNL     1       0.057   6.139  -9.950  1.00  0.00     0.093 A 
ATOM      8  C   UNL     1      -0.080   7.518  -9.801  1.00  0.00     0.123 A 
ATOM      9  C   UNL     1      -1.341   8.067  -9.567  1.00  0.00     0.094 A 
ATOM     10  C   UNL     1      -2.470   7.248  -9.508  1.00  0.00     0.146 A 
ATOM     11  O   UNL     1      -3.653   7.814  -9.304  1.00  0.00    -0.452 OA
ENDROOT
BRANCH   1  12
ATOM     12  C   UNL     1      -6.046   7.887  -9.026  1.00  0.00     0.025 A 
ATOM     13  C   UNL     1      -6.797   8.413 -10.091  1.00  0.00     0.016 A 
ATOM     14  C   UNL     1      -7.963   9.141  -9.841  1.00  0.00     0.051 A 
ATOM     15  C   UNL     1      -8.390   9.366  -8.529  1.00  0.00     0.157 A 
ATOM     16  C   UNL     1      -6.465   8.133  -7.708  1.00  0.00     0.062 A 
ATOM     17  C   UNL     1      -7.635   8.863  -7.456  1.00  0.00     0.158 A 
BRANCH  15  18
ATOM     18  O   UNL     1      -9.558  10.095  -8.310  1.00  0.00    -0.504 OA
ATOM     19  H   UNL     1     -10.312  10.117  -8.986  1.00  0.00     0.293 HD
ENDBRANCH  15  18
BRANCH  17  20
ATOM     20  O   UNL     1      -8.050   9.090  -6.143  1.00  0.00    -0.504 OA
ATOM     21  H   UNL     1      -7.393   9.099  -5.372  1.00  0.00     0.293 HD
ENDBRANCH  17  20
ENDBRANCH   1  12
BRANCH   2  22
ATOM     22  O   UNL     1      -5.968   5.008  -9.351  1.00  0.00    -0.502 OA
ATOM     23  H   UNL     1      -5.986   3.996  -9.367  1.00  0.00     0.293 HD
ENDBRANCH   2  22
BRANCH   6  24
ATOM     24  O   UNL     1      -0.787   3.915  -9.929  1.00  0.00    -0.507 OA
ATOM     25  H   UNL     1      -0.022   3.498 -10.434  1.00  0.00     0.293 HD
ENDBRANCH   6  24
BRANCH   8  26
ATOM     26  O   UNL     1       1.047   8.334  -9.881  1.00  0.00    -0.508 OA
ATOM     27  H   UNL     1       1.975   7.976  -9.690  1.00  0.00     0.293 HD
ENDBRANCH   8  26
TORSDOF 6
ENDMDL
MODEL 7
REMARK VINA RESULT:    -4.230      4.066      6.858
REMARK INTER + INTRA:          -5.394
REMARK INTER:                  -5.303
REMARK INTRA:                  -0.092
REMARK UNBOUND:                -0.298
REMARK SMILES O=c1c(O)c(-c2ccc(O)c(O)c2)oc2cc(O)cc(O)c12
REMARK SMILES IDX 5 1 3 2 2 3 1 4 22 5 20 6 19 7 17 8 16 9 15 10 14 11 6 12
REMARK SMILES IDX 7 13 8 14 9 15 13 16 11 17 10 18 12 20 4 22 21 24 18 26
REMARK H PARENT 10 19 12 21 4 23 21 25 18 27
REMARK Flexibility Score: inf
ROOT
ATOM      1  C   UNL     1      -7.550  -4.034   8.840  1.00  0.00     0.180 A 
ATOM      2  C   UNL     1      -6.339  -4.521   9.361  1.00  0.00     0.208 A 
ATOM      3  C   UNL     1      -6.094  -5.904   9.334  1.00  0.00     0.238 A 
ATOM      4  O   UNL     1      -5.041  -6.339   9.869  1.00  0.00    -0.285 OA
ATOM      5  C   UNL     1      -7.035  -6.775   8.734  1.00  0.00     0.111 A 
ATOM      6  C   UNL     1      -6.870  -8.189   8.611  1.00  0.00     0.134 A 
ATOM      7  C   UNL     1      -7.917  -8.963   8.096  1.00  0.00     0.093 A 
ATOM      8  C   UNL     1      -9.095  -8.373   7.641  1.00  0.00     0.123 A 
ATOM      9  C   UNL     1      -9.245  -6.988   7.707  1.00  0.00     0.094 A 
ATOM     10  C   UNL     1      -8.236  -6.190   8.251  1.00  0.00     0.146 A 
ATOM     11  O   UNL     1      -8.429  -4.879   8.314  1.00  0.00    -0.452 OA
ENDROOT
BRANCH   1  12
ATOM     12  C   UNL     1      -7.888  -2.592   8.847  1.00  0.00     0.025 A 
ATOM     13  C   UNL     1      -7.898  -1.848  10.039  1.00  0.00     0.016 A 
ATOM     14  C   UNL     1      -8.243  -0.494  10.024  1.00  0.00     0.051 A 
ATOM     15  C   UNL     1      -8.596   0.133   8.825  1.00  0.00     0.157 A 
ATOM     16  C   UNL     1      -8.263  -1.964   7.648  1.00  0.00     0.062 A 
ATOM     17  C   UNL     1      -8.609  -0.606   7.630  1.00  0.00     0.158 A 
BRANCH  15  18
ATOM     18  O   UNL     1      -8.934   1.486   8.840  1.00  0.00    -0.504 OA
ATOM     19  H   UNL     1      -8.341   2.193   8.424  1.00  0.00     0.293 HD
ENDBRANCH  15  18
BRANCH  17  20
ATOM     20  O   UNL     1      -8.967   0.011   6.431  1.00  0.00    -0.504 OA
ATOM     21  H   UNL     1      -9.831  -0.218   5.954  1.00  0.00     0.293 HD
ENDBRANCH  17  20
ENDBRANCH   1  12
BRANCH   2  22
ATOM     22  O   UNL     1      -5.389  -3.637   9.879  1.00  0.00    -0.502 OA
ATOM     23  H   UNL     1      -4.634  -3.941  10.481  1.00  0.00     0.293 HD
ENDBRANCH   2  22
BRANCH   6  24
ATOM     24  O   UNL     1      -5.699  -8.872   8.951  1.00  0.00    -0.507 OA
ATOM     25  H   UNL     1      -5.592  -9.874   8.945  1.00  0.00     0.293 HD
ENDBRANCH   6  24
BRANCH   8  26
ATOM     26  O   UNL     1     -10.108  -9.174   7.118  1.00  0.00    -0.508 OA
ATOM     27  H   UNL     1     -11.013  -8.790   6.872  1.00  0.00     0.293 HD
ENDBRANCH   8  26
TORSDOF 6
ENDMDL
MODEL 8
REMARK VINA RESULT:    -4.222     19.605     21.648
REMARK INTER + INTRA:          -5.384
REMARK INTER:                  -5.242
REMARK INTRA:                  -0.142
REMARK UNBOUND:                -0.298
REMARK SMILES O=c1c(O)c(-c2ccc(O)c(O)c2)oc2cc(O)cc(O)c12
REMARK SMILES IDX 5 1 3 2 2 3 1 4 22 5 20 6 19 7 17 8 16 9 15 10 14 11 6 12
REMARK SMILES IDX 7 13 8 14 9 15 13 16 11 17 10 18 12 20 4 22 21 24 18 26
REMARK H PARENT 10 19 12 21 4 23 21 25 18 27
REMARK Flexibility Score: inf
ROOT
ATOM      1  C   UNL     1      -8.695   7.679  -4.708  1.00  0.00     0.180 A 
ATOM      2  C   UNL     1      -9.165   6.432  -5.154  1.00  0.00     0.208 A 
ATOM      3  C   UNL     1      -9.043   6.106  -6.515  1.00  0.00     0.238 A 
ATOM      4  O   UNL     1      -9.533   5.019  -6.920  1.00  0.00    -0.285 OA
ATOM      5  C   UNL     1      -8.402   7.006  -7.401  1.00  0.00     0.111 A 
ATOM      6  C   UNL     1      -8.185   6.759  -8.791  1.00  0.00     0.134 A 
ATOM      7  C   UNL     1      -7.635   7.768  -9.592  1.00  0.00     0.093 A 
ATOM      8  C   UNL     1      -7.238   8.987  -9.046  1.00  0.00     0.123 A 
ATOM      9  C   UNL     1      -7.397   9.218  -7.679  1.00  0.00     0.094 A 
ATOM     10  C   UNL     1      -7.977   8.247  -6.859  1.00  0.00     0.146 A 
ATOM     11  O   UNL     1      -8.128   8.516  -5.569  1.00  0.00    -0.452 OA
ENDROOT
BRANCH   1  12
ATOM     12  C   UNL     1      -8.801   8.101  -3.292  1.00  0.00     0.025 A 
ATOM     13  C   UNL     1     -10.048   8.215  -2.654  1.00  0.00     0.016 A 
ATOM     14  C   UNL     1     -10.125   8.639  -1.324  1.00  0.00     0.051 A 
ATOM     15  C   UNL     1      -8.964   8.967  -0.618  1.00  0.00     0.157 A 
ATOM     16  C   UNL     1      -7.639   8.451  -2.587  1.00  0.00     0.062 A 
ATOM     17  C   UNL     1      -7.714   8.876  -1.252  1.00  0.00     0.158 A 
BRANCH  15  18
ATOM     18  O   UNL     1      -9.071   9.384   0.708  1.00  0.00    -0.504 OA
ATOM     19  H   UNL     1      -9.860   9.130   1.290  1.00  0.00     0.293 HD
ENDBRANCH  15  18
BRANCH  17  20
ATOM     20  O   UNL     1      -6.551   9.208  -0.557  1.00  0.00    -0.504 OA
ATOM     21  H   UNL     1      -6.529   9.240   0.456  1.00  0.00     0.293 HD
ENDBRANCH  17  20
ENDBRANCH   1  12
BRANCH   2  22
ATOM     22  O   UNL     1      -9.725   5.526  -4.249  1.00  0.00    -0.502 OA
ATOM     23  H   UNL     1      -9.174   4.822  -3.773  1.00  0.00     0.293 HD
ENDBRANCH   2  22
BRANCH   6  24
ATOM     24  O   UNL     1      -8.461   5.544  -9.423  1.00  0.00    -0.507 OA
ATOM     25  H   UNL     1      -9.052   5.434 -10.232  1.00  0.00     0.293 HD
ENDBRANCH   6  24
BRANCH   8  26
ATOM     26  O   UNL     1      -6.679   9.961  -9.870  1.00  0.00    -0.508 OA
ATOM     27  H   UNL     1      -6.702   9.879 -10.880  1.00  0.00     0.293 HD
ENDBRANCH   8  26
TORSDOF 6
ENDMDL
MODEL 9
REMARK VINA RESULT:    -4.208      4.315      8.204
REMARK INTER + INTRA:          -5.367
REMARK INTER:                  -5.057
REMARK INTRA:                  -0.310
REMARK UNBOUND:                -0.298
REMARK SMILES O=c1c(O)c(-c2ccc(O)c(O)c2)oc2cc(O)cc(O)c12
REMARK SMILES IDX 5 1 3 2 2 3 1 4 22 5 20 6 19 7 17 8 16 9 15 10 14 11 6 12
REMARK SMILES IDX 7 13 8 14 9 15 13 16 11 17 10 18 12 20 4 22 21 24 18 26
REMARK H PARENT 10 19 12 21 4 23 21 25 18 27
REMARK Flexibility Score: inf
ROOT
ATOM      1  C   UNL     1      -8.110  -4.413   7.912  1.00  0.00     0.180 A 
ATOM      2  C   UNL     1      -7.913  -3.370   8.833  1.00  0.00     0.208 A 
ATOM      3  C   UNL     1      -8.200  -2.052   8.441  1.00  0.00     0.238 A 
ATOM      4  O   UNL     1      -7.951  -1.117   9.245  1.00  0.00    -0.285 OA
ATOM      5  C   UNL     1      -8.734  -1.801   7.153  1.00  0.00     0.111 A 
ATOM      6  C   UNL     1      -9.103  -0.510   6.666  1.00  0.00     0.134 A 
ATOM      7  C   UNL     1      -9.520  -0.368   5.336  1.00  0.00     0.093 A 
ATOM      8  C   UNL     1      -9.643  -1.474   4.497  1.00  0.00     0.123 A 
ATOM      9  C   UNL     1      -9.337  -2.747   4.980  1.00  0.00     0.094 A 
ATOM     10  C   UNL     1      -8.881  -2.917   6.289  1.00  0.00     0.146 A 
ATOM     11  O   UNL     1      -8.580  -4.143   6.700  1.00  0.00    -0.452 OA
ENDROOT
BRANCH   1  12
ATOM     12  C   UNL     1      -7.816  -5.826   8.246  1.00  0.00     0.025 A 
ATOM     13  C   UNL     1      -6.506  -6.332   8.202  1.00  0.00     0.016 A 
ATOM     14  C   UNL     1      -6.256  -7.675   8.499  1.00  0.00     0.051 A 
ATOM     15  C   UNL     1      -7.309  -8.534   8.828  1.00  0.00     0.157 A 
ATOM     16  C   UNL     1      -8.873  -6.697   8.557  1.00  0.00     0.062 A 
ATOM     17  C   UNL     1      -8.625  -8.044   8.855  1.00  0.00     0.158 A 
BRANCH  15  18
ATOM     18  O   UNL     1      -7.029  -9.868   9.121  1.00  0.00    -0.504 OA
ATOM     19  H   UNL     1      -6.175 -10.318   8.814  1.00  0.00     0.293 HD
ENDBRANCH  15  18
BRANCH  17  20
ATOM     20  O   UNL     1      -9.681  -8.897   9.176  1.00  0.00    -0.504 OA
ATOM     21  H   UNL     1      -9.704  -9.858   8.855  1.00  0.00     0.293 HD
ENDBRANCH  17  20
ENDBRANCH   1  12
BRANCH   2  22
ATOM     22  O   UNL     1      -7.458  -3.649  10.124  1.00  0.00    -0.502 OA
ATOM     23  H   UNL     1      -7.766  -3.124  10.934  1.00  0.00     0.293 HD
ENDBRANCH   2  22
BRANCH   6  24
ATOM     24  O   UNL     1      -9.104   0.650   7.445  1.00  0.00    -0.507 OA
ATOM     25  H   UNL     1      -8.458   1.417   7.343  1.00  0.00     0.293 HD
ENDBRANCH   6  24
BRANCH   8  26
ATOM     26  O   UNL     1     -10.078  -1.297   3.185  1.00  0.00    -0.508 OA
ATOM     27  H   UNL     1     -10.254  -0.375   2.805  1.00  0.00     0.293 HD
ENDBRANCH   8  26
TORSDOF 6
ENDMDL
