MODEL 1
REMARK VINA RESULT:    18.079      0.000      0.000
REMARK INTER + INTRA:          39.439
REMARK INTER:                  27.592
REMARK INTRA:                  11.848
REMARK UNBOUND:                11.848
REMARK SMILES CC1=CCC[C@@H](C)C(=O)C[C@@H](C(C)C)C(=O)C1
REMARK SMILES IDX 8 1 9 2 6 3 7 4 5 5 4 6 3 7 2 8 1 9 10 11 11 12 15 13 16 14
REMARK SMILES IDX 17 15 12 17 13 18 14 19
REMARK H PARENT
REMARK Flexibility Score: 70.00
ROOT
ATOM      1  C   UNL     1      -8.273 -15.614 -23.444  1.00  0.00     0.136 C 
ATOM      2  O   UNL     1      -8.076 -16.021 -22.307  1.00  0.00    -0.299 OA
ENDROOT
BRANCH   1   3
ATOM      3  C   UNL     1      -8.892 -14.237 -23.603  1.00  0.00     0.053 C 
ATOM      4  C   UNL     1      -7.850 -13.284 -24.200  1.00  0.00     0.016 C 
BRANCH   3   5
ATOM      5  C   UNL     1      -9.500 -13.620 -22.317  1.00  0.00     0.015 C 
BRANCH   5   6
ATOM      6  C   UNL     1     -10.077 -14.599 -21.266  1.00  0.00     0.028 C 
BRANCH   6   7
ATOM      7  C   UNL     1     -10.724 -15.836 -21.850  1.00  0.00    -0.028 C 
ATOM      8  C   UNL     1     -10.146 -17.053 -22.010  1.00  0.00    -0.070 CG0
ATOM      9  C   UNL     1     -10.991 -18.149 -22.611  1.00  0.00     0.039 C 
ATOM     10  G   UNL     1      -8.710 -17.385 -21.633  1.00  0.00     0.000 G0
ENDBRANCH   6   7
ENDBRANCH   5   6
ENDBRANCH   3   5
ENDBRANCH   1   3
BRANCH   1  11
ATOM     11  C   UNL     1      -8.026 -16.549 -24.613  1.00  0.00     0.087 C 
BRANCH  11  12
ATOM     12  C   UNL     1      -8.209 -18.040 -24.234  1.00  0.00     0.066 C 
BRANCH  12  13
ATOM     13  C   UNL     1      -8.109 -18.299 -22.735  1.00  0.00     0.140 C 
ATOM     14  O   UNL     1      -7.490 -19.283 -22.354  1.00  0.00    -0.299 OA
BRANCH  13  15
ATOM     15  C   UNL     1      -8.715 -17.385 -21.694  1.00  0.00     0.106 CG0
ATOM     16  G   UNL     1     -10.174 -17.082 -22.003  1.00  0.00     0.000 G0
ENDBRANCH  13  15
ENDBRANCH  12  13
BRANCH  12  17
ATOM     17  C   UNL     1      -7.308 -18.987 -25.085  1.00  0.00    -0.006 C 
ATOM     18  C   UNL     1      -5.825 -18.582 -25.121  1.00  0.00     0.008 C 
ATOM     19  C   UNL     1      -7.435 -20.447 -24.620  1.00  0.00     0.008 C 
ENDBRANCH  12  17
ENDBRANCH  11  12
ENDBRANCH   1  11
TORSDOF 1
ENDMDL
MODEL 2
REMARK VINA RESULT:    20.013     10.932     12.200
REMARK INTER + INTRA:          42.390
REMARK INTER:                  41.928
REMARK INTRA:                   0.462
REMARK UNBOUND:                11.848
REMARK SMILES CC1=CCC[C@@H](C)C(=O)C[C@@H](C(C)C)C(=O)C1
REMARK SMILES IDX 8 1 9 2 6 3 7 4 5 5 4 6 3 7 2 8 1 9 10 11 11 12 15 13 16 14
REMARK SMILES IDX 17 15 12 17 13 18 14 19
REMARK H PARENT
REMARK Flexibility Score: 70.00
ROOT
ATOM      1  C   UNL     1      -0.438 -18.076 -16.349  1.00  0.00     0.136 C 
ATOM      2  O   UNL     1      -1.282 -18.615 -17.053  1.00  0.00    -0.299 OA
ENDROOT
BRANCH   1   3
ATOM      3  C   UNL     1       0.790 -17.505 -17.034  1.00  0.00     0.053 C 
ATOM      4  C   UNL     1       2.046 -18.099 -16.389  1.00  0.00     0.016 C 
BRANCH   3   5
ATOM      5  C   UNL     1       0.887 -15.957 -17.060  1.00  0.00     0.015 C 
BRANCH   5   6
ATOM      6  C   UNL     1       1.429 -15.260 -15.789  1.00  0.00     0.028 C 
BRANCH   6   7
ATOM      7  C   UNL     1       0.560 -14.135 -15.270  1.00  0.00    -0.028 C 
ATOM      8  C   UNL     1      -0.320 -14.203 -14.240  1.00  0.00    -0.070 CG0
ATOM      9  C   UNL     1      -1.078 -12.946 -13.893  1.00  0.00     0.039 C 
ATOM     10  G   UNL     1      -0.600 -15.454 -13.421  1.00  0.00     0.000 G0
ENDBRANCH   6   7
ENDBRANCH   5   6
ENDBRANCH   3   5
ENDBRANCH   1   3
BRANCH   1  11
ATOM     11  C   UNL     1      -0.594 -18.134 -14.842  1.00  0.00     0.087 C 
BRANCH  11  12
ATOM     12  C   UNL     1      -1.960 -17.584 -14.359  1.00  0.00     0.066 C 
BRANCH  12  13
ATOM     13  C   UNL     1      -1.893 -16.138 -13.882  1.00  0.00     0.140 C 
ATOM     14  O   UNL     1      -2.930 -15.489 -13.845  1.00  0.00    -0.299 OA
BRANCH  13  15
ATOM     15  C   UNL     1      -0.614 -15.473 -13.427  1.00  0.00     0.106 CG0
ATOM     16  G   UNL     1      -0.342 -14.198 -14.211  1.00  0.00     0.000 G0
ENDBRANCH  13  15
ENDBRANCH  12  13
BRANCH  12  17
ATOM     17  C   UNL     1      -2.662 -18.538 -13.345  1.00  0.00    -0.006 C 
ATOM     18  C   UNL     1      -1.913 -18.704 -12.013  1.00  0.00     0.008 C 
ATOM     19  C   UNL     1      -4.110 -18.096 -13.073  1.00  0.00     0.008 C 
ENDBRANCH  12  17
ENDBRANCH  11  12
ENDBRANCH   1  11
TORSDOF 1
ENDMDL
MODEL 3
REMARK VINA RESULT:    20.600     12.096     13.690
REMARK INTER + INTRA:          43.285
REMARK INTER:                  39.901
REMARK INTRA:                   3.384
REMARK UNBOUND:                11.848
REMARK SMILES CC1=CCC[C@@H](C)C(=O)C[C@@H](C(C)C)C(=O)C1
REMARK SMILES IDX 8 1 9 2 6 3 7 4 5 5 4 6 3 7 2 8 1 9 10 11 11 12 15 13 16 14
REMARK SMILES IDX 17 15 12 17 13 18 14 19
REMARK H PARENT
REMARK Flexibility Score: 70.00
ROOT
ATOM      1  C   UNL     1      -3.018  -5.689 -15.402  1.00  0.00     0.136 C 
ATOM      2  O   UNL     1      -3.046  -5.001 -16.414  1.00  0.00    -0.299 OA
ENDROOT
BRANCH   1   3
ATOM      3  C   UNL     1      -4.130  -5.494 -14.387  1.00  0.00     0.053 C 
ATOM      4  C   UNL     1      -3.537  -4.914 -13.098  1.00  0.00     0.016 C 
BRANCH   3   5
ATOM      5  C   UNL     1      -4.974  -6.754 -14.063  1.00  0.00     0.015 C 
BRANCH   5   6
ATOM      6  C   UNL     1      -5.497  -7.582 -15.261  1.00  0.00     0.028 C 
BRANCH   6   7
ATOM      7  C   UNL     1      -5.272  -6.943 -16.614  1.00  0.00    -0.028 C 
ATOM      8  C   UNL     1      -4.264  -7.216 -17.480  1.00  0.00    -0.070 CG0
ATOM      9  C   UNL     1      -4.243  -6.454 -18.782  1.00  0.00     0.039 C 
ATOM     10  G   UNL     1      -3.155  -8.226 -17.227  1.00  0.00     0.000 G0
ENDBRANCH   6   7
ENDBRANCH   5   6
ENDBRANCH   3   5
ENDBRANCH   1   3
BRANCH   1  11
ATOM     11  C   UNL     1      -1.817  -6.581 -15.152  1.00  0.00     0.087 C 
BRANCH  11  12
ATOM     12  C   UNL     1      -0.983  -6.834 -16.433  1.00  0.00     0.066 C 
BRANCH  12  13
ATOM     13  C   UNL     1      -1.728  -7.646 -17.488  1.00  0.00     0.140 C 
ATOM     14  O   UNL     1      -1.192  -7.819 -18.573  1.00  0.00    -0.299 OA
BRANCH  13  15
ATOM     15  C   UNL     1      -3.085  -8.269 -17.248  1.00  0.00     0.106 CG0
ATOM     16  G   UNL     1      -4.204  -7.265 -17.478  1.00  0.00     0.000 G0
ENDBRANCH  13  15
ENDBRANCH  12  13
BRANCH  12  17
ATOM     17  C   UNL     1       0.440  -7.388 -16.119  1.00  0.00    -0.006 C 
ATOM     18  C   UNL     1       0.521  -8.922 -16.059  1.00  0.00     0.008 C 
ATOM     19  C   UNL     1       1.481  -6.854 -17.118  1.00  0.00     0.008 C 
ENDBRANCH  12  17
ENDBRANCH  11  12
ENDBRANCH   1  11
TORSDOF 1
ENDMDL
