MODEL 1
REMARK VINA RESULT:    -5.971      0.000      0.000
REMARK INTER + INTRA:          -6.890
REMARK INTER:                  -6.844
REMARK INTRA:                  -0.046
REMARK UNBOUND:                -0.046
REMARK SMILES O=C([O-])c1cc(O)c(O)c(O)c1
REMARK SMILES IDX 4 1 5 2 12 3 6 4 10 5 8 6 2 7 1 8 3 9 7 10 11 12 9 14
REMARK H PARENT 7 11 11 13 9 15
REMARK Flexibility Score: inf
ROOT
ATOM      1  C   UNL     1     -18.880 -17.813 -37.880  1.00  0.00     0.005 A 
ATOM      2  C   UNL     1     -18.960 -19.209 -37.762  1.00  0.00     0.060 A 
ATOM      3  C   UNL     1     -18.972 -17.231 -39.154  1.00  0.00     0.060 A 
ATOM      4  C   UNL     1     -19.129 -20.013 -38.894  1.00  0.00     0.162 A 
ATOM      5  C   UNL     1     -19.141 -18.021 -40.297  1.00  0.00     0.162 A 
ATOM      6  C   UNL     1     -19.220 -19.429 -40.169  1.00  0.00     0.200 A 
ENDROOT
BRANCH   1   7
ATOM      7  C   UNL     1     -18.701 -16.964 -36.681  1.00  0.00     0.072 C 
ATOM      8  O   UNL     1     -17.639 -16.307 -36.512  1.00  0.00    -0.545 OA
ATOM      9  O   UNL     1     -19.705 -16.878 -35.723  1.00  0.00    -0.545 OA
ENDBRANCH   1   7
BRANCH   4  10
ATOM     10  O   UNL     1     -19.203 -21.395 -38.727  1.00  0.00    -0.504 OA
ATOM     11  H   UNL     1     -18.388 -21.961 -38.522  1.00  0.00     0.293 HD
ENDBRANCH   4  10
BRANCH   5  12
ATOM     12  O   UNL     1     -19.223 -17.369 -41.529  1.00  0.00    -0.504 OA
ATOM     13  H   UNL     1     -18.564 -16.675 -41.849  1.00  0.00     0.293 HD
ENDBRANCH   5  12
BRANCH   6  14
ATOM     14  O   UNL     1     -19.389 -20.269 -41.274  1.00  0.00    -0.502 OA
ATOM     15  H   UNL     1     -20.201 -20.848 -41.428  1.00  0.00     0.293 HD
ENDBRANCH   6  14
TORSDOF 4
ENDMDL
MODEL 2
REMARK VINA RESULT:    -5.900      0.139      2.448
REMARK INTER + INTRA:          -6.808
REMARK INTER:                  -6.762
REMARK INTRA:                  -0.046
REMARK UNBOUND:                -0.046
REMARK SMILES O=C([O-])c1cc(O)c(O)c(O)c1
REMARK SMILES IDX 4 1 5 2 12 3 6 4 10 5 8 6 2 7 1 8 3 9 7 10 11 12 9 14
REMARK H PARENT 7 11 11 13 9 15
REMARK Flexibility Score: inf
ROOT
ATOM      1  C   UNL     1     -18.851 -17.685 -37.899  1.00  0.00     0.005 A 
ATOM      2  C   UNL     1     -18.989 -17.114 -39.174  1.00  0.00     0.060 A 
ATOM      3  C   UNL     1     -18.913 -19.080 -37.768  1.00  0.00     0.060 A 
ATOM      4  C   UNL     1     -19.186 -17.920 -40.299  1.00  0.00     0.162 A 
ATOM      5  C   UNL     1     -19.108 -19.902 -38.884  1.00  0.00     0.162 A 
ATOM      6  C   UNL     1     -19.247 -19.318 -40.167  1.00  0.00     0.200 A 
ENDROOT
BRANCH   1   7
ATOM      7  C   UNL     1     -18.644 -16.829 -36.709  1.00  0.00     0.072 C 
ATOM      8  O   UNL     1     -17.583 -16.163 -36.574  1.00  0.00    -0.545 OA
ATOM      9  O   UNL     1     -19.619 -16.749 -35.721  1.00  0.00    -0.545 OA
ENDBRANCH   1   7
BRANCH   4  10
ATOM     10  O   UNL     1     -19.318 -17.308 -41.545  1.00  0.00    -0.504 OA
ATOM     11  H   UNL     1     -19.385 -16.302 -41.651  1.00  0.00     0.293 HD
ENDBRANCH   4  10
BRANCH   5  12
ATOM     12  O   UNL     1     -19.159 -21.281 -38.673  1.00  0.00    -0.504 OA
ATOM     13  H   UNL     1     -19.322 -21.961 -39.400  1.00  0.00     0.293 HD
ENDBRANCH   5  12
BRANCH   6  14
ATOM     14  O   UNL     1     -19.445 -20.087 -41.317  1.00  0.00    -0.502 OA
ATOM     15  H   UNL     1     -18.800 -20.789 -41.649  1.00  0.00     0.293 HD
ENDBRANCH   6  14
TORSDOF 4
ENDMDL
MODEL 3
REMARK VINA RESULT:    -5.265      1.700      4.508
REMARK INTER + INTRA:          -6.081
REMARK INTER:                  -6.036
REMARK INTRA:                  -0.045
REMARK UNBOUND:                -0.046
REMARK SMILES O=C([O-])c1cc(O)c(O)c(O)c1
REMARK SMILES IDX 4 1 5 2 12 3 6 4 10 5 8 6 2 7 1 8 3 9 7 10 11 12 9 14
REMARK H PARENT 7 11 11 13 9 15
REMARK Flexibility Score: inf
ROOT
ATOM      1  C   UNL     1     -18.317 -18.636 -38.145  1.00  0.00     0.005 A 
ATOM      2  C   UNL     1     -16.957 -18.683 -37.803  1.00  0.00     0.060 A 
ATOM      3  C   UNL     1     -19.040 -17.458 -37.903  1.00  0.00     0.060 A 
ATOM      4  C   UNL     1     -16.327 -17.574 -37.230  1.00  0.00     0.162 A 
ATOM      5  C   UNL     1     -18.425 -16.339 -37.331  1.00  0.00     0.162 A 
ATOM      6  C   UNL     1     -17.051 -16.394 -36.988  1.00  0.00     0.200 A 
ENDROOT
BRANCH   1   7
ATOM      7  C   UNL     1     -18.983 -19.811 -38.750  1.00  0.00     0.072 C 
ATOM      8  O   UNL     1     -19.724 -20.558 -38.057  1.00  0.00    -0.545 OA
ATOM      9  O   UNL     1     -18.800 -20.108 -40.096  1.00  0.00    -0.545 OA
ENDBRANCH   1   7
BRANCH   4  10
ATOM     10  O   UNL     1     -14.973 -17.667 -36.907  1.00  0.00    -0.504 OA
ATOM     11  H   UNL     1     -14.456 -16.890 -36.512  1.00  0.00     0.293 HD
ENDBRANCH   4  10
BRANCH   5  12
ATOM     12  O   UNL     1     -19.210 -15.204 -37.122  1.00  0.00    -0.504 OA
ATOM     13  H   UNL     1     -20.141 -15.221 -36.733  1.00  0.00     0.293 HD
ENDBRANCH   5  12
BRANCH   6  14
ATOM     14  O   UNL     1     -16.383 -15.309 -36.415  1.00  0.00    -0.502 OA
ATOM     15  H   UNL     1     -16.845 -14.514 -35.997  1.00  0.00     0.293 HD
ENDBRANCH   6  14
TORSDOF 4
ENDMDL
MODEL 4
REMARK VINA RESULT:    -5.248      5.760      8.033
REMARK INTER + INTRA:          -6.060
REMARK INTER:                  -6.007
REMARK INTRA:                  -0.053
REMARK UNBOUND:                -0.046
REMARK SMILES O=C([O-])c1cc(O)c(O)c(O)c1
REMARK SMILES IDX 4 1 5 2 12 3 6 4 10 5 8 6 2 7 1 8 3 9 7 10 11 12 9 14
REMARK H PARENT 7 11 11 13 9 15
REMARK Flexibility Score: inf
ROOT
ATOM      1  C   UNL     1     -20.134 -11.948 -39.525  1.00  0.00     0.005 A 
ATOM      2  C   UNL     1     -19.373 -10.861 -39.066  1.00  0.00     0.060 A 
ATOM      3  C   UNL     1     -20.485 -12.962 -38.623  1.00  0.00     0.060 A 
ATOM      4  C   UNL     1     -18.969 -10.787 -37.730  1.00  0.00     0.162 A 
ATOM      5  C   UNL     1     -20.090 -12.903 -37.281  1.00  0.00     0.162 A 
ATOM      6  C   UNL     1     -19.322 -11.804 -36.826  1.00  0.00     0.200 A 
ENDROOT
BRANCH   1   7
ATOM      7  C   UNL     1     -20.561 -12.025 -40.941  1.00  0.00     0.072 C 
ATOM      8  O   UNL     1     -21.178 -13.035 -41.371  1.00  0.00    -0.545 OA
ATOM      9  O   UNL     1     -20.285 -10.981 -41.817  1.00  0.00    -0.545 OA
ENDBRANCH   1   7
BRANCH   4  10
ATOM     10  O   UNL     1     -18.215  -9.688 -37.320  1.00  0.00    -0.504 OA
ATOM     11  H   UNL     1     -18.639  -8.856 -36.925  1.00  0.00     0.293 HD
ENDBRANCH   4  10
BRANCH   5  12
ATOM     12  O   UNL     1     -20.478 -13.951 -36.444  1.00  0.00    -0.504 OA
ATOM     13  H   UNL     1     -20.632 -14.899 -36.755  1.00  0.00     0.293 HD
ENDBRANCH   5  12
BRANCH   6  14
ATOM     14  O   UNL     1     -18.897 -11.691 -35.499  1.00  0.00    -0.502 OA
ATOM     15  H   UNL     1     -18.502 -10.852 -35.099  1.00  0.00     0.293 HD
ENDBRANCH   6  14
TORSDOF 4
ENDMDL
MODEL 5
REMARK VINA RESULT:    -5.183      5.328      7.266
REMARK INTER + INTRA:          -5.987
REMARK INTER:                  -5.941
REMARK INTRA:                  -0.046
REMARK UNBOUND:                -0.046
REMARK SMILES O=C([O-])c1cc(O)c(O)c(O)c1
REMARK SMILES IDX 4 1 5 2 12 3 6 4 10 5 8 6 2 7 1 8 3 9 7 10 11 12 9 14
REMARK H PARENT 7 11 11 13 9 15
REMARK Flexibility Score: inf
ROOT
ATOM      1  C   UNL     1     -19.924 -12.596 -39.772  1.00  0.00     0.005 A 
ATOM      2  C   UNL     1     -20.261 -13.551 -38.800  1.00  0.00     0.060 A 
ATOM      3  C   UNL     1     -19.361 -11.378 -39.363  1.00  0.00     0.060 A 
ATOM      4  C   UNL     1     -20.041 -13.297 -37.443  1.00  0.00     0.162 A 
ATOM      5  C   UNL     1     -19.133 -11.107 -38.009  1.00  0.00     0.162 A 
ATOM      6  C   UNL     1     -19.477 -12.076 -37.034  1.00  0.00     0.200 A 
ENDROOT
BRANCH   1   7
ATOM      7  C   UNL     1     -20.159 -12.867 -41.209  1.00  0.00     0.072 C 
ATOM      8  O   UNL     1     -19.191 -12.978 -42.007  1.00  0.00    -0.545 OA
ATOM      9  O   UNL     1     -21.453 -13.003 -41.697  1.00  0.00    -0.545 OA
ENDBRANCH   1   7
BRANCH   4  10
ATOM     10  O   UNL     1     -20.392 -14.275 -36.514  1.00  0.00    -0.504 OA
ATOM     11  H   UNL     1     -21.357 -14.484 -36.285  1.00  0.00     0.293 HD
ENDBRANCH   4  10
BRANCH   5  12
ATOM     12  O   UNL     1     -18.570  -9.873 -37.681  1.00  0.00    -0.504 OA
ATOM     13  H   UNL     1     -17.648  -9.576 -37.965  1.00  0.00     0.293 HD
ENDBRANCH   5  12
BRANCH   6  14
ATOM     14  O   UNL     1     -19.273 -11.862 -35.668  1.00  0.00    -0.502 OA
ATOM     15  H   UNL     1     -19.677 -11.098 -35.147  1.00  0.00     0.293 HD
ENDBRANCH   6  14
TORSDOF 4
ENDMDL
MODEL 6
REMARK VINA RESULT:    -5.168      1.758      2.901
REMARK INTER + INTRA:          -5.969
REMARK INTER:                  -5.924
REMARK INTRA:                  -0.045
REMARK UNBOUND:                -0.046
REMARK SMILES O=C([O-])c1cc(O)c(O)c(O)c1
REMARK SMILES IDX 4 1 5 2 12 3 6 4 10 5 8 6 2 7 1 8 3 9 7 10 11 12 9 14
REMARK H PARENT 7 11 11 13 9 15
REMARK Flexibility Score: inf
ROOT
ATOM      1  C   UNL     1     -18.875 -16.779 -37.637  1.00  0.00     0.005 A 
ATOM      2  C   UNL     1     -19.373 -17.468 -38.754  1.00  0.00     0.060 A 
ATOM      3  C   UNL     1     -17.899 -17.393 -36.839  1.00  0.00     0.060 A 
ATOM      4  C   UNL     1     -18.907 -18.747 -39.070  1.00  0.00     0.162 A 
ATOM      5  C   UNL     1     -17.420 -18.674 -37.141  1.00  0.00     0.162 A 
ATOM      6  C   UNL     1     -17.928 -19.362 -38.270  1.00  0.00     0.200 A 
ENDROOT
BRANCH   1   7
ATOM      7  C   UNL     1     -19.371 -15.425 -37.304  1.00  0.00     0.072 C 
ATOM      8  O   UNL     1     -18.710 -14.402 -37.627  1.00  0.00    -0.545 OA
ATOM      9  O   UNL     1     -20.575 -15.263 -36.627  1.00  0.00    -0.545 OA
ENDBRANCH   1   7
BRANCH   4  10
ATOM     10  O   UNL     1     -19.431 -19.392 -40.190  1.00  0.00    -0.504 OA
ATOM     11  H   UNL     1     -19.483 -18.946 -41.098  1.00  0.00     0.293 HD
ENDBRANCH   4  10
BRANCH   5  12
ATOM     12  O   UNL     1     -16.449 -19.218 -36.300  1.00  0.00    -0.504 OA
ATOM     13  H   UNL     1     -15.470 -19.294 -36.537  1.00  0.00     0.293 HD
ENDBRANCH   5  12
BRANCH   6  14
ATOM     14  O   UNL     1     -17.490 -20.641 -38.622  1.00  0.00    -0.502 OA
ATOM     15  H   UNL     1     -17.177 -21.337 -37.960  1.00  0.00     0.293 HD
ENDBRANCH   6  14
TORSDOF 4
ENDMDL
MODEL 7
REMARK VINA RESULT:    -5.165      1.700      4.790
REMARK INTER + INTRA:          -5.966
REMARK INTER:                  -5.918
REMARK INTRA:                  -0.048
REMARK UNBOUND:                -0.046
REMARK SMILES O=C([O-])c1cc(O)c(O)c(O)c1
REMARK SMILES IDX 4 1 5 2 12 3 6 4 10 5 8 6 2 7 1 8 3 9 7 10 11 12 9 14
REMARK H PARENT 7 11 11 13 9 15
REMARK Flexibility Score: inf
ROOT
ATOM      1  C   UNL     1     -18.321 -18.524 -38.257  1.00  0.00     0.005 A 
ATOM      2  C   UNL     1     -19.010 -17.325 -38.019  1.00  0.00     0.060 A 
ATOM      3  C   UNL     1     -16.981 -18.629 -37.856  1.00  0.00     0.060 A 
ATOM      4  C   UNL     1     -18.376 -16.249 -37.391  1.00  0.00     0.162 A 
ATOM      5  C   UNL     1     -16.330 -17.562 -37.225  1.00  0.00     0.162 A 
ATOM      6  C   UNL     1     -17.033 -16.356 -36.988  1.00  0.00     0.200 A 
ENDROOT
BRANCH   1   7
ATOM      7  C   UNL     1     -18.994 -19.662 -38.923  1.00  0.00     0.072 C 
ATOM      8  O   UNL     1     -18.954 -20.816 -38.419  1.00  0.00    -0.545 OA
ATOM      9  O   UNL     1     -19.682 -19.472 -40.116  1.00  0.00    -0.545 OA
ENDBRANCH   1   7
BRANCH   4  10
ATOM     10  O   UNL     1     -19.102 -15.078 -37.174  1.00  0.00    -0.504 OA
ATOM     11  H   UNL     1     -19.685 -14.946 -36.356  1.00  0.00     0.293 HD
ENDBRANCH   4  10
BRANCH   5  12
ATOM     12  O   UNL     1     -14.996 -17.744 -36.855  1.00  0.00    -0.504 OA
ATOM     13  H   UNL     1     -14.700 -18.177 -35.993  1.00  0.00     0.293 HD
ENDBRANCH   5  12
BRANCH   6  14
ATOM     14  O   UNL     1     -16.437 -15.257 -36.364  1.00  0.00    -0.502 OA
ATOM     15  H   UNL     1     -16.843 -14.333 -36.330  1.00  0.00     0.293 HD
ENDBRANCH   6  14
TORSDOF 4
ENDMDL
MODEL 8
REMARK VINA RESULT:    -5.160      1.773      2.419
REMARK INTER + INTRA:          -5.960
REMARK INTER:                  -5.915
REMARK INTRA:                  -0.045
REMARK UNBOUND:                -0.046
REMARK SMILES O=C([O-])c1cc(O)c(O)c(O)c1
REMARK SMILES IDX 4 1 5 2 12 3 6 4 10 5 8 6 2 7 1 8 3 9 7 10 11 12 9 14
REMARK H PARENT 7 11 11 13 9 15
REMARK Flexibility Score: inf
ROOT
ATOM      1  C   UNL     1     -18.871 -16.767 -37.626  1.00  0.00     0.005 A 
ATOM      2  C   UNL     1     -17.920 -17.396 -36.807  1.00  0.00     0.060 A 
ATOM      3  C   UNL     1     -19.331 -17.435 -38.771  1.00  0.00     0.060 A 
ATOM      4  C   UNL     1     -17.435 -18.668 -37.124  1.00  0.00     0.162 A 
ATOM      5  C   UNL     1     -18.857 -18.709 -39.102  1.00  0.00     0.162 A 
ATOM      6  C   UNL     1     -17.897 -19.337 -38.271  1.00  0.00     0.200 A 
ENDROOT
BRANCH   1   7
ATOM      7  C   UNL     1     -19.383 -15.420 -37.289  1.00  0.00     0.072 C 
ATOM      8  O   UNL     1     -18.744 -14.388 -37.628  1.00  0.00    -0.545 OA
ATOM      9  O   UNL     1     -20.578 -15.274 -36.594  1.00  0.00    -0.545 OA
ENDBRANCH   1   7
BRANCH   4  10
ATOM     10  O   UNL     1     -16.491 -19.253 -36.280  1.00  0.00    -0.504 OA
ATOM     11  H   UNL     1     -15.557 -19.491 -36.594  1.00  0.00     0.293 HD
ENDBRANCH   4  10
BRANCH   5  12
ATOM     12  O   UNL     1     -19.362 -19.309 -40.257  1.00  0.00    -0.504 OA
ATOM     13  H   UNL     1     -18.863 -19.995 -40.806  1.00  0.00     0.293 HD
ENDBRANCH   5  12
BRANCH   6  14
ATOM     14  O   UNL     1     -17.386 -20.607 -38.551  1.00  0.00    -0.502 OA
ATOM     15  H   UNL     1     -17.956 -21.416 -38.755  1.00  0.00     0.293 HD
ENDBRANCH   6  14
TORSDOF 4
ENDMDL
MODEL 9
REMARK VINA RESULT:    -5.027      5.611      6.803
REMARK INTER + INTRA:          -5.807
REMARK INTER:                  -5.760
REMARK INTRA:                  -0.048
REMARK UNBOUND:                -0.046
REMARK SMILES O=C([O-])c1cc(O)c(O)c(O)c1
REMARK SMILES IDX 4 1 5 2 12 3 6 4 10 5 8 6 2 7 1 8 3 9 7 10 11 12 9 14
REMARK H PARENT 7 11 11 13 9 15
REMARK Flexibility Score: inf
ROOT
ATOM      1  C   UNL     1     -19.690 -11.758 -38.916  1.00  0.00     0.005 A 
ATOM      2  C   UNL     1     -19.565 -13.018 -39.522  1.00  0.00     0.060 A 
ATOM      3  C   UNL     1     -20.141 -10.675 -39.686  1.00  0.00     0.060 A 
ATOM      4  C   UNL     1     -19.882 -13.196 -40.872  1.00  0.00     0.162 A 
ATOM      5  C   UNL     1     -20.463 -10.835 -41.038  1.00  0.00     0.162 A 
ATOM      6  C   UNL     1     -20.333 -12.110 -41.642  1.00  0.00     0.200 A 
ENDROOT
BRANCH   1   7
ATOM      7  C   UNL     1     -19.354 -11.572 -37.487  1.00  0.00     0.072 C 
ATOM      8  O   UNL     1     -18.581 -10.645 -37.125  1.00  0.00    -0.545 OA
ATOM      9  O   UNL     1     -19.887 -12.419 -36.522  1.00  0.00    -0.545 OA
ENDBRANCH   1   7
BRANCH   4  10
ATOM     10  O   UNL     1     -19.741 -14.466 -41.430  1.00  0.00    -0.504 OA
ATOM     11  H   UNL     1     -20.284 -15.261 -41.113  1.00  0.00     0.293 HD
ENDBRANCH   4  10
BRANCH   5  12
ATOM     12  O   UNL     1     -20.904  -9.710 -41.737  1.00  0.00    -0.504 OA
ATOM     13  H   UNL     1     -21.485  -9.746 -42.562  1.00  0.00     0.293 HD
ENDBRANCH   5  12
BRANCH   6  14
ATOM     14  O   UNL     1     -20.639 -12.331 -42.988  1.00  0.00    -0.502 OA
ATOM     15  H   UNL     1     -19.950 -12.432 -43.718  1.00  0.00     0.293 HD
ENDBRANCH   6  14
TORSDOF 4
ENDMDL
