MODEL 1
REMARK VINA RESULT:    -3.107      0.000      0.000
REMARK INTER + INTRA:          -4.354
REMARK INTER:                  -4.106
REMARK INTRA:                  -0.249
REMARK UNBOUND:                -0.249
REMARK SMILES CCCCCCCO
REMARK SMILES IDX 5 1 4 2 3 3 2 4 1 5 6 6 7 7 8 8
REMARK H PARENT 8 9
REMARK Flexibility Score: inf
ROOT
ATOM      1  C   UNL     1     129.021 142.109 106.216  1.00  0.00     0.002 C 
ENDROOT
BRANCH   1   2
ATOM      2  C   UNL     1     129.024 143.458 105.478  1.00  0.00     0.000 C 
BRANCH   2   3
ATOM      3  C   UNL     1     127.658 143.799 104.865  1.00  0.00    -0.000 C 
BRANCH   3   4
ATOM      4  C   UNL     1     127.299 145.269 105.111  1.00  0.00    -0.003 C 
ATOM      5  C   UNL     1     126.976 145.519 106.582  1.00  0.00     0.004 C 
ENDBRANCH   3   4
ENDBRANCH   2   3
ENDBRANCH   1   2
BRANCH   1   6
ATOM      6  C   UNL     1     127.601 141.590 106.495  1.00  0.00     0.028 C 
BRANCH   6   7
ATOM      7  C   UNL     1     127.563 140.063 106.573  1.00  0.00     0.156 C 
BRANCH   7   8
ATOM      8  O   UNL     1     127.095 139.657 107.829  1.00  0.00    -0.396 OA
ATOM      9  H   UNL     1     126.142 139.410 107.700  1.00  0.00     0.210 HD
ENDBRANCH   7   8
ENDBRANCH   6   7
ENDBRANCH   1   6
TORSDOF 6
ENDMDL
MODEL 2
REMARK VINA RESULT:    -3.027      3.328      4.498
REMARK INTER + INTRA:          -4.250
REMARK INTER:                  -4.011
REMARK INTRA:                  -0.238
REMARK UNBOUND:                -0.249
REMARK SMILES CCCCCCCO
REMARK SMILES IDX 5 1 4 2 3 3 2 4 1 5 6 6 7 7 8 8
REMARK H PARENT 8 9
REMARK Flexibility Score: inf
ROOT
ATOM      1  C   UNL     1     127.445 146.067 108.410  1.00  0.00     0.002 C 
ENDROOT
BRANCH   1   2
ATOM      2  C   UNL     1     127.182 145.160 107.198  1.00  0.00     0.000 C 
BRANCH   2   3
ATOM      3  C   UNL     1     126.876 145.955 105.919  1.00  0.00    -0.000 C 
BRANCH   3   4
ATOM      4  C   UNL     1     127.412 145.228 104.681  1.00  0.00    -0.003 C 
ATOM      5  C   UNL     1     127.791 143.786 105.008  1.00  0.00     0.004 C 
ENDBRANCH   3   4
ENDBRANCH   2   3
ENDBRANCH   1   2
BRANCH   1   6
ATOM      6  C   UNL     1     128.825 145.825 109.043  1.00  0.00     0.028 C 
BRANCH   6   7
ATOM      7  C   UNL     1     129.820 145.260 108.029  1.00  0.00     0.156 C 
BRANCH   7   8
ATOM      8  O   UNL     1     130.794 146.220 107.723  1.00  0.00    -0.396 OA
ATOM      9  H   UNL     1     130.476 146.683 106.906  1.00  0.00     0.210 HD
ENDBRANCH   7   8
ENDBRANCH   6   7
ENDBRANCH   1   6
TORSDOF 6
ENDMDL
MODEL 3
REMARK VINA RESULT:    -2.971      2.098      3.125
REMARK INTER + INTRA:          -4.174
REMARK INTER:                  -3.873
REMARK INTRA:                  -0.302
REMARK UNBOUND:                -0.249
REMARK SMILES CCCCCCCO
REMARK SMILES IDX 5 1 4 2 3 3 2 4 1 5 6 6 7 7 8 8
REMARK H PARENT 8 9
REMARK Flexibility Score: inf
ROOT
ATOM      1  C   UNL     1     127.127 145.147 107.900  1.00  0.00     0.002 C 
ENDROOT
BRANCH   1   2
ATOM      2  C   UNL     1     127.979 145.493 106.668  1.00  0.00     0.000 C 
BRANCH   2   3
ATOM      3  C   UNL     1     127.317 145.059 105.351  1.00  0.00    -0.000 C 
BRANCH   3   4
ATOM      4  C   UNL     1     127.635 143.593 105.035  1.00  0.00    -0.003 C 
ATOM      5  C   UNL     1     129.089 143.262 105.360  1.00  0.00     0.004 C 
ENDBRANCH   3   4
ENDBRANCH   2   3
ENDBRANCH   1   2
BRANCH   1   6
ATOM      6  C   UNL     1     127.925 144.398 108.980  1.00  0.00     0.028 C 
BRANCH   6   7
ATOM      7  C   UNL     1     127.739 142.884 108.871  1.00  0.00     0.156 C 
BRANCH   7   8
ATOM      8  O   UNL     1     127.275 142.367 110.087  1.00  0.00    -0.396 OA
ATOM      9  H   UNL     1     126.715 143.079 110.493  1.00  0.00     0.210 HD
ENDBRANCH   7   8
ENDBRANCH   6   7
ENDBRANCH   1   6
TORSDOF 6
ENDMDL
MODEL 4
REMARK VINA RESULT:    -2.956      2.821      4.246
REMARK INTER + INTRA:          -4.155
REMARK INTER:                  -3.800
REMARK INTRA:                  -0.356
REMARK UNBOUND:                -0.249
REMARK SMILES CCCCCCCO
REMARK SMILES IDX 5 1 4 2 3 3 2 4 1 5 6 6 7 7 8 8
REMARK H PARENT 8 9
REMARK Flexibility Score: inf
ROOT
ATOM      1  C   UNL     1     126.960 145.987 106.877  1.00  0.00     0.002 C 
ENDROOT
BRANCH   1   2
ATOM      2  C   UNL     1     128.010 145.623 105.815  1.00  0.00     0.000 C 
BRANCH   2   3
ATOM      3  C   UNL     1     127.625 144.375 105.005  1.00  0.00    -0.000 C 
BRANCH   3   4
ATOM      4  C   UNL     1     128.563 143.205 105.323  1.00  0.00    -0.003 C 
ATOM      5  C   UNL     1     127.858 142.148 106.170  1.00  0.00     0.004 C 
ENDBRANCH   3   4
ENDBRANCH   2   3
ENDBRANCH   1   2
BRANCH   1   6
ATOM      6  C   UNL     1     127.243 145.332 108.238  1.00  0.00     0.028 C 
BRANCH   6   7
ATOM      7  C   UNL     1     128.743 145.212 108.506  1.00  0.00     0.156 C 
BRANCH   7   8
ATOM      8  O   UNL     1     129.217 146.375 109.126  1.00  0.00    -0.396 OA
ATOM      9  H   UNL     1     128.508 147.059 109.005  1.00  0.00     0.210 HD
ENDBRANCH   7   8
ENDBRANCH   6   7
ENDBRANCH   1   6
TORSDOF 6
ENDMDL
MODEL 5
REMARK VINA RESULT:    -2.883      3.498      4.409
REMARK INTER + INTRA:          -4.059
REMARK INTER:                  -3.730
REMARK INTRA:                  -0.329
REMARK UNBOUND:                -0.249
REMARK SMILES CCCCCCCO
REMARK SMILES IDX 5 1 4 2 3 3 2 4 1 5 6 6 7 7 8 8
REMARK H PARENT 8 9
REMARK Flexibility Score: inf
ROOT
ATOM      1  C   UNL     1     127.280 144.331 107.489  1.00  0.00     0.002 C 
ENDROOT
BRANCH   1   2
ATOM      2  C   UNL     1     127.367 144.642 105.986  1.00  0.00     0.000 C 
BRANCH   2   3
ATOM      3  C   UNL     1     128.518 145.600 105.646  1.00  0.00    -0.000 C 
BRANCH   3   4
ATOM      4  C   UNL     1     129.868 145.005 106.064  1.00  0.00    -0.003 C 
ATOM      5  C   UNL     1     130.954 146.077 106.108  1.00  0.00     0.004 C 
ENDBRANCH   3   4
ENDBRANCH   2   3
ENDBRANCH   1   2
BRANCH   1   6
ATOM      6  C   UNL     1     127.066 145.591 108.343  1.00  0.00     0.028 C 
BRANCH   6   7
ATOM      7  C   UNL     1     128.065 145.666 109.498  1.00  0.00     0.156 C 
BRANCH   7   8
ATOM      8  O   UNL     1     129.121 146.526 109.168  1.00  0.00    -0.396 OA
ATOM      9  H   UNL     1     129.861 146.304 109.791  1.00  0.00     0.210 HD
ENDBRANCH   7   8
ENDBRANCH   6   7
ENDBRANCH   1   6
TORSDOF 6
ENDMDL
MODEL 6
REMARK VINA RESULT:    -2.883      3.001      3.910
REMARK INTER + INTRA:          -4.059
REMARK INTER:                  -3.711
REMARK INTRA:                  -0.347
REMARK UNBOUND:                -0.249
REMARK SMILES CCCCCCCO
REMARK SMILES IDX 5 1 4 2 3 3 2 4 1 5 6 6 7 7 8 8
REMARK H PARENT 8 9
REMARK Flexibility Score: inf
ROOT
ATOM      1  C   UNL     1     129.853 143.739 106.501  1.00  0.00     0.002 C 
ENDROOT
BRANCH   1   2
ATOM      2  C   UNL     1     129.046 143.188 105.314  1.00  0.00     0.000 C 
BRANCH   2   3
ATOM      3  C   UNL     1     127.589 143.675 105.312  1.00  0.00    -0.000 C 
BRANCH   3   4
ATOM      4  C   UNL     1     127.502 145.138 104.860  1.00  0.00    -0.003 C 
ATOM      5  C   UNL     1     126.876 146.013 105.944  1.00  0.00     0.004 C 
ENDBRANCH   3   4
ENDBRANCH   2   3
ENDBRANCH   1   2
BRANCH   1   6
ATOM      6  C   UNL     1     131.038 144.610 106.058  1.00  0.00     0.028 C 
BRANCH   6   7
ATOM      7  C   UNL     1     130.947 146.024 106.634  1.00  0.00     0.156 C 
BRANCH   7   8
ATOM      8  O   UNL     1     130.077 146.042 107.732  1.00  0.00    -0.396 OA
ATOM      9  H   UNL     1     129.674 146.949 107.749  1.00  0.00     0.210 HD
ENDBRANCH   7   8
ENDBRANCH   6   7
ENDBRANCH   1   6
TORSDOF 6
ENDMDL
MODEL 7
REMARK VINA RESULT:    -2.834      4.066      5.172
REMARK INTER + INTRA:          -3.995
REMARK INTER:                  -3.811
REMARK INTRA:                  -0.183
REMARK UNBOUND:                -0.249
REMARK SMILES CCCCCCCO
REMARK SMILES IDX 5 1 4 2 3 3 2 4 1 5 6 6 7 7 8 8
REMARK H PARENT 8 9
REMARK Flexibility Score: inf
ROOT
ATOM      1  C   UNL     1     130.491 145.084 106.425  1.00  0.00     0.002 C 
ENDROOT
BRANCH   1   2
ATOM      2  C   UNL     1     128.999 145.212 106.774  1.00  0.00     0.000 C 
BRANCH   2   3
ATOM      3  C   UNL     1     128.123 145.469 105.539  1.00  0.00    -0.000 C 
BRANCH   3   4
ATOM      4  C   UNL     1     127.698 144.150 104.883  1.00  0.00    -0.003 C 
ATOM      5  C   UNL     1     127.360 143.096 105.934  1.00  0.00     0.004 C 
ENDBRANCH   3   4
ENDBRANCH   2   3
ENDBRANCH   1   2
BRANCH   1   6
ATOM      6  C   UNL     1     131.076 146.381 105.843  1.00  0.00     0.028 C 
BRANCH   6   7
ATOM      7  C   UNL     1     132.487 146.649 106.368  1.00  0.00     0.156 C 
BRANCH   7   8
ATOM      8  O   UNL     1     132.433 147.087 107.697  1.00  0.00    -0.396 OA
ATOM      9  H   UNL     1     132.780 146.338 108.248  1.00  0.00     0.210 HD
ENDBRANCH   7   8
ENDBRANCH   6   7
ENDBRANCH   1   6
TORSDOF 6
ENDMDL
MODEL 8
REMARK VINA RESULT:    -2.795     19.518     20.211
REMARK INTER + INTRA:          -3.942
REMARK INTER:                  -3.710
REMARK INTRA:                  -0.232
REMARK UNBOUND:                -0.249
REMARK SMILES CCCCCCCO
REMARK SMILES IDX 5 1 4 2 3 3 2 4 1 5 6 6 7 7 8 8
REMARK H PARENT 8 9
REMARK Flexibility Score: inf
ROOT
ATOM      1  C   UNL     1     143.675 130.391 105.329  1.00  0.00     0.002 C 
ENDROOT
BRANCH   1   2
ATOM      2  C   UNL     1     143.722 131.792 104.699  1.00  0.00     0.000 C 
BRANCH   2   3
ATOM      3  C   UNL     1     144.505 132.800 105.554  1.00  0.00    -0.000 C 
BRANCH   3   4
ATOM      4  C   UNL     1     145.544 132.087 106.427  1.00  0.00    -0.003 C 
ATOM      5  C   UNL     1     146.964 132.429 105.986  1.00  0.00     0.004 C 
ENDBRANCH   3   4
ENDBRANCH   2   3
ENDBRANCH   1   2
BRANCH   1   6
ATOM      6  C   UNL     1     142.379 130.138 106.115  1.00  0.00     0.028 C 
BRANCH   6   7
ATOM      7  C   UNL     1     142.578 129.090 107.211  1.00  0.00     0.156 C 
BRANCH   7   8
ATOM      8  O   UNL     1     143.712 129.399 107.973  1.00  0.00    -0.396 OA
ATOM      9  H   UNL     1     144.325 129.890 107.367  1.00  0.00     0.210 HD
ENDBRANCH   7   8
ENDBRANCH   6   7
ENDBRANCH   1   6
TORSDOF 6
ENDMDL
MODEL 9
REMARK VINA RESULT:    -0.396      1.456      1.867
REMARK INTER + INTRA:          -0.772
REMARK INTER:                  -0.468
REMARK INTRA:                  -0.303
REMARK UNBOUND:                -0.249
REMARK SMILES CCCCCCCO
REMARK SMILES IDX 5 1 4 2 3 3 2 4 1 5 6 6 7 7 8 8
REMARK H PARENT 8 9
REMARK Flexibility Score: inf
ROOT
ATOM      1  C   UNL     1     128.408 142.809 105.702  1.00  0.00     0.002 C 
ENDROOT
BRANCH   1   2
ATOM      2  C   UNL     1     127.715 143.995 105.011  1.00  0.00     0.000 C 
BRANCH   2   3
ATOM      3  C   UNL     1     128.106 145.348 105.625  1.00  0.00    -0.000 C 
BRANCH   3   4
ATOM      4  C   UNL     1     126.879 146.064 106.200  1.00  0.00    -0.003 C 
ATOM      5  C   UNL     1     126.875 146.013 107.725  1.00  0.00     0.004 C 
ENDBRANCH   3   4
ENDBRANCH   2   3
ENDBRANCH   1   2
BRANCH   1   6
ATOM      6  C   UNL     1     127.560 142.205 106.833  1.00  0.00     0.028 C 
BRANCH   6   7
ATOM      7  C   UNL     1     128.165 142.492 108.207  1.00  0.00     0.156 C 
BRANCH   7   8
ATOM      8  O   UNL     1     127.237 142.196 109.214  1.00  0.00    -0.396 OA
ATOM      9  H   UNL     1     126.772 143.049 109.418  1.00  0.00     0.210 HD
ENDBRANCH   7   8
ENDBRANCH   6   7
ENDBRANCH   1   6
TORSDOF 6
ENDMDL
