MODEL 1
REMARK VINA RESULT:    -6.303      0.000      0.000
REMARK INTER + INTRA:          -6.672
REMARK INTER:                  -6.672
REMARK INTRA:                   0.000
REMARK UNBOUND:                 0.000
REMARK SMILES O=c1ccc2cc(O)c(O)cc2o1
REMARK SMILES IDX 4 1 3 2 2 3 1 4 13 5 12 6 11 7 9 8 7 9 6 10 5 11 8 12 10 14
REMARK H PARENT 8 13 10 15
REMARK Flexibility Score: inf
ROOT
ATOM      1  C   UNL     1     -36.230  -7.311 -13.368  1.00  0.00     0.019 A 
ATOM      2  C   UNL     1     -35.675  -6.031 -13.373  1.00  0.00     0.094 A 
ATOM      3  C   UNL     1     -36.530  -4.924 -13.357  1.00  0.00     0.336 A 
ATOM      4  O   UNL     1     -36.049  -3.760 -13.361  1.00  0.00    -0.246 OA
ATOM      5  O   UNL     1     -37.849  -5.092 -13.337  1.00  0.00    -0.423 OA
ATOM      6  C   UNL     1     -38.418  -6.295 -13.331  1.00  0.00     0.142 A 
ATOM      7  C   UNL     1     -39.810  -6.410 -13.309  1.00  0.00     0.098 A 
ATOM      8  C   UNL     1     -40.423  -7.670 -13.303  1.00  0.00     0.161 A 
ATOM      9  C   UNL     1     -39.622  -8.839 -13.319  1.00  0.00     0.158 A 
ATOM     10  C   UNL     1     -38.226  -8.720 -13.340  1.00  0.00     0.062 A 
ATOM     11  C   UNL     1     -37.620  -7.457 -13.346  1.00  0.00     0.022 A 
ENDROOT
BRANCH   9  12
ATOM     12  O   UNL     1     -40.164 -10.125 -13.314  1.00  0.00    -0.504 OA
ATOM     13  H   UNL     1     -40.379 -10.644 -12.474  1.00  0.00     0.293 HD
ENDBRANCH   9  12
BRANCH   8  14
ATOM     14  O   UNL     1     -41.818  -7.714 -13.281  1.00  0.00    -0.504 OA
ATOM     15  H   UNL     1     -42.361  -8.054 -12.500  1.00  0.00     0.293 HD
ENDBRANCH   8  14
TORSDOF 2
ENDMDL
MODEL 2
REMARK VINA RESULT:    -6.205      6.665      9.313
REMARK INTER + INTRA:          -6.568
REMARK INTER:                  -6.568
REMARK INTRA:                   0.000
REMARK UNBOUND:                 0.000
REMARK SMILES O=c1ccc2cc(O)c(O)cc2o1
REMARK SMILES IDX 4 1 3 2 2 3 1 4 13 5 12 6 11 7 9 8 7 9 6 10 5 11 8 12 10 14
REMARK H PARENT 8 13 10 15
REMARK Flexibility Score: inf
ROOT
ATOM      1  C   UNL     1     -31.467  -4.131 -16.416  1.00  0.00     0.019 A 
ATOM      2  C   UNL     1     -32.488  -4.640 -15.615  1.00  0.00     0.094 A 
ATOM      3  C   UNL     1     -33.807  -4.572 -16.075  1.00  0.00     0.336 A 
ATOM      4  O   UNL     1     -34.743  -5.026 -15.367  1.00  0.00    -0.246 OA
ATOM      5  O   UNL     1     -34.080  -4.030 -17.259  1.00  0.00    -0.423 OA
ATOM      6  C   UNL     1     -33.135  -3.534 -18.054  1.00  0.00     0.142 A 
ATOM      7  C   UNL     1     -33.481  -2.976 -19.288  1.00  0.00     0.098 A 
ATOM      8  C   UNL     1     -32.498  -2.449 -20.135  1.00  0.00     0.161 A 
ATOM      9  C   UNL     1     -31.138  -2.483 -19.736  1.00  0.00     0.158 A 
ATOM     10  C   UNL     1     -30.795  -3.043 -18.498  1.00  0.00     0.062 A 
ATOM     11  C   UNL     1     -31.783  -3.567 -17.656  1.00  0.00     0.022 A 
ENDROOT
BRANCH   9  12
ATOM     12  O   UNL     1     -30.107  -1.977 -20.529  1.00  0.00    -0.504 OA
ATOM     13  H   UNL     1     -29.972  -2.216 -21.501  1.00  0.00     0.293 HD
ENDBRANCH   9  12
BRANCH   8  14
ATOM     14  O   UNL     1     -32.911  -1.908 -21.353  1.00  0.00    -0.504 OA
ATOM     15  H   UNL     1     -32.842  -0.928 -21.589  1.00  0.00     0.293 HD
ENDBRANCH   8  14
TORSDOF 2
ENDMDL
MODEL 3
REMARK VINA RESULT:    -5.904      1.183      4.557
REMARK INTER + INTRA:          -6.249
REMARK INTER:                  -6.249
REMARK INTRA:                   0.000
REMARK UNBOUND:                 0.000
REMARK SMILES O=c1ccc2cc(O)c(O)cc2o1
REMARK SMILES IDX 4 1 3 2 2 3 1 4 13 5 12 6 11 7 9 8 7 9 6 10 5 11 8 12 10 14
REMARK H PARENT 8 13 10 15
REMARK Flexibility Score: inf
ROOT
ATOM      1  C   UNL     1     -37.040  -8.624 -13.546  1.00  0.00     0.019 A 
ATOM      2  C   UNL     1     -38.261  -9.298 -13.512  1.00  0.00     0.094 A 
ATOM      3  C   UNL     1     -39.434  -8.562 -13.320  1.00  0.00     0.336 A 
ATOM      4  O   UNL     1     -40.546  -9.151 -13.286  1.00  0.00    -0.246 OA
ATOM      5  O   UNL     1     -39.384  -7.241 -13.172  1.00  0.00    -0.423 OA
ATOM      6  C   UNL     1     -38.241  -6.560 -13.199  1.00  0.00     0.142 A 
ATOM      7  C   UNL     1     -38.250  -5.172 -13.039  1.00  0.00     0.098 A 
ATOM      8  C   UNL     1     -37.054  -4.442 -13.064  1.00  0.00     0.161 A 
ATOM      9  C   UNL     1     -35.824  -5.120 -13.255  1.00  0.00     0.158 A 
ATOM     10  C   UNL     1     -35.819  -6.512 -13.415  1.00  0.00     0.062 A 
ATOM     11  C   UNL     1     -37.017  -7.235 -13.389  1.00  0.00     0.022 A 
ENDROOT
BRANCH   9  12
ATOM     12  O   UNL     1     -34.596  -4.457 -13.291  1.00  0.00    -0.504 OA
ATOM     13  H   UNL     1     -33.811  -4.752 -13.854  1.00  0.00     0.293 HD
ENDBRANCH   9  12
BRANCH   8  14
ATOM     14  O   UNL     1     -37.133  -3.059 -12.898  1.00  0.00    -0.504 OA
ATOM     15  H   UNL     1     -37.563  -2.608 -12.102  1.00  0.00     0.293 HD
ENDBRANCH   8  14
TORSDOF 2
ENDMDL
MODEL 4
REMARK VINA RESULT:    -5.858      1.043      2.280
REMARK INTER + INTRA:          -6.200
REMARK INTER:                  -6.200
REMARK INTRA:                   0.000
REMARK UNBOUND:                 0.000
REMARK SMILES O=c1ccc2cc(O)c(O)cc2o1
REMARK SMILES IDX 4 1 3 2 2 3 1 4 13 5 12 6 11 7 9 8 7 9 6 10 5 11 8 12 10 14
REMARK H PARENT 8 13 10 15
REMARK Flexibility Score: inf
ROOT
ATOM      1  C   UNL     1     -38.471  -4.745 -13.463  1.00  0.00     0.019 A 
ATOM      2  C   UNL     1     -37.089  -4.558 -13.505  1.00  0.00     0.094 A 
ATOM      3  C   UNL     1     -36.254  -5.680 -13.488  1.00  0.00     0.336 A 
ATOM      4  O   UNL     1     -35.004  -5.533 -13.526  1.00  0.00    -0.246 OA
ATOM      5  O   UNL     1     -36.771  -6.904 -13.432  1.00  0.00    -0.423 OA
ATOM      6  C   UNL     1     -38.083  -7.126 -13.390  1.00  0.00     0.142 A 
ATOM      7  C   UNL     1     -38.569  -8.435 -13.332  1.00  0.00     0.098 A 
ATOM      8  C   UNL     1     -39.948  -8.683 -13.287  1.00  0.00     0.161 A 
ATOM      9  C   UNL     1     -40.856  -7.596 -13.301  1.00  0.00     0.158 A 
ATOM     10  C   UNL     1     -40.365  -6.285 -13.359  1.00  0.00     0.062 A 
ATOM     11  C   UNL     1     -38.987  -6.044 -13.404  1.00  0.00     0.022 A 
ENDROOT
BRANCH   9  12
ATOM     12  O   UNL     1     -42.241  -7.770 -13.259  1.00  0.00    -0.504 OA
ATOM     13  H   UNL     1     -42.834  -7.783 -14.076  1.00  0.00     0.293 HD
ENDBRANCH   9  12
BRANCH   8  14
ATOM     14  O   UNL     1     -40.366 -10.014 -13.230  1.00  0.00    -0.504 OA
ATOM     15  H   UNL     1     -39.872 -10.781 -13.663  1.00  0.00     0.293 HD
ENDBRANCH   8  14
TORSDOF 2
ENDMDL
MODEL 5
REMARK VINA RESULT:    -5.712      2.143      2.379
REMARK INTER + INTRA:          -6.046
REMARK INTER:                  -6.046
REMARK INTRA:                   0.000
REMARK UNBOUND:                 0.000
REMARK SMILES O=c1ccc2cc(O)c(O)cc2o1
REMARK SMILES IDX 4 1 3 2 2 3 1 4 13 5 12 6 11 7 9 8 7 9 6 10 5 11 8 12 10 14
REMARK H PARENT 8 13 10 15
REMARK Flexibility Score: inf
ROOT
ATOM      1  C   UNL     1     -35.270  -6.005 -13.784  1.00  0.00     0.019 A 
ATOM      2  C   UNL     1     -34.951  -4.916 -14.595  1.00  0.00     0.094 A 
ATOM      3  C   UNL     1     -35.748  -4.649 -15.713  1.00  0.00     0.336 A 
ATOM      4  O   UNL     1     -35.477  -3.671 -16.458  1.00  0.00    -0.246 OA
ATOM      5  O   UNL     1     -36.791  -5.424 -15.996  1.00  0.00    -0.423 OA
ATOM      6  C   UNL     1     -37.129  -6.472 -15.249  1.00  0.00     0.142 A 
ATOM      7  C   UNL     1     -38.237  -7.250 -15.595  1.00  0.00     0.098 A 
ATOM      8  C   UNL     1     -38.605  -8.357 -14.818  1.00  0.00     0.161 A 
ATOM      9  C   UNL     1     -37.844  -8.688 -13.669  1.00  0.00     0.158 A 
ATOM     10  C   UNL     1     -36.734  -7.906 -13.324  1.00  0.00     0.062 A 
ATOM     11  C   UNL     1     -36.373  -6.802 -14.106  1.00  0.00     0.022 A 
ENDROOT
BRANCH   9  12
ATOM     12  O   UNL     1     -38.153  -9.775 -12.849  1.00  0.00    -0.504 OA
ATOM     13  H   UNL     1     -38.227  -9.721 -11.843  1.00  0.00     0.293 HD
ENDBRANCH   9  12
BRANCH   8  14
ATOM     14  O   UNL     1     -39.721  -9.091 -15.220  1.00  0.00    -0.504 OA
ATOM     15  H   UNL     1     -40.609  -8.678 -15.469  1.00  0.00     0.293 HD
ENDBRANCH   8  14
TORSDOF 2
ENDMDL
MODEL 6
REMARK VINA RESULT:    -5.652      1.816      2.373
REMARK INTER + INTRA:          -5.982
REMARK INTER:                  -5.982
REMARK INTRA:                   0.000
REMARK UNBOUND:                 0.000
REMARK SMILES O=c1ccc2cc(O)c(O)cc2o1
REMARK SMILES IDX 4 1 3 2 2 3 1 4 13 5 12 6 11 7 9 8 7 9 6 10 5 11 8 12 10 14
REMARK H PARENT 8 13 10 15
REMARK Flexibility Score: inf
ROOT
ATOM      1  C   UNL     1     -35.986  -5.128 -12.718  1.00  0.00     0.019 A 
ATOM      2  C   UNL     1     -36.529  -4.010 -12.085  1.00  0.00     0.094 A 
ATOM      3  C   UNL     1     -37.918  -3.918 -11.946  1.00  0.00     0.336 A 
ATOM      4  O   UNL     1     -38.427  -2.917 -11.378  1.00  0.00    -0.246 OA
ATOM      5  O   UNL     1     -38.705  -4.884 -12.411  1.00  0.00    -0.423 OA
ATOM      6  C   UNL     1     -38.228  -5.967 -13.020  1.00  0.00     0.142 A 
ATOM      7  C   UNL     1     -39.105  -6.949 -13.488  1.00  0.00     0.098 A 
ATOM      8  C   UNL     1     -38.617  -8.094 -14.132  1.00  0.00     0.161 A 
ATOM      9  C   UNL     1     -37.220  -8.256 -14.309  1.00  0.00     0.158 A 
ATOM     10  C   UNL     1     -36.344  -7.269 -13.838  1.00  0.00     0.062 A 
ATOM     11  C   UNL     1     -36.839  -6.128 -13.196  1.00  0.00     0.022 A 
ENDROOT
BRANCH   9  12
ATOM     12  O   UNL     1     -36.665  -9.371 -14.940  1.00  0.00    -0.504 OA
ATOM     13  H   UNL     1     -35.836  -9.339 -15.517  1.00  0.00     0.293 HD
ENDBRANCH   9  12
BRANCH   8  14
ATOM     14  O   UNL     1     -39.547  -9.036 -14.575  1.00  0.00    -0.504 OA
ATOM     15  H   UNL     1     -39.541  -9.446 -15.498  1.00  0.00     0.293 HD
ENDBRANCH   8  14
TORSDOF 2
ENDMDL
MODEL 7
REMARK VINA RESULT:    -5.607      5.671      8.463
REMARK INTER + INTRA:          -5.935
REMARK INTER:                  -5.935
REMARK INTRA:                   0.000
REMARK UNBOUND:                 0.000
REMARK SMILES O=c1ccc2cc(O)c(O)cc2o1
REMARK SMILES IDX 4 1 3 2 2 3 1 4 13 5 12 6 11 7 9 8 7 9 6 10 5 11 8 12 10 14
REMARK H PARENT 8 13 10 15
REMARK Flexibility Score: inf
ROOT
ATOM      1  C   UNL     1     -35.833  -4.066 -17.491  1.00  0.00     0.019 A 
ATOM      2  C   UNL     1     -35.970  -4.734 -16.274  1.00  0.00     0.094 A 
ATOM      3  C   UNL     1     -34.823  -5.018 -15.525  1.00  0.00     0.336 A 
ATOM      4  O   UNL     1     -34.926  -5.619 -14.424  1.00  0.00    -0.246 OA
ATOM      5  O   UNL     1     -33.623  -4.655 -15.969  1.00  0.00    -0.423 OA
ATOM      6  C   UNL     1     -33.449  -4.017 -17.123  1.00  0.00     0.142 A 
ATOM      7  C   UNL     1     -32.163  -3.661 -17.538  1.00  0.00     0.098 A 
ATOM      8  C   UNL     1     -31.964  -2.989 -18.752  1.00  0.00     0.161 A 
ATOM      9  C   UNL     1     -33.079  -2.667 -19.565  1.00  0.00     0.158 A 
ATOM     10  C   UNL     1     -34.367  -3.025 -19.146  1.00  0.00     0.062 A 
ATOM     11  C   UNL     1     -34.558  -3.697 -17.932  1.00  0.00     0.022 A 
ENDROOT
BRANCH   9  12
ATOM     12  O   UNL     1     -32.955  -1.999 -20.784  1.00  0.00    -0.504 OA
ATOM     13  H   UNL     1     -32.500  -2.388 -21.598  1.00  0.00     0.293 HD
ENDBRANCH   9  12
BRANCH   8  14
ATOM     14  O   UNL     1     -30.654  -2.662 -19.107  1.00  0.00    -0.504 OA
ATOM     15  H   UNL     1     -29.897  -2.562 -18.445  1.00  0.00     0.293 HD
ENDBRANCH   8  14
TORSDOF 2
ENDMDL
MODEL 8
REMARK VINA RESULT:    -5.585      6.161      7.709
REMARK INTER + INTRA:          -5.912
REMARK INTER:                  -5.912
REMARK INTRA:                   0.000
REMARK UNBOUND:                 0.000
REMARK SMILES O=c1ccc2cc(O)c(O)cc2o1
REMARK SMILES IDX 4 1 3 2 2 3 1 4 13 5 12 6 11 7 9 8 7 9 6 10 5 11 8 12 10 14
REMARK H PARENT 8 13 10 15
REMARK Flexibility Score: inf
ROOT
ATOM      1  C   UNL     1     -31.385  -3.293 -17.695  1.00  0.00     0.019 A 
ATOM      2  C   UNL     1     -30.425  -4.110 -17.097  1.00  0.00     0.094 A 
ATOM      3  C   UNL     1     -30.807  -5.373 -16.632  1.00  0.00     0.336 A 
ATOM      4  O   UNL     1     -29.955  -6.125 -16.090  1.00  0.00    -0.246 OA
ATOM      5  O   UNL     1     -32.065  -5.785 -16.759  1.00  0.00    -0.423 OA
ATOM      6  C   UNL     1     -33.010  -5.037 -17.322  1.00  0.00     0.142 A 
ATOM      7  C   UNL     1     -34.316  -5.523 -17.428  1.00  0.00     0.098 A 
ATOM      8  C   UNL     1     -35.322  -4.747 -18.019  1.00  0.00     0.161 A 
ATOM      9  C   UNL     1     -35.011  -3.456 -18.513  1.00  0.00     0.158 A 
ATOM     10  C   UNL     1     -33.700  -2.971 -18.406  1.00  0.00     0.062 A 
ATOM     11  C   UNL     1     -32.700  -3.753 -17.814  1.00  0.00     0.022 A 
ENDROOT
BRANCH   9  12
ATOM     12  O   UNL     1     -35.962  -2.629 -19.113  1.00  0.00    -0.504 OA
ATOM     13  H   UNL     1     -36.556  -2.914 -19.878  1.00  0.00     0.293 HD
ENDBRANCH   9  12
BRANCH   8  14
ATOM     14  O   UNL     1     -36.605  -5.292 -18.093  1.00  0.00    -0.504 OA
ATOM     15  H   UNL     1     -37.381  -4.850 -18.564  1.00  0.00     0.293 HD
ENDBRANCH   8  14
TORSDOF 2
ENDMDL
MODEL 9
REMARK VINA RESULT:    -5.421      1.832      2.876
REMARK INTER + INTRA:          -5.738
REMARK INTER:                  -5.738
REMARK INTRA:                   0.000
REMARK UNBOUND:                 0.000
REMARK SMILES O=c1ccc2cc(O)c(O)cc2o1
REMARK SMILES IDX 4 1 3 2 2 3 1 4 13 5 12 6 11 7 9 8 7 9 6 10 5 11 8 12 10 14
REMARK H PARENT 8 13 10 15
REMARK Flexibility Score: inf
ROOT
ATOM      1  C   UNL     1     -40.115  -5.096 -11.866  1.00  0.00     0.019 A 
ATOM      2  C   UNL     1     -39.433  -3.935 -11.501  1.00  0.00     0.094 A 
ATOM      3  C   UNL     1     -38.105  -3.775 -11.910  1.00  0.00     0.336 A 
ATOM      4  O   UNL     1     -37.471  -2.735 -11.591  1.00  0.00    -0.246 OA
ATOM      5  O   UNL     1     -37.505  -4.715 -12.635  1.00  0.00    -0.423 OA
ATOM      6  C   UNL     1     -38.120  -5.836 -13.004  1.00  0.00     0.142 A 
ATOM      7  C   UNL     1     -37.440  -6.789 -13.767  1.00  0.00     0.098 A 
ATOM      8  C   UNL     1     -38.075  -7.974 -14.162  1.00  0.00     0.161 A 
ATOM      9  C   UNL     1     -39.421  -8.206 -13.785  1.00  0.00     0.158 A 
ATOM     10  C   UNL     1     -40.100  -7.249 -13.021  1.00  0.00     0.062 A 
ATOM     11  C   UNL     1     -39.460  -6.067 -12.629  1.00  0.00     0.022 A 
ENDROOT
BRANCH   9  12
ATOM     12  O   UNL     1     -40.115  -9.363 -14.144  1.00  0.00    -0.504 OA
ATOM     13  H   UNL     1     -41.106  -9.494 -14.003  1.00  0.00     0.293 HD
ENDBRANCH   9  12
BRANCH   8  14
ATOM     14  O   UNL     1     -37.338  -8.883 -14.922  1.00  0.00    -0.504 OA
ATOM     15  H   UNL     1     -36.340  -8.818 -15.071  1.00  0.00     0.293 HD
ENDBRANCH   8  14
TORSDOF 2
ENDMDL
