MODEL 1
REMARK VINA RESULT:    -3.221      0.000      0.000
REMARK INTER + INTRA:          -3.893
REMARK INTER:                  -3.786
REMARK INTRA:                  -0.107
REMARK UNBOUND:                -0.107
REMARK SMILES O=C([O-])CCC(=O)[O-]
REMARK SMILES IDX 4 1 2 2 1 3 3 4 5 5 6 6 7 7 8 8
REMARK H PARENT
REMARK Flexibility Score: inf
ROOT
ATOM      1  C   UNL     1      35.670  16.494 136.586  1.00  0.00     0.059 C 
ENDROOT
BRANCH   1   2
ATOM      2  C   UNL     1      34.942  15.759 137.666  1.00  0.00     0.042 C 
ATOM      3  O   UNL     1      33.883  16.235 138.153  1.00  0.00    -0.550 OA
ATOM      4  O   UNL     1      35.459  14.572 138.170  1.00  0.00    -0.550 OA
ENDBRANCH   1   2
BRANCH   1   5
ATOM      5  C   UNL     1      37.043  15.865 136.342  1.00  0.00     0.059 C 
BRANCH   5   6
ATOM      6  C   UNL     1      37.025  15.033 135.098  1.00  0.00     0.042 C 
ATOM      7  O   UNL     1      36.983  13.777 135.178  1.00  0.00    -0.550 OA
ATOM      8  O   UNL     1      37.103  15.642 133.852  1.00  0.00    -0.550 OA
ENDBRANCH   5   6
ENDBRANCH   1   5
TORSDOF 3
ENDMDL
MODEL 2
REMARK VINA RESULT:    -3.204      0.129      3.777
REMARK INTER + INTRA:          -3.872
REMARK INTER:                  -3.766
REMARK INTRA:                  -0.106
REMARK UNBOUND:                -0.107
REMARK SMILES O=C([O-])CCC(=O)[O-]
REMARK SMILES IDX 4 1 2 2 1 3 3 4 5 5 6 6 7 7 8 8
REMARK H PARENT
REMARK Flexibility Score: inf
ROOT
ATOM      1  C   UNL     1      37.027  15.971 136.337  1.00  0.00     0.059 C 
ENDROOT
BRANCH   1   2
ATOM      2  C   UNL     1      37.043  15.188 135.063  1.00  0.00     0.042 C 
ATOM      3  O   UNL     1      36.936  15.780 133.955  1.00  0.00    -0.550 OA
ATOM      4  O   UNL     1      37.125  13.802 135.098  1.00  0.00    -0.550 OA
ENDBRANCH   1   2
BRANCH   1   5
ATOM      5  C   UNL     1      35.631  16.537 136.600  1.00  0.00     0.059 C 
BRANCH   5   6
ATOM      6  C   UNL     1      34.937  15.747 137.665  1.00  0.00     0.042 C 
ATOM      7  O   UNL     1      33.863  16.170 138.169  1.00  0.00    -0.550 OA
ATOM      8  O   UNL     1      35.502  14.569 138.137  1.00  0.00    -0.550 OA
ENDBRANCH   5   6
ENDBRANCH   1   5
TORSDOF 3
ENDMDL
MODEL 3
REMARK VINA RESULT:    -3.202      0.205      1.153
REMARK INTER + INTRA:          -3.870
REMARK INTER:                  -3.763
REMARK INTRA:                  -0.107
REMARK UNBOUND:                -0.107
REMARK SMILES O=C([O-])CCC(=O)[O-]
REMARK SMILES IDX 4 1 2 2 1 3 3 4 5 5 6 6 7 7 8 8
REMARK H PARENT
REMARK Flexibility Score: inf
ROOT
ATOM      1  C   UNL     1      35.768  16.456 136.535  1.00  0.00     0.059 C 
ENDROOT
BRANCH   1   2
ATOM      2  C   UNL     1      35.066  15.676 137.600  1.00  0.00     0.042 C 
ATOM      3  O   UNL     1      34.005  16.120 138.116  1.00  0.00    -0.550 OA
ATOM      4  O   UNL     1      35.608  14.483 138.060  1.00  0.00    -0.550 OA
ENDBRANCH   1   2
BRANCH   1   5
ATOM      5  C   UNL     1      37.125  15.826 136.217  1.00  0.00     0.059 C 
BRANCH   5   6
ATOM      6  C   UNL     1      37.074  15.107 134.906  1.00  0.00     0.042 C 
ATOM      7  O   UNL     1      36.941  15.754 133.833  1.00  0.00    -0.550 OA
ATOM      8  O   UNL     1      37.123  13.719 134.871  1.00  0.00    -0.550 OA
ENDBRANCH   5   6
ENDBRANCH   1   5
TORSDOF 3
ENDMDL
MODEL 4
REMARK VINA RESULT:    -3.129      0.566      3.870
REMARK INTER + INTRA:          -3.785
REMARK INTER:                  -3.682
REMARK INTRA:                  -0.103
REMARK UNBOUND:                -0.107
REMARK SMILES O=C([O-])CCC(=O)[O-]
REMARK SMILES IDX 4 1 2 2 1 3 3 4 5 5 6 6 7 7 8 8
REMARK H PARENT
REMARK Flexibility Score: inf
ROOT
ATOM      1  C   UNL     1      36.542  16.067 136.626  1.00  0.00     0.059 C 
ENDROOT
BRANCH   1   2
ATOM      2  C   UNL     1      36.693  15.234 135.393  1.00  0.00     0.042 C 
ATOM      3  O   UNL     1      36.660  13.977 135.470  1.00  0.00    -0.550 OA
ATOM      4  O   UNL     1      36.922  15.843 134.165  1.00  0.00    -0.550 OA
ENDBRANCH   1   2
BRANCH   1   5
ATOM      5  C   UNL     1      35.092  16.530 136.784  1.00  0.00     0.059 C 
BRANCH   5   6
ATOM      6  C   UNL     1      34.415  15.768 137.879  1.00  0.00     0.042 C 
ATOM      7  O   UNL     1      34.934  14.712 138.330  1.00  0.00    -0.550 OA
ATOM      8  O   UNL     1      33.188  16.195 138.369  1.00  0.00    -0.550 OA
ENDBRANCH   5   6
ENDBRANCH   1   5
TORSDOF 3
ENDMDL
MODEL 5
REMARK VINA RESULT:    -3.018      2.310      4.411
REMARK INTER + INTRA:          -3.654
REMARK INTER:                  -3.614
REMARK INTRA:                  -0.040
REMARK UNBOUND:                -0.107
REMARK SMILES O=C([O-])CCC(=O)[O-]
REMARK SMILES IDX 4 1 2 2 1 3 3 4 5 5 6 6 7 7 8 8
REMARK H PARENT
REMARK Flexibility Score: inf
ROOT
ATOM      1  C   UNL     1      34.650  16.245 137.374  1.00  0.00     0.059 C 
ENDROOT
BRANCH   1   2
ATOM      2  C   UNL     1      35.828  15.373 137.672  1.00  0.00     0.042 C 
ATOM      3  O   UNL     1      36.997  15.794 137.463  1.00  0.00    -0.550 OA
ATOM      4  O   UNL     1      35.635  14.077 138.132  1.00  0.00    -0.550 OA
ENDBRANCH   1   2
BRANCH   1   5
ATOM      5  C   UNL     1      33.442  15.816 138.208  1.00  0.00     0.059 C 
BRANCH   5   6
ATOM      6  C   UNL     1      32.197  16.476 137.705  1.00  0.00     0.042 C 
ATOM      7  O   UNL     1      32.099  16.803 136.492  1.00  0.00    -0.550 OA
ATOM      8  O   UNL     1      31.164  16.777 138.584  1.00  0.00    -0.550 OA
ENDBRANCH   5   6
ENDBRANCH   1   5
TORSDOF 3
ENDMDL
MODEL 6
REMARK VINA RESULT:    -2.960      1.814      3.809
REMARK INTER + INTRA:          -3.586
REMARK INTER:                  -3.420
REMARK INTRA:                  -0.165
REMARK UNBOUND:                -0.107
REMARK SMILES O=C([O-])CCC(=O)[O-]
REMARK SMILES IDX 4 1 2 2 1 3 3 4 5 5 6 6 7 7 8 8
REMARK H PARENT
REMARK Flexibility Score: inf
ROOT
ATOM      1  C   UNL     1      35.216  14.321 138.136  1.00  0.00     0.059 C 
ENDROOT
BRANCH   1   2
ATOM      2  C   UNL     1      36.270  14.902 137.249  1.00  0.00     0.042 C 
ATOM      3  O   UNL     1      37.094  15.737 137.708  1.00  0.00    -0.550 OA
ATOM      4  O   UNL     1      36.312  14.562 135.903  1.00  0.00    -0.550 OA
ENDBRANCH   1   2
BRANCH   1   5
ATOM      5  C   UNL     1      33.854  14.349 137.438  1.00  0.00     0.059 C 
BRANCH   5   6
ATOM      6  C   UNL     1      33.292  15.735 137.444  1.00  0.00     0.042 C 
ATOM      7  O   UNL     1      32.832  16.228 138.508  1.00  0.00    -0.550 OA
ATOM      8  O   UNL     1      33.229  16.466 136.264  1.00  0.00    -0.550 OA
ENDBRANCH   5   6
ENDBRANCH   1   5
TORSDOF 3
ENDMDL
MODEL 7
REMARK VINA RESULT:    -2.906      2.015      2.983
REMARK INTER + INTRA:          -3.523
REMARK INTER:                  -3.461
REMARK INTRA:                  -0.062
REMARK UNBOUND:                -0.107
REMARK SMILES O=C([O-])CCC(=O)[O-]
REMARK SMILES IDX 4 1 2 2 1 3 3 4 5 5 6 6 7 7 8 8
REMARK H PARENT
REMARK Flexibility Score: inf
ROOT
ATOM      1  C   UNL     1      33.940  16.046 138.099  1.00  0.00     0.059 C 
ENDROOT
BRANCH   1   2
ATOM      2  C   UNL     1      32.503  15.822 137.751  1.00  0.00     0.042 C 
ATOM      3  O   UNL     1      32.171  14.844 137.031  1.00  0.00    -0.550 OA
ATOM      4  O   UNL     1      31.535  16.722 138.180  1.00  0.00    -0.550 OA
ENDBRANCH   1   2
BRANCH   1   5
ATOM      5  C   UNL     1      34.707  14.722 138.082  1.00  0.00     0.059 C 
BRANCH   5   6
ATOM      6  C   UNL     1      35.973  14.860 137.296  1.00  0.00     0.042 C 
ATOM      7  O   UNL     1      36.896  15.611 137.709  1.00  0.00    -0.550 OA
ATOM      8  O   UNL     1      36.114  14.198 136.083  1.00  0.00    -0.550 OA
ENDBRANCH   5   6
ENDBRANCH   1   5
TORSDOF 3
ENDMDL
MODEL 8
REMARK VINA RESULT:    -2.845      1.875      2.507
REMARK INTER + INTRA:          -3.450
REMARK INTER:                  -3.357
REMARK INTRA:                  -0.093
REMARK UNBOUND:                -0.107
REMARK SMILES O=C([O-])CCC(=O)[O-]
REMARK SMILES IDX 4 1 2 2 1 3 3 4 5 5 6 6 7 7 8 8
REMARK H PARENT
REMARK Flexibility Score: inf
ROOT
ATOM      1  C   UNL     1      34.507  15.005 138.146  1.00  0.00     0.059 C 
ENDROOT
BRANCH   1   2
ATOM      2  C   UNL     1      33.562  14.282 137.240  1.00  0.00     0.042 C 
ATOM      3  O   UNL     1      32.358  14.646 137.160  1.00  0.00    -0.550 OA
ATOM      4  O   UNL     1      33.996  13.175 136.521  1.00  0.00    -0.550 OA
ENDBRANCH   1   2
BRANCH   1   5
ATOM      5  C   UNL     1      35.909  15.044 137.535  1.00  0.00     0.059 C 
BRANCH   5   6
ATOM      6  C   UNL     1      36.012  16.150 136.531  1.00  0.00     0.042 C 
ATOM      7  O   UNL     1      36.922  16.133 135.661  1.00  0.00    -0.550 OA
ATOM      8  O   UNL     1      35.134  17.225 136.588  1.00  0.00    -0.550 OA
ENDBRANCH   5   6
ENDBRANCH   1   5
TORSDOF 3
ENDMDL
MODEL 9
REMARK VINA RESULT:    -2.799      1.820      2.400
REMARK INTER + INTRA:          -3.397
REMARK INTER:                  -3.308
REMARK INTRA:                  -0.088
REMARK UNBOUND:                -0.107
REMARK SMILES O=C([O-])CCC(=O)[O-]
REMARK SMILES IDX 4 1 2 2 1 3 3 4 5 5 6 6 7 7 8 8
REMARK H PARENT
REMARK Flexibility Score: inf
ROOT
ATOM      1  C   UNL     1      36.756  15.755 135.140  1.00  0.00     0.059 C 
ENDROOT
BRANCH   1   2
ATOM      2  C   UNL     1      36.282  16.157 136.500  1.00  0.00     0.042 C 
ATOM      3  O   UNL     1      36.787  15.633 137.528  1.00  0.00    -0.550 OA
ATOM      4  O   UNL     1      35.247  17.075 136.633  1.00  0.00    -0.550 OA
ENDBRANCH   1   2
BRANCH   1   5
ATOM      5  C   UNL     1      37.125  14.270 135.120  1.00  0.00     0.059 C 
BRANCH   5   6
ATOM      6  C   UNL     1      36.054  13.474 134.442  1.00  0.00     0.042 C 
ATOM      7  O   UNL     1      34.931  13.326 134.993  1.00  0.00    -0.550 OA
ATOM      8  O   UNL     1      36.312  12.854 133.226  1.00  0.00    -0.550 OA
ENDBRANCH   5   6
ENDBRANCH   1   5
TORSDOF 3
ENDMDL
