MODEL 1
REMARK VINA RESULT:    -4.748      0.000      0.000
REMARK INTER + INTRA:          -6.685
REMARK INTER:                  -6.413
REMARK INTRA:                  -0.271
REMARK UNBOUND:                -0.271
REMARK SMILES CCCCCCCC(=O)[O-]
REMARK SMILES IDX 5 1 6 2 7 3 8 4 9 5 10 6 4 7 3 8 2 9 1 10
REMARK H PARENT
REMARK Flexibility Score: inf
ROOT
ATOM      1  C   UNL     1      88.131 325.373 193.059  1.00  0.00     0.000 C 
ENDROOT
BRANCH   1   2
ATOM      2  C   UNL     1      87.999 326.592 193.985  1.00  0.00     0.006 C 
BRANCH   2   3
ATOM      3  C   UNL     1      88.652 326.356 195.352  1.00  0.00     0.053 C 
BRANCH   3   4
ATOM      4  C   UNL     1      87.637 326.033 196.406  1.00  0.00     0.041 C 
ATOM      5  O   UNL     1      87.965 325.356 197.415  1.00  0.00    -0.550 OA
ATOM      6  O   UNL     1      86.321 326.451 196.256  1.00  0.00    -0.550 OA
ENDBRANCH   3   4
ENDBRANCH   2   3
ENDBRANCH   1   2
BRANCH   1   7
ATOM      7  C   UNL     1      86.774 324.678 192.870  1.00  0.00     0.000 C 
BRANCH   7   8
ATOM      8  C   UNL     1      86.771 323.697 191.687  1.00  0.00    -0.000 C 
BRANCH   8   9
ATOM      9  C   UNL     1      88.050 323.784 190.841  1.00  0.00    -0.003 C 
ATOM     10  C   UNL     1      87.881 323.052 189.513  1.00  0.00     0.004 C 
ENDBRANCH   8   9
ENDBRANCH   7   8
ENDBRANCH   1   7
TORSDOF 6
ENDMDL
MODEL 2
REMARK VINA RESULT:    -4.695     20.384     21.382
REMARK INTER + INTRA:          -6.613
REMARK INTER:                  -6.088
REMARK INTRA:                  -0.525
REMARK UNBOUND:                -0.271
REMARK SMILES CCCCCCCC(=O)[O-]
REMARK SMILES IDX 5 1 6 2 7 3 8 4 9 5 10 6 4 7 3 8 2 9 1 10
REMARK H PARENT
REMARK Flexibility Score: inf
ROOT
ATOM      1  C   UNL     1     104.040 311.906 192.902  1.00  0.00     0.000 C 
ENDROOT
BRANCH   1   2
ATOM      2  C   UNL     1     104.133 312.952 191.781  1.00  0.00     0.006 C 
BRANCH   2   3
ATOM      3  C   UNL     1     103.881 314.375 192.292  1.00  0.00     0.053 C 
BRANCH   3   4
ATOM      4  C   UNL     1     105.156 315.151 192.432  1.00  0.00     0.041 C 
ATOM      5  O   UNL     1     105.770 315.167 193.531  1.00  0.00    -0.550 OA
ATOM      6  O   UNL     1     105.646 315.882 191.358  1.00  0.00    -0.550 OA
ENDBRANCH   3   4
ENDBRANCH   2   3
ENDBRANCH   1   2
BRANCH   1   7
ATOM      7  C   UNL     1     105.435 311.398 193.296  1.00  0.00     0.000 C 
BRANCH   7   8
ATOM      8  C   UNL     1     105.802 311.741 194.748  1.00  0.00    -0.000 C 
BRANCH   8   9
ATOM      9  C   UNL     1     104.667 312.460 195.492  1.00  0.00    -0.003 C 
ATOM     10  C   UNL     1     104.269 311.699 196.753  1.00  0.00     0.004 C 
ENDBRANCH   8   9
ENDBRANCH   7   8
ENDBRANCH   1   7
TORSDOF 6
ENDMDL
MODEL 3
REMARK VINA RESULT:    -4.673     20.458     21.501
REMARK INTER + INTRA:          -6.583
REMARK INTER:                  -6.273
REMARK INTRA:                  -0.310
REMARK UNBOUND:                -0.271
REMARK SMILES CCCCCCCC(=O)[O-]
REMARK SMILES IDX 5 1 6 2 7 3 8 4 9 5 10 6 4 7 3 8 2 9 1 10
REMARK H PARENT
REMARK Flexibility Score: inf
ROOT
ATOM      1  C   UNL     1     105.474 311.928 193.238  1.00  0.00     0.000 C 
ENDROOT
BRANCH   1   2
ATOM      2  C   UNL     1     105.655 313.025 192.178  1.00  0.00     0.006 C 
BRANCH   2   3
ATOM      3  C   UNL     1     104.324 313.447 191.545  1.00  0.00     0.053 C 
BRANCH   3   4
ATOM      4  C   UNL     1     104.530 314.302 190.331  1.00  0.00     0.041 C 
ATOM      5  O   UNL     1     103.608 314.432 189.484  1.00  0.00    -0.550 OA
ATOM      6  O   UNL     1     105.752 314.929 190.121  1.00  0.00    -0.550 OA
ENDBRANCH   3   4
ENDBRANCH   2   3
ENDBRANCH   1   2
BRANCH   1   7
ATOM      7  C   UNL     1     104.003 311.494 193.333  1.00  0.00     0.000 C 
BRANCH   7   8
ATOM      8  C   UNL     1     103.429 311.652 194.749  1.00  0.00    -0.000 C 
BRANCH   8   9
ATOM      9  C   UNL     1     104.492 312.069 195.777  1.00  0.00    -0.003 C 
ATOM     10  C   UNL     1     104.016 311.795 197.200  1.00  0.00     0.004 C 
ENDBRANCH   8   9
ENDBRANCH   7   8
ENDBRANCH   1   7
TORSDOF 6
ENDMDL
MODEL 4
REMARK VINA RESULT:    -4.671     20.075     21.045
REMARK INTER + INTRA:          -6.581
REMARK INTER:                  -6.280
REMARK INTRA:                  -0.301
REMARK UNBOUND:                -0.271
REMARK SMILES CCCCCCCC(=O)[O-]
REMARK SMILES IDX 5 1 6 2 7 3 8 4 9 5 10 6 4 7 3 8 2 9 1 10
REMARK H PARENT
REMARK Flexibility Score: inf
ROOT
ATOM      1  C   UNL     1     104.076 312.403 192.214  1.00  0.00     0.000 C 
ENDROOT
BRANCH   1   2
ATOM      2  C   UNL     1     104.071 311.347 193.331  1.00  0.00     0.006 C 
BRANCH   2   3
ATOM      3  C   UNL     1     103.654 311.935 194.684  1.00  0.00     0.053 C 
BRANCH   3   4
ATOM      4  C   UNL     1     104.732 311.784 195.714  1.00  0.00     0.041 C 
ATOM      5  O   UNL     1     105.931 311.639 195.358  1.00  0.00    -0.550 OA
ATOM      6  O   UNL     1     104.408 311.770 197.064  1.00  0.00    -0.550 OA
ENDBRANCH   3   4
ENDBRANCH   2   3
ENDBRANCH   1   2
BRANCH   1   7
ATOM      7  C   UNL     1     103.899 313.815 192.793  1.00  0.00     0.000 C 
BRANCH   7   8
ATOM      8  C   UNL     1     103.807 314.894 191.703  1.00  0.00    -0.000 C 
BRANCH   8   9
ATOM      9  C   UNL     1     104.469 314.465 190.386  1.00  0.00    -0.003 C 
ATOM     10  C   UNL     1     105.914 314.951 190.314  1.00  0.00     0.004 C 
ENDBRANCH   8   9
ENDBRANCH   7   8
ENDBRANCH   1   7
TORSDOF 6
ENDMDL
MODEL 5
REMARK VINA RESULT:    -4.669     20.403     21.182
REMARK INTER + INTRA:          -6.579
REMARK INTER:                  -6.211
REMARK INTRA:                  -0.368
REMARK UNBOUND:                -0.271
REMARK SMILES CCCCCCCC(=O)[O-]
REMARK SMILES IDX 5 1 6 2 7 3 8 4 9 5 10 6 4 7 3 8 2 9 1 10
REMARK H PARENT
REMARK Flexibility Score: inf
ROOT
ATOM      1  C   UNL     1     105.727 311.810 194.892  1.00  0.00     0.000 C 
ENDROOT
BRANCH   1   2
ATOM      2  C   UNL     1     104.427 312.353 195.504  1.00  0.00     0.006 C 
BRANCH   2   3
ATOM      3  C   UNL     1     103.910 311.470 196.646  1.00  0.00     0.053 C 
BRANCH   3   4
ATOM      4  C   UNL     1     103.808 312.228 197.935  1.00  0.00     0.041 C 
ATOM      5  O   UNL     1     104.105 313.451 197.975  1.00  0.00    -0.550 OA
ATOM      6  O   UNL     1     103.418 311.576 199.097  1.00  0.00    -0.550 OA
ENDBRANCH   3   4
ENDBRANCH   2   3
ENDBRANCH   1   2
BRANCH   1   7
ATOM      7  C   UNL     1     105.587 311.634 193.373  1.00  0.00     0.000 C 
BRANCH   7   8
ATOM      8  C   UNL     1     104.154 311.879 192.877  1.00  0.00    -0.000 C 
BRANCH   8   9
ATOM      9  C   UNL     1     104.076 312.980 191.809  1.00  0.00    -0.003 C 
ATOM     10  C   UNL     1     103.810 314.342 192.443  1.00  0.00     0.004 C 
ENDBRANCH   8   9
ENDBRANCH   7   8
ENDBRANCH   1   7
TORSDOF 6
ENDMDL
MODEL 6
REMARK VINA RESULT:    -4.667      2.447      4.750
REMARK INTER + INTRA:          -6.576
REMARK INTER:                  -6.052
REMARK INTRA:                  -0.523
REMARK UNBOUND:                -0.271
REMARK SMILES CCCCCCCC(=O)[O-]
REMARK SMILES IDX 5 1 6 2 7 3 8 4 9 5 10 6 4 7 3 8 2 9 1 10
REMARK H PARENT
REMARK Flexibility Score: inf
ROOT
ATOM      1  C   UNL     1      88.143 326.211 193.790  1.00  0.00     0.000 C 
ENDROOT
BRANCH   1   2
ATOM      2  C   UNL     1      87.840 325.117 192.754  1.00  0.00     0.006 C 
BRANCH   2   3
ATOM      3  C   UNL     1      88.197 323.717 193.267  1.00  0.00     0.053 C 
BRANCH   3   4
ATOM      4  C   UNL     1      86.974 322.900 193.555  1.00  0.00     0.041 C 
ATOM      5  O   UNL     1      86.523 322.826 194.729  1.00  0.00    -0.550 OA
ATOM      6  O   UNL     1      86.351 322.195 192.533  1.00  0.00    -0.550 OA
ENDBRANCH   3   4
ENDBRANCH   2   3
ENDBRANCH   1   2
BRANCH   1   7
ATOM      7  C   UNL     1      86.845 326.765 194.399  1.00  0.00     0.000 C 
BRANCH   7   8
ATOM      8  C   UNL     1      86.591 326.248 195.823  1.00  0.00    -0.000 C 
BRANCH   8   9
ATOM      9  C   UNL     1      87.845 325.632 196.462  1.00  0.00    -0.003 C 
ATOM     10  C   UNL     1      88.352 326.492 197.616  1.00  0.00     0.004 C 
ENDBRANCH   8   9
ENDBRANCH   7   8
ENDBRANCH   1   7
TORSDOF 6
ENDMDL
MODEL 7
REMARK VINA RESULT:    -4.664      1.433      1.933
REMARK INTER + INTRA:          -6.572
REMARK INTER:                  -6.270
REMARK INTRA:                  -0.302
REMARK UNBOUND:                -0.271
REMARK SMILES CCCCCCCC(=O)[O-]
REMARK SMILES IDX 5 1 6 2 7 3 8 4 9 5 10 6 4 7 3 8 2 9 1 10
REMARK H PARENT
REMARK Flexibility Score: inf
ROOT
ATOM      1  C   UNL     1      88.162 326.677 194.027  1.00  0.00     0.000 C 
ENDROOT
BRANCH   1   2
ATOM      2  C   UNL     1      88.801 326.460 195.407  1.00  0.00     0.006 C 
BRANCH   2   3
ATOM      3  C   UNL     1      87.777 326.018 196.459  1.00  0.00     0.053 C 
BRANCH   3   4
ATOM      4  C   UNL     1      88.439 325.537 197.714  1.00  0.00     0.041 C 
ATOM      5  O   UNL     1      88.519 324.303 197.955  1.00  0.00    -0.550 OA
ATOM      6  O   UNL     1      88.939 326.451 198.632  1.00  0.00    -0.550 OA
ENDBRANCH   3   4
ENDBRANCH   2   3
ENDBRANCH   1   2
BRANCH   1   7
ATOM      7  C   UNL     1      86.743 326.091 193.981  1.00  0.00     0.000 C 
BRANCH   7   8
ATOM      8  C   UNL     1      86.646 324.841 193.093  1.00  0.00    -0.000 C 
BRANCH   8   9
ATOM      9  C   UNL     1      88.012 324.393 192.550  1.00  0.00    -0.003 C 
ATOM     10  C   UNL     1      87.902 323.931 191.101  1.00  0.00     0.004 C 
ENDBRANCH   8   9
ENDBRANCH   7   8
ENDBRANCH   1   7
TORSDOF 6
ENDMDL
MODEL 8
REMARK VINA RESULT:    -4.636      3.749      5.855
REMARK INTER + INTRA:          -6.533
REMARK INTER:                  -6.347
REMARK INTRA:                  -0.186
REMARK UNBOUND:                -0.271
REMARK SMILES CCCCCCCC(=O)[O-]
REMARK SMILES IDX 5 1 6 2 7 3 8 4 9 5 10 6 4 7 3 8 2 9 1 10
REMARK H PARENT
REMARK Flexibility Score: inf
ROOT
ATOM      1  C   UNL     1      87.937 324.781 193.287  1.00  0.00     0.000 C 
ENDROOT
BRANCH   1   2
ATOM      2  C   UNL     1      88.071 324.678 191.760  1.00  0.00     0.006 C 
BRANCH   2   3
ATOM      3  C   UNL     1      87.669 323.295 191.234  1.00  0.00     0.053 C 
BRANCH   3   4
ATOM      4  C   UNL     1      87.933 323.159 189.765  1.00  0.00     0.041 C 
ATOM      5  O   UNL     1      88.924 323.735 189.244  1.00  0.00    -0.550 OA
ATOM      6  O   UNL     1      87.067 322.423 188.967  1.00  0.00    -0.550 OA
ENDBRANCH   3   4
ENDBRANCH   2   3
ENDBRANCH   1   2
BRANCH   1   7
ATOM      7  C   UNL     1      88.130 326.231 193.759  1.00  0.00     0.000 C 
BRANCH   7   8
ATOM      8  C   UNL     1      86.833 326.857 194.293  1.00  0.00    -0.000 C 
BRANCH   8   9
ATOM      9  C   UNL     1      86.335 326.182 195.580  1.00  0.00    -0.003 C 
ATOM     10  C   UNL     1      87.422 326.171 196.651  1.00  0.00     0.004 C 
ENDBRANCH   8   9
ENDBRANCH   7   8
ENDBRANCH   1   7
TORSDOF 6
ENDMDL
MODEL 9
REMARK VINA RESULT:    -4.612      3.004      5.445
REMARK INTER + INTRA:          -6.501
REMARK INTER:                  -6.178
REMARK INTRA:                  -0.323
REMARK UNBOUND:                -0.271
REMARK SMILES CCCCCCCC(=O)[O-]
REMARK SMILES IDX 5 1 6 2 7 3 8 4 9 5 10 6 4 7 3 8 2 9 1 10
REMARK H PARENT
REMARK Flexibility Score: inf
ROOT
ATOM      1  C   UNL     1      86.632 326.238 194.139  1.00  0.00     0.000 C 
ENDROOT
BRANCH   1   2
ATOM      2  C   UNL     1      86.298 324.972 193.336  1.00  0.00     0.006 C 
BRANCH   2   3
ATOM      3  C   UNL     1      87.506 324.444 192.554  1.00  0.00     0.053 C 
BRANCH   3   4
ATOM      4  C   UNL     1      87.090 323.657 191.348  1.00  0.00     0.041 C 
ATOM      5  O   UNL     1      85.949 323.126 191.302  1.00  0.00    -0.550 OA
ATOM      6  O   UNL     1      87.973 323.484 190.291  1.00  0.00    -0.550 OA
ENDBRANCH   3   4
ENDBRANCH   2   3
ENDBRANCH   1   2
BRANCH   1   7
ATOM      7  C   UNL     1      88.121 326.595 194.007  1.00  0.00     0.000 C 
BRANCH   7   8
ATOM      8  C   UNL     1      88.875 326.496 195.342  1.00  0.00    -0.000 C 
BRANCH   8   9
ATOM      9  C   UNL     1      88.030 325.855 196.453  1.00  0.00    -0.003 C 
ATOM     10  C   UNL     1      88.465 326.351 197.829  1.00  0.00     0.004 C 
ENDBRANCH   8   9
ENDBRANCH   7   8
ENDBRANCH   1   7
TORSDOF 6
ENDMDL
