MODEL 1
REMARK VINA RESULT:    -5.569      0.000      0.000
REMARK INTER + INTRA:          -7.996
REMARK INTER:                  -7.522
REMARK INTRA:                  -0.474
REMARK UNBOUND:                -0.474
REMARK SMILES O=c1c(-c2ccc(O)cc2)coc2c([C@H]3O[C@H](CO)[C@H](O)[C@@H](O)[C@@H]3O)c(O)ccc12
REMARK SMILES IDX 3 1 11 2 12 3 13 4 30 5 2 6 1 7 29 8 28 9 26 10 14 11 4 12
REMARK SMILES IDX 5 13 6 14 7 15 10 16 9 17 8 18 15 20 24 21 16 22 22 23 17 24
REMARK SMILES IDX 20 25 25 26 23 28 18 30 19 31 21 33 27 35
REMARK H PARENT 8 19 25 27 23 29 19 32 21 34 27 36
REMARK Flexibility Score: inf
ROOT
ATOM      1  C   UNL     1     -22.528  19.907 -13.613  1.00  0.00     0.065 A 
ATOM      2  C   UNL     1     -21.981  18.625 -13.646  1.00  0.00     0.208 A 
ATOM      3  O   UNL     1     -21.807  17.929 -12.534  1.00  0.00    -0.463 OA
ATOM      4  C   UNL     1     -22.108  18.390 -11.321  1.00  0.00     0.147 A 
ATOM      5  C   UNL     1     -22.719  19.665 -11.210  1.00  0.00     0.066 A 
ATOM      6  C   UNL     1     -22.955  20.410 -12.383  1.00  0.00     0.200 A 
ATOM      7  O   UNL     1     -23.545  21.521 -12.335  1.00  0.00    -0.288 OA
ATOM      8  C   UNL     1     -23.093  20.132  -9.948  1.00  0.00     0.020 A 
ATOM      9  C   UNL     1     -22.853  19.372  -8.817  1.00  0.00     0.047 A 
ATOM     10  C   UNL     1     -22.233  18.115  -8.889  1.00  0.00     0.125 A 
ATOM     11  C   UNL     1     -21.809  17.598 -10.165  1.00  0.00     0.069 A 
ENDROOT
BRANCH   1  12
ATOM     12  C   UNL     1     -22.699  20.657 -14.870  1.00  0.00    -0.011 A 
ATOM     13  C   UNL     1     -21.638  21.406 -15.390  1.00  0.00     0.013 A 
ATOM     14  C   UNL     1     -21.836  22.218 -16.509  1.00  0.00     0.047 A 
ATOM     15  C   UNL     1     -23.110  22.304 -17.097  1.00  0.00     0.115 A 
ATOM     16  C   UNL     1     -23.947  20.673 -15.517  1.00  0.00     0.013 A 
ATOM     17  C   UNL     1     -24.141  21.487 -16.634  1.00  0.00     0.047 A 
BRANCH  15  18
ATOM     18  O   UNL     1     -23.325  23.201 -18.137  1.00  0.00    -0.508 OA
ATOM     19  H   UNL     1     -24.257  23.445 -18.445  1.00  0.00     0.293 HD
ENDBRANCH  15  18
ENDBRANCH   1  12
BRANCH  11  20
ATOM     20  C   UNL     1     -21.140  16.214 -10.460  1.00  0.00     0.188 C 
ATOM     21  C   UNL     1     -20.749  15.168  -9.371  1.00  0.00     0.179 C 
ATOM     22  O   UNL     1     -19.979  16.393 -11.257  1.00  0.00    -0.362 OA
ATOM     23  C   UNL     1     -19.383  15.518  -8.704  1.00  0.00     0.177 C 
ATOM     24  C   UNL     1     -18.985  17.182 -10.608  1.00  0.00     0.176 C 
ATOM     25  C   UNL     1     -18.907  16.945  -9.064  1.00  0.00     0.177 C 
BRANCH  21  26
ATOM     26  O   UNL     1     -20.641  13.881  -9.938  1.00  0.00    -0.387 OA
ATOM     27  H   UNL     1     -20.304  13.948 -10.877  1.00  0.00     0.211 HD
ENDBRANCH  21  26
BRANCH  23  28
ATOM     28  O   UNL     1     -19.477  15.309  -7.301  1.00  0.00    -0.387 OA
ATOM     29  H   UNL     1     -18.973  14.497  -7.043  1.00  0.00     0.211 HD
ENDBRANCH  23  28
BRANCH  24  30
ATOM     30  C   UNL     1     -17.656  16.876 -11.336  1.00  0.00     0.191 C 
BRANCH  30  31
ATOM     31  O   UNL     1     -16.899  18.060 -11.390  1.00  0.00    -0.394 OA
ATOM     32  H   UNL     1     -16.343  18.092 -10.556  1.00  0.00     0.210 HD
ENDBRANCH  30  31
ENDBRANCH  24  30
BRANCH  25  33
ATOM     33  O   UNL     1     -17.602  17.146  -8.574  1.00  0.00    -0.388 OA
ATOM     34  H   UNL     1     -17.101  16.340  -8.860  1.00  0.00     0.211 HD
ENDBRANCH  25  33
ENDBRANCH  11  20
BRANCH  10  35
ATOM     35  O   UNL     1     -22.123  17.473  -7.657  1.00  0.00    -0.507 OA
ATOM     36  H   UNL     1     -22.887  17.143  -7.104  1.00  0.00     0.293 HD
ENDBRANCH  10  35
TORSDOF 9
ENDMDL
MODEL 2
REMARK VINA RESULT:    -5.548     13.355     17.441
REMARK INTER + INTRA:          -7.968
REMARK INTER:                  -7.554
REMARK INTRA:                  -0.413
REMARK UNBOUND:                -0.474
REMARK SMILES O=c1c(-c2ccc(O)cc2)coc2c([C@H]3O[C@H](CO)[C@H](O)[C@@H](O)[C@@H]3O)c(O)ccc12
REMARK SMILES IDX 3 1 11 2 12 3 13 4 30 5 2 6 1 7 29 8 28 9 26 10 14 11 4 12
REMARK SMILES IDX 5 13 6 14 7 15 10 16 9 17 8 18 15 20 24 21 16 22 22 23 17 24
REMARK SMILES IDX 20 25 25 26 23 28 18 30 19 31 21 33 27 35
REMARK H PARENT 8 19 25 27 23 29 19 32 21 34 27 36
REMARK Flexibility Score: inf
ROOT
ATOM      1  C   UNL     1      -9.243  12.744 -16.537  1.00  0.00     0.065 A 
ATOM      2  C   UNL     1      -9.960  12.949 -17.716  1.00  0.00     0.208 A 
ATOM      3  O   UNL     1      -9.658  12.287 -18.821  1.00  0.00    -0.463 OA
ATOM      4  C   UNL     1      -8.657  11.412 -18.907  1.00  0.00     0.147 A 
ATOM      5  C   UNL     1      -7.917  11.109 -17.736  1.00  0.00     0.066 A 
ATOM      6  C   UNL     1      -8.245  11.768 -16.534  1.00  0.00     0.200 A 
ATOM      7  O   UNL     1      -7.650  11.490 -15.460  1.00  0.00    -0.288 OA
ATOM      8  C   UNL     1      -6.904  10.149 -17.800  1.00  0.00     0.020 A 
ATOM      9  C   UNL     1      -6.612   9.514 -18.995  1.00  0.00     0.047 A 
ATOM     10  C   UNL     1      -7.312   9.803 -20.176  1.00  0.00     0.125 A 
ATOM     11  C   UNL     1      -8.350  10.802 -20.167  1.00  0.00     0.069 A 
ENDROOT
BRANCH   1  12
ATOM     12  C   UNL     1      -9.601  13.506 -15.328  1.00  0.00    -0.011 A 
ATOM     13  C   UNL     1      -8.907  14.677 -15.005  1.00  0.00     0.013 A 
ATOM     14  C   UNL     1      -9.157  15.329 -13.795  1.00  0.00     0.047 A 
ATOM     15  C   UNL     1     -10.088  14.792 -12.889  1.00  0.00     0.115 A 
ATOM     16  C   UNL     1     -10.598  13.024 -14.461  1.00  0.00     0.013 A 
ATOM     17  C   UNL     1     -10.844  13.678 -13.253  1.00  0.00     0.047 A 
BRANCH  15  18
ATOM     18  O   UNL     1     -10.247  15.383 -11.640  1.00  0.00    -0.508 OA
ATOM     19  H   UNL     1     -10.055  16.364 -11.488  1.00  0.00     0.293 HD
ENDBRANCH  15  18
ENDBRANCH   1  12
BRANCH  11  20
ATOM     20  C   UNL     1      -9.265  11.240 -21.358  1.00  0.00     0.188 C 
ATOM     21  C   UNL     1      -9.270  10.568 -22.767  1.00  0.00     0.179 C 
ATOM     22  O   UNL     1      -9.125  12.632 -21.596  1.00  0.00    -0.362 OA
ATOM     23  C   UNL     1      -8.107  11.101 -23.659  1.00  0.00     0.177 C 
ATOM     24  C   UNL     1      -7.797  12.994 -21.964  1.00  0.00     0.176 C 
ATOM     25  C   UNL     1      -7.078  11.922 -22.846  1.00  0.00     0.177 C 
BRANCH  21  26
ATOM     26  O   UNL     1     -10.485  10.827 -23.434  1.00  0.00    -0.387 OA
ATOM     27  H   UNL     1     -10.322  11.405 -24.233  1.00  0.00     0.211 HD
ENDBRANCH  21  26
BRANCH  23  28
ATOM     28  O   UNL     1      -7.512  10.014 -24.357  1.00  0.00    -0.387 OA
ATOM     29  H   UNL     1      -6.559   9.929 -24.107  1.00  0.00     0.211 HD
ENDBRANCH  23  28
BRANCH  24  30
ATOM     30  C   UNL     1      -7.906  14.374 -22.655  1.00  0.00     0.191 C 
BRANCH  30  31
ATOM     31  O   UNL     1      -9.144  14.944 -22.309  1.00  0.00    -0.394 OA
ATOM     32  H   UNL     1      -9.809  14.642 -22.996  1.00  0.00     0.210 HD
ENDBRANCH  30  31
ENDBRANCH  24  30
BRANCH  25  33
ATOM     33  O   UNL     1      -6.146  12.512 -23.722  1.00  0.00    -0.388 OA
ATOM     34  H   UNL     1      -6.496  12.316 -24.629  1.00  0.00     0.211 HD
ENDBRANCH  25  33
ENDBRANCH  11  20
BRANCH  10  35
ATOM     35  O   UNL     1      -6.916   9.030 -21.266  1.00  0.00    -0.507 OA
ATOM     36  H   UNL     1      -7.525   8.487 -21.843  1.00  0.00     0.293 HD
ENDBRANCH  10  35
TORSDOF 9
ENDMDL
MODEL 3
REMARK VINA RESULT:    -5.533      4.197      8.414
REMARK INTER + INTRA:          -7.948
REMARK INTER:                  -7.534
REMARK INTRA:                  -0.414
REMARK UNBOUND:                -0.474
REMARK SMILES O=c1c(-c2ccc(O)cc2)coc2c([C@H]3O[C@H](CO)[C@H](O)[C@@H](O)[C@@H]3O)c(O)ccc12
REMARK SMILES IDX 3 1 11 2 12 3 13 4 30 5 2 6 1 7 29 8 28 9 26 10 14 11 4 12
REMARK SMILES IDX 5 13 6 14 7 15 10 16 9 17 8 18 15 20 24 21 16 22 22 23 17 24
REMARK SMILES IDX 20 25 25 26 23 28 18 30 19 31 21 33 27 35
REMARK H PARENT 8 19 25 27 23 29 19 32 21 34 27 36
REMARK Flexibility Score: inf
ROOT
ATOM      1  C   UNL     1     -15.117  15.611 -10.636  1.00  0.00     0.065 A 
ATOM      2  C   UNL     1     -16.307  15.228 -11.255  1.00  0.00     0.208 A 
ATOM      3  O   UNL     1     -17.451  15.826 -10.962  1.00  0.00    -0.463 OA
ATOM      4  C   UNL     1     -17.564  16.799 -10.059  1.00  0.00     0.147 A 
ATOM      5  C   UNL     1     -16.390  17.281  -9.428  1.00  0.00     0.066 A 
ATOM      6  C   UNL     1     -15.152  16.691  -9.752  1.00  0.00     0.200 A 
ATOM      7  O   UNL     1     -14.079  17.124  -9.257  1.00  0.00    -0.288 OA
ATOM      8  C   UNL     1     -16.490  18.341  -8.524  1.00  0.00     0.020 A 
ATOM      9  C   UNL     1     -17.721  18.903  -8.232  1.00  0.00     0.047 A 
ATOM     10  C   UNL     1     -18.905  18.438  -8.826  1.00  0.00     0.125 A 
ATOM     11  C   UNL     1     -18.857  17.332  -9.747  1.00  0.00     0.069 A 
ENDROOT
BRANCH   1  12
ATOM     12  C   UNL     1     -13.863  14.917 -10.980  1.00  0.00    -0.011 A 
ATOM     13  C   UNL     1     -13.428  13.833 -10.211  1.00  0.00     0.013 A 
ATOM     14  C   UNL     1     -12.179  13.257 -10.456  1.00  0.00     0.047 A 
ATOM     15  C   UNL     1     -11.348  13.786 -11.459  1.00  0.00     0.115 A 
ATOM     16  C   UNL     1     -13.069  15.383 -12.043  1.00  0.00     0.013 A 
ATOM     17  C   UNL     1     -11.821  14.806 -12.283  1.00  0.00     0.047 A 
BRANCH  15  18
ATOM     18  O   UNL     1     -10.062  13.280 -11.618  1.00  0.00    -0.508 OA
ATOM     19  H   UNL     1      -9.877  12.468 -12.191  1.00  0.00     0.293 HD
ENDBRANCH  15  18
ENDBRANCH   1  12
BRANCH  11  20
ATOM     20  C   UNL     1     -20.049  16.694 -10.536  1.00  0.00     0.188 C 
ATOM     21  C   UNL     1     -21.512  17.238 -10.526  1.00  0.00     0.179 C 
ATOM     22  O   UNL     1     -20.150  15.311 -10.235  1.00  0.00    -0.362 OA
ATOM     23  C   UNL     1     -22.290  16.763  -9.261  1.00  0.00     0.177 C 
ATOM     24  C   UNL     1     -20.415  15.069  -8.856  1.00  0.00     0.176 C 
ATOM     25  C   UNL     1     -21.354  16.134  -8.202  1.00  0.00     0.177 C 
BRANCH  21  26
ATOM     26  O   UNL     1     -22.213  16.790 -11.665  1.00  0.00    -0.387 OA
ATOM     27  H   UNL     1     -21.962  15.844 -11.871  1.00  0.00     0.211 HD
ENDBRANCH  21  26
BRANCH  23  28
ATOM     28  O   UNL     1     -23.054  17.846  -8.745  1.00  0.00    -0.387 OA
ATOM     29  H   UNL     1     -23.290  18.474  -9.472  1.00  0.00     0.211 HD
ENDBRANCH  23  28
BRANCH  24  30
ATOM     30  C   UNL     1     -20.981  13.632  -8.776  1.00  0.00     0.191 C 
BRANCH  30  31
ATOM     31  O   UNL     1     -20.606  12.944  -9.943  1.00  0.00    -0.394 OA
ATOM     32  H   UNL     1     -20.624  13.607 -10.695  1.00  0.00     0.210 HD
ENDBRANCH  30  31
ENDBRANCH  24  30
BRANCH  25  33
ATOM     33  O   UNL     1     -22.124  15.579  -7.161  1.00  0.00    -0.388 OA
ATOM     34  H   UNL     1     -21.513  15.561  -6.381  1.00  0.00     0.211 HD
ENDBRANCH  25  33
ENDBRANCH  11  20
BRANCH  10  35
ATOM     35  O   UNL     1     -20.039  19.157  -8.452  1.00  0.00    -0.507 OA
ATOM     36  H   UNL     1     -20.933  19.099  -8.893  1.00  0.00     0.293 HD
ENDBRANCH  10  35
TORSDOF 9
ENDMDL
MODEL 4
REMARK VINA RESULT:    -5.501      2.678      6.956
REMARK INTER + INTRA:          -7.905
REMARK INTER:                  -7.567
REMARK INTRA:                  -0.338
REMARK UNBOUND:                -0.474
REMARK SMILES O=c1c(-c2ccc(O)cc2)coc2c([C@H]3O[C@H](CO)[C@H](O)[C@@H](O)[C@@H]3O)c(O)ccc12
REMARK SMILES IDX 3 1 11 2 12 3 13 4 30 5 2 6 1 7 29 8 28 9 26 10 14 11 4 12
REMARK SMILES IDX 5 13 6 14 7 15 10 16 9 17 8 18 15 20 24 21 16 22 22 23 17 24
REMARK SMILES IDX 20 25 25 26 23 28 18 30 19 31 21 33 27 35
REMARK H PARENT 8 19 25 27 23 29 19 32 21 34 27 36
REMARK Flexibility Score: inf
ROOT
ATOM      1  C   UNL     1     -18.764  16.797 -10.751  1.00  0.00     0.065 A 
ATOM      2  C   UNL     1     -19.865  16.912 -11.600  1.00  0.00     0.208 A 
ATOM      3  O   UNL     1     -21.052  17.261 -11.132  1.00  0.00    -0.463 OA
ATOM      4  C   UNL     1     -21.297  17.501  -9.845  1.00  0.00     0.147 A 
ATOM      5  C   UNL     1     -20.216  17.458  -8.928  1.00  0.00     0.066 A 
ATOM      6  C   UNL     1     -18.931  17.130  -9.406  1.00  0.00     0.200 A 
ATOM      7  O   UNL     1     -17.934  17.134  -8.637  1.00  0.00    -0.288 OA
ATOM      8  C   UNL     1     -20.449  17.766  -7.586  1.00  0.00     0.020 A 
ATOM      9  C   UNL     1     -21.722  18.091  -7.150  1.00  0.00     0.047 A 
ATOM     10  C   UNL     1     -22.818  18.125  -8.027  1.00  0.00     0.125 A 
ATOM     11  C   UNL     1     -22.633  17.793  -9.417  1.00  0.00     0.069 A 
ENDROOT
BRANCH   1  12
ATOM     12  C   UNL     1     -17.458  16.397 -11.306  1.00  0.00    -0.011 A 
ATOM     13  C   UNL     1     -17.124  15.042 -11.406  1.00  0.00     0.013 A 
ATOM     14  C   UNL     1     -15.841  14.665 -11.809  1.00  0.00     0.047 A 
ATOM     15  C   UNL     1     -14.876  15.649 -12.088  1.00  0.00     0.115 A 
ATOM     16  C   UNL     1     -16.520  17.377 -11.675  1.00  0.00     0.013 A 
ATOM     17  C   UNL     1     -15.238  16.996 -12.076  1.00  0.00     0.047 A 
BRANCH  15  18
ATOM     18  O   UNL     1     -13.571  15.266 -12.377  1.00  0.00    -0.508 OA
ATOM     19  H   UNL     1     -12.898  15.916 -12.759  1.00  0.00     0.293 HD
ENDBRANCH  15  18
ENDBRANCH   1  12
BRANCH  11  20
ATOM     20  C   UNL     1     -23.708  17.807 -10.554  1.00  0.00     0.188 C 
ATOM     21  C   UNL     1     -23.385  17.813 -12.081  1.00  0.00     0.179 C 
ATOM     22  O   UNL     1     -24.621  18.875 -10.349  1.00  0.00    -0.362 OA
ATOM     23  C   UNL     1     -23.045  19.248 -12.588  1.00  0.00     0.177 C 
ATOM     24  C   UNL     1     -23.988  20.151 -10.387  1.00  0.00     0.176 C 
ATOM     25  C   UNL     1     -22.821  20.241 -11.424  1.00  0.00     0.177 C 
BRANCH  21  26
ATOM     26  O   UNL     1     -24.487  17.338 -12.820  1.00  0.00    -0.387 OA
ATOM     27  H   UNL     1     -24.441  16.342 -12.903  1.00  0.00     0.211 HD
ENDBRANCH  21  26
BRANCH  23  28
ATOM     28  O   UNL     1     -21.934  19.182 -13.474  1.00  0.00    -0.387 OA
ATOM     29  H   UNL     1     -21.747  20.077 -13.853  1.00  0.00     0.211 HD
ENDBRANCH  23  28
BRANCH  24  30
ATOM     30  C   UNL     1     -25.114  21.178 -10.653  1.00  0.00     0.191 C 
BRANCH  30  31
ATOM     31  O   UNL     1     -24.747  22.399 -10.063  1.00  0.00    -0.394 OA
ATOM     32  H   UNL     1     -24.022  22.795 -10.632  1.00  0.00     0.210 HD
ENDBRANCH  30  31
ENDBRANCH  24  30
BRANCH  25  33
ATOM     33  O   UNL     1     -22.681  21.546 -11.935  1.00  0.00    -0.388 OA
ATOM     34  H   UNL     1     -21.918  21.931 -11.432  1.00  0.00     0.211 HD
ENDBRANCH  25  33
ENDBRANCH  11  20
BRANCH  10  35
ATOM     35  O   UNL     1     -24.008  18.523  -7.422  1.00  0.00    -0.507 OA
ATOM     36  H   UNL     1     -24.213  18.456  -6.446  1.00  0.00     0.293 HD
ENDBRANCH  10  35
TORSDOF 9
ENDMDL
MODEL 5
REMARK VINA RESULT:    -5.467     13.507     16.190
REMARK INTER + INTRA:          -7.859
REMARK INTER:                  -7.502
REMARK INTRA:                  -0.357
REMARK UNBOUND:                -0.474
REMARK SMILES O=c1c(-c2ccc(O)cc2)coc2c([C@H]3O[C@H](CO)[C@H](O)[C@@H](O)[C@@H]3O)c(O)ccc12
REMARK SMILES IDX 3 1 11 2 12 3 13 4 30 5 2 6 1 7 29 8 28 9 26 10 14 11 4 12
REMARK SMILES IDX 5 13 6 14 7 15 10 16 9 17 8 18 15 20 24 21 16 22 22 23 17 24
REMARK SMILES IDX 20 25 25 26 23 28 18 30 19 31 21 33 27 35
REMARK H PARENT 8 19 25 27 23 29 19 32 21 34 27 36
REMARK Flexibility Score: inf
ROOT
ATOM      1  C   UNL     1      -7.340  13.518 -20.623  1.00  0.00     0.065 A 
ATOM      2  C   UNL     1      -6.542  13.627 -19.484  1.00  0.00     0.208 A 
ATOM      3  O   UNL     1      -6.973  13.204 -18.307  1.00  0.00    -0.463 OA
ATOM      4  C   UNL     1      -8.179  12.676 -18.110  1.00  0.00     0.147 A 
ATOM      5  C   UNL     1      -9.028  12.481 -19.229  1.00  0.00     0.066 A 
ATOM      6  C   UNL     1      -8.578  12.884 -20.502  1.00  0.00     0.200 A 
ATOM      7  O   UNL     1      -9.276  12.680 -21.530  1.00  0.00    -0.288 OA
ATOM      8  C   UNL     1     -10.272  11.873 -19.042  1.00  0.00     0.020 A 
ATOM      9  C   UNL     1     -10.681  11.482 -17.779  1.00  0.00     0.047 A 
ATOM     10  C   UNL     1      -9.874  11.677 -16.647  1.00  0.00     0.125 A 
ATOM     11  C   UNL     1      -8.592  12.320 -16.784  1.00  0.00     0.069 A 
ENDROOT
BRANCH   1  12
ATOM     12  C   UNL     1      -6.832  14.009 -21.916  1.00  0.00    -0.011 A 
ATOM     13  C   UNL     1      -6.972  15.358 -22.259  1.00  0.00     0.013 A 
ATOM     14  C   UNL     1      -6.608  15.798 -23.533  1.00  0.00     0.047 A 
ATOM     15  C   UNL     1      -6.126  14.879 -24.482  1.00  0.00     0.115 A 
ATOM     16  C   UNL     1      -6.262  13.110 -22.836  1.00  0.00     0.013 A 
ATOM     17  C   UNL     1      -5.902  13.554 -24.109  1.00  0.00     0.047 A 
BRANCH  15  18
ATOM     18  O   UNL     1      -5.875  15.305 -25.782  1.00  0.00    -0.508 OA
ATOM     19  H   UNL     1      -6.110  16.239 -26.089  1.00  0.00     0.293 HD
ENDBRANCH  15  18
ENDBRANCH   1  12
BRANCH  11  20
ATOM     20  C   UNL     1      -7.536  12.594 -15.662  1.00  0.00     0.188 C 
ATOM     21  C   UNL     1      -7.677  12.129 -14.179  1.00  0.00     0.179 C 
ATOM     22  O   UNL     1      -7.232  13.979 -15.605  1.00  0.00    -0.362 OA
ATOM     23  C   UNL     1      -8.581  13.100 -13.359  1.00  0.00     0.177 C 
ATOM     24  C   UNL     1      -8.368  14.776 -15.281  1.00  0.00     0.176 C 
ATOM     25  C   UNL     1      -9.343  14.095 -14.266  1.00  0.00     0.177 C 
BRANCH  21  26
ATOM     26  O   UNL     1      -6.413  12.077 -13.555  1.00  0.00    -0.387 OA
ATOM     27  H   UNL     1      -6.277  12.889 -12.988  1.00  0.00     0.211 HD
ENDBRANCH  21  26
BRANCH  23  28
ATOM     28  O   UNL     1      -9.449  12.343 -12.524  1.00  0.00    -0.387 OA
ATOM     29  H   UNL     1      -8.925  11.847 -11.847  1.00  0.00     0.211 HD
ENDBRANCH  23  28
BRANCH  24  30
ATOM     30  C   UNL     1      -7.811  16.127 -14.774  1.00  0.00     0.191 C 
BRANCH  30  31
ATOM     31  O   UNL     1      -7.451  16.903 -15.888  1.00  0.00    -0.394 OA
ATOM     32  H   UNL     1      -8.266  16.980 -16.469  1.00  0.00     0.210 HD
ENDBRANCH  30  31
ENDBRANCH  24  30
BRANCH  25  33
ATOM     33  O   UNL     1     -10.010  15.046 -13.469  1.00  0.00    -0.388 OA
ATOM     34  H   UNL     1      -9.537  15.898 -13.649  1.00  0.00     0.211 HD
ENDBRANCH  25  33
ENDBRANCH  11  20
BRANCH  10  35
ATOM     35  O   UNL     1     -10.427  11.174 -15.471  1.00  0.00    -0.507 OA
ATOM     36  H   UNL     1     -10.382  11.613 -14.575  1.00  0.00     0.293 HD
ENDBRANCH  10  35
TORSDOF 9
ENDMDL
MODEL 6
REMARK VINA RESULT:    -5.302      5.654      8.886
REMARK INTER + INTRA:          -7.635
REMARK INTER:                  -7.505
REMARK INTRA:                  -0.130
REMARK UNBOUND:                -0.474
REMARK SMILES O=c1c(-c2ccc(O)cc2)coc2c([C@H]3O[C@H](CO)[C@H](O)[C@@H](O)[C@@H]3O)c(O)ccc12
REMARK SMILES IDX 3 1 11 2 12 3 13 4 30 5 2 6 1 7 29 8 28 9 26 10 14 11 4 12
REMARK SMILES IDX 5 13 6 14 7 15 10 16 9 17 8 18 15 20 24 21 16 22 22 23 17 24
REMARK SMILES IDX 20 25 25 26 23 28 18 30 19 31 21 33 27 35
REMARK H PARENT 8 19 25 27 23 29 19 32 21 34 27 36
REMARK Flexibility Score: inf
ROOT
ATOM      1  C   UNL     1     -18.984  14.743  -8.631  1.00  0.00     0.065 A 
ATOM      2  C   UNL     1     -17.826  14.808  -7.857  1.00  0.00     0.208 A 
ATOM      3  O   UNL     1     -16.701  15.300  -8.352  1.00  0.00    -0.463 OA
ATOM      4  C   UNL     1     -16.576  15.740  -9.603  1.00  0.00     0.147 A 
ATOM      5  C   UNL     1     -17.724  15.758 -10.435  1.00  0.00     0.066 A 
ATOM      6  C   UNL     1     -18.946  15.279  -9.920  1.00  0.00     0.200 A 
ATOM      7  O   UNL     1     -20.001  15.327 -10.605  1.00  0.00    -0.288 OA
ATOM      8  C   UNL     1     -17.619  16.273 -11.729  1.00  0.00     0.020 A 
ATOM      9  C   UNL     1     -16.405  16.742 -12.202  1.00  0.00     0.047 A 
ATOM     10  C   UNL     1     -15.245  16.721 -11.411  1.00  0.00     0.125 A 
ATOM     11  C   UNL     1     -15.298  16.179 -10.078  1.00  0.00     0.069 A 
ENDROOT
BRANCH   1  12
ATOM     12  C   UNL     1     -20.216  14.181  -8.050  1.00  0.00    -0.011 A 
ATOM     13  C   UNL     1     -20.264  12.833  -7.677  1.00  0.00     0.013 A 
ATOM     14  C   UNL     1     -21.466  12.268  -7.248  1.00  0.00     0.047 A 
ATOM     15  C   UNL     1     -22.636  13.047  -7.216  1.00  0.00     0.115 A 
ATOM     16  C   UNL     1     -21.366  14.980  -7.928  1.00  0.00     0.013 A 
ATOM     17  C   UNL     1     -22.566  14.411  -7.500  1.00  0.00     0.047 A 
BRANCH  15  18
ATOM     18  O   UNL     1     -23.850  12.447  -6.898  1.00  0.00    -0.508 OA
ATOM     19  H   UNL     1     -23.999  11.454  -7.015  1.00  0.00     0.293 HD
ENDBRANCH  15  18
ENDBRANCH   1  12
BRANCH  11  20
ATOM     20  C   UNL     1     -14.136  16.100  -9.032  1.00  0.00     0.188 C 
ATOM     21  C   UNL     1     -12.712  16.703  -9.242  1.00  0.00     0.179 C 
ATOM     22  O   UNL     1     -13.930  14.755  -8.632  1.00  0.00    -0.362 OA
ATOM     23  C   UNL     1     -11.810  15.758 -10.094  1.00  0.00     0.177 C 
ATOM     24  C   UNL     1     -13.544  13.914  -9.716  1.00  0.00     0.176 C 
ATOM     25  C   UNL     1     -12.621  14.622 -10.761  1.00  0.00     0.177 C 
BRANCH  21  26
ATOM     26  O   UNL     1     -12.076  16.912  -8.001  1.00  0.00    -0.387 OA
ATOM     27  H   UNL     1     -12.730  16.783  -7.255  1.00  0.00     0.211 HD
ENDBRANCH  21  26
BRANCH  23  28
ATOM     28  O   UNL     1     -11.074  16.531 -11.034  1.00  0.00    -0.387 OA
ATOM     29  H   UNL     1     -11.594  16.638 -11.869  1.00  0.00     0.211 HD
ENDBRANCH  23  28
BRANCH  24  30
ATOM     30  C   UNL     1     -12.889  12.667  -9.076  1.00  0.00     0.191 C 
BRANCH  30  31
ATOM     31  O   UNL     1     -13.911  11.812  -8.628  1.00  0.00    -0.394 OA
ATOM     32  H   UNL     1     -14.301  12.227  -7.802  1.00  0.00     0.210 HD
ENDBRANCH  30  31
ENDBRANCH  24  30
BRANCH  25  33
ATOM     33  O   UNL     1     -11.741  13.712 -11.377  1.00  0.00    -0.388 OA
ATOM     34  H   UNL     1     -10.843  14.115 -11.262  1.00  0.00     0.211 HD
ENDBRANCH  25  33
ENDBRANCH  11  20
BRANCH  10  35
ATOM     35  O   UNL     1     -14.132  17.282 -12.035  1.00  0.00    -0.507 OA
ATOM     36  H   UNL     1     -13.220  17.358 -11.634  1.00  0.00     0.293 HD
ENDBRANCH  10  35
TORSDOF 9
ENDMDL
MODEL 7
REMARK VINA RESULT:    -5.180     14.050     17.315
REMARK INTER + INTRA:          -7.471
REMARK INTER:                  -7.053
REMARK INTRA:                  -0.418
REMARK UNBOUND:                -0.474
REMARK SMILES O=c1c(-c2ccc(O)cc2)coc2c([C@H]3O[C@H](CO)[C@H](O)[C@@H](O)[C@@H]3O)c(O)ccc12
REMARK SMILES IDX 3 1 11 2 12 3 13 4 30 5 2 6 1 7 29 8 28 9 26 10 14 11 4 12
REMARK SMILES IDX 5 13 6 14 7 15 10 16 9 17 8 18 15 20 24 21 16 22 22 23 17 24
REMARK SMILES IDX 20 25 25 26 23 28 18 30 19 31 21 33 27 35
REMARK H PARENT 8 19 25 27 23 29 19 32 21 34 27 36
REMARK Flexibility Score: inf
ROOT
ATOM      1  C   UNL     1      -8.257  11.002 -21.634  1.00  0.00     0.065 A 
ATOM      2  C   UNL     1      -9.301  10.859 -20.720  1.00  0.00     0.208 A 
ATOM      3  O   UNL     1      -9.263  11.460 -19.541  1.00  0.00    -0.463 OA
ATOM      4  C   UNL     1      -8.242  12.211 -19.130  1.00  0.00     0.147 A 
ATOM      5  C   UNL     1      -7.169  12.449 -20.024  1.00  0.00     0.066 A 
ATOM      6  C   UNL     1      -7.203  11.856 -21.302  1.00  0.00     0.200 A 
ATOM      7  O   UNL     1      -6.298  12.084 -22.147  1.00  0.00    -0.288 OA
ATOM      8  C   UNL     1      -6.122  13.284 -19.625  1.00  0.00     0.020 A 
ATOM      9  C   UNL     1      -6.122  13.857 -18.365  1.00  0.00     0.047 A 
ATOM     10  C   UNL     1      -7.160  13.628 -17.448  1.00  0.00     0.125 A 
ATOM     11  C   UNL     1      -8.250  12.757 -17.804  1.00  0.00     0.069 A 
ENDROOT
BRANCH   1  12
ATOM     12  C   UNL     1      -8.329  10.311 -22.933  1.00  0.00    -0.011 A 
ATOM     13  C   UNL     1      -7.647   9.104 -23.125  1.00  0.00     0.013 A 
ATOM     14  C   UNL     1      -7.608   8.515 -24.390  1.00  0.00     0.047 A 
ATOM     15  C   UNL     1      -8.233   9.149 -25.478  1.00  0.00     0.115 A 
ATOM     16  C   UNL     1      -9.031  10.894 -24.003  1.00  0.00     0.013 A 
ATOM     17  C   UNL     1      -8.989  10.302 -25.266  1.00  0.00     0.047 A 
BRANCH  15  18
ATOM     18  O   UNL     1      -8.092   8.615 -26.755  1.00  0.00    -0.508 OA
ATOM     19  H   UNL     1      -7.183   8.464 -27.170  1.00  0.00     0.293 HD
ENDBRANCH  15  18
ENDBRANCH   1  12
BRANCH  11  20
ATOM     20  C   UNL     1      -9.511  12.404 -16.947  1.00  0.00     0.188 C 
ATOM     21  C   UNL     1      -9.829  13.014 -15.545  1.00  0.00     0.179 C 
ATOM     22  O   UNL     1      -9.617  10.998 -16.788  1.00  0.00    -0.362 OA
ATOM     23  C   UNL     1      -9.040  12.287 -14.413  1.00  0.00     0.177 C 
ATOM     24  C   UNL     1      -8.501  10.439 -16.100  1.00  0.00     0.176 C 
ATOM     25  C   UNL     1      -7.933  11.363 -14.974  1.00  0.00     0.177 C 
BRANCH  21  26
ATOM     26  O   UNL     1     -11.205  12.903 -15.260  1.00  0.00    -0.387 OA
ATOM     27  H   UNL     1     -11.485  13.629 -14.632  1.00  0.00     0.211 HD
ENDBRANCH  21  26
BRANCH  23  28
ATOM     28  O   UNL     1      -8.537  13.252 -13.497  1.00  0.00    -0.387 OA
ATOM     29  H   UNL     1      -8.311  14.089 -13.974  1.00  0.00     0.211 HD
ENDBRANCH  23  28
BRANCH  24  30
ATOM     30  C   UNL     1      -8.971   9.062 -15.574  1.00  0.00     0.191 C 
BRANCH  30  31
ATOM     31  O   UNL     1     -10.132   8.694 -16.276  1.00  0.00    -0.394 OA
ATOM     32  H   UNL     1     -10.791   9.443 -16.170  1.00  0.00     0.210 HD
ENDBRANCH  30  31
ENDBRANCH  24  30
BRANCH  25  33
ATOM     33  O   UNL     1      -7.367  10.614 -13.924  1.00  0.00    -0.388 OA
ATOM     34  H   UNL     1      -8.031  10.670 -13.190  1.00  0.00     0.211 HD
ENDBRANCH  25  33
ENDBRANCH  11  20
BRANCH  10  35
ATOM     35  O   UNL     1      -7.016  14.329 -16.252  1.00  0.00    -0.507 OA
ATOM     36  H   UNL     1      -7.743  14.825 -15.780  1.00  0.00     0.293 HD
ENDBRANCH  10  35
TORSDOF 9
ENDMDL
MODEL 8
REMARK VINA RESULT:    -5.179      3.301      7.690
REMARK INTER + INTRA:          -7.469
REMARK INTER:                  -6.904
REMARK INTRA:                  -0.565
REMARK UNBOUND:                -0.474
REMARK SMILES O=c1c(-c2ccc(O)cc2)coc2c([C@H]3O[C@H](CO)[C@H](O)[C@@H](O)[C@@H]3O)c(O)ccc12
REMARK SMILES IDX 3 1 11 2 12 3 13 4 30 5 2 6 1 7 29 8 28 9 26 10 14 11 4 12
REMARK SMILES IDX 5 13 6 14 7 15 10 16 9 17 8 18 15 20 24 21 16 22 22 23 17 24
REMARK SMILES IDX 20 25 25 26 23 28 18 30 19 31 21 33 27 35
REMARK H PARENT 8 19 25 27 23 29 19 32 21 34 27 36
REMARK Flexibility Score: inf
ROOT
ATOM      1  C   UNL     1     -16.529  16.540  -9.886  1.00  0.00     0.065 A 
ATOM      2  C   UNL     1     -17.215  17.661 -10.353  1.00  0.00     0.208 A 
ATOM      3  O   UNL     1     -18.429  17.950  -9.912  1.00  0.00    -0.463 OA
ATOM      4  C   UNL     1     -19.090  17.204  -9.029  1.00  0.00     0.147 A 
ATOM      5  C   UNL     1     -18.437  16.078  -8.466  1.00  0.00     0.066 A 
ATOM      6  C   UNL     1     -17.127  15.771  -8.887  1.00  0.00     0.200 A 
ATOM      7  O   UNL     1     -16.491  14.813  -8.374  1.00  0.00    -0.288 OA
ATOM      8  C   UNL     1     -19.098  15.323  -7.495  1.00  0.00     0.020 A 
ATOM      9  C   UNL     1     -20.382  15.656  -7.099  1.00  0.00     0.047 A 
ATOM     10  C   UNL     1     -21.064  16.753  -7.648  1.00  0.00     0.125 A 
ATOM     11  C   UNL     1     -20.434  17.549  -8.670  1.00  0.00     0.069 A 
ENDROOT
BRANCH   1  12
ATOM     12  C   UNL     1     -15.183  16.244 -10.407  1.00  0.00    -0.011 A 
ATOM     13  C   UNL     1     -14.050  16.699  -9.724  1.00  0.00     0.013 A 
ATOM     14  C   UNL     1     -12.781  16.532 -10.281  1.00  0.00     0.047 A 
ATOM     15  C   UNL     1     -12.644  15.928 -11.544  1.00  0.00     0.115 A 
ATOM     16  C   UNL     1     -15.035  15.557 -11.625  1.00  0.00     0.013 A 
ATOM     17  C   UNL     1     -13.764  15.393 -12.180  1.00  0.00     0.047 A 
BRANCH  15  18
ATOM     18  O   UNL     1     -11.390  15.869 -12.142  1.00  0.00    -0.508 OA
ATOM     19  H   UNL     1     -11.282  15.809 -13.145  1.00  0.00     0.293 HD
ENDBRANCH  15  18
ENDBRANCH   1  12
BRANCH  11  20
ATOM     20  C   UNL     1     -21.005  18.823  -9.376  1.00  0.00     0.188 C 
ATOM     21  C   UNL     1     -22.374  19.490  -9.031  1.00  0.00     0.179 C 
ATOM     22  O   UNL     1     -21.009  18.641 -10.784  1.00  0.00    -0.362 OA
ATOM     23  C   UNL     1     -23.560  18.754  -9.727  1.00  0.00     0.177 C 
ATOM     24  C   UNL     1     -21.838  17.556 -11.193  1.00  0.00     0.176 C 
ATOM     25  C   UNL     1     -23.131  17.396 -10.329  1.00  0.00     0.177 C 
BRANCH  21  26
ATOM     26  O   UNL     1     -22.387  20.836  -9.453  1.00  0.00    -0.387 OA
ATOM     27  H   UNL     1     -21.518  21.067  -9.890  1.00  0.00     0.211 HD
ENDBRANCH  21  26
BRANCH  23  28
ATOM     28  O   UNL     1     -24.640  18.631  -8.809  1.00  0.00    -0.387 OA
ATOM     29  H   UNL     1     -24.641  17.728  -8.404  1.00  0.00     0.211 HD
ENDBRANCH  23  28
BRANCH  24  30
ATOM     30  C   UNL     1     -22.136  17.790 -12.693  1.00  0.00     0.191 C 
BRANCH  30  31
ATOM     31  O   UNL     1     -22.102  16.548 -13.349  1.00  0.00    -0.394 OA
ATOM     32  H   UNL     1     -22.729  15.938 -12.859  1.00  0.00     0.210 HD
ENDBRANCH  30  31
ENDBRANCH  24  30
BRANCH  25  33
ATOM     33  O   UNL     1     -24.193  16.855 -11.081  1.00  0.00    -0.388 OA
ATOM     34  H   UNL     1     -23.798  16.074 -11.547  1.00  0.00     0.211 HD
ENDBRANCH  25  33
ENDBRANCH  11  20
BRANCH  10  35
ATOM     35  O   UNL     1     -22.324  16.965  -7.091  1.00  0.00    -0.507 OA
ATOM     36  H   UNL     1     -22.689  17.850  -6.805  1.00  0.00     0.293 HD
ENDBRANCH  10  35
TORSDOF 9
ENDMDL
MODEL 9
REMARK VINA RESULT:    -5.171     14.397     18.358
REMARK INTER + INTRA:          -7.459
REMARK INTER:                  -6.937
REMARK INTRA:                  -0.522
REMARK UNBOUND:                -0.474
REMARK SMILES O=c1c(-c2ccc(O)cc2)coc2c([C@H]3O[C@H](CO)[C@H](O)[C@@H](O)[C@@H]3O)c(O)ccc12
REMARK SMILES IDX 3 1 11 2 12 3 13 4 30 5 2 6 1 7 29 8 28 9 26 10 14 11 4 12
REMARK SMILES IDX 5 13 6 14 7 15 10 16 9 17 8 18 15 20 24 21 16 22 22 23 17 24
REMARK SMILES IDX 20 25 25 26 23 28 18 30 19 31 21 33 27 35
REMARK H PARENT 8 19 25 27 23 29 19 32 21 34 27 36
REMARK Flexibility Score: inf
ROOT
ATOM      1  C   UNL     1      -8.561  12.027 -17.544  1.00  0.00     0.065 A 
ATOM      2  C   UNL     1      -8.911  10.782 -18.067  1.00  0.00     0.208 A 
ATOM      3  O   UNL     1      -8.531  10.423 -19.283  1.00  0.00    -0.463 OA
ATOM      4  C   UNL     1      -7.824  11.205 -20.096  1.00  0.00     0.147 A 
ATOM      5  C   UNL     1      -7.383  12.464 -19.615  1.00  0.00     0.066 A 
ATOM      6  C   UNL     1      -7.737  12.855 -18.309  1.00  0.00     0.200 A 
ATOM      7  O   UNL     1      -7.322  13.940 -17.822  1.00  0.00    -0.288 OA
ATOM      8  C   UNL     1      -6.590  13.267 -20.438  1.00  0.00     0.020 A 
ATOM      9  C   UNL     1      -6.253  12.850 -21.715  1.00  0.00     0.047 A 
ATOM     10  C   UNL     1      -6.688  11.618 -22.229  1.00  0.00     0.125 A 
ATOM     11  C   UNL     1      -7.527  10.764 -21.427  1.00  0.00     0.069 A 
ENDROOT
BRANCH   1  12
ATOM     12  C   UNL     1      -9.010  12.398 -16.190  1.00  0.00    -0.011 A 
ATOM     13  C   UNL     1      -8.159  12.217 -15.095  1.00  0.00     0.013 A 
ATOM     14  C   UNL     1      -8.627  12.445 -13.799  1.00  0.00     0.047 A 
ATOM     15  C   UNL     1      -9.963  12.833 -13.594  1.00  0.00     0.115 A 
ATOM     16  C   UNL     1     -10.317  12.875 -15.988  1.00  0.00     0.013 A 
ATOM     17  C   UNL     1     -10.781  13.102 -14.691  1.00  0.00     0.047 A 
BRANCH  15  18
ATOM     18  O   UNL     1     -10.451  12.947 -12.297  1.00  0.00    -0.508 OA
ATOM     19  H   UNL     1     -10.817  12.150 -11.795  1.00  0.00     0.293 HD
ENDBRANCH  15  18
ENDBRANCH   1  12
BRANCH  11  20
ATOM     20  C   UNL     1      -8.082   9.349 -21.799  1.00  0.00     0.188 C 
ATOM     21  C   UNL     1      -7.654   8.531 -23.058  1.00  0.00     0.179 C 
ATOM     22  O   UNL     1      -9.500   9.369 -21.816  1.00  0.00    -0.362 OA
ATOM     23  C   UNL     1      -8.419   9.002 -24.332  1.00  0.00     0.177 C 
ATOM     24  C   UNL     1     -10.024  10.267 -22.791  1.00  0.00     0.176 C 
ATOM     25  C   UNL     1      -9.174  10.332 -24.102  1.00  0.00     0.177 C 
BRANCH  21  26
ATOM     26  O   UNL     1      -7.921   7.159 -22.869  1.00  0.00    -0.387 OA
ATOM     27  H   UNL     1      -7.287   6.776 -22.197  1.00  0.00     0.211 HD
ENDBRANCH  21  26
BRANCH  23  28
ATOM     28  O   UNL     1      -7.514   9.068 -25.427  1.00  0.00    -0.387 OA
ATOM     29  H   UNL     1      -7.975   8.819 -26.266  1.00  0.00     0.211 HD
ENDBRANCH  23  28
BRANCH  24  30
ATOM     30  C   UNL     1     -11.485   9.825 -23.037  1.00  0.00     0.191 C 
BRANCH  30  31
ATOM     31  O   UNL     1     -12.267  10.976 -23.239  1.00  0.00    -0.394 OA
ATOM     32  H   UNL     1     -12.351  11.434 -22.350  1.00  0.00     0.210 HD
ENDBRANCH  30  31
ENDBRANCH  24  30
BRANCH  25  33
ATOM     33  O   UNL     1      -9.974  10.623 -25.224  1.00  0.00    -0.388 OA
ATOM     34  H   UNL     1      -9.479  10.235 -25.991  1.00  0.00     0.211 HD
ENDBRANCH  25  33
ENDBRANCH  11  20
BRANCH  10  35
ATOM     35  O   UNL     1      -6.209  11.344 -23.508  1.00  0.00    -0.507 OA
ATOM     36  H   UNL     1      -5.281  11.045 -23.728  1.00  0.00     0.293 HD
ENDBRANCH  10  35
TORSDOF 9
ENDMDL
