MODEL 1
REMARK VINA RESULT:    23.419      0.000      0.000
REMARK INTER + INTRA:          38.377
REMARK INTER:                  36.426
REMARK INTRA:                   1.952
REMARK UNBOUND:                 1.952
REMARK SMILES C[C@]12C[C@@H](O)[C@@H]3C[C@@]1(O[C@@H]1O[C@@H](CO)[C@H](O)[C@@H](O)[C@@H]1O)[C@]3(COC(=O)c1ccccc1)C(=O)O2
REMARK SMILES IDX 1 1 2 2 3 3 4 4 6 5 7 6 8 7 21 8 32 9 33 10 34 11 9 12 10 13
REMARK SMILES IDX 19 14 11 15 17 16 12 17 15 18 20 19 18 21 13 23 14 24 16 26
REMARK SMILES IDX 5 28 22 30 23 31 24 32 25 33 26 34 27 35 31 36 28 37 30 38
REMARK SMILES IDX 29 39
REMARK H PARENT 20 20 18 22 14 25 16 27 5 29
REMARK Flexibility Score: inf
ROOT
ATOM      1  C   UNL     1       9.842 -16.977 -24.699  1.00  0.00     0.060 C 
ATOM      2  C   UNL     1       9.082 -18.038 -23.902  1.00  0.00     0.142 C 
ATOM      3  C   UNL     1       7.984 -18.740 -24.781  1.00  0.00     0.083 C 
ATOM      4  C   UNL     1       6.965 -19.557 -23.894  1.00  0.00     0.123 C 
ATOM      5  C   UNL     1       6.904 -18.979 -22.440  1.00  0.00     0.045 C 
ATOM      6  C   UNL     1       6.891 -17.453 -22.578  1.00  0.00     0.049 C 
ATOM      7  C   UNL     1       8.431 -17.530 -22.545  1.00  0.00     0.131 C 
ATOM      8  C   UNL     1       8.322 -18.870 -21.795  1.00  0.00     0.140 C 
ATOM      9  C   UNL     1       9.457 -19.661 -22.362  1.00  0.00     0.319 C 
ATOM     10  O   UNL     1       9.889 -20.752 -21.907  1.00  0.00    -0.251 OA
ATOM     11  O   UNL     1       9.962 -19.070 -23.494  1.00  0.00    -0.456 OA
ENDROOT
BRANCH   7  12
ATOM     12  O   UNL     1       9.156 -16.560 -21.797  1.00  0.00    -0.338 OA
BRANCH  12  13
ATOM     13  C   UNL     1       9.776 -15.565 -22.609  1.00  0.00     0.282 C 
ATOM     14  C   UNL     1       8.764 -14.455 -22.962  1.00  0.00     0.202 C 
ATOM     15  O   UNL     1      10.903 -15.009 -21.949  1.00  0.00    -0.341 OA
ATOM     16  C   UNL     1       8.331 -13.698 -21.693  1.00  0.00     0.179 C 
ATOM     17  C   UNL     1      10.555 -14.411 -20.709  1.00  0.00     0.178 C 
ATOM     18  C   UNL     1       9.575 -13.228 -20.922  1.00  0.00     0.177 C 
BRANCH  14  19
ATOM     19  O   UNL     1       7.644 -15.017 -23.594  1.00  0.00    -0.385 OA
ATOM     20  H   UNL     1       7.284 -15.710 -22.982  1.00  0.00     0.211 HD
ENDBRANCH  14  19
BRANCH  16  21
ATOM     21  O   UNL     1       7.558 -12.577 -22.043  1.00  0.00    -0.387 OA
ATOM     22  H   UNL     1       6.749 -12.915 -22.508  1.00  0.00     0.211 HD
ENDBRANCH  16  21
BRANCH  17  23
ATOM     23  C   UNL     1      11.845 -13.954 -20.011  1.00  0.00     0.191 C 
BRANCH  23  24
ATOM     24  O   UNL     1      12.909 -14.822 -20.305  1.00  0.00    -0.394 OA
ATOM     25  H   UNL     1      12.509 -15.688 -20.585  1.00  0.00     0.210 HD
ENDBRANCH  23  24
ENDBRANCH  17  23
BRANCH  18  26
ATOM     26  O   UNL     1       9.196 -12.642 -19.699  1.00  0.00    -0.387 OA
ATOM     27  H   UNL     1       9.554 -13.214 -18.969  1.00  0.00     0.211 HD
ENDBRANCH  18  26
ENDBRANCH  12  13
ENDBRANCH   7  12
BRANCH   4  28
ATOM     28  O   UNL     1       7.318 -20.914 -23.846  1.00  0.00    -0.393 OA
ATOM     29  H   UNL     1       6.532 -21.424 -24.176  1.00  0.00     0.210 HD
ENDBRANCH   4  28
BRANCH   8  30
ATOM     30  C   UNL     1       8.318 -18.764 -20.248  1.00  0.00     0.255 C 
BRANCH  30  31
ATOM     31  O   UNL     1       7.300 -19.592 -19.687  1.00  0.00    -0.461 OA
BRANCH  31  32
ATOM     32  C   UNL     1       7.349 -20.991 -19.647  1.00  0.00     0.338 C 
ATOM     33  O   UNL     1       6.881 -21.672 -20.600  1.00  0.00    -0.246 OA
BRANCH  32  34
ATOM     34  C   UNL     1       7.972 -21.665 -18.489  1.00  0.00     0.060 A 
ATOM     35  C   UNL     1       9.339 -21.483 -18.201  1.00  0.00     0.015 A 
ATOM     36  C   UNL     1       7.205 -22.502 -17.656  1.00  0.00     0.015 A 
ATOM     37  C   UNL     1       9.918 -22.119 -17.098  1.00  0.00     0.001 A 
ATOM     38  C   UNL     1       7.789 -23.132 -16.554  1.00  0.00     0.001 A 
ATOM     39  C   UNL     1       9.144 -22.940 -16.275  1.00  0.00     0.000 A 
ENDBRANCH  32  34
ENDBRANCH  31  32
ENDBRANCH  30  31
ENDBRANCH   8  30
TORSDOF 12
ENDMDL
MODEL 2
REMARK VINA RESULT:    24.236      2.332      5.995
REMARK INTER + INTRA:          39.648
REMARK INTER:                  37.234
REMARK INTRA:                   2.413
REMARK UNBOUND:                 1.952
REMARK SMILES C[C@]12C[C@@H](O)[C@@H]3C[C@@]1(O[C@@H]1O[C@@H](CO)[C@H](O)[C@@H](O)[C@@H]1O)[C@]3(COC(=O)c1ccccc1)C(=O)O2
REMARK SMILES IDX 1 1 2 2 3 3 4 4 6 5 7 6 8 7 21 8 32 9 33 10 34 11 9 12 10 13
REMARK SMILES IDX 19 14 11 15 17 16 12 17 15 18 20 19 18 21 13 23 14 24 16 26
REMARK SMILES IDX 5 28 22 30 23 31 24 32 25 33 26 34 27 35 31 36 28 37 30 38
REMARK SMILES IDX 29 39
REMARK H PARENT 20 20 18 22 14 25 16 27 5 29
REMARK Flexibility Score: inf
ROOT
ATOM      1  C   UNL     1      10.445 -21.095 -22.017  1.00  0.00     0.060 C 
ATOM      2  C   UNL     1       9.468 -20.735 -20.897  1.00  0.00     0.142 C 
ATOM      3  C   UNL     1       8.988 -22.015 -20.121  1.00  0.00     0.083 C 
ATOM      4  C   UNL     1       7.725 -21.710 -19.224  1.00  0.00     0.123 C 
ATOM      5  C   UNL     1       6.924 -20.488 -19.786  1.00  0.00     0.045 C 
ATOM      6  C   UNL     1       6.875 -20.663 -21.308  1.00  0.00     0.049 C 
ATOM      7  C   UNL     1       8.205 -19.883 -21.346  1.00  0.00     0.131 C 
ATOM      8  C   UNL     1       7.836 -19.240 -19.997  1.00  0.00     0.140 C 
ATOM      9  C   UNL     1       9.154 -19.158 -19.298  1.00  0.00     0.319 C 
ATOM     10  O   UNL     1       9.384 -18.517 -18.239  1.00  0.00    -0.251 OA
ATOM     11  O   UNL     1      10.106 -19.919 -19.931  1.00  0.00    -0.456 OA
ENDROOT
BRANCH   7  12
ATOM     12  O   UNL     1       8.405 -18.907 -22.363  1.00  0.00    -0.338 OA
BRANCH  12  13
ATOM     13  C   UNL     1       7.254 -18.692 -23.176  1.00  0.00     0.282 C 
ATOM     14  C   UNL     1       7.032 -17.182 -23.402  1.00  0.00     0.202 C 
ATOM     15  O   UNL     1       7.387 -19.358 -24.423  1.00  0.00    -0.341 OA
ATOM     16  C   UNL     1       8.194 -16.583 -24.217  1.00  0.00     0.179 C 
ATOM     17  C   UNL     1       8.526 -18.917 -25.147  1.00  0.00     0.178 C 
ATOM     18  C   UNL     1       8.409 -17.410 -25.494  1.00  0.00     0.177 C 
BRANCH  14  19
ATOM     19  O   UNL     1       6.925 -16.528 -22.165  1.00  0.00    -0.385 OA
ATOM     20  H   UNL     1       7.801 -16.101 -21.985  1.00  0.00     0.211 HD
ENDBRANCH  14  19
BRANCH  16  21
ATOM     21  O   UNL     1       7.896 -15.256 -24.574  1.00  0.00    -0.387 OA
ATOM     22  H   UNL     1       8.444 -14.668 -23.992  1.00  0.00     0.211 HD
ENDBRANCH  16  21
BRANCH  17  23
ATOM     23  C   UNL     1       8.662 -19.777 -26.411  1.00  0.00     0.191 C 
BRANCH  23  24
ATOM     24  O   UNL     1       7.727 -20.825 -26.408  1.00  0.00    -0.394 OA
ATOM     25  H   UNL     1       7.302 -20.833 -25.510  1.00  0.00     0.210 HD
ENDBRANCH  23  24
ENDBRANCH  17  23
BRANCH  18  26
ATOM     26  O   UNL     1       9.546 -16.948 -26.186  1.00  0.00    -0.387 OA
ATOM     27  H   UNL     1       9.306 -16.084 -26.615  1.00  0.00     0.211 HD
ENDBRANCH  18  26
ENDBRANCH  12  13
ENDBRANCH   7  12
BRANCH   4  28
ATOM     28  O   UNL     1       8.101 -21.455 -17.897  1.00  0.00    -0.393 OA
ATOM     29  H   UNL     1       9.093 -21.490 -17.870  1.00  0.00     0.210 HD
ENDBRANCH   4  28
BRANCH   8  30
ATOM     30  C   UNL     1       7.072 -17.893 -20.093  1.00  0.00     0.255 C 
BRANCH  30  31
ATOM     31  O   UNL     1       6.918 -17.307 -18.801  1.00  0.00    -0.461 OA
BRANCH  31  32
ATOM     32  C   UNL     1       7.118 -15.950 -18.517  1.00  0.00     0.338 C 
ATOM     33  O   UNL     1       6.877 -15.498 -17.365  1.00  0.00    -0.246 OA
BRANCH  32  34
ATOM     34  C   UNL     1       7.636 -15.054 -19.573  1.00  0.00     0.060 A 
ATOM     35  C   UNL     1       7.059 -13.787 -19.787  1.00  0.00     0.015 A 
ATOM     36  C   UNL     1       8.716 -15.457 -20.381  1.00  0.00     0.015 A 
ATOM     37  C   UNL     1       7.560 -12.942 -20.783  1.00  0.00     0.001 A 
ATOM     38  C   UNL     1       9.215 -14.607 -21.372  1.00  0.00     0.001 A 
ATOM     39  C   UNL     1       8.638 -13.351 -21.572  1.00  0.00     0.000 A 
ENDBRANCH  32  34
ENDBRANCH  31  32
ENDBRANCH  30  31
ENDBRANCH   8  30
TORSDOF 12
ENDMDL
MODEL 3
REMARK VINA RESULT:    26.234      2.361      4.268
REMARK INTER + INTRA:          42.755
REMARK INTER:                  31.421
REMARK INTRA:                  11.334
REMARK UNBOUND:                 1.952
REMARK SMILES C[C@]12C[C@@H](O)[C@@H]3C[C@@]1(O[C@@H]1O[C@@H](CO)[C@H](O)[C@@H](O)[C@@H]1O)[C@]3(COC(=O)c1ccccc1)C(=O)O2
REMARK SMILES IDX 1 1 2 2 3 3 4 4 6 5 7 6 8 7 21 8 32 9 33 10 34 11 9 12 10 13
REMARK SMILES IDX 19 14 11 15 17 16 12 17 15 18 20 19 18 21 13 23 14 24 16 26
REMARK SMILES IDX 5 28 22 30 23 31 24 32 25 33 26 34 27 35 31 36 28 37 30 38
REMARK SMILES IDX 29 39
REMARK H PARENT 20 20 18 22 14 25 16 27 5 29
REMARK Flexibility Score: inf
ROOT
ATOM      1  C   UNL     1       7.197 -14.507 -18.456  1.00  0.00     0.060 C 
ATOM      2  C   UNL     1       7.548 -15.768 -19.248  1.00  0.00     0.142 C 
ATOM      3  C   UNL     1       7.067 -17.066 -18.505  1.00  0.00     0.083 C 
ATOM      4  C   UNL     1       7.732 -18.363 -19.111  1.00  0.00     0.123 C 
ATOM      5  C   UNL     1       9.095 -18.019 -19.801  1.00  0.00     0.045 C 
ATOM      6  C   UNL     1       9.817 -17.036 -18.873  1.00  0.00     0.049 C 
ATOM      7  C   UNL     1       9.081 -15.918 -19.639  1.00  0.00     0.131 C 
ATOM      8  C   UNL     1       8.947 -16.867 -20.844  1.00  0.00     0.140 C 
ATOM      9  C   UNL     1       7.596 -16.526 -21.385  1.00  0.00     0.319 C 
ATOM     10  O   UNL     1       7.134 -16.905 -22.493  1.00  0.00    -0.251 OA
ATOM     11  O   UNL     1       6.876 -15.769 -20.494  1.00  0.00    -0.456 OA
ENDROOT
BRANCH   7  12
ATOM     12  O   UNL     1       9.788 -14.729 -19.974  1.00  0.00    -0.338 OA
BRANCH  12  13
ATOM     13  C   UNL     1      10.067 -14.609 -21.367  1.00  0.00     0.282 C 
ATOM     14  C   UNL     1       9.587 -13.241 -21.894  1.00  0.00     0.202 C 
ATOM     15  O   UNL     1      11.455 -14.771 -21.618  1.00  0.00    -0.341 OA
ATOM     16  C   UNL     1      10.393 -12.101 -21.244  1.00  0.00     0.179 C 
ATOM     17  C   UNL     1      12.239 -13.809 -20.928  1.00  0.00     0.178 C 
ATOM     18  C   UNL     1      11.897 -12.374 -21.406  1.00  0.00     0.177 C 
BRANCH  14  19
ATOM     19  O   UNL     1       8.220 -13.080 -21.623  1.00  0.00    -0.385 OA
ATOM     20  H   UNL     1       8.005 -12.123 -21.771  1.00  0.00     0.211 HD
ENDBRANCH  14  19
BRANCH  16  21
ATOM     21  O   UNL     1      10.079 -10.878 -21.861  1.00  0.00    -0.387 OA
ATOM     22  H   UNL     1      10.280 -10.979 -22.828  1.00  0.00     0.211 HD
ENDBRANCH  16  21
BRANCH  17  23
ATOM     23  C   UNL     1      13.722 -14.139 -21.153  1.00  0.00     0.191 C 
BRANCH  23  24
ATOM     24  O   UNL     1      13.993 -15.477 -20.825  1.00  0.00    -0.394 OA
ATOM     25  H   UNL     1      13.127 -15.899 -20.583  1.00  0.00     0.210 HD
ENDBRANCH  23  24
ENDBRANCH  17  23
BRANCH  18  26
ATOM     26  O   UNL     1      12.644 -11.404 -20.709  1.00  0.00    -0.387 OA
ATOM     27  H   UNL     1      13.443 -11.857 -20.329  1.00  0.00     0.211 HD
ENDBRANCH  18  26
ENDBRANCH  12  13
ENDBRANCH   7  12
BRANCH   4  28
ATOM     28  O   UNL     1       6.878 -18.979 -20.038  1.00  0.00    -0.393 OA
ATOM     29  H   UNL     1       7.460 -19.412 -20.717  1.00  0.00     0.210 HD
ENDBRANCH   4  28
BRANCH   8  30
ATOM     30  C   UNL     1      10.097 -16.786 -21.881  1.00  0.00     0.255 C 
BRANCH  30  31
ATOM     31  O   UNL     1       9.583 -16.844 -23.211  1.00  0.00    -0.461 OA
BRANCH  31  32
ATOM     32  C   UNL     1       8.918 -17.949 -23.756  1.00  0.00     0.338 C 
ATOM     33  O   UNL     1       8.643 -17.983 -24.987  1.00  0.00    -0.246 OA
BRANCH  32  34
ATOM     34  C   UNL     1       8.560 -19.087 -22.884  1.00  0.00     0.060 A 
ATOM     35  C   UNL     1       9.541 -19.733 -22.106  1.00  0.00     0.015 A 
ATOM     36  C   UNL     1       7.229 -19.541 -22.819  1.00  0.00     0.015 A 
ATOM     37  C   UNL     1       9.191 -20.804 -21.277  1.00  0.00     0.001 A 
ATOM     38  C   UNL     1       6.886 -20.610 -21.986  1.00  0.00     0.001 A 
ATOM     39  C   UNL     1       7.866 -21.240 -21.216  1.00  0.00     0.000 A 
ENDBRANCH  32  34
ENDBRANCH  31  32
ENDBRANCH  30  31
ENDBRANCH   8  30
TORSDOF 12
ENDMDL
