MODEL 1
REMARK VINA RESULT:    -4.107      0.000      0.000
REMARK INTER + INTRA:          -6.307
REMARK INTER:                  -6.027
REMARK INTRA:                  -0.279
REMARK UNBOUND:                -0.279
REMARK SMILES O=C([O-])CCCCCCCC(=O)[O-]
REMARK SMILES IDX 7 1 6 2 5 3 4 4 2 5 1 6 3 7 8 8 9 9 10 10 11 11 12 12 13 13
REMARK H PARENT
REMARK Flexibility Score: inf
ROOT
ATOM      1  C   UNL     1      22.635  30.264  19.832  1.00  0.00     0.000 C 
ENDROOT
BRANCH   1   2
ATOM      2  C   UNL     1      21.240  30.752  19.408  1.00  0.00     0.000 C 
BRANCH   2   3
ATOM      3  C   UNL     1      20.747  30.087  18.112  1.00  0.00     0.006 C 
BRANCH   3   4
ATOM      4  C   UNL     1      21.193  30.886  16.885  1.00  0.00     0.053 C 
BRANCH   4   5
ATOM      5  C   UNL     1      22.165  30.093  16.068  1.00  0.00     0.041 C 
ATOM      6  O   UNL     1      22.070  28.838  16.014  1.00  0.00    -0.550 OA
ATOM      7  O   UNL     1      23.202  30.734  15.405  1.00  0.00    -0.550 OA
ENDBRANCH   4   5
ENDBRANCH   3   4
ENDBRANCH   2   3
ENDBRANCH   1   2
BRANCH   1   8
ATOM      8  C   UNL     1      22.886  30.430  21.340  1.00  0.00     0.000 C 
BRANCH   8   9
ATOM      9  C   UNL     1      22.360  29.242  22.160  1.00  0.00     0.006 C 
BRANCH   9  10
ATOM     10  C   UNL     1      21.986  29.633  23.596  1.00  0.00     0.053 C 
BRANCH  10  11
ATOM     11  C   UNL     1      20.921  28.724  24.123  1.00  0.00     0.041 C 
ATOM     12  O   UNL     1      19.748  28.791  23.668  1.00  0.00    -0.550 OA
ATOM     13  O   UNL     1      21.234  27.767  25.081  1.00  0.00    -0.550 OA
ENDBRANCH  10  11
ENDBRANCH   9  10
ENDBRANCH   8   9
ENDBRANCH   1   8
TORSDOF 8
ENDMDL
MODEL 2
REMARK VINA RESULT:    -4.072      0.213      6.918
REMARK INTER + INTRA:          -6.255
REMARK INTER:                  -5.979
REMARK INTRA:                  -0.277
REMARK UNBOUND:                -0.279
REMARK SMILES O=C([O-])CCCCCCCC(=O)[O-]
REMARK SMILES IDX 7 1 6 2 5 3 4 4 2 5 1 6 3 7 8 8 9 9 10 10 11 11 12 12 13 13
REMARK H PARENT
REMARK Flexibility Score: inf
ROOT
ATOM      1  C   UNL     1      22.631  30.365  19.816  1.00  0.00     0.000 C 
ENDROOT
BRANCH   1   2
ATOM      2  C   UNL     1      22.888  30.400  21.332  1.00  0.00     0.000 C 
BRANCH   2   3
ATOM      3  C   UNL     1      22.271  29.199  22.067  1.00  0.00     0.006 C 
BRANCH   3   4
ATOM      4  C   UNL     1      22.086  29.507  23.556  1.00  0.00     0.053 C 
BRANCH   4   5
ATOM      5  C   UNL     1      20.987  28.669  24.131  1.00  0.00     0.041 C 
ATOM      6  O   UNL     1      21.242  27.813  25.019  1.00  0.00    -0.550 OA
ATOM      7  O   UNL     1      19.690  28.801  23.653  1.00  0.00    -0.550 OA
ENDBRANCH   4   5
ENDBRANCH   3   4
ENDBRANCH   2   3
ENDBRANCH   1   2
BRANCH   1   8
ATOM      8  C   UNL     1      21.153  30.600  19.462  1.00  0.00     0.000 C 
BRANCH   8   9
ATOM      9  C   UNL     1      20.779  30.031  18.084  1.00  0.00     0.006 C 
BRANCH   9  10
ATOM     10  C   UNL     1      21.177  30.963  16.932  1.00  0.00     0.053 C 
BRANCH  10  11
ATOM     11  C   UNL     1      22.258  30.339  16.106  1.00  0.00     0.041 C 
ATOM     12  O   UNL     1      22.171  29.133  15.756  1.00  0.00    -0.550 OA
ATOM     13  O   UNL     1      23.338  31.104  15.682  1.00  0.00    -0.550 OA
ENDBRANCH  10  11
ENDBRANCH   9  10
ENDBRANCH   8   9
ENDBRANCH   1   8
TORSDOF 8
ENDMDL
MODEL 3
REMARK VINA RESULT:    -3.998      1.320      1.868
REMARK INTER + INTRA:          -6.148
REMARK INTER:                  -5.752
REMARK INTRA:                  -0.396
REMARK UNBOUND:                -0.279
REMARK SMILES O=C([O-])CCCCCCCC(=O)[O-]
REMARK SMILES IDX 7 1 6 2 5 3 4 4 2 5 1 6 3 7 8 8 9 9 10 10 11 11 12 12 13 13
REMARK H PARENT
REMARK Flexibility Score: inf
ROOT
ATOM      1  C   UNL     1      22.860  29.331  21.185  1.00  0.00     0.000 C 
ENDROOT
BRANCH   1   2
ATOM      2  C   UNL     1      22.427  30.419  20.189  1.00  0.00     0.000 C 
BRANCH   2   3
ATOM      3  C   UNL     1      21.079  30.109  19.518  1.00  0.00     0.006 C 
BRANCH   3   4
ATOM      4  C   UNL     1      21.094  30.523  18.044  1.00  0.00     0.053 C 
BRANCH   4   5
ATOM      5  C   UNL     1      21.733  29.458  17.208  1.00  0.00     0.041 C 
ATOM      6  O   UNL     1      22.329  29.763  16.141  1.00  0.00    -0.550 OA
ATOM      7  O   UNL     1      21.630  28.125  17.582  1.00  0.00    -0.550 OA
ENDBRANCH   4   5
ENDBRANCH   3   4
ENDBRANCH   2   3
ENDBRANCH   1   2
BRANCH   1   8
ATOM      8  C   UNL     1      22.582  29.722  22.646  1.00  0.00     0.000 C 
BRANCH   8   9
ATOM      9  C   UNL     1      21.872  28.607  23.430  1.00  0.00     0.006 C 
BRANCH   9  10
ATOM     10  C   UNL     1      20.366  28.855  23.580  1.00  0.00     0.053 C 
BRANCH  10  11
ATOM     11  C   UNL     1      20.004  29.015  25.022  1.00  0.00     0.041 C 
ATOM     12  O   UNL     1      20.402  30.021  25.668  1.00  0.00    -0.550 OA
ATOM     13  O   UNL     1      19.187  28.078  25.643  1.00  0.00    -0.550 OA
ENDBRANCH  10  11
ENDBRANCH   9  10
ENDBRANCH   8   9
ENDBRANCH   1   8
TORSDOF 8
ENDMDL
MODEL 4
REMARK VINA RESULT:    -3.994      1.531      6.333
REMARK INTER + INTRA:          -6.142
REMARK INTER:                  -5.632
REMARK INTRA:                  -0.510
REMARK UNBOUND:                -0.279
REMARK SMILES O=C([O-])CCCCCCCC(=O)[O-]
REMARK SMILES IDX 7 1 6 2 5 3 4 4 2 5 1 6 3 7 8 8 9 9 10 10 11 11 12 12 13 13
REMARK H PARENT
REMARK Flexibility Score: inf
ROOT
ATOM      1  C   UNL     1      21.038  30.330  19.344  1.00  0.00     0.000 C 
ENDROOT
BRANCH   1   2
ATOM      2  C   UNL     1      22.512  30.413  19.772  1.00  0.00     0.000 C 
BRANCH   2   3
ATOM      3  C   UNL     1      22.875  29.384  20.854  1.00  0.00     0.006 C 
BRANCH   3   4
ATOM      4  C   UNL     1      22.529  29.912  22.249  1.00  0.00     0.053 C 
BRANCH   4   5
ATOM      5  C   UNL     1      22.088  28.793  23.139  1.00  0.00     0.041 C 
ATOM      6  O   UNL     1      22.875  27.846  23.404  1.00  0.00    -0.550 OA
ATOM      7  O   UNL     1      20.792  28.770  23.638  1.00  0.00    -0.550 OA
ENDBRANCH   4   5
ENDBRANCH   3   4
ENDBRANCH   2   3
ENDBRANCH   1   2
BRANCH   1   8
ATOM      8  C   UNL     1      20.862  30.376  17.817  1.00  0.00     0.000 C 
BRANCH   8   9
ATOM      9  C   UNL     1      22.187  30.172  17.064  1.00  0.00     0.006 C 
BRANCH   9  10
ATOM     10  C   UNL     1      22.159  28.950  16.138  1.00  0.00     0.053 C 
BRANCH  10  11
ATOM     11  C   UNL     1      22.931  27.820  16.742  1.00  0.00     0.041 C 
ATOM     12  O   UNL     1      23.908  27.318  16.124  1.00  0.00    -0.550 OA
ATOM     13  O   UNL     1      22.604  27.352  18.009  1.00  0.00    -0.550 OA
ENDBRANCH  10  11
ENDBRANCH   9  10
ENDBRANCH   8   9
ENDBRANCH   1   8
TORSDOF 8
ENDMDL
MODEL 5
REMARK VINA RESULT:    -3.968      0.857      6.855
REMARK INTER + INTRA:          -6.104
REMARK INTER:                  -5.758
REMARK INTRA:                  -0.346
REMARK UNBOUND:                -0.279
REMARK SMILES O=C([O-])CCCCCCCC(=O)[O-]
REMARK SMILES IDX 7 1 6 2 5 3 4 4 2 5 1 6 3 7 8 8 9 9 10 10 11 11 12 12 13 13
REMARK H PARENT
REMARK Flexibility Score: inf
ROOT
ATOM      1  C   UNL     1      22.532  29.798  19.584  1.00  0.00     0.000 C 
ENDROOT
BRANCH   1   2
ATOM      2  C   UNL     1      23.493  30.488  20.566  1.00  0.00     0.000 C 
BRANCH   2   3
ATOM      3  C   UNL     1      22.985  30.454  22.016  1.00  0.00     0.006 C 
BRANCH   3   4
ATOM      4  C   UNL     1      22.579  29.033  22.420  1.00  0.00     0.053 C 
BRANCH   4   5
ATOM      5  C   UNL     1      21.951  29.034  23.778  1.00  0.00     0.041 C 
ATOM      6  O   UNL     1      21.875  30.103  24.440  1.00  0.00    -0.550 OA
ATOM      7  O   UNL     1      21.492  27.846  24.332  1.00  0.00    -0.550 OA
ENDBRANCH   4   5
ENDBRANCH   3   4
ENDBRANCH   2   3
ENDBRANCH   1   2
BRANCH   1   8
ATOM      8  C   UNL     1      21.350  30.696  19.184  1.00  0.00     0.000 C 
BRANCH   8   9
ATOM      9  C   UNL     1      20.682  30.243  17.875  1.00  0.00     0.006 C 
BRANCH   9  10
ATOM     10  C   UNL     1      21.168  31.038  16.657  1.00  0.00     0.053 C 
BRANCH  10  11
ATOM     11  C   UNL     1      22.223  30.273  15.922  1.00  0.00     0.041 C 
ATOM     12  O   UNL     1      23.231  30.870  15.458  1.00  0.00    -0.550 OA
ATOM     13  O   UNL     1      22.121  28.893  15.793  1.00  0.00    -0.550 OA
ENDBRANCH  10  11
ENDBRANCH   9  10
ENDBRANCH   8   9
ENDBRANCH   1   8
TORSDOF 8
ENDMDL
MODEL 6
REMARK VINA RESULT:    -3.862      2.122      2.688
REMARK INTER + INTRA:          -5.948
REMARK INTER:                  -5.507
REMARK INTRA:                  -0.442
REMARK UNBOUND:                -0.279
REMARK SMILES O=C([O-])CCCCCCCC(=O)[O-]
REMARK SMILES IDX 7 1 6 2 5 3 4 4 2 5 1 6 3 7 8 8 9 9 10 10 11 11 12 12 13 13
REMARK H PARENT
REMARK Flexibility Score: inf
ROOT
ATOM      1  C   UNL     1      22.213  29.724  19.842  1.00  0.00     0.000 C 
ENDROOT
BRANCH   1   2
ATOM      2  C   UNL     1      21.224  30.715  19.207  1.00  0.00     0.000 C 
BRANCH   2   3
ATOM      3  C   UNL     1      20.692  30.234  17.847  1.00  0.00     0.006 C 
BRANCH   3   4
ATOM      4  C   UNL     1      21.436  30.918  16.696  1.00  0.00     0.053 C 
BRANCH   4   5
ATOM      5  C   UNL     1      22.205  29.911  15.899  1.00  0.00     0.041 C 
ATOM      6  O   UNL     1      22.753  30.246  14.816  1.00  0.00    -0.550 OA
ATOM      7  O   UNL     1      22.277  28.592  16.329  1.00  0.00    -0.550 OA
ENDBRANCH   4   5
ENDBRANCH   3   4
ENDBRANCH   2   3
ENDBRANCH   1   2
BRANCH   1   8
ATOM      8  C   UNL     1      23.666  30.227  19.795  1.00  0.00     0.000 C 
BRANCH   8   9
ATOM      9  C   UNL     1      24.073  30.974  21.076  1.00  0.00     0.006 C 
BRANCH   9  10
ATOM     10  C   UNL     1      23.304  30.491  22.312  1.00  0.00     0.053 C 
BRANCH  10  11
ATOM     11  C   UNL     1      23.360  31.520  23.396  1.00  0.00     0.041 C 
ATOM     12  O   UNL     1      23.298  31.172  24.605  1.00  0.00    -0.550 OA
ATOM     13  O   UNL     1      23.532  32.862  23.075  1.00  0.00    -0.550 OA
ENDBRANCH  10  11
ENDBRANCH   9  10
ENDBRANCH   8   9
ENDBRANCH   1   8
TORSDOF 8
ENDMDL
MODEL 7
REMARK VINA RESULT:    -3.799      4.987      7.737
REMARK INTER + INTRA:          -5.855
REMARK INTER:                  -5.487
REMARK INTRA:                  -0.368
REMARK UNBOUND:                -0.279
REMARK SMILES O=C([O-])CCCCCCCC(=O)[O-]
REMARK SMILES IDX 7 1 6 2 5 3 4 4 2 5 1 6 3 7 8 8 9 9 10 10 11 11 12 12 13 13
REMARK H PARENT
REMARK Flexibility Score: inf
ROOT
ATOM      1  C   UNL     1      20.894  29.426  27.460  1.00  0.00     0.000 C 
ENDROOT
BRANCH   1   2
ATOM      2  C   UNL     1      19.674  29.513  26.529  1.00  0.00     0.000 C 
BRANCH   2   3
ATOM      3  C   UNL     1      19.575  28.318  25.567  1.00  0.00     0.006 C 
BRANCH   3   4
ATOM      4  C   UNL     1      19.849  28.754  24.124  1.00  0.00     0.053 C 
BRANCH   4   5
ATOM      5  C   UNL     1      21.268  28.464  23.751  1.00  0.00     0.041 C 
ATOM      6  O   UNL     1      21.925  27.596  24.384  1.00  0.00    -0.550 OA
ATOM      7  O   UNL     1      21.881  29.186  22.734  1.00  0.00    -0.550 OA
ENDBRANCH   4   5
ENDBRANCH   3   4
ENDBRANCH   2   3
ENDBRANCH   1   2
BRANCH   1   8
ATOM      8  C   UNL     1      20.765  30.340  28.690  1.00  0.00     0.000 C 
BRANCH   8   9
ATOM      9  C   UNL     1      19.318  30.795  28.938  1.00  0.00     0.006 C 
BRANCH   9  10
ATOM     10  C   UNL     1      19.198  32.314  29.120  1.00  0.00     0.053 C 
BRANCH  10  11
ATOM     11  C   UNL     1      18.013  32.645  29.970  1.00  0.00     0.041 C 
ATOM     12  O   UNL     1      17.457  33.771  29.871  1.00  0.00    -0.550 OA
ATOM     13  O   UNL     1      17.490  31.692  30.836  1.00  0.00    -0.550 OA
ENDBRANCH  10  11
ENDBRANCH   9  10
ENDBRANCH   8   9
ENDBRANCH   1   8
TORSDOF 8
ENDMDL
MODEL 8
REMARK VINA RESULT:    -3.777      6.422      9.611
REMARK INTER + INTRA:          -5.823
REMARK INTER:                  -5.534
REMARK INTRA:                  -0.289
REMARK UNBOUND:                -0.279
REMARK SMILES O=C([O-])CCCCCCCC(=O)[O-]
REMARK SMILES IDX 7 1 6 2 5 3 4 4 2 5 1 6 3 7 8 8 9 9 10 10 11 11 12 12 13 13
REMARK H PARENT
REMARK Flexibility Score: inf
ROOT
ATOM      1  C   UNL     1      19.449  31.513  28.796  1.00  0.00     0.000 C 
ENDROOT
BRANCH   1   2
ATOM      2  C   UNL     1      20.790  30.766  28.709  1.00  0.00     0.000 C 
BRANCH   2   3
ATOM      3  C   UNL     1      20.745  29.576  27.738  1.00  0.00     0.006 C 
BRANCH   3   4
ATOM      4  C   UNL     1      20.328  30.030  26.336  1.00  0.00     0.053 C 
BRANCH   4   5
ATOM      5  C   UNL     1      20.263  28.861  25.404  1.00  0.00     0.041 C 
ATOM      6  O   UNL     1      20.895  27.804  25.669  1.00  0.00    -0.550 OA
ATOM      7  O   UNL     1      19.544  28.955  24.219  1.00  0.00    -0.550 OA
ENDBRANCH   4   5
ENDBRANCH   3   4
ENDBRANCH   2   3
ENDBRANCH   1   2
BRANCH   1   8
ATOM      8  C   UNL     1      18.510  30.920  29.861  1.00  0.00     0.000 C 
BRANCH   8   9
ATOM      9  C   UNL     1      17.727  32.001  30.624  1.00  0.00     0.006 C 
BRANCH   9  10
ATOM     10  C   UNL     1      17.758  33.363  29.918  1.00  0.00     0.053 C 
BRANCH  10  11
ATOM     11  C   UNL     1      16.692  34.258  30.467  1.00  0.00     0.041 C 
ATOM     12  O   UNL     1      16.907  35.492  30.600  1.00  0.00    -0.550 OA
ATOM     13  O   UNL     1      15.443  33.739  30.787  1.00  0.00    -0.550 OA
ENDBRANCH  10  11
ENDBRANCH   9  10
ENDBRANCH   8   9
ENDBRANCH   1   8
TORSDOF 8
ENDMDL
MODEL 9
REMARK VINA RESULT:    -3.756      5.972     10.018
REMARK INTER + INTRA:          -5.793
REMARK INTER:                  -5.299
REMARK INTRA:                  -0.494
REMARK UNBOUND:                -0.279
REMARK SMILES O=C([O-])CCCCCCCC(=O)[O-]
REMARK SMILES IDX 7 1 6 2 5 3 4 4 2 5 1 6 3 7 8 8 9 9 10 10 11 11 12 12 13 13
REMARK H PARENT
REMARK Flexibility Score: inf
ROOT
ATOM      1  C   UNL     1      20.877  29.691  28.298  1.00  0.00     0.000 C 
ENDROOT
BRANCH   1   2
ATOM      2  C   UNL     1      20.368  30.536  29.477  1.00  0.00     0.000 C 
BRANCH   2   3
ATOM      3  C   UNL     1      18.918  31.010  29.286  1.00  0.00     0.006 C 
BRANCH   3   4
ATOM      4  C   UNL     1      18.827  32.537  29.373  1.00  0.00     0.053 C 
BRANCH   4   5
ATOM      5  C   UNL     1      17.660  32.944  30.217  1.00  0.00     0.041 C 
ATOM      6  O   UNL     1      17.207  32.160  31.092  1.00  0.00    -0.550 OA
ATOM      7  O   UNL     1      17.044  34.171  30.006  1.00  0.00    -0.550 OA
ENDBRANCH   4   5
ENDBRANCH   3   4
ENDBRANCH   2   3
ENDBRANCH   1   2
BRANCH   1   8
ATOM      8  C   UNL     1      20.981  30.499  26.993  1.00  0.00     0.000 C 
BRANCH   8   9
ATOM      9  C   UNL     1      20.003  30.007  25.915  1.00  0.00     0.006 C 
BRANCH   9  10
ATOM     10  C   UNL     1      19.955  28.477  25.813  1.00  0.00     0.053 C 
BRANCH  10  11
ATOM     11  C   UNL     1      21.085  27.975  24.971  1.00  0.00     0.041 C 
ATOM     12  O   UNL     1      21.879  27.110  25.426  1.00  0.00    -0.550 OA
ATOM     13  O   UNL     1      21.232  28.425  23.664  1.00  0.00    -0.550 OA
ENDBRANCH  10  11
ENDBRANCH   9  10
ENDBRANCH   8   9
ENDBRANCH   1   8
TORSDOF 8
ENDMDL
