MODEL 1
REMARK VINA RESULT:    -2.652      0.000      0.000
REMARK INTER + INTRA:          -5.245
REMARK INTER:                  -4.048
REMARK INTRA:                  -1.197
REMARK UNBOUND:                -1.197
REMARK SMILES CCCCCCCCCCC(=O)[O-]
REMARK SMILES IDX 7 1 8 2 9 3 10 4 11 5 12 6 13 7 6 8 5 9 4 10 3 11 2 12 1 13
REMARK H PARENT
REMARK Flexibility Score: inf
ROOT
ATOM      1  C   UNL     1       8.391 -18.228   6.791  1.00  0.00     0.000 C 
ENDROOT
BRANCH   1   2
ATOM      2  C   UNL     1       9.843 -18.615   6.486  1.00  0.00     0.000 C 
BRANCH   2   3
ATOM      3  C   UNL     1      10.148 -18.474   4.990  1.00  0.00     0.006 C 
BRANCH   3   4
ATOM      4  C   UNL     1       9.095 -17.609   4.292  1.00  0.00     0.053 C 
BRANCH   4   5
ATOM      5  C   UNL     1       8.693 -18.222   2.988  1.00  0.00     0.041 C 
ATOM      6  O   UNL     1       7.653 -18.926   2.913  1.00  0.00    -0.550 OA
ATOM      7  O   UNL     1       9.495 -18.055   1.866  1.00  0.00    -0.550 OA
ENDBRANCH   4   5
ENDBRANCH   3   4
ENDBRANCH   2   3
ENDBRANCH   1   2
BRANCH   1   8
ATOM      8  C   UNL     1       8.322 -17.223   7.951  1.00  0.00     0.000 C 
BRANCH   8   9
ATOM      9  C   UNL     1       7.747 -15.863   7.523  1.00  0.00    -0.000 C 
BRANCH   9  10
ATOM     10  C   UNL     1       8.834 -14.871   7.083  1.00  0.00    -0.000 C 
BRANCH  10  11
ATOM     11  C   UNL     1       9.872 -14.667   8.197  1.00  0.00    -0.000 C 
BRANCH  11  12
ATOM     12  C   UNL     1      11.313 -14.643   7.666  1.00  0.00    -0.003 C 
ATOM     13  C   UNL     1      11.435 -15.229   6.260  1.00  0.00     0.004 C 
ENDBRANCH  11  12
ENDBRANCH  10  11
ENDBRANCH   9  10
ENDBRANCH   8   9
ENDBRANCH   1   8
TORSDOF 9
ENDMDL
MODEL 2
REMARK VINA RESULT:    -2.642      0.757      2.400
REMARK INTER + INTRA:          -5.229
REMARK INTER:                  -4.093
REMARK INTRA:                  -1.137
REMARK UNBOUND:                -1.197
REMARK SMILES CCCCCCCCCCC(=O)[O-]
REMARK SMILES IDX 7 1 8 2 9 3 10 4 11 5 12 6 13 7 6 8 5 9 4 10 3 11 2 12 1 13
REMARK H PARENT
REMARK Flexibility Score: inf
ROOT
ATOM      1  C   UNL     1      11.501 -17.732   5.515  1.00  0.00     0.000 C 
ENDROOT
BRANCH   1   2
ATOM      2  C   UNL     1      10.291 -18.399   6.180  1.00  0.00     0.000 C 
BRANCH   2   3
ATOM      3  C   UNL     1       9.028 -18.223   5.330  1.00  0.00     0.006 C 
BRANCH   3   4
ATOM      4  C   UNL     1       9.330 -17.434   4.052  1.00  0.00     0.053 C 
BRANCH   4   5
ATOM      5  C   UNL     1       8.838 -18.176   2.850  1.00  0.00     0.041 C 
ATOM      6  O   UNL     1       7.712 -18.738   2.868  1.00  0.00    -0.550 OA
ATOM      7  O   UNL     1       9.645 -18.289   1.725  1.00  0.00    -0.550 OA
ENDBRANCH   4   5
ENDBRANCH   3   4
ENDBRANCH   2   3
ENDBRANCH   1   2
BRANCH   1   8
ATOM      8  C   UNL     1      12.126 -16.678   6.442  1.00  0.00     0.000 C 
BRANCH   8   9
ATOM      9  C   UNL     1      11.389 -15.331   6.389  1.00  0.00    -0.000 C 
BRANCH   9  10
ATOM     10  C   UNL     1      11.305 -14.647   7.762  1.00  0.00    -0.000 C 
BRANCH  10  11
ATOM     11  C   UNL     1       9.854 -14.602   8.263  1.00  0.00    -0.000 C 
BRANCH  11  12
ATOM     12  C   UNL     1       8.837 -14.938   7.161  1.00  0.00    -0.003 C 
ATOM     13  C   UNL     1       7.701 -15.830   7.657  1.00  0.00     0.004 C 
ENDBRANCH  11  12
ENDBRANCH  10  11
ENDBRANCH   9  10
ENDBRANCH   8   9
ENDBRANCH   1   8
TORSDOF 9
ENDMDL
MODEL 3
REMARK VINA RESULT:    -2.636      5.376      7.458
REMARK INTER + INTRA:          -5.220
REMARK INTER:                  -3.884
REMARK INTRA:                  -1.336
REMARK UNBOUND:                -1.197
REMARK SMILES CCCCCCCCCCC(=O)[O-]
REMARK SMILES IDX 7 1 8 2 9 3 10 4 11 5 12 6 13 7 6 8 5 9 4 10 3 11 2 12 1 13
REMARK H PARENT
REMARK Flexibility Score: inf
ROOT
ATOM      1  C   UNL     1       2.372 -19.450   5.255  1.00  0.00     0.000 C 
ENDROOT
BRANCH   1   2
ATOM      2  C   UNL     1       3.529 -20.426   5.498  1.00  0.00     0.000 C 
BRANCH   2   3
ATOM      3  C   UNL     1       4.878 -19.699   5.473  1.00  0.00     0.006 C 
BRANCH   3   4
ATOM      4  C   UNL     1       6.014 -20.659   5.104  1.00  0.00     0.053 C 
BRANCH   4   5
ATOM      5  C   UNL     1       6.374 -20.513   3.659  1.00  0.00     0.041 C 
ATOM      6  O   UNL     1       6.912 -19.454   3.244  1.00  0.00    -0.550 OA
ATOM      7  O   UNL     1       6.071 -21.529   2.762  1.00  0.00    -0.550 OA
ENDBRANCH   4   5
ENDBRANCH   3   4
ENDBRANCH   2   3
ENDBRANCH   1   2
BRANCH   1   8
ATOM      8  C   UNL     1       2.874 -18.155   4.598  1.00  0.00     0.000 C 
BRANCH   8   9
ATOM      9  C   UNL     1       2.535 -18.080   3.101  1.00  0.00    -0.000 C 
BRANCH   9  10
ATOM     10  C   UNL     1       3.756 -18.335   2.203  1.00  0.00    -0.000 C 
BRANCH  10  11
ATOM     11  C   UNL     1       3.499 -19.512   1.251  1.00  0.00    -0.000 C 
BRANCH  11  12
ATOM     12  C   UNL     1       2.288 -20.359   1.671  1.00  0.00    -0.003 C 
ATOM     13  C   UNL     1       2.680 -21.751   2.161  1.00  0.00     0.004 C 
ENDBRANCH  11  12
ENDBRANCH  10  11
ENDBRANCH   9  10
ENDBRANCH   8   9
ENDBRANCH   1   8
TORSDOF 9
ENDMDL
MODEL 4
REMARK VINA RESULT:    -2.624     13.820     15.992
REMARK INTER + INTRA:          -5.202
REMARK INTER:                  -4.813
REMARK INTRA:                  -0.389
REMARK UNBOUND:                -1.197
REMARK SMILES CCCCCCCCCCC(=O)[O-]
REMARK SMILES IDX 7 1 8 2 9 3 10 4 11 5 12 6 13 7 6 8 5 9 4 10 3 11 2 12 1 13
REMARK H PARENT
REMARK Flexibility Score: inf
ROOT
ATOM      1  C   UNL     1      -5.206 -13.673  12.957  1.00  0.00     0.000 C 
ENDROOT
BRANCH   1   2
ATOM      2  C   UNL     1      -4.020 -13.227  13.821  1.00  0.00     0.000 C 
BRANCH   2   3
ATOM      3  C   UNL     1      -4.221 -11.798  14.337  1.00  0.00     0.006 C 
BRANCH   3   4
ATOM      4  C   UNL     1      -2.883 -11.159  14.722  1.00  0.00     0.053 C 
BRANCH   4   5
ATOM      5  C   UNL     1      -2.848  -9.723  14.305  1.00  0.00     0.041 C 
ATOM      6  O   UNL     1      -2.079  -9.350  13.381  1.00  0.00    -0.550 OA
ATOM      7  O   UNL     1      -3.630  -8.788  14.970  1.00  0.00    -0.550 OA
ENDBRANCH   4   5
ENDBRANCH   3   4
ENDBRANCH   2   3
ENDBRANCH   1   2
BRANCH   1   8
ATOM      8  C   UNL     1      -4.808 -14.835  12.033  1.00  0.00     0.000 C 
BRANCH   8   9
ATOM      9  C   UNL     1      -3.734 -15.743  12.654  1.00  0.00    -0.000 C 
BRANCH   9  10
ATOM     10  C   UNL     1      -3.975 -17.232  12.360  1.00  0.00    -0.000 C 
BRANCH  10  11
ATOM     11  C   UNL     1      -3.353 -17.632  11.015  1.00  0.00    -0.000 C 
BRANCH  11  12
ATOM     12  C   UNL     1      -2.022 -16.915  10.742  1.00  0.00    -0.003 C 
ATOM     13  C   UNL     1      -1.462 -17.215   9.353  1.00  0.00     0.004 C 
ENDBRANCH  11  12
ENDBRANCH  10  11
ENDBRANCH   9  10
ENDBRANCH   8   9
ENDBRANCH   1   8
TORSDOF 9
ENDMDL
MODEL 5
REMARK VINA RESULT:    -2.542      5.578      7.166
REMARK INTER + INTRA:          -5.076
REMARK INTER:                  -3.923
REMARK INTRA:                  -1.153
REMARK UNBOUND:                -1.197
REMARK SMILES CCCCCCCCCCC(=O)[O-]
REMARK SMILES IDX 7 1 8 2 9 3 10 4 11 5 12 6 13 7 6 8 5 9 4 10 3 11 2 12 1 13
REMARK H PARENT
REMARK Flexibility Score: inf
ROOT
ATOM      1  C   UNL     1       1.703 -18.802   3.317  1.00  0.00     0.000 C 
ENDROOT
BRANCH   1   2
ATOM      2  C   UNL     1       3.021 -18.069   3.042  1.00  0.00     0.000 C 
BRANCH   2   3
ATOM      3  C   UNL     1       3.713 -18.629   1.794  1.00  0.00     0.006 C 
BRANCH   3   4
ATOM      4  C   UNL     1       3.546 -20.149   1.707  1.00  0.00     0.053 C 
BRANCH   4   5
ATOM      5  C   UNL     1       3.189 -20.559   0.313  1.00  0.00     0.041 C 
ATOM      6  O   UNL     1       2.289 -21.416   0.116  1.00  0.00    -0.550 OA
ATOM      7  O   UNL     1       3.884 -20.029  -0.766  1.00  0.00    -0.550 OA
ENDBRANCH   4   5
ENDBRANCH   3   4
ENDBRANCH   2   3
ENDBRANCH   1   2
BRANCH   1   8
ATOM      8  C   UNL     1       1.705 -19.427   4.721  1.00  0.00     0.000 C 
BRANCH   8   9
ATOM      9  C   UNL     1       2.679 -18.724   5.680  1.00  0.00    -0.000 C 
BRANCH   9  10
ATOM     10  C   UNL     1       3.550 -19.713   6.470  1.00  0.00    -0.000 C 
BRANCH  10  11
ATOM     11  C   UNL     1       5.028 -19.576   6.077  1.00  0.00    -0.000 C 
BRANCH  11  12
ATOM     12  C   UNL     1       5.418 -20.496   4.910  1.00  0.00    -0.003 C 
ATOM     13  C   UNL     1       6.468 -19.875   3.991  1.00  0.00     0.004 C 
ENDBRANCH  11  12
ENDBRANCH  10  11
ENDBRANCH   9  10
ENDBRANCH   8   9
ENDBRANCH   1   8
TORSDOF 9
ENDMDL
MODEL 6
REMARK VINA RESULT:    -2.531      1.323      1.835
REMARK INTER + INTRA:          -5.060
REMARK INTER:                  -4.196
REMARK INTRA:                  -0.864
REMARK UNBOUND:                -1.197
REMARK SMILES CCCCCCCCCCC(=O)[O-]
REMARK SMILES IDX 7 1 8 2 9 3 10 4 11 5 12 6 13 7 6 8 5 9 4 10 3 11 2 12 1 13
REMARK H PARENT
REMARK Flexibility Score: inf
ROOT
ATOM      1  C   UNL     1       8.783 -17.164   6.481  1.00  0.00     0.000 C 
ENDROOT
BRANCH   1   2
ATOM      2  C   UNL     1       9.313 -18.057   5.353  1.00  0.00     0.000 C 
BRANCH   2   3
ATOM      3  C   UNL     1       9.478 -17.263   4.052  1.00  0.00     0.006 C 
BRANCH   3   4
ATOM      4  C   UNL     1       8.742 -17.943   2.894  1.00  0.00     0.053 C 
BRANCH   4   5
ATOM      5  C   UNL     1       9.607 -18.990   2.266  1.00  0.00     0.041 C 
ATOM      6  O   UNL     1       9.191 -20.173   2.156  1.00  0.00    -0.550 OA
ATOM      7  O   UNL     1      10.891 -18.670   1.846  1.00  0.00    -0.550 OA
ENDBRANCH   4   5
ENDBRANCH   3   4
ENDBRANCH   2   3
ENDBRANCH   1   2
BRANCH   1   8
ATOM      8  C   UNL     1       9.183 -15.698   6.255  1.00  0.00     0.000 C 
BRANCH   8   9
ATOM      9  C   UNL     1       8.972 -14.827   7.504  1.00  0.00    -0.000 C 
BRANCH   9  10
ATOM     10  C   UNL     1      10.257 -14.647   8.326  1.00  0.00    -0.000 C 
BRANCH  10  11
ATOM     11  C   UNL     1      11.498 -14.713   7.423  1.00  0.00    -0.000 C 
BRANCH  11  12
ATOM     12  C   UNL     1      12.527 -15.746   7.907  1.00  0.00    -0.003 C 
ATOM     13  C   UNL     1      11.881 -16.946   8.598  1.00  0.00     0.004 C 
ENDBRANCH  11  12
ENDBRANCH  10  11
ENDBRANCH   9  10
ENDBRANCH   8   9
ENDBRANCH   1   8
TORSDOF 9
ENDMDL
MODEL 7
REMARK VINA RESULT:    -2.531      2.348      4.218
REMARK INTER + INTRA:          -5.060
REMARK INTER:                  -3.943
REMARK INTRA:                  -1.117
REMARK UNBOUND:                -1.197
REMARK SMILES CCCCCCCCCCC(=O)[O-]
REMARK SMILES IDX 7 1 8 2 9 3 10 4 11 5 12 6 13 7 6 8 5 9 4 10 3 11 2 12 1 13
REMARK H PARENT
REMARK Flexibility Score: inf
ROOT
ATOM      1  C   UNL     1      10.010 -15.788   8.575  1.00  0.00     0.000 C 
ENDROOT
BRANCH   1   2
ATOM      2  C   UNL     1       9.171 -14.646   7.991  1.00  0.00     0.000 C 
BRANCH   2   3
ATOM      3  C   UNL     1       8.695 -14.981   6.573  1.00  0.00     0.006 C 
BRANCH   3   4
ATOM      4  C   UNL     1       9.260 -16.325   6.105  1.00  0.00     0.053 C 
BRANCH   4   5
ATOM      5  C   UNL     1      10.035 -16.155   4.837  1.00  0.00     0.041 C 
ATOM      6  O   UNL     1      10.952 -15.296   4.765  1.00  0.00    -0.550 OA
ATOM      7  O   UNL     1       9.711 -16.911   3.718  1.00  0.00    -0.550 OA
ENDBRANCH   4   5
ENDBRANCH   3   4
ENDBRANCH   2   3
ENDBRANCH   1   2
BRANCH   1   8
ATOM      8  C   UNL     1       9.397 -16.306   9.886  1.00  0.00     0.000 C 
BRANCH   8   9
ATOM      9  C   UNL     1       8.216 -17.261   9.651  1.00  0.00    -0.000 C 
BRANCH   9  10
ATOM     10  C   UNL     1       6.989 -16.907  10.505  1.00  0.00    -0.000 C 
BRANCH  10  11
ATOM     11  C   UNL     1       5.689 -17.287   9.780  1.00  0.00    -0.000 C 
BRANCH  11  12
ATOM     12  C   UNL     1       5.723 -16.937   8.285  1.00  0.00    -0.003 C 
ATOM     13  C   UNL     1       5.196 -15.532   7.993  1.00  0.00     0.004 C 
ENDBRANCH  11  12
ENDBRANCH  10  11
ENDBRANCH   9  10
ENDBRANCH   8   9
ENDBRANCH   1   8
TORSDOF 9
ENDMDL
MODEL 8
REMARK VINA RESULT:    -2.518      1.309      2.191
REMARK INTER + INTRA:          -5.040
REMARK INTER:                  -4.255
REMARK INTRA:                  -0.785
REMARK UNBOUND:                -1.197
REMARK SMILES CCCCCCCCCCC(=O)[O-]
REMARK SMILES IDX 7 1 8 2 9 3 10 4 11 5 12 6 13 7 6 8 5 9 4 10 3 11 2 12 1 13
REMARK H PARENT
REMARK Flexibility Score: inf
ROOT
ATOM      1  C   UNL     1      10.385 -15.332   5.836  1.00  0.00     0.000 C 
ENDROOT
BRANCH   1   2
ATOM      2  C   UNL     1      10.542 -16.641   5.052  1.00  0.00     0.000 C 
BRANCH   2   3
ATOM      3  C   UNL     1       9.336 -17.561   5.267  1.00  0.00     0.006 C 
BRANCH   3   4
ATOM      4  C   UNL     1       9.336 -18.714   4.258  1.00  0.00     0.053 C 
BRANCH   4   5
ATOM      5  C   UNL     1       8.474 -18.381   3.082  1.00  0.00     0.041 C 
ATOM      6  O   UNL     1       8.848 -17.515   2.248  1.00  0.00    -0.550 OA
ATOM      7  O   UNL     1       7.236 -18.992   2.932  1.00  0.00    -0.550 OA
ENDBRANCH   4   5
ENDBRANCH   3   4
ENDBRANCH   2   3
ENDBRANCH   1   2
BRANCH   1   8
ATOM      8  C   UNL     1       8.952 -15.180   6.369  1.00  0.00     0.000 C 
BRANCH   8   9
ATOM      9  C   UNL     1       8.911 -14.722   7.835  1.00  0.00    -0.000 C 
BRANCH   9  10
ATOM     10  C   UNL     1       9.342 -15.825   8.813  1.00  0.00    -0.000 C 
BRANCH  10  11
ATOM     11  C   UNL     1      10.345 -15.282   9.843  1.00  0.00    -0.000 C 
BRANCH  11  12
ATOM     12  C   UNL     1      11.149 -14.086   9.311  1.00  0.00    -0.003 C 
ATOM     13  C   UNL     1      12.548 -14.478   8.838  1.00  0.00     0.004 C 
ENDBRANCH  11  12
ENDBRANCH  10  11
ENDBRANCH   9  10
ENDBRANCH   8   9
ENDBRANCH   1   8
TORSDOF 9
ENDMDL
MODEL 9
REMARK VINA RESULT:    -2.501      5.758      7.367
REMARK INTER + INTRA:          -5.015
REMARK INTER:                  -3.762
REMARK INTRA:                  -1.253
REMARK UNBOUND:                -1.197
REMARK SMILES CCCCCCCCCCC(=O)[O-]
REMARK SMILES IDX 7 1 8 2 9 3 10 4 11 5 12 6 13 7 6 8 5 9 4 10 3 11 2 12 1 13
REMARK H PARENT
REMARK Flexibility Score: inf
ROOT
ATOM      1  C   UNL     1       1.082 -19.964   4.760  1.00  0.00     0.000 C 
ENDROOT
BRANCH   1   2
ATOM      2  C   UNL     1       1.307 -20.089   3.248  1.00  0.00     0.000 C 
BRANCH   2   3
ATOM      3  C   UNL     1       1.558 -18.716   2.613  1.00  0.00     0.006 C 
BRANCH   3   4
ATOM      4  C   UNL     1       2.982 -18.229   2.901  1.00  0.00     0.053 C 
BRANCH   4   5
ATOM      5  C   UNL     1       3.976 -19.020   2.110  1.00  0.00     0.041 C 
ATOM      6  O   UNL     1       5.071 -19.360   2.629  1.00  0.00    -0.550 OA
ATOM      7  O   UNL     1       3.713 -19.339   0.784  1.00  0.00    -0.550 OA
ENDBRANCH   4   5
ENDBRANCH   3   4
ENDBRANCH   2   3
ENDBRANCH   1   2
BRANCH   1   8
ATOM      8  C   UNL     1       1.787 -21.101   5.516  1.00  0.00     0.000 C 
BRANCH   8   9
ATOM      9  C   UNL     1       3.281 -21.205   5.170  1.00  0.00    -0.000 C 
BRANCH   9  10
ATOM     10  C   UNL     1       4.190 -20.801   6.341  1.00  0.00    -0.000 C 
BRANCH  10  11
ATOM     11  C   UNL     1       4.668 -19.349   6.187  1.00  0.00    -0.000 C 
BRANCH  11  12
ATOM     12  C   UNL     1       3.969 -18.390   7.163  1.00  0.00    -0.003 C 
ATOM     13  C   UNL     1       2.946 -17.487   6.475  1.00  0.00     0.004 C 
ENDBRANCH  11  12
ENDBRANCH  10  11
ENDBRANCH   9  10
ENDBRANCH   8   9
ENDBRANCH   1   8
TORSDOF 9
ENDMDL
