MODEL 1
REMARK VINA RESULT:    -4.218      0.000      0.000
REMARK INTER + INTRA:          -4.749
REMARK INTER:                  -4.711
REMARK INTRA:                  -0.038
REMARK UNBOUND:                -0.038
REMARK SMILES CCCC(=O)[O-]
REMARK SMILES IDX 3 1 4 2 5 3 6 4 2 5 1 6
REMARK H PARENT
REMARK Flexibility Score: inf
ROOT
ATOM      1  C   UNL     1       7.254  -3.989  20.288  1.00  0.00     0.052 C 
ENDROOT
BRANCH   1   2
ATOM      2  C   UNL     1       6.733  -2.821  21.068  1.00  0.00     0.041 C 
ATOM      3  O   UNL     1       6.513  -2.931  22.303  1.00  0.00    -0.550 OA
ATOM      4  O   UNL     1       6.525  -1.600  20.439  1.00  0.00    -0.550 OA
ENDBRANCH   1   2
BRANCH   1   5
ATOM      5  C   UNL     1       7.820  -5.080  21.205  1.00  0.00     0.003 C 
ATOM      6  C   UNL     1       6.976  -6.354  21.182  1.00  0.00     0.004 C 
ENDBRANCH   1   5
TORSDOF 2
ENDMDL
MODEL 2
REMARK VINA RESULT:    -4.215      4.166      5.316
REMARK INTER + INTRA:          -4.747
REMARK INTER:                  -4.714
REMARK INTRA:                  -0.033
REMARK UNBOUND:                -0.038
REMARK SMILES CCCC(=O)[O-]
REMARK SMILES IDX 3 1 4 2 5 3 6 4 2 5 1 6
REMARK H PARENT
REMARK Flexibility Score: inf
ROOT
ATOM      1  C   UNL     1       7.338  -8.124  21.257  1.00  0.00     0.052 C 
ENDROOT
BRANCH   1   2
ATOM      2  C   UNL     1       6.955  -8.909  22.474  1.00  0.00     0.041 C 
ATOM      3  O   UNL     1       7.200  -8.458  23.623  1.00  0.00    -0.550 OA
ATOM      4  O   UNL     1       6.296 -10.125  22.338  1.00  0.00    -0.550 OA
ENDBRANCH   1   2
BRANCH   1   5
ATOM      5  C   UNL     1       7.742  -6.687  21.611  1.00  0.00     0.003 C 
ATOM      6  C   UNL     1       6.747  -5.655  21.083  1.00  0.00     0.004 C 
ENDBRANCH   1   5
TORSDOF 2
ENDMDL
MODEL 3
REMARK VINA RESULT:    -4.212      0.956      1.660
REMARK INTER + INTRA:          -4.743
REMARK INTER:                  -4.738
REMARK INTRA:                  -0.005
REMARK UNBOUND:                -0.038
REMARK SMILES CCCC(=O)[O-]
REMARK SMILES IDX 3 1 4 2 5 3 6 4 2 5 1 6
REMARK H PARENT
REMARK Flexibility Score: inf
ROOT
ATOM      1  C   UNL     1       7.667  -4.881  21.124  1.00  0.00     0.052 C 
ENDROOT
BRANCH   1   2
ATOM      2  C   UNL     1       6.846  -3.631  21.037  1.00  0.00     0.041 C 
ATOM      3  O   UNL     1       6.359  -3.268  19.934  1.00  0.00    -0.550 OA
ATOM      4  O   UNL     1       6.590  -2.885  22.180  1.00  0.00    -0.550 OA
ENDBRANCH   1   2
BRANCH   1   5
ATOM      5  C   UNL     1       6.789  -6.138  21.153  1.00  0.00     0.003 C 
ATOM      6  C   UNL     1       7.554  -7.372  21.630  1.00  0.00     0.004 C 
ENDBRANCH   1   5
TORSDOF 2
ENDMDL
MODEL 4
REMARK VINA RESULT:    -4.204      0.932      1.209
REMARK INTER + INTRA:          -4.734
REMARK INTER:                  -4.729
REMARK INTRA:                  -0.005
REMARK UNBOUND:                -0.038
REMARK SMILES CCCC(=O)[O-]
REMARK SMILES IDX 3 1 4 2 5 3 6 4 2 5 1 6
REMARK H PARENT
REMARK Flexibility Score: inf
ROOT
ATOM      1  C   UNL     1       7.622  -4.841  21.135  1.00  0.00     0.052 C 
ENDROOT
BRANCH   1   2
ATOM      2  C   UNL     1       6.775  -3.606  21.112  1.00  0.00     0.041 C 
ATOM      3  O   UNL     1       6.613  -2.929  22.161  1.00  0.00    -0.550 OA
ATOM      4  O   UNL     1       6.192  -3.184  19.924  1.00  0.00    -0.550 OA
ENDBRANCH   1   2
BRANCH   1   5
ATOM      5  C   UNL     1       6.770  -6.117  21.133  1.00  0.00     0.003 C 
ATOM      6  C   UNL     1       7.563  -7.348  21.569  1.00  0.00     0.004 C 
ENDBRANCH   1   5
TORSDOF 2
ENDMDL
MODEL 5
REMARK VINA RESULT:    -4.184      1.154      1.732
REMARK INTER + INTRA:          -4.712
REMARK INTER:                  -4.700
REMARK INTRA:                  -0.012
REMARK UNBOUND:                -0.038
REMARK SMILES CCCC(=O)[O-]
REMARK SMILES IDX 3 1 4 2 5 3 6 4 2 5 1 6
REMARK H PARENT
REMARK Flexibility Score: inf
ROOT
ATOM      1  C   UNL     1       6.883  -3.493  21.207  1.00  0.00     0.052 C 
ENDROOT
BRANCH   1   2
ATOM      2  C   UNL     1       6.056  -2.394  21.800  1.00  0.00     0.041 C 
ATOM      3  O   UNL     1       6.217  -1.204  21.423  1.00  0.00    -0.550 OA
ATOM      4  O   UNL     1       5.081  -2.690  22.745  1.00  0.00    -0.550 OA
ENDBRANCH   1   2
BRANCH   1   5
ATOM      5  C   UNL     1       6.098  -4.808  21.110  1.00  0.00     0.003 C 
ATOM      6  C   UNL     1       7.014  -6.031  21.085  1.00  0.00     0.004 C 
ENDBRANCH   1   5
TORSDOF 2
ENDMDL
MODEL 6
REMARK VINA RESULT:    -4.003      2.421      3.181
REMARK INTER + INTRA:          -4.509
REMARK INTER:                  -4.496
REMARK INTRA:                  -0.013
REMARK UNBOUND:                -0.038
REMARK SMILES CCCC(=O)[O-]
REMARK SMILES IDX 3 1 4 2 5 3 6 4 2 5 1 6
REMARK H PARENT
REMARK Flexibility Score: inf
ROOT
ATOM      1  C   UNL     1       7.176  -7.257  20.963  1.00  0.00     0.052 C 
ENDROOT
BRANCH   1   2
ATOM      2  C   UNL     1       7.016  -5.775  21.106  1.00  0.00     0.041 C 
ATOM      3  O   UNL     1       5.879  -5.278  21.323  1.00  0.00    -0.550 OA
ATOM      4  O   UNL     1       8.127  -4.944  21.035  1.00  0.00    -0.550 OA
ENDBRANCH   1   2
BRANCH   1   5
ATOM      5  C   UNL     1       7.347  -7.945  22.324  1.00  0.00     0.003 C 
ATOM      6  C   UNL     1       6.566  -9.256  22.415  1.00  0.00     0.004 C 
ENDBRANCH   1   5
TORSDOF 2
ENDMDL
MODEL 7
REMARK VINA RESULT:    -3.988      2.159      3.208
REMARK INTER + INTRA:          -4.492
REMARK INTER:                  -4.458
REMARK INTRA:                  -0.034
REMARK UNBOUND:                -0.038
REMARK SMILES CCCC(=O)[O-]
REMARK SMILES IDX 3 1 4 2 5 3 6 4 2 5 1 6
REMARK H PARENT
REMARK Flexibility Score: inf
ROOT
ATOM      1  C   UNL     1       5.669  -3.919  21.472  1.00  0.00     0.052 C 
ENDROOT
BRANCH   1   2
ATOM      2  C   UNL     1       6.480  -4.886  20.664  1.00  0.00     0.041 C 
ATOM      3  O   UNL     1       6.781  -6.012  21.139  1.00  0.00    -0.550 OA
ATOM      4  O   UNL     1       6.873  -4.557  19.373  1.00  0.00    -0.550 OA
ENDBRANCH   1   2
BRANCH   1   5
ATOM      5  C   UNL     1       6.484  -2.679  21.861  1.00  0.00     0.003 C 
ATOM      6  C   UNL     1       6.183  -1.480  20.963  1.00  0.00     0.004 C 
ENDBRANCH   1   5
TORSDOF 2
ENDMDL
MODEL 8
REMARK VINA RESULT:    -3.930      1.737      1.992
REMARK INTER + INTRA:          -4.428
REMARK INTER:                  -4.356
REMARK INTRA:                  -0.072
REMARK UNBOUND:                -0.038
REMARK SMILES CCCC(=O)[O-]
REMARK SMILES IDX 3 1 4 2 5 3 6 4 2 5 1 6
REMARK H PARENT
REMARK Flexibility Score: inf
ROOT
ATOM      1  C   UNL     1       6.561  -3.030  21.904  1.00  0.00     0.052 C 
ENDROOT
BRANCH   1   2
ATOM      2  C   UNL     1       5.696  -1.860  21.548  1.00  0.00     0.041 C 
ATOM      3  O   UNL     1       4.468  -1.873  21.821  1.00  0.00    -0.550 OA
ATOM      4  O   UNL     1       6.255  -0.740  20.945  1.00  0.00    -0.550 OA
ENDBRANCH   1   2
BRANCH   1   5
ATOM      5  C   UNL     1       7.240  -3.634  20.668  1.00  0.00     0.003 C 
ATOM      6  C   UNL     1       6.232  -4.073  19.607  1.00  0.00     0.004 C 
ENDBRANCH   1   5
TORSDOF 2
ENDMDL
MODEL 9
REMARK VINA RESULT:    -3.762     10.257     10.897
REMARK INTER + INTRA:          -4.240
REMARK INTER:                  -4.192
REMARK INTRA:                  -0.048
REMARK UNBOUND:                -0.038
REMARK SMILES CCCC(=O)[O-]
REMARK SMILES IDX 3 1 4 2 5 3 6 4 2 5 1 6
REMARK H PARENT
REMARK Flexibility Score: inf
ROOT
ATOM      1  C   UNL     1      15.561  -8.230  22.586  1.00  0.00     0.052 C 
ENDROOT
BRANCH   1   2
ATOM      2  C   UNL     1      16.954  -8.165  23.131  1.00  0.00     0.041 C 
ATOM      3  O   UNL     1      17.238  -7.352  24.050  1.00  0.00    -0.550 OA
ATOM      4  O   UNL     1      17.932  -9.026  22.648  1.00  0.00    -0.550 OA
ENDBRANCH   1   2
BRANCH   1   5
ATOM      5  C   UNL     1      15.529  -7.979  21.072  1.00  0.00     0.003 C 
ATOM      6  C   UNL     1      16.298  -6.720  20.676  1.00  0.00     0.004 C 
ENDBRANCH   1   5
TORSDOF 2
ENDMDL
