MODEL 1
REMARK VINA RESULT:    -2.487      0.000      0.000
REMARK INTER + INTRA:          -2.209
REMARK INTER:                  -3.069
REMARK INTRA:                   0.860
REMARK UNBOUND:                 0.860
REMARK SMILES CC1=CC=CC(C)(C)CC1=O
REMARK SMILES IDX 1 1 2 2 3 3 10 4 11 5 9 6 4 8 5 9 6 10 7 11 8 12
REMARK H PARENT
REMARK Flexibility Score: 80.00
ROOT
ATOM      1  C   UNL     1      21.913 -15.877   2.723  1.00  0.00     0.048 C 
ATOM      2  C   UNL     1      22.855 -16.800   1.986  1.00  0.00    -0.008 C 
ATOM      3  C   UNL     1      23.004 -16.618   0.655  1.00  0.00     0.007 C 
ENDROOT
BRANCH   2   4
ATOM      4  C   UNL     1      23.500 -17.875   2.786  1.00  0.00     0.159 C 
ATOM      5  O   UNL     1      23.279 -17.918   4.028  1.00  0.00    -0.295 OA
BRANCH   4   6
ATOM      6  C   UNL     1      24.374 -18.946   2.206  1.00  0.00     0.091 CG0
ATOM      7  G   UNL     1      25.506 -18.410   1.300  1.00  0.00     0.000 G0
ENDBRANCH   4   6
ENDBRANCH   2   4
BRANCH   3   8
ATOM      8  C   UNL     1      23.853 -17.352  -0.311  1.00  0.00    -0.003 C 
ATOM      9  C   UNL     1      24.936 -18.099  -0.070  1.00  0.00    -0.020 C 
BRANCH   9  10
ATOM     10  C   UNL     1      25.508 -18.428   1.288  1.00  0.00    -0.010 CG0
ATOM     11  C   UNL     1      26.242 -17.198   1.872  1.00  0.00     0.016 C 
ATOM     12  C   UNL     1      26.543 -19.562   1.115  1.00  0.00     0.016 C 
ATOM     13  G   UNL     1      24.381 -18.942   2.210  1.00  0.00     0.000 G0
ENDBRANCH   9  10
ENDBRANCH   3   8
TORSDOF 0
ENDMDL
MODEL 2
REMARK VINA RESULT:    -2.141     19.126     20.351
REMARK INTER + INTRA:          -1.782
REMARK INTER:                  -2.634
REMARK INTRA:                   0.851
REMARK UNBOUND:                 0.860
REMARK SMILES CC1=CC=CC(C)(C)CC1=O
REMARK SMILES IDX 1 1 2 2 3 3 10 4 11 5 9 6 4 8 5 9 6 10 7 11 8 12
REMARK H PARENT
REMARK Flexibility Score: 80.00
ROOT
ATOM      1  C   UNL     1      13.065 -16.760 -14.842  1.00  0.00     0.048 C 
ATOM      2  C   UNL     1      11.761 -16.474 -14.133  1.00  0.00    -0.008 C 
ATOM      3  C   UNL     1      10.644 -16.371 -14.885  1.00  0.00     0.007 C 
ENDROOT
BRANCH   2   4
ATOM      4  C   UNL     1      11.831 -16.273 -12.661  1.00  0.00     0.159 C 
ATOM      5  O   UNL     1      12.946 -16.411 -12.086  1.00  0.00    -0.295 OA
BRANCH   4   6
ATOM      6  C   UNL     1      10.662 -15.875 -11.811  1.00  0.00     0.091 CG0
ATOM      7  G   UNL     1       9.404 -16.746 -12.027  1.00  0.00     0.000 G0
ENDBRANCH   4   6
ENDBRANCH   2   4
BRANCH   3   8
ATOM      8  C   UNL     1       9.246 -16.111 -14.472  1.00  0.00    -0.003 C 
ATOM      9  C   UNL     1       8.685 -16.285 -13.271  1.00  0.00    -0.020 C 
BRANCH   9  10
ATOM     10  C   UNL     1       9.392 -16.734 -12.014  1.00  0.00    -0.010 CG0
ATOM     11  C   UNL     1       9.687 -18.250 -12.077  1.00  0.00     0.016 C 
ATOM     12  C   UNL     1       8.451 -16.482 -10.814  1.00  0.00     0.016 C 
ATOM     13  G   UNL     1      10.667 -15.886 -11.811  1.00  0.00     0.000 G0
ENDBRANCH   9  10
ENDBRANCH   3   8
TORSDOF 0
ENDMDL
MODEL 3
REMARK VINA RESULT:    -2.073      1.327      3.219
REMARK INTER + INTRA:          -1.698
REMARK INTER:                  -2.771
REMARK INTRA:                   1.073
REMARK UNBOUND:                 0.860
REMARK SMILES CC1=CC=CC(C)(C)CC1=O
REMARK SMILES IDX 1 1 2 2 3 3 10 4 11 5 9 6 4 8 5 9 6 10 7 11 8 12
REMARK H PARENT
REMARK Flexibility Score: 80.00
ROOT
ATOM      1  C   UNL     1      26.353 -19.614   0.736  1.00  0.00     0.048 C 
ATOM      2  C   UNL     1      25.186 -18.666   0.892  1.00  0.00    -0.008 C 
ATOM      3  C   UNL     1      25.074 -17.653   0.005  1.00  0.00     0.007 C 
ENDROOT
BRANCH   2   4
ATOM      4  C   UNL     1      24.286 -18.900   2.052  1.00  0.00     0.159 C 
ATOM      5  O   UNL     1      24.630 -19.747   2.923  1.00  0.00    -0.295 OA
BRANCH   4   6
ATOM      6  C   UNL     1      23.001 -18.161   2.281  1.00  0.00     0.091 CG0
ATOM      7  G   UNL     1      23.152 -16.624   2.279  1.00  0.00     0.000 G0
ENDBRANCH   4   6
ENDBRANCH   2   4
BRANCH   3   8
ATOM      8  C   UNL     1      24.045 -16.593  -0.095  1.00  0.00    -0.003 C 
ATOM      9  C   UNL     1      23.195 -16.164   0.844  1.00  0.00    -0.020 C 
BRANCH   9  10
ATOM     10  C   UNL     1      23.141 -16.633   2.279  1.00  0.00    -0.010 CG0
ATOM     11  C   UNL     1      21.988 -15.929   3.030  1.00  0.00     0.016 C 
ATOM     12  C   UNL     1      24.468 -16.238   2.967  1.00  0.00     0.016 C 
ATOM     13  G   UNL     1      23.023 -18.173   2.313  1.00  0.00     0.000 G0
ENDBRANCH   9  10
ENDBRANCH   3   8
TORSDOF 0
ENDMDL
MODEL 4
REMARK VINA RESULT:    -1.947     18.219     19.594
REMARK INTER + INTRA:          -1.542
REMARK INTER:                  -2.648
REMARK INTRA:                   1.106
REMARK UNBOUND:                 0.860
REMARK SMILES CC1=CC=CC(C)(C)CC1=O
REMARK SMILES IDX 1 1 2 2 3 3 10 4 11 5 9 6 4 8 5 9 6 10 7 11 8 12
REMARK H PARENT
REMARK Flexibility Score: 80.00
ROOT
ATOM      1  C   UNL     1      14.997 -17.165 -12.975  1.00  0.00     0.048 C 
ATOM      2  C   UNL     1      13.603 -16.646 -12.709  1.00  0.00    -0.008 C 
ATOM      3  C   UNL     1      13.258 -16.392 -11.428  1.00  0.00     0.007 C 
ENDROOT
BRANCH   2   4
ATOM      4  C   UNL     1      12.705 -16.510 -13.887  1.00  0.00     0.159 C 
ATOM      5  O   UNL     1      13.103 -16.945 -15.003  1.00  0.00    -0.295 OA
BRANCH   4   6
ATOM      6  C   UNL     1      11.328 -15.920 -13.830  1.00  0.00     0.091 CG0
ATOM      7  G   UNL     1      10.430 -16.528 -12.729  1.00  0.00     0.000 G0
ENDBRANCH   4   6
ENDBRANCH   2   4
BRANCH   3   8
ATOM      8  C   UNL     1      11.986 -15.875 -10.876  1.00  0.00    -0.003 C 
ATOM      9  C   UNL     1      10.769 -15.888 -11.430  1.00  0.00    -0.020 C 
BRANCH   9  10
ATOM     10  C   UNL     1      10.399 -16.514 -12.754  1.00  0.00    -0.010 CG0
ATOM     11  C   UNL     1       8.894 -16.309 -13.042  1.00  0.00     0.016 C 
ATOM     12  C   UNL     1      10.663 -18.034 -12.659  1.00  0.00     0.016 C 
ATOM     13  G   UNL     1      11.304 -15.938 -13.866  1.00  0.00     0.000 G0
ENDBRANCH   9  10
ENDBRANCH   3   8
TORSDOF 0
ENDMDL
MODEL 5
REMARK VINA RESULT:    -1.935      1.790      3.849
REMARK INTER + INTRA:          -1.528
REMARK INTER:                  -2.651
REMARK INTRA:                   1.123
REMARK UNBOUND:                 0.860
REMARK SMILES CC1=CC=CC(C)(C)CC1=O
REMARK SMILES IDX 1 1 2 2 3 3 10 4 11 5 9 6 4 8 5 9 6 10 7 11 8 12
REMARK H PARENT
REMARK Flexibility Score: 80.00
ROOT
ATOM      1  C   UNL     1      26.736 -20.015   0.679  1.00  0.00     0.048 C 
ATOM      2  C   UNL     1      25.727 -19.217   1.473  1.00  0.00    -0.008 C 
ATOM      3  C   UNL     1      24.875 -19.896   2.272  1.00  0.00     0.007 C 
ENDROOT
BRANCH   2   4
ATOM      4  C   UNL     1      25.723 -17.745   1.261  1.00  0.00     0.159 C 
ATOM      5  O   UNL     1      26.415 -17.269   0.319  1.00  0.00    -0.295 OA
BRANCH   4   6
ATOM      6  C   UNL     1      24.912 -16.781   2.074  1.00  0.00     0.091 CG0
ATOM      7  G   UNL     1      23.405 -17.121   2.133  1.00  0.00     0.000 G0
ENDBRANCH   4   6
ENDBRANCH   2   4
BRANCH   3   8
ATOM      8  C   UNL     1      23.805 -19.389   3.161  1.00  0.00    -0.003 C 
ATOM      9  C   UNL     1      23.194 -18.199   3.137  1.00  0.00    -0.020 C 
BRANCH   9  10
ATOM     10  C   UNL     1      23.419 -17.102   2.124  1.00  0.00    -0.010 CG0
ATOM     11  C   UNL     1      22.539 -15.875   2.458  1.00  0.00     0.016 C 
ATOM     12  C   UNL     1      22.992 -17.630   0.736  1.00  0.00     0.016 C 
ATOM     13  G   UNL     1      24.925 -16.758   2.064  1.00  0.00     0.000 G0
ENDBRANCH   9  10
ENDBRANCH   3   8
TORSDOF 0
ENDMDL
MODEL 6
REMARK VINA RESULT:    -1.883     19.460     20.634
REMARK INTER + INTRA:          -1.463
REMARK INTER:                  -2.512
REMARK INTRA:                   1.049
REMARK UNBOUND:                 0.860
REMARK SMILES CC1=CC=CC(C)(C)CC1=O
REMARK SMILES IDX 1 1 2 2 3 3 10 4 11 5 9 6 4 8 5 9 6 10 7 11 8 12
REMARK H PARENT
REMARK Flexibility Score: 80.00
ROOT
ATOM      1  C   UNL     1       7.743 -18.496  -7.297  1.00  0.00     0.048 C 
ATOM      2  C   UNL     1       7.490 -18.112  -8.737  1.00  0.00    -0.008 C 
ATOM      3  C   UNL     1       7.180 -19.096  -9.608  1.00  0.00     0.007 C 
ENDROOT
BRANCH   2   4
ATOM      4  C   UNL     1       7.662 -16.676  -9.085  1.00  0.00     0.159 C 
ATOM      5  O   UNL     1       8.175 -15.904  -8.228  1.00  0.00    -0.295 OA
BRANCH   4   6
ATOM      6  C   UNL     1       7.300 -16.084 -10.415  1.00  0.00     0.091 CG0
ATOM      7  G   UNL     1       7.974 -16.782 -11.617  1.00  0.00     0.000 G0
ENDBRANCH   4   6
ENDBRANCH   2   4
BRANCH   3   8
ATOM      8  C   UNL     1       6.875 -19.019 -11.054  1.00  0.00    -0.003 C 
ATOM      9  C   UNL     1       7.166 -18.039 -11.917  1.00  0.00    -0.020 C 
BRANCH   9  10
ATOM     10  C   UNL     1       7.954 -16.788 -11.612  1.00  0.00    -0.010 CG0
ATOM     11  C   UNL     1       8.015 -15.875 -12.859  1.00  0.00     0.016 C 
ATOM     12  C   UNL     1       9.400 -17.203 -11.256  1.00  0.00     0.016 C 
ATOM     13  G   UNL     1       7.340 -16.080 -10.383  1.00  0.00     0.000 G0
ENDBRANCH   9  10
ENDBRANCH   3   8
TORSDOF 0
ENDMDL
MODEL 7
REMARK VINA RESULT:    -1.593     19.593     20.931
REMARK INTER + INTRA:          -1.106
REMARK INTER:                  -2.162
REMARK INTRA:                   1.056
REMARK UNBOUND:                 0.860
REMARK SMILES CC1=CC=CC(C)(C)CC1=O
REMARK SMILES IDX 1 1 2 2 3 3 10 4 11 5 9 6 4 8 5 9 6 10 7 11 8 12
REMARK H PARENT
REMARK Flexibility Score: 80.00
ROOT
ATOM      1  C   UNL     1      13.057 -16.491 -13.398  1.00  0.00     0.048 C 
ATOM      2  C   UNL     1      11.635 -16.245 -12.947  1.00  0.00    -0.008 C 
ATOM      3  C   UNL     1      11.405 -16.126 -11.622  1.00  0.00     0.007 C 
ENDROOT
BRANCH   2   4
ATOM      4  C   UNL     1      10.594 -16.209 -14.009  1.00  0.00     0.159 C 
ATOM      5  O   UNL     1      10.926 -16.508 -15.190  1.00  0.00    -0.295 OA
BRANCH   4   6
ATOM      6  C   UNL     1       9.153 -15.878 -13.762  1.00  0.00     0.091 CG0
ATOM      7  G   UNL     1       8.504 -16.703 -12.629  1.00  0.00     0.000 G0
ENDBRANCH   4   6
ENDBRANCH   2   4
BRANCH   3   8
ATOM      8  C   UNL     1      10.137 -15.875 -10.900  1.00  0.00    -0.003 C 
ATOM      9  C   UNL     1       8.884 -16.068 -11.324  1.00  0.00    -0.020 C 
BRANCH   9  10
ATOM     10  C   UNL     1       8.473 -16.668 -12.647  1.00  0.00    -0.010 CG0
ATOM     11  C   UNL     1       6.932 -16.672 -12.779  1.00  0.00     0.016 C 
ATOM     12  C   UNL     1       8.958 -18.135 -12.684  1.00  0.00     0.016 C 
ATOM     13  G   UNL     1       9.167 -15.903 -13.796  1.00  0.00     0.000 G0
ENDBRANCH   9  10
ENDBRANCH   3   8
TORSDOF 0
ENDMDL
MODEL 8
REMARK VINA RESULT:    -1.390      1.645      2.463
REMARK INTER + INTRA:          -0.856
REMARK INTER:                  -1.718
REMARK INTRA:                   0.862
REMARK UNBOUND:                 0.860
REMARK SMILES CC1=CC=CC(C)(C)CC1=O
REMARK SMILES IDX 1 1 2 2 3 3 10 4 11 5 9 6 4 8 5 9 6 10 7 11 8 12
REMARK H PARENT
REMARK Flexibility Score: 80.00
ROOT
ATOM      1  C   UNL     1      22.224 -16.118   1.401  1.00  0.00     0.048 C 
ATOM      2  C   UNL     1      23.321 -17.114   1.698  1.00  0.00    -0.008 C 
ATOM      3  C   UNL     1      23.033 -18.142   2.526  1.00  0.00     0.007 C 
ENDROOT
BRANCH   2   4
ATOM      4  C   UNL     1      24.651 -16.845   1.090  1.00  0.00     0.159 C 
ATOM      5  O   UNL     1      24.763 -15.875   0.289  1.00  0.00    -0.295 OA
BRANCH   4   6
ATOM      6  C   UNL     1      25.891 -17.631   1.396  1.00  0.00     0.091 CG0
ATOM      7  G   UNL     1      25.723 -19.158   1.229  1.00  0.00     0.000 G0
ENDBRANCH   4   6
ENDBRANCH   2   4
BRANCH   3   8
ATOM      8  C   UNL     1      23.890 -19.259   2.982  1.00  0.00    -0.003 C 
ATOM      9  C   UNL     1      25.015 -19.726   2.430  1.00  0.00    -0.020 C 
BRANCH   9  10
ATOM     10  C   UNL     1      25.719 -19.155   1.222  1.00  0.00    -0.010 CG0
ATOM     11  C   UNL     1      24.951 -19.522  -0.069  1.00  0.00     0.016 C 
ATOM     12  C   UNL     1      27.125 -19.791   1.135  1.00  0.00     0.016 C 
ATOM     13  G   UNL     1      25.891 -17.630   1.400  1.00  0.00     0.000 G0
ENDBRANCH   9  10
ENDBRANCH   3   8
TORSDOF 0
ENDMDL
MODEL 9
REMARK VINA RESULT:    -1.383     19.215     20.354
REMARK INTER + INTRA:          -0.847
REMARK INTER:                  -1.950
REMARK INTRA:                   1.104
REMARK UNBOUND:                 0.860
REMARK SMILES CC1=CC=CC(C)(C)CC1=O
REMARK SMILES IDX 1 1 2 2 3 3 10 4 11 5 9 6 4 8 5 9 6 10 7 11 8 12
REMARK H PARENT
REMARK Flexibility Score: 80.00
ROOT
ATOM      1  C   UNL     1       7.062 -17.816 -13.456  1.00  0.00     0.048 C 
ATOM      2  C   UNL     1       8.401 -17.123 -13.358  1.00  0.00    -0.008 C 
ATOM      3  C   UNL     1       9.103 -16.944 -14.498  1.00  0.00     0.007 C 
ENDROOT
BRANCH   2   4
ATOM      4  C   UNL     1       8.859 -16.743 -11.995  1.00  0.00     0.159 C 
ATOM      5  O   UNL     1       8.230 -17.195 -10.999  1.00  0.00    -0.295 OA
BRANCH   4   6
ATOM      6  C   UNL     1      10.055 -15.881 -11.720  1.00  0.00     0.091 CG0
ATOM      7  G   UNL     1      11.364 -16.404 -12.353  1.00  0.00     0.000 G0
ENDBRANCH   4   6
ENDBRANCH   2   4
BRANCH   3   8
ATOM      8  C   UNL     1      10.419 -16.298 -14.708  1.00  0.00    -0.003 C 
ATOM      9  C   UNL     1      11.373 -16.037 -13.808  1.00  0.00    -0.020 C 
BRANCH   9  10
ATOM     10  C   UNL     1      11.348 -16.418 -12.347  1.00  0.00    -0.010 CG0
ATOM     11  C   UNL     1      12.616 -15.892 -11.634  1.00  0.00     0.016 C 
ATOM     12  C   UNL     1      11.353 -17.960 -12.249  1.00  0.00     0.016 C 
ATOM     13  G   UNL     1      10.043 -15.900 -11.702  1.00  0.00     0.000 G0
ENDBRANCH   9  10
ENDBRANCH   3   8
TORSDOF 0
ENDMDL
