MODEL 1
REMARK VINA RESULT:    -4.735      0.000      0.000
REMARK INTER + INTRA:          -7.325
REMARK INTER:                  -6.949
REMARK INTRA:                  -0.376
REMARK UNBOUND:                -0.376
REMARK SMILES O=C([O-])CCCCCCCC(=O)[O-]
REMARK SMILES IDX 7 1 6 2 5 3 4 4 2 5 1 6 3 7 8 8 9 9 10 10 11 11 12 12 13 13
REMARK H PARENT
REMARK Flexibility Score: inf
ROOT
ATOM      1  C   UNL     1      15.760  23.943  28.539  1.00  0.00     0.000 C 
ENDROOT
BRANCH   1   2
ATOM      2  C   UNL     1      14.687  23.476  29.535  1.00  0.00     0.000 C 
BRANCH   2   3
ATOM      3  C   UNL     1      13.583  24.525  29.752  1.00  0.00     0.006 C 
BRANCH   3   4
ATOM      4  C   UNL     1      12.663  24.163  30.925  1.00  0.00     0.053 C 
BRANCH   4   5
ATOM      5  C   UNL     1      11.247  23.957  30.480  1.00  0.00     0.041 C 
ATOM      6  O   UNL     1      10.977  23.094  29.604  1.00  0.00    -0.550 OA
ATOM      7  O   UNL     1      10.224  24.698  31.054  1.00  0.00    -0.550 OA
ENDBRANCH   4   5
ENDBRANCH   3   4
ENDBRANCH   2   3
ENDBRANCH   1   2
BRANCH   1   8
ATOM      8  C   UNL     1      16.957  22.983  28.464  1.00  0.00     0.000 C 
BRANCH   8   9
ATOM      9  C   UNL     1      16.572  21.682  27.749  1.00  0.00     0.006 C 
BRANCH   9  10
ATOM     10  C   UNL     1      16.918  21.751  26.259  1.00  0.00     0.053 C 
BRANCH  10  11
ATOM     11  C   UNL     1      15.672  21.858  25.436  1.00  0.00     0.041 C 
ATOM     12  O   UNL     1      15.742  22.170  24.218  1.00  0.00    -0.550 OA
ATOM     13  O   UNL     1      14.430  21.664  26.027  1.00  0.00    -0.550 OA
ENDBRANCH  10  11
ENDBRANCH   9  10
ENDBRANCH   8   9
ENDBRANCH   1   8
TORSDOF 8
ENDMDL
MODEL 2
REMARK VINA RESULT:    -4.553      0.545      5.861
REMARK INTER + INTRA:          -7.059
REMARK INTER:                  -6.623
REMARK INTRA:                  -0.437
REMARK UNBOUND:                -0.376
REMARK SMILES O=C([O-])CCCCCCCC(=O)[O-]
REMARK SMILES IDX 7 1 6 2 5 3 4 4 2 5 1 6 3 7 8 8 9 9 10 10 11 11 12 12 13 13
REMARK H PARENT
REMARK Flexibility Score: inf
ROOT
ATOM      1  C   UNL     1      16.167  23.771  28.750  1.00  0.00     0.000 C 
ENDROOT
BRANCH   1   2
ATOM      2  C   UNL     1      17.005  22.483  28.775  1.00  0.00     0.000 C 
BRANCH   2   3
ATOM      3  C   UNL     1      16.524  21.443  27.748  1.00  0.00     0.006 C 
BRANCH   3   4
ATOM      4  C   UNL     1      16.913  21.822  26.313  1.00  0.00     0.053 C 
BRANCH   4   5
ATOM      5  C   UNL     1      15.720  21.879  25.409  1.00  0.00     0.041 C 
ATOM      6  O   UNL     1      14.565  21.684  25.870  1.00  0.00    -0.550 OA
ATOM      7  O   UNL     1      15.884  22.174  24.062  1.00  0.00    -0.550 OA
ENDBRANCH   4   5
ENDBRANCH   3   4
ENDBRANCH   2   3
ENDBRANCH   1   2
BRANCH   1   8
ATOM      8  C   UNL     1      14.656  23.495  28.808  1.00  0.00     0.000 C 
BRANCH   8   9
ATOM      9  C   UNL     1      14.168  23.418  30.260  1.00  0.00     0.006 C 
BRANCH   9  10
ATOM     10  C   UNL     1      13.094  24.474  30.535  1.00  0.00     0.053 C 
BRANCH  10  11
ATOM     11  C   UNL     1      11.730  23.861  30.480  1.00  0.00     0.041 C 
ATOM     12  O   UNL     1      10.738  24.479  30.949  1.00  0.00    -0.550 OA
ATOM     13  O   UNL     1      11.562  22.585  29.957  1.00  0.00    -0.550 OA
ENDBRANCH  10  11
ENDBRANCH   9  10
ENDBRANCH   8   9
ENDBRANCH   1   8
TORSDOF 8
ENDMDL
MODEL 3
REMARK VINA RESULT:    -4.532      1.682      5.870
REMARK INTER + INTRA:          -7.028
REMARK INTER:                  -6.548
REMARK INTRA:                  -0.480
REMARK UNBOUND:                -0.376
REMARK SMILES O=C([O-])CCCCCCCC(=O)[O-]
REMARK SMILES IDX 7 1 6 2 5 3 4 4 2 5 1 6 3 7 8 8 9 9 10 10 11 11 12 12 13 13
REMARK H PARENT
REMARK Flexibility Score: inf
ROOT
ATOM      1  C   UNL     1      14.173  22.030  29.206  1.00  0.00     0.000 C 
ENDROOT
BRANCH   1   2
ATOM      2  C   UNL     1      15.207  21.372  28.279  1.00  0.00     0.000 C 
BRANCH   2   3
ATOM      3  C   UNL     1      14.991  21.734  26.799  1.00  0.00     0.006 C 
BRANCH   3   4
ATOM      4  C   UNL     1      16.265  22.283  26.145  1.00  0.00     0.053 C 
BRANCH   4   5
ATOM      5  C   UNL     1      16.492  23.723  26.490  1.00  0.00     0.041 C 
ATOM      6  O   UNL     1      15.981  24.633  25.786  1.00  0.00    -0.550 OA
ATOM      7  O   UNL     1      17.245  24.058  27.607  1.00  0.00    -0.550 OA
ENDBRANCH   4   5
ENDBRANCH   3   4
ENDBRANCH   2   3
ENDBRANCH   1   2
BRANCH   1   8
ATOM      8  C   UNL     1      14.656  23.373  29.774  1.00  0.00     0.000 C 
BRANCH   8   9
ATOM      9  C   UNL     1      13.529  24.414  29.753  1.00  0.00     0.006 C 
BRANCH   9  10
ATOM     10  C   UNL     1      12.584  24.224  30.943  1.00  0.00     0.053 C 
BRANCH  10  11
ATOM     11  C   UNL     1      11.180  24.017  30.469  1.00  0.00     0.041 C 
ATOM     12  O   UNL     1      10.943  23.236  29.511  1.00  0.00    -0.550 OA
ATOM     13  O   UNL     1      10.138  24.727  31.053  1.00  0.00    -0.550 OA
ENDBRANCH  10  11
ENDBRANCH   9  10
ENDBRANCH   8   9
ENDBRANCH   1   8
TORSDOF 8
ENDMDL
MODEL 4
REMARK VINA RESULT:    -4.530      1.760      2.203
REMARK INTER + INTRA:          -7.025
REMARK INTER:                  -6.373
REMARK INTRA:                  -0.652
REMARK UNBOUND:                -0.376
REMARK SMILES O=C([O-])CCCCCCCC(=O)[O-]
REMARK SMILES IDX 7 1 6 2 5 3 4 4 2 5 1 6 3 7 8 8 9 9 10 10 11 11 12 12 13 13
REMARK H PARENT
REMARK Flexibility Score: inf
ROOT
ATOM      1  C   UNL     1      14.305  21.367  29.617  1.00  0.00     0.000 C 
ENDROOT
BRANCH   1   2
ATOM      2  C   UNL     1      14.755  22.703  30.230  1.00  0.00     0.000 C 
BRANCH   2   3
ATOM      3  C   UNL     1      13.893  23.889  29.763  1.00  0.00     0.006 C 
BRANCH   3   4
ATOM      4  C   UNL     1      12.902  24.345  30.842  1.00  0.00     0.053 C 
BRANCH   4   5
ATOM      5  C   UNL     1      11.486  24.040  30.461  1.00  0.00     0.041 C 
ATOM      6  O   UNL     1      10.538  24.705  30.956  1.00  0.00    -0.550 OA
ATOM      7  O   UNL     1      11.215  23.040  29.537  1.00  0.00    -0.550 OA
ENDBRANCH   4   5
ENDBRANCH   3   4
ENDBRANCH   2   3
ENDBRANCH   1   2
BRANCH   1   8
ATOM      8  C   UNL     1      14.659  21.251  28.127  1.00  0.00     0.000 C 
BRANCH   8   9
ATOM      9  C   UNL     1      16.169  21.418  27.907  1.00  0.00     0.006 C 
BRANCH   9  10
ATOM     10  C   UNL     1      16.453  22.187  26.613  1.00  0.00     0.053 C 
BRANCH  10  11
ATOM     11  C   UNL     1      16.450  23.661  26.868  1.00  0.00     0.041 C 
ATOM     12  O   UNL     1      15.923  24.447  26.037  1.00  0.00    -0.550 OA
ATOM     13  O   UNL     1      17.075  24.172  27.999  1.00  0.00    -0.550 OA
ENDBRANCH  10  11
ENDBRANCH   9  10
ENDBRANCH   8   9
ENDBRANCH   1   8
TORSDOF 8
ENDMDL
MODEL 5
REMARK VINA RESULT:    -4.513      1.469      5.871
REMARK INTER + INTRA:          -7.001
REMARK INTER:                  -6.591
REMARK INTRA:                  -0.410
REMARK UNBOUND:                -0.376
REMARK SMILES O=C([O-])CCCCCCCC(=O)[O-]
REMARK SMILES IDX 7 1 6 2 5 3 4 4 2 5 1 6 3 7 8 8 9 9 10 10 11 11 12 12 13 13
REMARK H PARENT
REMARK Flexibility Score: inf
ROOT
ATOM      1  C   UNL     1      14.580  23.301  29.006  1.00  0.00     0.000 C 
ENDROOT
BRANCH   1   2
ATOM      2  C   UNL     1      16.103  23.404  29.187  1.00  0.00     0.000 C 
BRANCH   2   3
ATOM      3  C   UNL     1      16.832  23.767  27.881  1.00  0.00     0.006 C 
BRANCH   3   4
ATOM      4  C   UNL     1      15.910  23.674  26.659  1.00  0.00     0.053 C 
BRANCH   4   5
ATOM      5  C   UNL     1      16.329  22.579  25.727  1.00  0.00     0.041 C 
ATOM      6  O   UNL     1      16.033  22.637  24.505  1.00  0.00    -0.550 OA
ATOM      7  O   UNL     1      17.071  21.507  26.205  1.00  0.00    -0.550 OA
ENDBRANCH   4   5
ENDBRANCH   3   4
ENDBRANCH   2   3
ENDBRANCH   1   2
BRANCH   1   8
ATOM      8  C   UNL     1      13.832  24.515  29.579  1.00  0.00     0.000 C 
BRANCH   8   9
ATOM      9  C   UNL     1      12.857  24.086  30.683  1.00  0.00     0.006 C 
BRANCH   9  10
ATOM     10  C   UNL     1      11.424  24.008  30.149  1.00  0.00     0.053 C 
BRANCH  10  11
ATOM     11  C   UNL     1      11.052  22.589  29.852  1.00  0.00     0.041 C 
ATOM     12  O   UNL     1      11.388  21.667  30.641  1.00  0.00    -0.550 OA
ATOM     13  O   UNL     1      10.377  22.279  28.678  1.00  0.00    -0.550 OA
ENDBRANCH  10  11
ENDBRANCH   9  10
ENDBRANCH   8   9
ENDBRANCH   1   8
TORSDOF 8
ENDMDL
MODEL 6
REMARK VINA RESULT:    -4.463      1.486      2.449
REMARK INTER + INTRA:          -6.927
REMARK INTER:                  -6.601
REMARK INTRA:                  -0.326
REMARK UNBOUND:                -0.376
REMARK SMILES O=C([O-])CCCCCCCC(=O)[O-]
REMARK SMILES IDX 7 1 6 2 5 3 4 4 2 5 1 6 3 7 8 8 9 9 10 10 11 11 12 12 13 13
REMARK H PARENT
REMARK Flexibility Score: inf
ROOT
ATOM      1  C   UNL     1      13.674  22.987  29.684  1.00  0.00     0.000 C 
ENDROOT
BRANCH   1   2
ATOM      2  C   UNL     1      12.689  23.433  30.775  1.00  0.00     0.000 C 
BRANCH   2   3
ATOM      3  C   UNL     1      11.454  24.149  30.201  1.00  0.00     0.006 C 
BRANCH   3   4
ATOM      4  C   UNL     1      10.265  24.119  31.170  1.00  0.00     0.053 C 
BRANCH   4   5
ATOM      5  C   UNL     1       9.390  22.925  30.941  1.00  0.00     0.041 C 
ATOM      6  O   UNL     1       8.567  22.563  31.822  1.00  0.00    -0.550 OA
ATOM      7  O   UNL     1       9.464  22.231  29.741  1.00  0.00    -0.550 OA
ENDBRANCH   4   5
ENDBRANCH   3   4
ENDBRANCH   2   3
ENDBRANCH   1   2
BRANCH   1   8
ATOM      8  C   UNL     1      14.566  24.134  29.185  1.00  0.00     0.000 C 
BRANCH   8   9
ATOM      9  C   UNL     1      15.867  23.593  28.578  1.00  0.00     0.006 C 
BRANCH   9  10
ATOM     10  C   UNL     1      15.841  23.688  27.050  1.00  0.00     0.053 C 
BRANCH  10  11
ATOM     11  C   UNL     1      15.769  22.323  26.441  1.00  0.00     0.041 C 
ATOM     12  O   UNL     1      14.656  21.757  26.282  1.00  0.00    -0.550 OA
ATOM     13  O   UNL     1      16.937  21.654  26.095  1.00  0.00    -0.550 OA
ENDBRANCH  10  11
ENDBRANCH   9  10
ENDBRANCH   8   9
ENDBRANCH   1   8
TORSDOF 8
ENDMDL
MODEL 7
REMARK VINA RESULT:    -4.379     21.926     22.721
REMARK INTER + INTRA:          -6.803
REMARK INTER:                  -6.113
REMARK INTRA:                  -0.690
REMARK UNBOUND:                -0.376
REMARK SMILES O=C([O-])CCCCCCCC(=O)[O-]
REMARK SMILES IDX 7 1 6 2 5 3 4 4 2 5 1 6 3 7 8 8 9 9 10 10 11 11 12 12 13 13
REMARK H PARENT
REMARK Flexibility Score: inf
ROOT
ATOM      1  C   UNL     1       1.796  37.982  13.458  1.00  0.00     0.000 C 
ENDROOT
BRANCH   1   2
ATOM      2  C   UNL     1       1.790  36.985  12.289  1.00  0.00     0.000 C 
BRANCH   2   3
ATOM      3  C   UNL     1       0.605  36.004  12.353  1.00  0.00     0.006 C 
BRANCH   3   4
ATOM      4  C   UNL     1       0.813  34.914  13.413  1.00  0.00     0.053 C 
BRANCH   4   5
ATOM      5  C   UNL     1      -0.057  35.132  14.613  1.00  0.00     0.041 C 
ATOM      6  O   UNL     1      -1.223  35.586  14.478  1.00  0.00    -0.550 OA
ATOM      7  O   UNL     1       0.413  34.807  15.878  1.00  0.00    -0.550 OA
ENDBRANCH   4   5
ENDBRANCH   3   4
ENDBRANCH   2   3
ENDBRANCH   1   2
BRANCH   1   8
ATOM      8  C   UNL     1       3.136  38.006  14.209  1.00  0.00     0.000 C 
BRANCH   8   9
ATOM      9  C   UNL     1       3.075  37.129  15.467  1.00  0.00     0.006 C 
BRANCH   9  10
ATOM     10  C   UNL     1       3.868  35.834  15.272  1.00  0.00     0.053 C 
BRANCH  10  11
ATOM     11  C   UNL     1       5.175  35.905  15.998  1.00  0.00     0.041 C 
ATOM     12  O   UNL     1       5.419  35.111  16.944  1.00  0.00    -0.550 OA
ATOM     13  O   UNL     1       6.104  36.883  15.663  1.00  0.00    -0.550 OA
ENDBRANCH  10  11
ENDBRANCH   9  10
ENDBRANCH   8   9
ENDBRANCH   1   8
TORSDOF 8
ENDMDL
MODEL 8
REMARK VINA RESULT:    -4.290     22.176     23.049
REMARK INTER + INTRA:          -6.673
REMARK INTER:                  -5.924
REMARK INTRA:                  -0.749
REMARK UNBOUND:                -0.376
REMARK SMILES O=C([O-])CCCCCCCC(=O)[O-]
REMARK SMILES IDX 7 1 6 2 5 3 4 4 2 5 1 6 3 7 8 8 9 9 10 10 11 11 12 12 13 13
REMARK H PARENT
REMARK Flexibility Score: inf
ROOT
ATOM      1  C   UNL     1       1.670  36.824  12.262  1.00  0.00     0.000 C 
ENDROOT
BRANCH   1   2
ATOM      2  C   UNL     1       0.514  35.818  12.384  1.00  0.00     0.000 C 
BRANCH   2   3
ATOM      3  C   UNL     1       0.598  34.972  13.665  1.00  0.00     0.006 C 
BRANCH   3   4
ATOM      4  C   UNL     1      -0.441  35.398  14.711  1.00  0.00     0.053 C 
BRANCH   4   5
ATOM      5  C   UNL     1      -0.187  34.759  16.042  1.00  0.00     0.041 C 
ATOM      6  O   UNL     1       0.987  34.670  16.489  1.00  0.00    -0.550 OA
ATOM      7  O   UNL     1      -1.250  34.288  16.800  1.00  0.00    -0.550 OA
ENDBRANCH   4   5
ENDBRANCH   3   4
ENDBRANCH   2   3
ENDBRANCH   1   2
BRANCH   1   8
ATOM      8  C   UNL     1       1.448  38.086  13.109  1.00  0.00     0.000 C 
BRANCH   8   9
ATOM      9  C   UNL     1       2.694  38.411  13.945  1.00  0.00     0.006 C 
BRANCH   9  10
ATOM     10  C   UNL     1       2.691  37.629  15.261  1.00  0.00     0.053 C 
BRANCH  10  11
ATOM     11  C   UNL     1       3.894  36.743  15.347  1.00  0.00     0.041 C 
ATOM     12  O   UNL     1       3.819  35.535  14.998  1.00  0.00    -0.550 OA
ATOM     13  O   UNL     1       5.086  37.238  15.861  1.00  0.00    -0.550 OA
ENDBRANCH  10  11
ENDBRANCH   9  10
ENDBRANCH   8   9
ENDBRANCH   1   8
TORSDOF 8
ENDMDL
MODEL 9
REMARK VINA RESULT:    -4.279     22.691     23.710
REMARK INTER + INTRA:          -6.657
REMARK INTER:                  -5.887
REMARK INTRA:                  -0.770
REMARK UNBOUND:                -0.376
REMARK SMILES O=C([O-])CCCCCCCC(=O)[O-]
REMARK SMILES IDX 7 1 6 2 5 3 4 4 2 5 1 6 3 7 8 8 9 9 10 10 11 11 12 12 13 13
REMARK H PARENT
REMARK Flexibility Score: inf
ROOT
ATOM      1  C   UNL     1       2.107  37.186  12.660  1.00  0.00     0.000 C 
ENDROOT
BRANCH   1   2
ATOM      2  C   UNL     1       1.815  37.901  13.988  1.00  0.00     0.000 C 
BRANCH   2   3
ATOM      3  C   UNL     1       2.068  37.004  15.212  1.00  0.00     0.006 C 
BRANCH   3   4
ATOM      4  C   UNL     1       3.147  35.947  14.942  1.00  0.00     0.053 C 
BRANCH   4   5
ATOM      5  C   UNL     1       4.441  36.287  15.617  1.00  0.00     0.041 C 
ATOM      6  O   UNL     1       5.034  35.429  16.321  1.00  0.00    -0.550 OA
ATOM      7  O   UNL     1       5.005  37.544  15.443  1.00  0.00    -0.550 OA
ENDBRANCH   4   5
ENDBRANCH   3   4
ENDBRANCH   2   3
ENDBRANCH   1   2
BRANCH   1   8
ATOM      8  C   UNL     1       0.828  36.814  11.894  1.00  0.00     0.000 C 
BRANCH   8   9
ATOM      9  C   UNL     1       0.389  35.381  12.223  1.00  0.00     0.006 C 
BRANCH   9  10
ATOM     10  C   UNL     1      -1.083  35.341  12.644  1.00  0.00     0.053 C 
BRANCH  10  11
ATOM     11  C   UNL     1      -1.228  35.743  14.078  1.00  0.00     0.041 C 
ATOM     12  O   UNL     1      -0.754  35.016  14.991  1.00  0.00    -0.550 OA
ATOM     13  O   UNL     1      -1.931  36.894  14.409  1.00  0.00    -0.550 OA
ENDBRANCH  10  11
ENDBRANCH   9  10
ENDBRANCH   8   9
ENDBRANCH   1   8
TORSDOF 8
ENDMDL
