MODEL 1
REMARK VINA RESULT:    -5.842      0.000      0.000
REMARK INTER + INTRA:         -10.200
REMARK INTER:                  -8.745
REMARK INTRA:                  -1.456
REMARK UNBOUND:                -1.456
REMARK SMILES COC(=O)C1=CO[C@@H](O[C@H]2O[C@H](CO)[C@@H](O)[C@H](O)[C@H]2O)[C@@H]2C(CO)=CC[C@@H]12
REMARK SMILES IDX 9 1 8 2 5 3 6 4 27 5 7 6 21 7 26 8 22 9 25 10 3 11 4 12 2 13
REMARK SMILES IDX 1 14 23 15 24 16 10 18 19 19 11 20 17 21 12 22 15 23 20 24
REMARK SMILES IDX 18 26 13 28 14 29 16 31
REMARK H PARENT 24 17 20 25 18 27 14 30 16 32
REMARK Flexibility Score: inf
ROOT
ATOM      1  O   UNL     1       6.717  74.924  36.955  1.00  0.00    -0.310 OA
ENDROOT
BRANCH   1   2
ATOM      2  C   UNL     1       6.944  76.314  37.099  1.00  0.00     0.316 C 
ATOM      3  C   UNL     1       8.420  78.339  38.617  1.00  0.00     0.076 C 
ATOM      4  C   UNL     1       9.048  77.582  37.688  1.00  0.00     0.202 C 
ATOM      5  C   UNL     1       6.918  78.200  38.687  1.00  0.00     0.047 C 
ATOM      6  O   UNL     1       8.347  76.609  36.935  1.00  0.00    -0.471 OA
ATOM      7  C   UNL     1       6.547  76.735  38.513  1.00  0.00     0.094 C 
ATOM      8  C   UNL     1       6.136  78.592  39.941  1.00  0.00     0.037 C 
ATOM      9  C   UNL     1       5.118  76.730  38.934  1.00  0.00    -0.039 C 
ATOM     10  C   UNL     1       4.920  77.720  39.811  1.00  0.00    -0.024 C 
BRANCH   3  11
ATOM     11  C   UNL     1       9.150  79.386  39.368  1.00  0.00     0.337 C 
ATOM     12  O   UNL     1       8.984  80.604  39.078  1.00  0.00    -0.246 OA
BRANCH  11  13
ATOM     13  O   UNL     1      10.018  79.028  40.402  1.00  0.00    -0.466 OA
ATOM     14  C   UNL     1      10.844  79.971  41.076  1.00  0.00     0.282 C 
ENDBRANCH  11  13
ENDBRANCH   3  11
BRANCH   9  15
ATOM     15  C   UNL     1       4.155  75.597  38.715  1.00  0.00     0.187 C 
BRANCH  15  16
ATOM     16  O   UNL     1       4.152  74.743  39.824  1.00  0.00    -0.392 OA
ATOM     17  H   UNL     1       4.516  73.873  39.513  1.00  0.00     0.211 HD
ENDBRANCH  15  16
ENDBRANCH   9  15
ENDBRANCH   1   2
BRANCH   1  18
ATOM     18  C   UNL     1       7.439  74.182  37.928  1.00  0.00     0.286 C 
ATOM     19  C   UNL     1       8.557  73.367  37.248  1.00  0.00     0.202 C 
ATOM     20  O   UNL     1       6.584  73.331  38.677  1.00  0.00    -0.341 OA
ATOM     21  C   UNL     1       7.955  72.266  36.364  1.00  0.00     0.179 C 
ATOM     22  C   UNL     1       5.921  72.389  37.847  1.00  0.00     0.178 C 
ATOM     23  C   UNL     1       6.938  71.441  37.174  1.00  0.00     0.177 C 
BRANCH  19  24
ATOM     24  O   UNL     1       9.363  74.206  36.462  1.00  0.00    -0.385 OA
ATOM     25  H   UNL     1       9.570  75.004  37.015  1.00  0.00     0.211 HD
ENDBRANCH  19  24
BRANCH  21  26
ATOM     26  O   UNL     1       8.988  71.436  35.899  1.00  0.00    -0.387 OA
ATOM     27  H   UNL     1       9.553  71.209  36.684  1.00  0.00     0.211 HD
ENDBRANCH  21  26
BRANCH  22  28
ATOM     28  C   UNL     1       4.930  71.596  38.712  1.00  0.00     0.191 C 
BRANCH  28  29
ATOM     29  O   UNL     1       4.989  72.027  40.045  1.00  0.00    -0.394 OA
ATOM     30  H   UNL     1       4.307  72.742  40.143  1.00  0.00     0.210 HD
ENDBRANCH  28  29
ENDBRANCH  22  28
BRANCH  23  31
ATOM     31  O   UNL     1       6.261  70.556  36.317  1.00  0.00    -0.387 OA
ATOM     32  H   UNL     1       5.891  71.099  35.573  1.00  0.00     0.211 HD
ENDBRANCH  23  31
ENDBRANCH   1  18
TORSDOF 11
ENDMDL
MODEL 2
REMARK VINA RESULT:    -5.619      1.186      2.395
REMARK INTER + INTRA:          -9.867
REMARK INTER:                  -8.565
REMARK INTRA:                  -1.302
REMARK UNBOUND:                -1.456
REMARK SMILES COC(=O)C1=CO[C@@H](O[C@H]2O[C@H](CO)[C@@H](O)[C@H](O)[C@H]2O)[C@@H]2C(CO)=CC[C@@H]12
REMARK SMILES IDX 9 1 8 2 5 3 6 4 27 5 7 6 21 7 26 8 22 9 25 10 3 11 4 12 2 13
REMARK SMILES IDX 1 14 23 15 24 16 10 18 19 19 11 20 17 21 12 22 15 23 20 24
REMARK SMILES IDX 18 26 13 28 14 29 16 31
REMARK H PARENT 24 17 20 25 18 27 14 30 16 32
REMARK Flexibility Score: inf
ROOT
ATOM      1  O   UNL     1       7.126  75.077  37.771  1.00  0.00    -0.310 OA
ENDROOT
BRANCH   1   2
ATOM      2  C   UNL     1       7.268  76.473  37.586  1.00  0.00     0.316 C 
ATOM      3  C   UNL     1       8.559  78.891  38.621  1.00  0.00     0.076 C 
ATOM      4  C   UNL     1       9.269  77.979  37.919  1.00  0.00     0.202 C 
ATOM      5  C   UNL     1       7.065  78.676  38.676  1.00  0.00     0.047 C 
ATOM      6  O   UNL     1       8.659  76.811  37.399  1.00  0.00    -0.471 OA
ATOM      7  C   UNL     1       6.785  77.190  38.846  1.00  0.00     0.094 C 
ATOM      8  C   UNL     1       6.207  79.301  39.775  1.00  0.00     0.037 C 
ATOM      9  C   UNL     1       5.340  77.191  39.211  1.00  0.00    -0.039 C 
ATOM     10  C   UNL     1       5.049  78.345  39.820  1.00  0.00    -0.024 C 
BRANCH   3  11
ATOM     11  C   UNL     1       9.195  80.131  39.121  1.00  0.00     0.337 C 
ATOM     12  O   UNL     1       8.695  81.257  38.839  1.00  0.00    -0.246 OA
BRANCH  11  13
ATOM     13  O   UNL     1      10.344  80.058  39.913  1.00  0.00    -0.466 OA
ATOM     14  C   UNL     1      11.486  80.876  39.691  1.00  0.00     0.282 C 
ENDBRANCH  11  13
ENDBRANCH   3  11
BRANCH   9  15
ATOM     15  C   UNL     1       4.453  75.978  39.240  1.00  0.00     0.187 C 
BRANCH  15  16
ATOM     16  O   UNL     1       5.182  74.855  39.647  1.00  0.00    -0.392 OA
ATOM     17  H   UNL     1       5.232  74.894  40.637  1.00  0.00     0.211 HD
ENDBRANCH  15  16
ENDBRANCH   9  15
ENDBRANCH   1   2
BRANCH   1  18
ATOM     18  C   UNL     1       7.258  74.380  36.540  1.00  0.00     0.286 C 
ATOM     19  C   UNL     1       6.115  73.357  36.388  1.00  0.00     0.202 C 
ATOM     20  O   UNL     1       8.520  73.739  36.433  1.00  0.00    -0.341 OA
ATOM     21  C   UNL     1       6.259  72.235  37.426  1.00  0.00     0.179 C 
ATOM     22  C   UNL     1       8.717  72.789  37.470  1.00  0.00     0.178 C 
ATOM     23  C   UNL     1       7.681  71.648  37.370  1.00  0.00     0.177 C 
BRANCH  19  24
ATOM     24  O   UNL     1       4.870  73.987  36.553  1.00  0.00    -0.385 OA
ATOM     25  H   UNL     1       4.808  74.250  37.508  1.00  0.00     0.211 HD
ENDBRANCH  19  24
BRANCH  21  26
ATOM     26  O   UNL     1       5.312  71.234  37.154  1.00  0.00    -0.387 OA
ATOM     27  H   UNL     1       4.416  71.628  37.326  1.00  0.00     0.211 HD
ENDBRANCH  21  26
BRANCH  22  28
ATOM     28  C   UNL     1      10.145  72.236  37.354  1.00  0.00     0.191 C 
BRANCH  28  29
ATOM     29  O   UNL     1      10.199  71.215  36.393  1.00  0.00    -0.394 OA
ATOM     30  H   UNL     1      10.287  71.660  35.510  1.00  0.00     0.210 HD
ENDBRANCH  28  29
ENDBRANCH  22  28
BRANCH  23  31
ATOM     31  O   UNL     1       7.863  70.751  38.437  1.00  0.00    -0.387 OA
ATOM     32  H   UNL     1       7.672  69.842  38.087  1.00  0.00     0.211 HD
ENDBRANCH  23  31
ENDBRANCH   1  18
TORSDOF 11
ENDMDL
MODEL 3
REMARK VINA RESULT:    -5.325      3.135      8.600
REMARK INTER + INTRA:          -9.427
REMARK INTER:                  -8.183
REMARK INTRA:                  -1.244
REMARK UNBOUND:                -1.456
REMARK SMILES COC(=O)C1=CO[C@@H](O[C@H]2O[C@H](CO)[C@@H](O)[C@H](O)[C@H]2O)[C@@H]2C(CO)=CC[C@@H]12
REMARK SMILES IDX 9 1 8 2 5 3 6 4 27 5 7 6 21 7 26 8 22 9 25 10 3 11 4 12 2 13
REMARK SMILES IDX 1 14 23 15 24 16 10 18 19 19 11 20 17 21 12 22 15 23 20 24
REMARK SMILES IDX 18 26 13 28 14 29 16 31
REMARK H PARENT 24 17 20 25 18 27 14 30 16 32
REMARK Flexibility Score: inf
ROOT
ATOM      1  O   UNL     1       8.760  80.541  41.256  1.00  0.00    -0.310 OA
ENDROOT
BRANCH   1   2
ATOM      2  C   UNL     1       7.879  80.144  40.221  1.00  0.00     0.316 C 
ATOM      3  C   UNL     1       6.511  77.856  39.007  1.00  0.00     0.076 C 
ATOM      4  C   UNL     1       6.083  78.369  40.183  1.00  0.00     0.202 C 
ATOM      5  C   UNL     1       7.593  78.631  38.295  1.00  0.00     0.047 C 
ATOM      6  O   UNL     1       6.723  79.483  40.777  1.00  0.00    -0.471 OA
ATOM      7  C   UNL     1       8.596  79.139  39.321  1.00  0.00     0.094 C 
ATOM      8  C   UNL     1       8.494  77.972  37.251  1.00  0.00     0.037 C 
ATOM      9  C   UNL     1       9.728  79.569  38.453  1.00  0.00    -0.039 C 
ATOM     10  C   UNL     1       9.719  78.839  37.333  1.00  0.00    -0.024 C 
BRANCH   3  11
ATOM     11  C   UNL     1       5.807  76.719  38.370  1.00  0.00     0.337 C 
ATOM     12  O   UNL     1       5.585  76.729  37.127  1.00  0.00    -0.246 OA
BRANCH  11  13
ATOM     13  O   UNL     1       5.395  75.630  39.143  1.00  0.00    -0.466 OA
ATOM     14  C   UNL     1       4.044  75.188  39.193  1.00  0.00     0.282 C 
ENDBRANCH  11  13
ENDBRANCH   3  11
BRANCH   9  15
ATOM     15  C   UNL     1      10.897  80.401  38.904  1.00  0.00     0.187 C 
BRANCH  15  16
ATOM     16  O   UNL     1      11.288  80.026  40.195  1.00  0.00    -0.392 OA
ATOM     17  H   UNL     1      12.229  80.323  40.303  1.00  0.00     0.211 HD
ENDBRANCH  15  16
ENDBRANCH   9  15
ENDBRANCH   1   2
BRANCH   1  18
ATOM     18  C   UNL     1       8.343  81.764  41.844  1.00  0.00     0.286 C 
ATOM     19  C   UNL     1       9.548  82.713  41.998  1.00  0.00     0.202 C 
ATOM     20  O   UNL     1       7.709  81.554  43.097  1.00  0.00    -0.341 OA
ATOM     21  C   UNL     1      10.536  82.161  43.035  1.00  0.00     0.179 C 
ATOM     22  C   UNL     1       8.578  80.922  44.026  1.00  0.00     0.178 C 
ATOM     23  C   UNL     1       9.792  81.825  44.340  1.00  0.00     0.177 C 
BRANCH  19  24
ATOM     24  O   UNL     1      10.205  82.871  40.767  1.00  0.00    -0.385 OA
ATOM     25  H   UNL     1      11.171  82.978  40.970  1.00  0.00     0.211 HD
ENDBRANCH  19  24
BRANCH  21  26
ATOM     26  O   UNL     1      11.529  83.124  43.281  1.00  0.00    -0.387 OA
ATOM     27  H   UNL     1      11.250  83.954  42.811  1.00  0.00     0.211 HD
ENDBRANCH  21  26
BRANCH  22  28
ATOM     28  C   UNL     1       7.781  80.621  45.305  1.00  0.00     0.191 C 
BRANCH  28  29
ATOM     29  O   UNL     1       7.834  81.714  46.183  1.00  0.00    -0.394 OA
ATOM     30  H   UNL     1       8.778  82.019  46.200  1.00  0.00     0.210 HD
ENDBRANCH  28  29
ENDBRANCH  22  28
BRANCH  23  31
ATOM     31  O   UNL     1      10.661  81.155  45.219  1.00  0.00    -0.387 OA
ATOM     32  H   UNL     1      11.325  80.675  44.659  1.00  0.00     0.211 HD
ENDBRANCH  23  31
ENDBRANCH   1  18
TORSDOF 11
ENDMDL
MODEL 4
REMARK VINA RESULT:    -5.273      2.092      3.713
REMARK INTER + INTRA:          -9.349
REMARK INTER:                  -8.458
REMARK INTRA:                  -0.891
REMARK UNBOUND:                -1.456
REMARK SMILES COC(=O)C1=CO[C@@H](O[C@H]2O[C@H](CO)[C@@H](O)[C@H](O)[C@H]2O)[C@@H]2C(CO)=CC[C@@H]12
REMARK SMILES IDX 9 1 8 2 5 3 6 4 27 5 7 6 21 7 26 8 22 9 25 10 3 11 4 12 2 13
REMARK SMILES IDX 1 14 23 15 24 16 10 18 19 19 11 20 17 21 12 22 15 23 20 24
REMARK SMILES IDX 18 26 13 28 14 29 16 31
REMARK H PARENT 24 17 20 25 18 27 14 30 16 32
REMARK Flexibility Score: inf
ROOT
ATOM      1  O   UNL     1       5.603  73.427  37.889  1.00  0.00    -0.310 OA
ENDROOT
BRANCH   1   2
ATOM      2  C   UNL     1       6.018  74.558  38.631  1.00  0.00     0.316 C 
ATOM      3  C   UNL     1       5.744  77.463  38.895  1.00  0.00     0.076 C 
ATOM      4  C   UNL     1       4.752  76.638  39.302  1.00  0.00     0.202 C 
ATOM      5  C   UNL     1       7.035  76.800  38.478  1.00  0.00     0.047 C 
ATOM      6  O   UNL     1       4.873  75.232  39.195  1.00  0.00    -0.471 OA
ATOM      7  C   UNL     1       6.712  75.540  37.688  1.00  0.00     0.094 C 
ATOM      8  C   UNL     1       8.043  77.508  37.574  1.00  0.00     0.037 C 
ATOM      9  C   UNL     1       8.035  75.209  37.087  1.00  0.00    -0.039 C 
ATOM     10  C   UNL     1       8.737  76.337  36.938  1.00  0.00    -0.024 C 
BRANCH   3  11
ATOM     11  C   UNL     1       5.628  78.931  39.053  1.00  0.00     0.337 C 
ATOM     12  O   UNL     1       5.238  79.642  38.085  1.00  0.00    -0.246 OA
BRANCH  11  13
ATOM     13  O   UNL     1       5.943  79.530  40.275  1.00  0.00    -0.466 OA
ATOM     14  C   UNL     1       5.130  79.390  41.434  1.00  0.00     0.282 C 
ENDBRANCH  11  13
ENDBRANCH   3  11
BRANCH   9  15
ATOM     15  C   UNL     1       8.381  73.909  36.417  1.00  0.00     0.187 C 
BRANCH  15  16
ATOM     16  O   UNL     1       8.684  72.935  37.376  1.00  0.00    -0.392 OA
ATOM     17  H   UNL     1       8.460  73.328  38.259  1.00  0.00     0.211 HD
ENDBRANCH  15  16
ENDBRANCH   9  15
ENDBRANCH   1   2
BRANCH   1  18
ATOM     18  C   UNL     1       4.938  72.484  38.718  1.00  0.00     0.286 C 
ATOM     19  C   UNL     1       5.961  71.501  39.323  1.00  0.00     0.202 C 
ATOM     20  O   UNL     1       3.929  71.782  38.008  1.00  0.00    -0.341 OA
ATOM     21  C   UNL     1       6.566  70.615  38.225  1.00  0.00     0.179 C 
ATOM     22  C   UNL     1       4.463  71.061  36.908  1.00  0.00     0.178 C 
ATOM     23  C   UNL     1       5.442  69.969  37.394  1.00  0.00     0.177 C 
BRANCH  19  24
ATOM     24  O   UNL     1       6.988  72.204  39.973  1.00  0.00    -0.385 OA
ATOM     25  H   UNL     1       7.074  73.077  39.510  1.00  0.00     0.211 HD
ENDBRANCH  19  24
BRANCH  21  26
ATOM     26  O   UNL     1       7.357  69.620  38.823  1.00  0.00    -0.387 OA
ATOM     27  H   UNL     1       7.881  70.061  39.543  1.00  0.00     0.211 HD
ENDBRANCH  21  26
BRANCH  22  28
ATOM     28  C   UNL     1       3.298  70.436  36.127  1.00  0.00     0.191 C 
BRANCH  28  29
ATOM     29  O   UNL     1       3.069  69.121  36.558  1.00  0.00    -0.394 OA
ATOM     30  H   UNL     1       2.711  68.624  35.776  1.00  0.00     0.210 HD
ENDBRANCH  28  29
ENDBRANCH  22  28
BRANCH  23  31
ATOM     31  O   UNL     1       5.997  69.307  36.285  1.00  0.00    -0.387 OA
ATOM     32  H   UNL     1       6.108  68.355  36.542  1.00  0.00     0.211 HD
ENDBRANCH  23  31
ENDBRANCH   1  18
TORSDOF 11
ENDMDL
MODEL 5
REMARK VINA RESULT:    -5.165      2.370      7.417
REMARK INTER + INTRA:          -9.187
REMARK INTER:                  -8.221
REMARK INTRA:                  -0.966
REMARK UNBOUND:                -1.456
REMARK SMILES COC(=O)C1=CO[C@@H](O[C@H]2O[C@H](CO)[C@@H](O)[C@H](O)[C@H]2O)[C@@H]2C(CO)=CC[C@@H]12
REMARK SMILES IDX 9 1 8 2 5 3 6 4 27 5 7 6 21 7 26 8 22 9 25 10 3 11 4 12 2 13
REMARK SMILES IDX 1 14 23 15 24 16 10 18 19 19 11 20 17 21 12 22 15 23 20 24
REMARK SMILES IDX 18 26 13 28 14 29 16 31
REMARK H PARENT 24 17 20 25 18 27 14 30 16 32
REMARK Flexibility Score: inf
ROOT
ATOM      1  O   UNL     1       8.717  78.771  39.233  1.00  0.00    -0.310 OA
ENDROOT
BRANCH   1   2
ATOM      2  C   UNL     1       7.489  78.269  38.739  1.00  0.00     0.316 C 
ATOM      3  C   UNL     1       5.425  76.226  39.123  1.00  0.00     0.076 C 
ATOM      4  C   UNL     1       5.506  77.288  39.957  1.00  0.00     0.202 C 
ATOM      5  C   UNL     1       6.325  76.259  37.912  1.00  0.00     0.047 C 
ATOM      6  O   UNL     1       6.488  78.292  39.778  1.00  0.00    -0.471 OA
ATOM      7  C   UNL     1       7.682  76.814  38.317  1.00  0.00     0.094 C 
ATOM      8  C   UNL     1       6.701  74.982  37.160  1.00  0.00     0.037 C 
ATOM      9  C   UNL     1       8.519  76.471  37.133  1.00  0.00    -0.039 C 
ATOM     10  C   UNL     1       8.013  75.382  36.545  1.00  0.00    -0.024 C 
BRANCH   3  11
ATOM     11  C   UNL     1       4.366  75.204  39.291  1.00  0.00     0.337 C 
ATOM     12  O   UNL     1       3.279  75.310  38.657  1.00  0.00    -0.246 OA
BRANCH  11  13
ATOM     13  O   UNL     1       4.573  74.117  40.144  1.00  0.00    -0.466 OA
ATOM     14  C   UNL     1       5.856  73.543  40.365  1.00  0.00     0.282 C 
ENDBRANCH  11  13
ENDBRANCH   3  11
BRANCH   9  15
ATOM     15  C   UNL     1       9.895  77.012  36.859  1.00  0.00     0.187 C 
BRANCH  15  16
ATOM     16  O   UNL     1      10.774  75.965  36.556  1.00  0.00    -0.392 OA
ATOM     17  H   UNL     1      11.443  76.332  35.921  1.00  0.00     0.211 HD
ENDBRANCH  15  16
ENDBRANCH   9  15
ENDBRANCH   1   2
BRANCH   1  18
ATOM     18  C   UNL     1       8.808  80.176  39.051  1.00  0.00     0.286 C 
ATOM     19  C   UNL     1      10.282  80.589  38.859  1.00  0.00     0.202 C 
ATOM     20  O   UNL     1       8.229  80.884  40.137  1.00  0.00    -0.341 OA
ATOM     21  C   UNL     1      11.073  80.365  40.155  1.00  0.00     0.179 C 
ATOM     22  C   UNL     1       8.873  80.582  41.365  1.00  0.00     0.178 C 
ATOM     23  C   UNL     1      10.349  81.039  41.335  1.00  0.00     0.177 C 
BRANCH  19  24
ATOM     24  O   UNL     1      10.866  79.843  37.822  1.00  0.00    -0.385 OA
ATOM     25  H   UNL     1      10.121  79.436  37.308  1.00  0.00     0.211 HD
ENDBRANCH  19  24
BRANCH  21  26
ATOM     26  O   UNL     1      12.360  80.908  40.005  1.00  0.00    -0.387 OA
ATOM     27  H   UNL     1      12.707  80.595  39.129  1.00  0.00     0.211 HD
ENDBRANCH  21  26
BRANCH  22  28
ATOM     28  C   UNL     1       8.111  81.288  42.497  1.00  0.00     0.191 C 
BRANCH  28  29
ATOM     29  O   UNL     1       8.680  82.542  42.763  1.00  0.00    -0.394 OA
ATOM     30  H   UNL     1       7.939  83.202  42.733  1.00  0.00     0.210 HD
ENDBRANCH  28  29
ENDBRANCH  22  28
BRANCH  23  31
ATOM     31  O   UNL     1      10.978  80.681  42.540  1.00  0.00    -0.387 OA
ATOM     32  H   UNL     1      11.086  81.514  43.068  1.00  0.00     0.211 HD
ENDBRANCH  23  31
ENDBRANCH   1  18
TORSDOF 11
ENDMDL
MODEL 6
REMARK VINA RESULT:    -5.143      3.658      8.915
REMARK INTER + INTRA:          -9.155
REMARK INTER:                  -7.947
REMARK INTRA:                  -1.207
REMARK UNBOUND:                -1.456
REMARK SMILES COC(=O)C1=CO[C@@H](O[C@H]2O[C@H](CO)[C@@H](O)[C@H](O)[C@H]2O)[C@@H]2C(CO)=CC[C@@H]12
REMARK SMILES IDX 9 1 8 2 5 3 6 4 27 5 7 6 21 7 26 8 22 9 25 10 3 11 4 12 2 13
REMARK SMILES IDX 1 14 23 15 24 16 10 18 19 19 11 20 17 21 12 22 15 23 20 24
REMARK SMILES IDX 18 26 13 28 14 29 16 31
REMARK H PARENT 24 17 20 25 18 27 14 30 16 32
REMARK Flexibility Score: inf
ROOT
ATOM      1  O   UNL     1       5.262  71.112  38.028  1.00  0.00    -0.310 OA
ENDROOT
BRANCH   1   2
ATOM      2  C   UNL     1       4.527  69.997  38.500  1.00  0.00     0.316 C 
ATOM      3  C   UNL     1       4.296  67.079  38.388  1.00  0.00     0.076 C 
ATOM      4  C   UNL     1       5.286  67.664  39.100  1.00  0.00     0.202 C 
ATOM      5  C   UNL     1       3.244  68.003  37.824  1.00  0.00     0.047 C 
ATOM      6  O   UNL     1       5.405  69.073  39.177  1.00  0.00    -0.471 OA
ATOM      7  C   UNL     1       3.919  69.265  37.306  1.00  0.00     0.094 C 
ATOM      8  C   UNL     1       2.366  67.590  36.643  1.00  0.00     0.037 C 
ATOM      9  C   UNL     1       2.827  69.890  36.508  1.00  0.00    -0.039 C 
ATOM     10  C   UNL     1       2.013  68.929  36.059  1.00  0.00    -0.024 C 
BRANCH   3  11
ATOM     11  C   UNL     1       4.152  65.605  38.350  1.00  0.00     0.337 C 
ATOM     12  O   UNL     1       4.554  64.956  37.345  1.00  0.00    -0.246 OA
BRANCH  11  13
ATOM     13  O   UNL     1       3.577  64.931  39.431  1.00  0.00    -0.466 OA
ATOM     14  C   UNL     1       2.176  64.924  39.678  1.00  0.00     0.282 C 
ENDBRANCH  11  13
ENDBRANCH   3  11
BRANCH   9  15
ATOM     15  C   UNL     1       2.837  71.297  35.978  1.00  0.00     0.187 C 
BRANCH  15  16
ATOM     16  O   UNL     1       2.531  72.202  37.002  1.00  0.00    -0.392 OA
ATOM     17  H   UNL     1       2.513  71.679  37.846  1.00  0.00     0.211 HD
ENDBRANCH  15  16
ENDBRANCH   9  15
ENDBRANCH   1   2
BRANCH   1  18
ATOM     18  C   UNL     1       6.431  71.323  38.807  1.00  0.00     0.286 C 
ATOM     19  C   UNL     1       6.296  72.627  39.618  1.00  0.00     0.202 C 
ATOM     20  O   UNL     1       7.599  71.355  38.000  1.00  0.00    -0.341 OA
ATOM     21  C   UNL     1       6.292  73.843  38.681  1.00  0.00     0.179 C 
ATOM     22  C   UNL     1       7.547  72.399  37.040  1.00  0.00     0.178 C 
ATOM     23  C   UNL     1       7.504  73.779  37.734  1.00  0.00     0.177 C 
BRANCH  19  24
ATOM     24  O   UNL     1       5.109  72.614  40.369  1.00  0.00    -0.385 OA
ATOM     25  H   UNL     1       5.355  72.330  41.287  1.00  0.00     0.211 HD
ENDBRANCH  19  24
BRANCH  21  26
ATOM     26  O   UNL     1       6.343  75.016  39.452  1.00  0.00    -0.387 OA
ATOM     27  H   UNL     1       6.869  75.680  38.933  1.00  0.00     0.211 HD
ENDBRANCH  21  26
BRANCH  22  28
ATOM     28  C   UNL     1       8.782  72.286  36.134  1.00  0.00     0.191 C 
BRANCH  28  29
ATOM     29  O   UNL     1       9.815  73.108  36.611  1.00  0.00    -0.394 OA
ATOM     30  H   UNL     1      10.614  72.910  36.055  1.00  0.00     0.210 HD
ENDBRANCH  28  29
ENDBRANCH  22  28
BRANCH  23  31
ATOM     31  O   UNL     1       7.398  74.791  36.764  1.00  0.00    -0.387 OA
ATOM     32  H   UNL     1       8.323  75.031  36.495  1.00  0.00     0.211 HD
ENDBRANCH  23  31
ENDBRANCH   1  18
TORSDOF 11
ENDMDL
MODEL 7
REMARK VINA RESULT:    -5.060      2.069      7.188
REMARK INTER + INTRA:          -9.030
REMARK INTER:                  -8.159
REMARK INTRA:                  -0.870
REMARK UNBOUND:                -1.456
REMARK SMILES COC(=O)C1=CO[C@@H](O[C@H]2O[C@H](CO)[C@@H](O)[C@H](O)[C@H]2O)[C@@H]2C(CO)=CC[C@@H]12
REMARK SMILES IDX 9 1 8 2 5 3 6 4 27 5 7 6 21 7 26 8 22 9 25 10 3 11 4 12 2 13
REMARK SMILES IDX 1 14 23 15 24 16 10 18 19 19 11 20 17 21 12 22 15 23 20 24
REMARK SMILES IDX 18 26 13 28 14 29 16 31
REMARK H PARENT 24 17 20 25 18 27 14 30 16 32
REMARK Flexibility Score: inf
ROOT
ATOM      1  O   UNL     1       6.380  77.154  38.567  1.00  0.00    -0.310 OA
ENDROOT
BRANCH   1   2
ATOM      2  C   UNL     1       5.732  76.080  37.911  1.00  0.00     0.316 C 
ATOM      3  C   UNL     1       4.844  73.303  38.201  1.00  0.00     0.076 C 
ATOM      4  C   UNL     1       4.173  74.307  38.811  1.00  0.00     0.202 C 
ATOM      5  C   UNL     1       5.937  73.715  37.244  1.00  0.00     0.047 C 
ATOM      6  O   UNL     1       4.580  75.656  38.670  1.00  0.00    -0.471 OA
ATOM      7  C   UNL     1       6.694  74.895  37.834  1.00  0.00     0.094 C 
ATOM      8  C   UNL     1       7.065  72.758  36.858  1.00  0.00     0.037 C 
ATOM      9  C   UNL     1       7.899  74.952  36.961  1.00  0.00    -0.039 C 
ATOM     10  C   UNL     1       8.156  73.726  36.494  1.00  0.00    -0.024 C 
BRANCH   3  11
ATOM     11  C   UNL     1       4.385  71.899  38.316  1.00  0.00     0.337 C 
ATOM     12  O   UNL     1       3.443  71.480  37.587  1.00  0.00    -0.246 OA
BRANCH  11  13
ATOM     13  O   UNL     1       5.000  71.035  39.226  1.00  0.00    -0.466 OA
ATOM     14  C   UNL     1       5.695  69.861  38.824  1.00  0.00     0.282 C 
ENDBRANCH  11  13
ENDBRANCH   3  11
BRANCH   9  15
ATOM     15  C   UNL     1       8.878  76.092  36.909  1.00  0.00     0.187 C 
BRANCH  15  16
ATOM     16  O   UNL     1      10.157  75.618  36.592  1.00  0.00    -0.392 OA
ATOM     17  H   UNL     1      10.090  74.628  36.551  1.00  0.00     0.211 HD
ENDBRANCH  15  16
ENDBRANCH   9  15
ENDBRANCH   1   2
BRANCH   1  18
ATOM     18  C   UNL     1       5.683  78.375  38.363  1.00  0.00     0.286 C 
ATOM     19  C   UNL     1       6.652  79.454  37.839  1.00  0.00     0.202 C 
ATOM     20  O   UNL     1       5.041  78.815  39.551  1.00  0.00    -0.341 OA
ATOM     21  C   UNL     1       7.675  79.826  38.920  1.00  0.00     0.179 C 
ATOM     22  C   UNL     1       5.970  79.038  40.600  1.00  0.00     0.178 C 
ATOM     23  C   UNL     1       6.949  80.176  40.232  1.00  0.00     0.177 C 
BRANCH  19  24
ATOM     24  O   UNL     1       7.328  78.990  36.698  1.00  0.00    -0.385 OA
ATOM     25  H   UNL     1       7.844  79.758  36.340  1.00  0.00     0.211 HD
ENDBRANCH  19  24
BRANCH  21  26
ATOM     26  O   UNL     1       8.429  80.927  38.479  1.00  0.00    -0.387 OA
ATOM     27  H   UNL     1       7.978  81.279  37.666  1.00  0.00     0.211 HD
ENDBRANCH  21  26
BRANCH  22  28
ATOM     28  C   UNL     1       5.186  79.389  41.874  1.00  0.00     0.191 C 
BRANCH  28  29
ATOM     29  O   UNL     1       3.844  79.657  41.564  1.00  0.00    -0.394 OA
ATOM     30  H   UNL     1       3.542  78.931  40.958  1.00  0.00     0.210 HD
ENDBRANCH  28  29
ENDBRANCH  22  28
BRANCH  23  31
ATOM     31  O   UNL     1       7.890  80.340  41.263  1.00  0.00    -0.387 OA
ATOM     32  H   UNL     1       8.337  79.463  41.388  1.00  0.00     0.211 HD
ENDBRANCH  23  31
ENDBRANCH   1  18
TORSDOF 11
ENDMDL
MODEL 8
REMARK VINA RESULT:    -4.860      1.780      7.329
REMARK INTER + INTRA:          -8.730
REMARK INTER:                  -7.415
REMARK INTRA:                  -1.315
REMARK UNBOUND:                -1.456
REMARK SMILES COC(=O)C1=CO[C@@H](O[C@H]2O[C@H](CO)[C@@H](O)[C@H](O)[C@H]2O)[C@@H]2C(CO)=CC[C@@H]12
REMARK SMILES IDX 9 1 8 2 5 3 6 4 27 5 7 6 21 7 26 8 22 9 25 10 3 11 4 12 2 13
REMARK SMILES IDX 1 14 23 15 24 16 10 18 19 19 11 20 17 21 12 22 15 23 20 24
REMARK SMILES IDX 18 26 13 28 14 29 16 31
REMARK H PARENT 24 17 20 25 18 27 14 30 16 32
REMARK Flexibility Score: inf
ROOT
ATOM      1  O   UNL     1       6.134  76.481  37.593  1.00  0.00    -0.310 OA
ENDROOT
BRANCH   1   2
ATOM      2  C   UNL     1       5.871  75.191  37.074  1.00  0.00     0.316 C 
ATOM      3  C   UNL     1       5.565  72.362  37.771  1.00  0.00     0.076 C 
ATOM      4  C   UNL     1       4.588  73.252  38.062  1.00  0.00     0.202 C 
ATOM      5  C   UNL     1       6.706  72.875  36.927  1.00  0.00     0.047 C 
ATOM      6  O   UNL     1       4.714  74.620  37.719  1.00  0.00    -0.471 OA
ATOM      7  C   UNL     1       7.062  74.284  37.379  1.00  0.00     0.094 C 
ATOM      8  C   UNL     1       8.067  72.179  36.913  1.00  0.00     0.037 C 
ATOM      9  C   UNL     1       8.373  74.499  36.703  1.00  0.00    -0.039 C 
ATOM     10  C   UNL     1       8.973  73.316  36.534  1.00  0.00    -0.024 C 
BRANCH   3  11
ATOM     11  C   UNL     1       5.406  70.925  38.092  1.00  0.00     0.337 C 
ATOM     12  O   UNL     1       5.811  70.475  39.201  1.00  0.00    -0.246 OA
BRANCH  11  13
ATOM     13  O   UNL     1       4.801  70.066  37.171  1.00  0.00    -0.466 OA
ATOM     14  C   UNL     1       5.522  69.428  36.124  1.00  0.00     0.282 C 
ENDBRANCH  11  13
ENDBRANCH   3  11
BRANCH   9  15
ATOM     15  C   UNL     1       9.074  75.823  36.575  1.00  0.00     0.187 C 
BRANCH  15  16
ATOM     16  O   UNL     1      10.461  75.642  36.618  1.00  0.00    -0.392 OA
ATOM     17  H   UNL     1      10.716  75.630  37.578  1.00  0.00     0.211 HD
ENDBRANCH  15  16
ENDBRANCH   9  15
ENDBRANCH   1   2
BRANCH   1  18
ATOM     18  C   UNL     1       6.349  76.436  38.997  1.00  0.00     0.286 C 
ATOM     19  C   UNL     1       5.280  77.278  39.722  1.00  0.00     0.202 C 
ATOM     20  O   UNL     1       7.653  76.880  39.340  1.00  0.00    -0.341 OA
ATOM     21  C   UNL     1       5.464  78.767  39.401  1.00  0.00     0.179 C 
ATOM     22  C   UNL     1       7.878  78.220  38.930  1.00  0.00     0.178 C 
ATOM     23  C   UNL     1       6.922  79.185  39.666  1.00  0.00     0.177 C 
BRANCH  19  24
ATOM     24  O   UNL     1       3.993  76.872  39.332  1.00  0.00    -0.385 OA
ATOM     25  H   UNL     1       3.493  77.697  39.097  1.00  0.00     0.211 HD
ENDBRANCH  19  24
BRANCH  21  26
ATOM     26  O   UNL     1       4.593  79.520  40.207  1.00  0.00    -0.387 OA
ATOM     27  H   UNL     1       4.760  79.247  41.147  1.00  0.00     0.211 HD
ENDBRANCH  21  26
BRANCH  22  28
ATOM     28  C   UNL     1       9.343  78.577  39.227  1.00  0.00     0.191 C 
BRANCH  28  29
ATOM     29  O   UNL     1       9.873  79.366  38.194  1.00  0.00    -0.394 OA
ATOM     30  H   UNL     1      10.480  78.779  37.672  1.00  0.00     0.210 HD
ENDBRANCH  28  29
ENDBRANCH  22  28
BRANCH  23  31
ATOM     31  O   UNL     1       7.128  80.496  39.203  1.00  0.00    -0.387 OA
ATOM     32  H   UNL     1       7.072  81.094  39.993  1.00  0.00     0.211 HD
ENDBRANCH  23  31
ENDBRANCH   1  18
TORSDOF 11
ENDMDL
MODEL 9
REMARK VINA RESULT:    -4.812      2.474      7.816
REMARK INTER + INTRA:          -8.659
REMARK INTER:                  -7.706
REMARK INTRA:                  -0.953
REMARK UNBOUND:                -1.456
REMARK SMILES COC(=O)C1=CO[C@@H](O[C@H]2O[C@H](CO)[C@@H](O)[C@H](O)[C@H]2O)[C@@H]2C(CO)=CC[C@@H]12
REMARK SMILES IDX 9 1 8 2 5 3 6 4 27 5 7 6 21 7 26 8 22 9 25 10 3 11 4 12 2 13
REMARK SMILES IDX 1 14 23 15 24 16 10 18 19 19 11 20 17 21 12 22 15 23 20 24
REMARK SMILES IDX 18 26 13 28 14 29 16 31
REMARK H PARENT 24 17 20 25 18 27 14 30 16 32
REMARK Flexibility Score: inf
ROOT
ATOM      1  O   UNL     1       7.688  79.965  39.137  1.00  0.00    -0.310 OA
ENDROOT
BRANCH   1   2
ATOM      2  C   UNL     1       6.736  79.083  38.571  1.00  0.00     0.316 C 
ATOM      3  C   UNL     1       5.291  76.566  38.972  1.00  0.00     0.076 C 
ATOM      4  C   UNL     1       4.948  77.675  39.667  1.00  0.00     0.202 C 
ATOM      5  C   UNL     1       6.316  76.753  37.880  1.00  0.00     0.047 C 
ATOM      6  O   UNL     1       5.626  78.903  39.475  1.00  0.00    -0.471 OA
ATOM      7  C   UNL     1       7.389  77.717  38.366  1.00  0.00     0.094 C 
ATOM      8  C   UNL     1       7.141  75.582  37.348  1.00  0.00     0.037 C 
ATOM      9  C   UNL     1       8.454  77.530  37.342  1.00  0.00    -0.039 C 
ATOM     10  C   UNL     1       8.366  76.293  36.844  1.00  0.00    -0.024 C 
BRANCH   3  11
ATOM     11  C   UNL     1       4.547  75.297  39.145  1.00  0.00     0.337 C 
ATOM     12  O   UNL     1       3.456  75.116  38.535  1.00  0.00    -0.246 OA
BRANCH  11  13
ATOM     13  O   UNL     1       5.055  74.296  39.977  1.00  0.00    -0.466 OA
ATOM     14  C   UNL     1       5.406  73.003  39.501  1.00  0.00     0.282 C 
ENDBRANCH  11  13
ENDBRANCH   3  11
BRANCH   9  15
ATOM     15  C   UNL     1       9.649  78.424  37.163  1.00  0.00     0.187 C 
BRANCH  15  16
ATOM     16  O   UNL     1      10.505  77.899  36.187  1.00  0.00    -0.392 OA
ATOM     17  H   UNL     1      10.937  77.101  36.589  1.00  0.00     0.211 HD
ENDBRANCH  15  16
ENDBRANCH   9  15
ENDBRANCH   1   2
BRANCH   1  18
ATOM     18  C   UNL     1       8.301  79.392  40.283  1.00  0.00     0.286 C 
ATOM     19  C   UNL     1       7.853  80.144  41.552  1.00  0.00     0.202 C 
ATOM     20  O   UNL     1       9.717  79.393  40.175  1.00  0.00    -0.341 OA
ATOM     21  C   UNL     1       8.410  81.574  41.552  1.00  0.00     0.179 C 
ATOM     22  C   UNL     1      10.234  80.709  40.043  1.00  0.00     0.178 C 
ATOM     23  C   UNL     1       9.930  81.545  41.306  1.00  0.00     0.177 C 
BRANCH  19  24
ATOM     24  O   UNL     1       6.451  80.190  41.622  1.00  0.00    -0.385 OA
ATOM     25  H   UNL     1       6.111  79.520  40.975  1.00  0.00     0.211 HD
ENDBRANCH  19  24
BRANCH  21  26
ATOM     26  O   UNL     1       8.134  82.174  42.792  1.00  0.00    -0.387 OA
ATOM     27  H   UNL     1       8.708  81.722  43.466  1.00  0.00     0.211 HD
ENDBRANCH  21  26
BRANCH  22  28
ATOM     28  C   UNL     1      11.749  80.612  39.808  1.00  0.00     0.191 C 
BRANCH  28  29
ATOM     29  O   UNL     1      12.431  80.553  41.033  1.00  0.00    -0.394 OA
ATOM     30  H   UNL     1      13.380  80.770  40.840  1.00  0.00     0.210 HD
ENDBRANCH  28  29
ENDBRANCH  22  28
BRANCH  23  31
ATOM     31  O   UNL     1      10.403  82.857  41.127  1.00  0.00    -0.387 OA
ATOM     32  H   UNL     1      10.082  83.162  40.239  1.00  0.00     0.211 HD
ENDBRANCH  23  31
ENDBRANCH   1  18
TORSDOF 11
ENDMDL
