MODEL 1
REMARK VINA RESULT:    -2.571      0.000      0.000
REMARK INTER + INTRA:          -2.745
REMARK INTER:                  -2.721
REMARK INTRA:                  -0.024
REMARK UNBOUND:                -0.024
REMARK SMILES O=C([O-])c1cccnc1
REMARK SMILES IDX 4 1 5 2 9 3 6 4 8 5 7 6 2 7 1 8 3 9
REMARK H PARENT
REMARK Flexibility Score: inf
ROOT
ATOM      1  C   UNL     1       7.912  -1.718  -2.225  1.00  0.00     0.016 A 
ATOM      2  C   UNL     1       7.141  -0.935  -3.101  1.00  0.00     0.013 A 
ATOM      3  C   UNL     1       8.587  -1.074  -1.174  1.00  0.00     0.120 A 
ATOM      4  C   UNL     1       7.057   0.446  -2.918  1.00  0.00     0.021 A 
ATOM      5  N   UNL     1       8.489   0.274  -1.018  1.00  0.00    -0.264 NA
ATOM      6  C   UNL     1       7.746   1.039  -1.859  1.00  0.00     0.111 A 
ENDROOT
BRANCH   1   7
ATOM      7  C   UNL     1       8.013  -3.182  -2.401  1.00  0.00     0.073 C 
ATOM      8  O   UNL     1       8.676  -3.881  -1.587  1.00  0.00    -0.545 OA
ATOM      9  O   UNL     1       7.378  -3.809  -3.467  1.00  0.00    -0.545 OA
ENDBRANCH   1   7
TORSDOF 1
ENDMDL
MODEL 2
REMARK VINA RESULT:    -2.554      2.832      3.601
REMARK INTER + INTRA:          -2.727
REMARK INTER:                  -2.704
REMARK INTRA:                  -0.023
REMARK UNBOUND:                -0.024
REMARK SMILES O=C([O-])c1cccnc1
REMARK SMILES IDX 4 1 5 2 9 3 6 4 8 5 7 6 2 7 1 8 3 9
REMARK H PARENT
REMARK Flexibility Score: inf
ROOT
ATOM      1  C   UNL     1       7.804  -0.398  -2.096  1.00  0.00     0.016 A 
ATOM      2  C   UNL     1       7.324  -1.307  -3.053  1.00  0.00     0.013 A 
ATOM      3  C   UNL     1       8.603  -0.890  -1.050  1.00  0.00     0.120 A 
ATOM      4  C   UNL     1       7.643  -2.663  -2.954  1.00  0.00     0.021 A 
ATOM      5  N   UNL     1       8.899  -2.215  -0.975  1.00  0.00    -0.264 NA
ATOM      6  C   UNL     1       8.440  -3.103  -1.897  1.00  0.00     0.111 A 
ENDROOT
BRANCH   1   7
ATOM      7  C   UNL     1       7.479   1.042  -2.183  1.00  0.00     0.073 C 
ATOM      8  O   UNL     1       8.051   1.875  -1.430  1.00  0.00    -0.545 OA
ATOM      9  O   UNL     1       6.537   1.496  -3.099  1.00  0.00    -0.545 OA
ENDBRANCH   1   7
TORSDOF 1
ENDMDL
MODEL 3
REMARK VINA RESULT:    -2.553      0.913      1.023
REMARK INTER + INTRA:          -2.726
REMARK INTER:                  -2.702
REMARK INTRA:                  -0.024
REMARK UNBOUND:                -0.024
REMARK SMILES O=C([O-])c1cccnc1
REMARK SMILES IDX 4 1 5 2 9 3 6 4 8 5 7 6 2 7 1 8 3 9
REMARK H PARENT
REMARK Flexibility Score: inf
ROOT
ATOM      1  C   UNL     1       8.306  -2.071  -1.670  1.00  0.00     0.016 A 
ATOM      2  C   UNL     1       7.448  -1.776  -2.743  1.00  0.00     0.013 A 
ATOM      3  C   UNL     1       8.771  -1.009  -0.875  1.00  0.00     0.120 A 
ATOM      4  C   UNL     1       7.074  -0.455  -2.998  1.00  0.00     0.021 A 
ATOM      5  N   UNL     1       8.392   0.269  -1.146  1.00  0.00    -0.264 NA
ATOM      6  C   UNL     1       7.562   0.565  -2.180  1.00  0.00     0.111 A 
ENDROOT
BRANCH   1   7
ATOM      7  C   UNL     1       8.713  -3.463  -1.382  1.00  0.00     0.073 C 
ATOM      8  O   UNL     1       9.438  -3.725  -0.384  1.00  0.00    -0.545 OA
ATOM      9  O   UNL     1       8.301  -4.502  -2.208  1.00  0.00    -0.545 OA
ENDBRANCH   1   7
TORSDOF 1
ENDMDL
MODEL 4
REMARK VINA RESULT:    -2.530      1.418      2.156
REMARK INTER + INTRA:          -2.702
REMARK INTER:                  -2.678
REMARK INTRA:                  -0.024
REMARK UNBOUND:                -0.024
REMARK SMILES O=C([O-])c1cccnc1
REMARK SMILES IDX 4 1 5 2 9 3 6 4 8 5 7 6 2 7 1 8 3 9
REMARK H PARENT
REMARK Flexibility Score: inf
ROOT
ATOM      1  C   UNL     1       7.622  -2.001  -2.678  1.00  0.00     0.016 A 
ATOM      2  C   UNL     1       8.004  -0.926  -1.858  1.00  0.00     0.013 A 
ATOM      3  C   UNL     1       6.818  -1.732  -3.799  1.00  0.00     0.120 A 
ATOM      4  C   UNL     1       7.587   0.371  -2.164  1.00  0.00     0.021 A 
ATOM      5  N   UNL     1       6.425  -0.459  -4.074  1.00  0.00    -0.264 NA
ATOM      6  C   UNL     1       6.790   0.587  -3.288  1.00  0.00     0.111 A 
ENDROOT
BRANCH   1   7
ATOM      7  C   UNL     1       8.052  -3.382  -2.373  1.00  0.00     0.073 C 
ATOM      8  O   UNL     1       7.671  -4.346  -3.090  1.00  0.00    -0.545 OA
ATOM      9  O   UNL     1       8.885  -3.637  -1.290  1.00  0.00    -0.545 OA
ENDBRANCH   1   7
TORSDOF 1
ENDMDL
MODEL 5
REMARK VINA RESULT:    -2.516      8.585      9.061
REMARK INTER + INTRA:          -2.687
REMARK INTER:                  -2.665
REMARK INTRA:                  -0.022
REMARK UNBOUND:                -0.024
REMARK SMILES O=C([O-])c1cccnc1
REMARK SMILES IDX 4 1 5 2 9 3 6 4 8 5 7 6 2 7 1 8 3 9
REMARK H PARENT
REMARK Flexibility Score: inf
ROOT
ATOM      1  C   UNL     1      -0.215   2.378  -1.408  1.00  0.00     0.016 A 
ATOM      2  C   UNL     1       0.780   2.684  -2.353  1.00  0.00     0.013 A 
ATOM      3  C   UNL     1      -0.161   3.011  -0.155  1.00  0.00     0.120 A 
ATOM      4  C   UNL     1       1.789   3.596  -2.038  1.00  0.00     0.021 A 
ATOM      5  N   UNL     1       0.833   3.896   0.127  1.00  0.00    -0.264 NA
ATOM      6  C   UNL     1       1.799   4.199  -0.780  1.00  0.00     0.111 A 
ENDROOT
BRANCH   1   7
ATOM      7  C   UNL     1      -1.292   1.415  -1.721  1.00  0.00     0.073 C 
ATOM      8  O   UNL     1      -1.907   0.819  -0.797  1.00  0.00    -0.545 OA
ATOM      9  O   UNL     1      -1.642   1.155  -3.041  1.00  0.00    -0.545 OA
ENDBRANCH   1   7
TORSDOF 1
ENDMDL
MODEL 6
REMARK VINA RESULT:    -2.493      2.826      3.867
REMARK INTER + INTRA:          -2.662
REMARK INTER:                  -2.638
REMARK INTRA:                  -0.024
REMARK UNBOUND:                -0.024
REMARK SMILES O=C([O-])c1cccnc1
REMARK SMILES IDX 4 1 5 2 9 3 6 4 8 5 7 6 2 7 1 8 3 9
REMARK H PARENT
REMARK Flexibility Score: inf
ROOT
ATOM      1  C   UNL     1       7.615  -1.144  -2.474  1.00  0.00     0.016 A 
ATOM      2  C   UNL     1       8.429  -1.601  -1.423  1.00  0.00     0.013 A 
ATOM      3  C   UNL     1       7.162  -2.077  -3.421  1.00  0.00     0.120 A 
ATOM      4  C   UNL     1       8.768  -2.952  -1.337  1.00  0.00     0.021 A 
ATOM      5  N   UNL     1       7.509  -3.388  -3.315  1.00  0.00    -0.264 NA
ATOM      6  C   UNL     1       8.294  -3.840  -2.302  1.00  0.00     0.111 A 
ENDROOT
BRANCH   1   7
ATOM      7  C   UNL     1       7.243   0.283  -2.583  1.00  0.00     0.073 C 
ATOM      8  O   UNL     1       7.679   1.124  -1.752  1.00  0.00    -0.545 OA
ATOM      9  O   UNL     1       6.406   0.716  -3.606  1.00  0.00    -0.545 OA
ENDBRANCH   1   7
TORSDOF 1
ENDMDL
MODEL 7
REMARK VINA RESULT:    -2.475      8.521      9.150
REMARK INTER + INTRA:          -2.643
REMARK INTER:                  -2.620
REMARK INTRA:                  -0.024
REMARK UNBOUND:                -0.024
REMARK SMILES O=C([O-])c1cccnc1
REMARK SMILES IDX 4 1 5 2 9 3 6 4 8 5 7 6 2 7 1 8 3 9
REMARK H PARENT
REMARK Flexibility Score: inf
ROOT
ATOM      1  C   UNL     1       0.564   2.727  -1.368  1.00  0.00     0.016 A 
ATOM      2  C   UNL     1       1.280   2.647  -2.575  1.00  0.00     0.013 A 
ATOM      3  C   UNL     1      -0.661   2.044  -1.273  1.00  0.00     0.120 A 
ATOM      4  C   UNL     1       0.773   1.902  -3.642  1.00  0.00     0.021 A 
ATOM      5  N   UNL     1      -1.133   1.327  -2.328  1.00  0.00    -0.264 NA
ATOM      6  C   UNL     1      -0.448   1.242  -3.498  1.00  0.00     0.111 A 
ENDROOT
BRANCH   1   7
ATOM      7  C   UNL     1       1.083   3.509  -0.226  1.00  0.00     0.073 C 
ATOM      8  O   UNL     1       2.056   4.295  -0.377  1.00  0.00    -0.545 OA
ATOM      9  O   UNL     1       0.502   3.388   1.031  1.00  0.00    -0.545 OA
ENDBRANCH   1   7
TORSDOF 1
ENDMDL
MODEL 8
REMARK VINA RESULT:    -2.399      1.307      1.889
REMARK INTER + INTRA:          -2.563
REMARK INTER:                  -2.539
REMARK INTRA:                  -0.024
REMARK UNBOUND:                -0.024
REMARK SMILES O=C([O-])c1cccnc1
REMARK SMILES IDX 4 1 5 2 9 3 6 4 8 5 7 6 2 7 1 8 3 9
REMARK H PARENT
REMARK Flexibility Score: inf
ROOT
ATOM      1  C   UNL     1       7.747  -1.232  -2.341  1.00  0.00     0.016 A 
ATOM      2  C   UNL     1       6.937  -1.477  -3.462  1.00  0.00     0.013 A 
ATOM      3  C   UNL     1       7.880   0.092  -1.890  1.00  0.00     0.120 A 
ATOM      4  C   UNL     1       6.285  -0.420  -4.100  1.00  0.00     0.021 A 
ATOM      5  N   UNL     1       7.235   1.104  -2.530  1.00  0.00    -0.264 NA
ATOM      6  C   UNL     1       6.448   0.878  -3.615  1.00  0.00     0.111 A 
ENDROOT
BRANCH   1   7
ATOM      7  C   UNL     1       8.445  -2.337  -1.650  1.00  0.00     0.073 C 
ATOM      8  O   UNL     1       8.264  -3.532  -2.007  1.00  0.00    -0.545 OA
ATOM      9  O   UNL     1       9.313  -2.072  -0.597  1.00  0.00    -0.545 OA
ENDBRANCH   1   7
TORSDOF 1
ENDMDL
MODEL 9
REMARK VINA RESULT:    -2.387      2.541      3.249
REMARK INTER + INTRA:          -2.550
REMARK INTER:                  -2.528
REMARK INTRA:                  -0.022
REMARK UNBOUND:                -0.024
REMARK SMILES O=C([O-])c1cccnc1
REMARK SMILES IDX 4 1 5 2 9 3 6 4 8 5 7 6 2 7 1 8 3 9
REMARK H PARENT
REMARK Flexibility Score: inf
ROOT
ATOM      1  C   UNL     1       8.370  -0.816  -1.393  1.00  0.00     0.016 A 
ATOM      2  C   UNL     1       7.645   0.119  -2.152  1.00  0.00     0.013 A 
ATOM      3  C   UNL     1       8.341  -2.164  -1.791  1.00  0.00     0.120 A 
ATOM      4  C   UNL     1       6.920  -0.297  -3.270  1.00  0.00     0.021 A 
ATOM      5  N   UNL     1       7.626  -2.543  -2.884  1.00  0.00    -0.264 NA
ATOM      6  C   UNL     1       6.922  -1.647  -3.624  1.00  0.00     0.111 A 
ENDROOT
BRANCH   1   7
ATOM      7  C   UNL     1       9.145  -0.396  -0.207  1.00  0.00     0.073 C 
ATOM      8  O   UNL     1      10.136  -1.071   0.183  1.00  0.00    -0.545 OA
ATOM      9  O   UNL     1       8.792   0.751   0.496  1.00  0.00    -0.545 OA
ENDBRANCH   1   7
TORSDOF 1
ENDMDL
