MODEL 1
REMARK VINA RESULT:    -5.299      0.000      0.000
REMARK INTER + INTRA:          -6.694
REMARK INTER:                  -6.229
REMARK INTRA:                  -0.466
REMARK UNBOUND:                -0.466
REMARK SMILES C=C(C)[C@H]1CC[C@]2(CO)CC[C@@]3(C)[C@H](CC[C@H]4[C@]5(C)CC[C@H](O)C(C)(C)[C@H]5CC[C@@]43C)[C@H]12
REMARK SMILES IDX 4 1 5 2 6 3 7 4 32 5 14 6 15 7 16 8 17 9 18 10 20 11 21 12
REMARK SMILES IDX 22 13 24 14 27 15 28 16 29 17 30 18 12 19 11 20 10 21 13 22
REMARK SMILES IDX 31 23 25 24 26 25 19 26 2 27 3 28 1 29 8 30 9 31 23 33
REMARK H PARENT 9 32 23 34
REMARK Flexibility Score: inf
ROOT
ATOM      1  C   UNL     1      24.693  20.769  35.709  1.00  0.00     0.018 C 
ATOM      2  C   UNL     1      23.582  19.911  36.370  1.00  0.00     0.009 C 
ATOM      3  C   UNL     1      24.115  18.478  36.505  1.00  0.00     0.010 C 
ATOM      4  C   UNL     1      25.335  18.395  35.578  1.00  0.00    -0.003 C 
ATOM      5  C   UNL     1      25.932  19.824  35.674  1.00  0.00     0.008 C 
ATOM      6  C   UNL     1      26.929  20.053  36.894  1.00  0.00    -0.000 C 
ATOM      7  C   UNL     1      26.312  20.408  38.272  1.00  0.00     0.005 C 
ATOM      8  C   UNL     1      27.353  21.066  39.195  1.00  0.00     0.005 C 
ATOM      9  C   UNL     1      28.830  20.639  38.906  1.00  0.00     0.002 C 
ATOM     10  C   UNL     1      29.890  21.184  39.978  1.00  0.00    -0.026 C 
ATOM     11  C   UNL     1      29.816  22.762  39.969  1.00  0.00     0.010 C 
ATOM     12  C   UNL     1      31.168  23.495  40.053  1.00  0.00     0.033 C 
ATOM     13  C   UNL     1      32.183  22.750  40.932  1.00  0.00     0.120 C 
ATOM     14  C   UNL     1      32.552  21.343  40.338  1.00  0.00    -0.006 C 
ATOM     15  C   UNL     1      31.328  20.738  39.519  1.00  0.00     0.003 C 
ATOM     16  C   UNL     1      31.405  19.208  39.295  1.00  0.00     0.005 C 
ATOM     17  C   UNL     1      30.432  18.772  38.194  1.00  0.00     0.008 C 
ATOM     18  C   UNL     1      28.922  19.127  38.451  1.00  0.00    -0.024 C 
ATOM     19  C   UNL     1      28.001  18.903  37.089  1.00  0.00    -0.024 C 
ATOM     20  C   UNL     1      27.226  17.544  37.151  1.00  0.00     0.008 C 
ATOM     21  C   UNL     1      26.317  17.253  35.961  1.00  0.00     0.010 C 
ATOM     22  C   UNL     1      28.882  18.886  35.797  1.00  0.00     0.012 C 
ATOM     23  C   UNL     1      28.455  18.204  39.628  1.00  0.00     0.012 C 
ATOM     24  C   UNL     1      33.008  20.430  41.504  1.00  0.00     0.014 C 
ATOM     25  C   UNL     1      33.765  21.479  39.371  1.00  0.00     0.014 C 
ATOM     26  C   UNL     1      29.594  20.694  41.437  1.00  0.00     0.012 C 
ENDROOT
BRANCH   1  27
ATOM     27  C   UNL     1      24.197  21.413  34.396  1.00  0.00    -0.077 C 
ATOM     28  C   UNL     1      25.042  22.187  33.402  1.00  0.00     0.039 C 
ATOM     29  C   UNL     1      22.875  21.364  34.138  1.00  0.00     0.008 C 
ENDBRANCH   1  27
BRANCH   4  30
ATOM     30  C   UNL     1      24.825  18.073  34.137  1.00  0.00     0.163 C 
BRANCH  30  31
ATOM     31  O   UNL     1      23.797  17.118  34.167  1.00  0.00    -0.396 OA
ATOM     32  H   UNL     1      23.023  17.545  34.624  1.00  0.00     0.210 HD
ENDBRANCH  30  31
ENDBRANCH   4  30
BRANCH  13  33
ATOM     33  O   UNL     1      33.322  23.544  41.177  1.00  0.00    -0.393 OA
ATOM     34  H   UNL     1      33.963  23.017  41.721  1.00  0.00     0.210 HD
ENDBRANCH  13  33
TORSDOF 4
ENDMDL
MODEL 2
REMARK VINA RESULT:    -5.197      1.947      2.707
REMARK INTER + INTRA:          -6.575
REMARK INTER:                  -6.170
REMARK INTRA:                  -0.404
REMARK UNBOUND:                -0.466
REMARK SMILES C=C(C)[C@H]1CC[C@]2(CO)CC[C@@]3(C)[C@H](CC[C@H]4[C@]5(C)CC[C@H](O)C(C)(C)[C@H]5CC[C@@]43C)[C@H]12
REMARK SMILES IDX 4 1 5 2 6 3 7 4 32 5 14 6 15 7 16 8 17 9 18 10 20 11 21 12
REMARK SMILES IDX 22 13 24 14 27 15 28 16 29 17 30 18 12 19 11 20 10 21 13 22
REMARK SMILES IDX 31 23 25 24 26 25 19 26 2 27 3 28 1 29 8 30 9 31 23 33
REMARK H PARENT 9 32 23 34
REMARK Flexibility Score: inf
ROOT
ATOM      1  C   UNL     1      24.843  23.542  35.601  1.00  0.00     0.018 C 
ATOM      2  C   UNL     1      23.448  22.877  35.734  1.00  0.00     0.009 C 
ATOM      3  C   UNL     1      23.550  21.457  35.160  1.00  0.00     0.010 C 
ATOM      4  C   UNL     1      24.844  21.430  34.336  1.00  0.00    -0.003 C 
ATOM      5  C   UNL     1      25.774  22.383  35.133  1.00  0.00     0.008 C 
ATOM      6  C   UNL     1      26.571  21.699  36.328  1.00  0.00    -0.000 C 
ATOM      7  C   UNL     1      25.843  21.554  37.690  1.00  0.00     0.005 C 
ATOM      8  C   UNL     1      26.847  21.347  38.839  1.00  0.00     0.005 C 
ATOM      9  C   UNL     1      28.185  20.660  38.407  1.00  0.00     0.002 C 
ATOM     10  C   UNL     1      29.151  20.286  39.630  1.00  0.00    -0.026 C 
ATOM     11  C   UNL     1      29.502  21.623  40.394  1.00  0.00     0.010 C 
ATOM     12  C   UNL     1      30.964  21.767  40.855  1.00  0.00     0.033 C 
ATOM     13  C   UNL     1      31.579  20.424  41.276  1.00  0.00     0.120 C 
ATOM     14  C   UNL     1      31.657  19.412  40.075  1.00  0.00    -0.006 C 
ATOM     15  C   UNL     1      30.476  19.673  39.041  1.00  0.00     0.003 C 
ATOM     16  C   UNL     1      30.181  18.481  38.097  1.00  0.00     0.005 C 
ATOM     17  C   UNL     1      29.332  18.933  36.905  1.00  0.00     0.008 C 
ATOM     18  C   UNL     1      27.949  19.585  37.271  1.00  0.00    -0.024 C 
ATOM     19  C   UNL     1      27.249  20.316  35.956  1.00  0.00    -0.024 C 
ATOM     20  C   UNL     1      26.143  19.403  35.328  1.00  0.00     0.008 C 
ATOM     21  C   UNL     1      25.407  19.996  34.131  1.00  0.00     0.010 C 
ATOM     22  C   UNL     1      28.303  20.618  34.840  1.00  0.00     0.012 C 
ATOM     23  C   UNL     1      27.059  18.425  37.835  1.00  0.00     0.012 C 
ATOM     24  C   UNL     1      31.648  17.975  40.654  1.00  0.00     0.014 C 
ATOM     25  C   UNL     1      33.010  19.587  39.325  1.00  0.00     0.014 C 
ATOM     26  C   UNL     1      28.490  19.302  40.656  1.00  0.00     0.012 C 
ENDROOT
BRANCH   1  27
ATOM     27  C   UNL     1      24.768  24.837  34.763  1.00  0.00    -0.077 C 
ATOM     28  C   UNL     1      23.519  25.429  34.137  1.00  0.00     0.039 C 
ATOM     29  C   UNL     1      25.927  25.466  34.482  1.00  0.00     0.008 C 
ENDBRANCH   1  27
BRANCH   4  30
ATOM     30  C   UNL     1      24.522  21.986  32.912  1.00  0.00     0.163 C 
BRANCH  30  31
ATOM     31  O   UNL     1      23.138  22.027  32.688  1.00  0.00    -0.396 OA
ATOM     32  H   UNL     1      22.822  21.084  32.675  1.00  0.00     0.210 HD
ENDBRANCH  30  31
ENDBRANCH   4  30
BRANCH  13  33
ATOM     33  O   UNL     1      32.829  20.611  41.902  1.00  0.00    -0.393 OA
ATOM     34  H   UNL     1      33.489  20.005  41.475  1.00  0.00     0.210 HD
ENDBRANCH  13  33
TORSDOF 4
ENDMDL
MODEL 3
REMARK VINA RESULT:    -5.116      2.780      4.859
REMARK INTER + INTRA:          -6.479
REMARK INTER:                  -5.896
REMARK INTRA:                  -0.583
REMARK UNBOUND:                -0.466
REMARK SMILES C=C(C)[C@H]1CC[C@]2(CO)CC[C@@]3(C)[C@H](CC[C@H]4[C@]5(C)CC[C@H](O)C(C)(C)[C@H]5CC[C@@]43C)[C@H]12
REMARK SMILES IDX 4 1 5 2 6 3 7 4 32 5 14 6 15 7 16 8 17 9 18 10 20 11 21 12
REMARK SMILES IDX 22 13 24 14 27 15 28 16 29 17 30 18 12 19 11 20 10 21 13 22
REMARK SMILES IDX 31 23 25 24 26 25 19 26 2 27 3 28 1 29 8 30 9 31 23 33
REMARK H PARENT 9 32 23 34
REMARK Flexibility Score: inf
ROOT
ATOM      1  C   UNL     1      28.011  20.841  36.481  1.00  0.00     0.018 C 
ATOM      2  C   UNL     1      26.726  21.290  37.224  1.00  0.00     0.009 C 
ATOM      3  C   UNL     1      26.892  20.928  38.706  1.00  0.00     0.010 C 
ATOM      4  C   UNL     1      28.050  19.923  38.765  1.00  0.00    -0.003 C 
ATOM      5  C   UNL     1      28.980  20.411  37.624  1.00  0.00     0.008 C 
ATOM      6  C   UNL     1      30.008  21.555  38.036  1.00  0.00    -0.000 C 
ATOM      7  C   UNL     1      29.501  23.021  38.013  1.00  0.00     0.005 C 
ATOM      8  C   UNL     1      30.675  24.014  37.947  1.00  0.00     0.005 C 
ATOM      9  C   UNL     1      32.001  23.486  38.588  1.00  0.00     0.002 C 
ATOM     10  C   UNL     1      33.166  24.583  38.678  1.00  0.00    -0.026 C 
ATOM     11  C   UNL     1      33.482  25.072  37.209  1.00  0.00     0.010 C 
ATOM     12  C   UNL     1      34.972  25.269  36.876  1.00  0.00     0.033 C 
ATOM     13  C   UNL     1      35.777  25.785  38.078  1.00  0.00     0.120 C 
ATOM     14  C   UNL     1      35.786  24.753  39.264  1.00  0.00    -0.006 C 
ATOM     15  C   UNL     1      34.449  23.891  39.272  1.00  0.00     0.003 C 
ATOM     16  C   UNL     1      34.147  23.196  40.622  1.00  0.00     0.005 C 
ATOM     17  C   UNL     1      33.093  22.098  40.442  1.00  0.00     0.008 C 
ATOM     18  C   UNL     1      31.717  22.576  39.850  1.00  0.00    -0.024 C 
ATOM     19  C   UNL     1      30.764  21.293  39.403  1.00  0.00    -0.024 C 
ATOM     20  C   UNL     1      29.680  20.992  40.492  1.00  0.00     0.008 C 
ATOM     21  C   UNL     1      28.723  19.850  40.164  1.00  0.00     0.010 C 
ATOM     22  C   UNL     1      31.610  19.992  39.206  1.00  0.00     0.012 C 
ATOM     23  C   UNL     1      31.043  23.441  40.969  1.00  0.00     0.012 C 
ATOM     24  C   UNL     1      36.009  25.536  40.583  1.00  0.00     0.014 C 
ATOM     25  C   UNL     1      36.992  23.781  39.108  1.00  0.00     0.014 C 
ATOM     26  C   UNL     1      32.764  25.836  39.529  1.00  0.00     0.012 C 
ENDROOT
BRANCH   1  27
ATOM     27  C   UNL     1      27.684  19.840  35.351  1.00  0.00    -0.077 C 
ATOM     28  C   UNL     1      26.303  19.520  34.809  1.00  0.00     0.039 C 
ATOM     29  C   UNL     1      28.701  19.112  34.848  1.00  0.00     0.008 C 
ENDBRANCH   1  27
BRANCH   4  30
ATOM     30  C   UNL     1      27.472  18.502  38.478  1.00  0.00     0.163 C 
BRANCH  30  31
ATOM     31  O   UNL     1      28.487  17.614  38.088  1.00  0.00    -0.396 OA
ATOM     32  H   UNL     1      28.502  16.882  38.762  1.00  0.00     0.210 HD
ENDBRANCH  30  31
ENDBRANCH   4  30
BRANCH  13  33
ATOM     33  O   UNL     1      37.077  26.170  37.692  1.00  0.00    -0.393 OA
ATOM     34  H   UNL     1      37.557  25.369  37.357  1.00  0.00     0.210 HD
ENDBRANCH  13  33
TORSDOF 4
ENDMDL
MODEL 4
REMARK VINA RESULT:    -4.944      1.794      8.077
REMARK INTER + INTRA:          -6.277
REMARK INTER:                  -5.989
REMARK INTRA:                  -0.288
REMARK UNBOUND:                -0.466
REMARK SMILES C=C(C)[C@H]1CC[C@]2(CO)CC[C@@]3(C)[C@H](CC[C@H]4[C@]5(C)CC[C@H](O)C(C)(C)[C@H]5CC[C@@]43C)[C@H]12
REMARK SMILES IDX 4 1 5 2 6 3 7 4 32 5 14 6 15 7 16 8 17 9 18 10 20 11 21 12
REMARK SMILES IDX 22 13 24 14 27 15 28 16 29 17 30 18 12 19 11 20 10 21 13 22
REMARK SMILES IDX 31 23 25 24 26 25 19 26 2 27 3 28 1 29 8 30 9 31 23 33
REMARK H PARENT 9 32 23 34
REMARK Flexibility Score: inf
ROOT
ATOM      1  C   UNL     1      32.164  20.622  39.368  1.00  0.00     0.018 C 
ATOM      2  C   UNL     1      33.004  19.320  39.297  1.00  0.00     0.009 C 
ATOM      3  C   UNL     1      32.227  18.220  40.035  1.00  0.00     0.010 C 
ATOM      4  C   UNL     1      31.166  18.947  40.872  1.00  0.00    -0.003 C 
ATOM      5  C   UNL     1      30.805  20.164  39.980  1.00  0.00     0.008 C 
ATOM      6  C   UNL     1      29.687  19.885  38.883  1.00  0.00    -0.000 C 
ATOM      7  C   UNL     1      30.138  19.256  37.539  1.00  0.00     0.005 C 
ATOM      8  C   UNL     1      29.092  19.493  36.434  1.00  0.00     0.005 C 
ATOM      9  C   UNL     1      27.626  19.644  36.959  1.00  0.00     0.002 C 
ATOM     10  C   UNL     1      26.521  19.714  35.801  1.00  0.00    -0.026 C 
ATOM     11  C   UNL     1      26.854  20.960  34.889  1.00  0.00     0.010 C 
ATOM     12  C   UNL     1      25.646  21.798  34.433  1.00  0.00     0.033 C 
ATOM     13  C   UNL     1      24.400  20.937  34.179  1.00  0.00     0.120 C 
ATOM     14  C   UNL     1      23.898  20.231  35.491  1.00  0.00    -0.006 C 
ATOM     15  C   UNL     1      25.115  19.936  36.474  1.00  0.00     0.003 C 
ATOM     16  C   UNL     1      24.821  18.859  37.547  1.00  0.00     0.005 C 
ATOM     17  C   UNL     1      25.864  18.914  38.668  1.00  0.00     0.008 C 
ATOM     18  C   UNL     1      27.355  18.715  38.210  1.00  0.00    -0.024 C 
ATOM     19  C   UNL     1      28.423  19.097  39.423  1.00  0.00    -0.024 C 
ATOM     20  C   UNL     1      28.943  17.806  40.139  1.00  0.00     0.008 C 
ATOM     21  C   UNL     1      29.962  18.040  41.250  1.00  0.00     0.010 C 
ATOM     22  C   UNL     1      27.757  20.005  40.508  1.00  0.00     0.012 C 
ATOM     23  C   UNL     1      27.478  17.215  37.776  1.00  0.00     0.012 C 
ATOM     24  C   UNL     1      23.126  18.951  35.085  1.00  0.00     0.014 C 
ATOM     25  C   UNL     1      22.885  21.152  36.232  1.00  0.00     0.014 C 
ATOM     26  C   UNL     1      26.506  18.438  34.889  1.00  0.00     0.012 C 
ENDROOT
BRANCH   1  27
ATOM     27  C   UNL     1      32.953  21.762  40.048  1.00  0.00    -0.077 C 
ATOM     28  C   UNL     1      32.496  22.582  41.239  1.00  0.00     0.039 C 
ATOM     29  C   UNL     1      34.123  22.131  39.489  1.00  0.00     0.008 C 
ENDBRANCH   1  27
BRANCH   4  30
ATOM     30  C   UNL     1      31.828  19.385  42.216  1.00  0.00     0.163 C 
BRANCH  30  31
ATOM     31  O   UNL     1      32.747  18.424  42.663  1.00  0.00    -0.396 OA
ATOM     32  H   UNL     1      32.955  17.842  41.883  1.00  0.00     0.210 HD
ENDBRANCH  30  31
ENDBRANCH   4  30
BRANCH  13  33
ATOM     33  O   UNL     1      23.384  21.686  33.551  1.00  0.00    -0.393 OA
ATOM     34  H   UNL     1      23.652  21.855  32.610  1.00  0.00     0.210 HD
ENDBRANCH  13  33
TORSDOF 4
ENDMDL
MODEL 5
REMARK VINA RESULT:    -4.943      2.341      7.878
REMARK INTER + INTRA:          -6.276
REMARK INTER:                  -5.836
REMARK INTRA:                  -0.440
REMARK UNBOUND:                -0.466
REMARK SMILES C=C(C)[C@H]1CC[C@]2(CO)CC[C@@]3(C)[C@H](CC[C@H]4[C@]5(C)CC[C@H](O)C(C)(C)[C@H]5CC[C@@]43C)[C@H]12
REMARK SMILES IDX 4 1 5 2 6 3 7 4 32 5 14 6 15 7 16 8 17 9 18 10 20 11 21 12
REMARK SMILES IDX 22 13 24 14 27 15 28 16 29 17 30 18 12 19 11 20 10 21 13 22
REMARK SMILES IDX 31 23 25 24 26 25 19 26 2 27 3 28 1 29 8 30 9 31 23 33
REMARK H PARENT 9 32 23 34
REMARK Flexibility Score: inf
ROOT
ATOM      1  C   UNL     1      30.583  21.482  40.603  1.00  0.00     0.018 C 
ATOM      2  C   UNL     1      32.048  21.341  40.113  1.00  0.00     0.009 C 
ATOM      3  C   UNL     1      32.142  20.054  39.281  1.00  0.00     0.010 C 
ATOM      4  C   UNL     1      30.882  19.245  39.617  1.00  0.00    -0.003 C 
ATOM      5  C   UNL     1      29.819  20.353  39.847  1.00  0.00     0.008 C 
ATOM      6  C   UNL     1      29.088  20.865  38.529  1.00  0.00    -0.000 C 
ATOM      7  C   UNL     1      29.796  21.962  37.693  1.00  0.00     0.005 C 
ATOM      8  C   UNL     1      28.800  22.690  36.771  1.00  0.00     0.005 C 
ATOM      9  C   UNL     1      27.571  21.821  36.340  1.00  0.00     0.002 C 
ATOM     10  C   UNL     1      26.632  22.517  35.244  1.00  0.00    -0.026 C 
ATOM     11  C   UNL     1      26.095  23.870  35.857  1.00  0.00     0.010 C 
ATOM     12  C   UNL     1      24.616  24.192  35.575  1.00  0.00     0.033 C 
ATOM     13  C   UNL     1      24.168  23.714  34.187  1.00  0.00     0.120 C 
ATOM     14  C   UNL     1      24.248  22.150  34.050  1.00  0.00    -0.006 C 
ATOM     15  C   UNL     1      25.411  21.563  34.966  1.00  0.00     0.003 C 
ATOM     16  C   UNL     1      25.878  20.141  34.569  1.00  0.00     0.005 C 
ATOM     17  C   UNL     1      26.691  19.504  35.700  1.00  0.00     0.008 C 
ATOM     18  C   UNL     1      27.970  20.303  36.144  1.00  0.00    -0.024 C 
ATOM     19  C   UNL     1      28.601  19.710  37.560  1.00  0.00    -0.024 C 
ATOM     20  C   UNL     1      29.830  18.781  37.281  1.00  0.00     0.008 C 
ATOM     21  C   UNL     1      30.512  18.209  38.520  1.00  0.00     0.010 C 
ATOM     22  C   UNL     1      27.545  18.873  38.352  1.00  0.00     0.012 C 
ATOM     23  C   UNL     1      28.986  20.185  34.958  1.00  0.00     0.012 C 
ATOM     24  C   UNL     1      24.428  21.805  32.550  1.00  0.00     0.014 C 
ATOM     25  C   UNL     1      22.903  21.511  34.502  1.00  0.00     0.014 C 
ATOM     26  C   UNL     1      27.389  22.856  33.914  1.00  0.00     0.012 C 
ENDROOT
BRANCH   1  27
ATOM     27  C   UNL     1      30.511  21.542  42.144  1.00  0.00    -0.077 C 
ATOM     28  C   UNL     1      29.266  21.362  42.991  1.00  0.00     0.039 C 
ATOM     29  C   UNL     1      31.638  21.868  42.809  1.00  0.00     0.008 C 
ENDBRANCH   1  27
BRANCH   4  30
ATOM     30  C   UNL     1      31.164  18.430  40.918  1.00  0.00     0.163 C 
BRANCH  30  31
ATOM     31  O   UNL     1      31.947  17.298  40.644  1.00  0.00    -0.396 OA
ATOM     32  H   UNL     1      32.872  17.510  40.945  1.00  0.00     0.210 HD
ENDBRANCH  30  31
ENDBRANCH   4  30
BRANCH  13  33
ATOM     33  O   UNL     1      22.890  24.216  33.864  1.00  0.00    -0.393 OA
ATOM     34  H   UNL     1      22.564  23.749  33.052  1.00  0.00     0.210 HD
ENDBRANCH  13  33
TORSDOF 4
ENDMDL
MODEL 6
REMARK VINA RESULT:    -4.820      2.061      3.459
REMARK INTER + INTRA:          -6.131
REMARK INTER:                  -5.536
REMARK INTRA:                  -0.595
REMARK UNBOUND:                -0.466
REMARK SMILES C=C(C)[C@H]1CC[C@]2(CO)CC[C@@]3(C)[C@H](CC[C@H]4[C@]5(C)CC[C@H](O)C(C)(C)[C@H]5CC[C@@]43C)[C@H]12
REMARK SMILES IDX 4 1 5 2 6 3 7 4 32 5 14 6 15 7 16 8 17 9 18 10 20 11 21 12
REMARK SMILES IDX 22 13 24 14 27 15 28 16 29 17 30 18 12 19 11 20 10 21 13 22
REMARK SMILES IDX 31 23 25 24 26 25 19 26 2 27 3 28 1 29 8 30 9 31 23 33
REMARK H PARENT 9 32 23 34
REMARK Flexibility Score: inf
ROOT
ATOM      1  C   UNL     1      25.397  17.951  37.108  1.00  0.00     0.018 C 
ATOM      2  C   UNL     1      25.847  16.892  36.068  1.00  0.00     0.009 C 
ATOM      3  C   UNL     1      26.978  17.507  35.233  1.00  0.00     0.010 C 
ATOM      4  C   UNL     1      26.915  19.018  35.489  1.00  0.00    -0.003 C 
ATOM      5  C   UNL     1      26.450  19.092  36.968  1.00  0.00     0.008 C 
ATOM      6  C   UNL     1      27.619  19.002  38.045  1.00  0.00    -0.000 C 
ATOM      7  C   UNL     1      28.113  17.590  38.454  1.00  0.00     0.005 C 
ATOM      8  C   UNL     1      28.855  17.629  39.803  1.00  0.00     0.005 C 
ATOM      9  C   UNL     1      29.546  18.997  40.117  1.00  0.00     0.002 C 
ATOM     10  C   UNL     1      30.462  18.979  41.431  1.00  0.00    -0.026 C 
ATOM     11  C   UNL     1      29.542  18.593  42.656  1.00  0.00     0.010 C 
ATOM     12  C   UNL     1      29.791  19.382  43.955  1.00  0.00     0.033 C 
ATOM     13  C   UNL     1      31.273  19.731  44.152  1.00  0.00     0.120 C 
ATOM     14  C   UNL     1      31.806  20.684  43.022  1.00  0.00    -0.006 C 
ATOM     15  C   UNL     1      31.027  20.432  41.657  1.00  0.00     0.003 C 
ATOM     16  C   UNL     1      31.760  20.959  40.398  1.00  0.00     0.005 C 
ATOM     17  C   UNL     1      30.799  21.036  39.206  1.00  0.00     0.008 C 
ATOM     18  C   UNL     1      30.112  19.679  38.807  1.00  0.00    -0.024 C 
ATOM     19  C   UNL     1      28.873  19.916  37.728  1.00  0.00    -0.024 C 
ATOM     20  C   UNL     1      29.333  19.594  36.266  1.00  0.00     0.008 C 
ATOM     21  C   UNL     1      28.258  19.743  35.194  1.00  0.00     0.010 C 
ATOM     22  C   UNL     1      28.368  21.396  37.750  1.00  0.00     0.012 C 
ATOM     23  C   UNL     1      31.245  18.781  38.205  1.00  0.00     0.012 C 
ATOM     24  C   UNL     1      33.336  20.472  42.893  1.00  0.00     0.014 C 
ATOM     25  C   UNL     1      31.591  22.169  43.438  1.00  0.00     0.014 C 
ATOM     26  C   UNL     1      31.627  17.934  41.353  1.00  0.00     0.012 C 
ENDROOT
BRANCH   1  27
ATOM     27  C   UNL     1      23.897  18.285  36.956  1.00  0.00    -0.077 C 
ATOM     28  C   UNL     1      22.933  17.648  35.972  1.00  0.00     0.039 C 
ATOM     29  C   UNL     1      23.403  19.293  37.701  1.00  0.00     0.008 C 
ENDBRANCH   1  27
BRANCH   4  30
ATOM     30  C   UNL     1      25.859  19.630  34.515  1.00  0.00     0.163 C 
BRANCH  30  31
ATOM     31  O   UNL     1      25.407  20.875  34.979  1.00  0.00    -0.396 OA
ATOM     32  H   UNL     1      25.806  21.565  34.383  1.00  0.00     0.210 HD
ENDBRANCH  30  31
ENDBRANCH   4  30
BRANCH  13  33
ATOM     33  O   UNL     1      31.506  20.247  45.443  1.00  0.00    -0.393 OA
ATOM     34  H   UNL     1      32.486  20.325  45.579  1.00  0.00     0.210 HD
ENDBRANCH  13  33
TORSDOF 4
ENDMDL
MODEL 7
REMARK VINA RESULT:    -4.759      1.568      8.211
REMARK INTER + INTRA:          -6.059
REMARK INTER:                  -5.468
REMARK INTRA:                  -0.591
REMARK UNBOUND:                -0.466
REMARK SMILES C=C(C)[C@H]1CC[C@]2(CO)CC[C@@]3(C)[C@H](CC[C@H]4[C@]5(C)CC[C@H](O)C(C)(C)[C@H]5CC[C@@]43C)[C@H]12
REMARK SMILES IDX 4 1 5 2 6 3 7 4 32 5 14 6 15 7 16 8 17 9 18 10 20 11 21 12
REMARK SMILES IDX 22 13 24 14 27 15 28 16 29 17 30 18 12 19 11 20 10 21 13 22
REMARK SMILES IDX 31 23 25 24 26 25 19 26 2 27 3 28 1 29 8 30 9 31 23 33
REMARK H PARENT 9 32 23 34
REMARK Flexibility Score: inf
ROOT
ATOM      1  C   UNL     1      32.969  22.788  39.014  1.00  0.00     0.018 C 
ATOM      2  C   UNL     1      33.748  22.199  40.218  1.00  0.00     0.009 C 
ATOM      3  C   UNL     1      32.825  22.249  41.443  1.00  0.00     0.010 C 
ATOM      4  C   UNL     1      31.693  23.216  41.076  1.00  0.00    -0.003 C 
ATOM      5  C   UNL     1      31.518  22.971  39.554  1.00  0.00     0.008 C 
ATOM      6  C   UNL     1      30.551  21.765  39.175  1.00  0.00    -0.000 C 
ATOM      7  C   UNL     1      31.156  20.337  39.157  1.00  0.00     0.005 C 
ATOM      8  C   UNL     1      30.287  19.374  38.327  1.00  0.00     0.005 C 
ATOM      9  C   UNL     1      28.770  19.757  38.279  1.00  0.00     0.002 C 
ATOM     10  C   UNL     1      27.842  18.662  37.566  1.00  0.00    -0.026 C 
ATOM     11  C   UNL     1      28.358  18.484  36.084  1.00  0.00     0.010 C 
ATOM     12  C   UNL     1      27.266  18.356  35.006  1.00  0.00     0.033 C 
ATOM     13  C   UNL     1      26.029  17.602  35.514  1.00  0.00     0.120 C 
ATOM     14  C   UNL     1      25.316  18.368  36.687  1.00  0.00    -0.006 C 
ATOM     15  C   UNL     1      26.368  19.214  37.530  1.00  0.00     0.003 C 
ATOM     16  C   UNL     1      25.877  19.618  38.942  1.00  0.00     0.005 C 
ATOM     17  C   UNL     1      26.755  20.732  39.522  1.00  0.00     0.008 C 
ATOM     18  C   UNL     1      28.284  20.389  39.645  1.00  0.00    -0.024 C 
ATOM     19  C   UNL     1      29.189  21.739  39.982  1.00  0.00    -0.024 C 
ATOM     20  C   UNL     1      29.543  21.812  41.505  1.00  0.00     0.008 C 
ATOM     21  C   UNL     1      30.406  22.999  41.920  1.00  0.00     0.010 C 
ATOM     22  C   UNL     1      28.421  23.050  39.611  1.00  0.00     0.012 C 
ATOM     23  C   UNL     1      28.396  19.314  40.780  1.00  0.00     0.012 C 
ATOM     24  C   UNL     1      24.549  17.331  37.545  1.00  0.00     0.014 C 
ATOM     25  C   UNL     1      24.254  19.349  36.109  1.00  0.00     0.014 C 
ATOM     26  C   UNL     1      27.896  17.262  38.268  1.00  0.00     0.012 C 
ENDROOT
BRANCH   1  27
ATOM     27  C   UNL     1      33.708  24.001  38.407  1.00  0.00    -0.077 C 
ATOM     28  C   UNL     1      35.093  24.488  38.788  1.00  0.00     0.039 C 
ATOM     29  C   UNL     1      33.038  24.757  37.515  1.00  0.00     0.008 C 
ENDBRANCH   1  27
BRANCH   4  30
ATOM     30  C   UNL     1      32.180  24.668  41.380  1.00  0.00     0.163 C 
BRANCH  30  31
ATOM     31  O   UNL     1      31.460  25.610  40.629  1.00  0.00    -0.396 OA
ATOM     32  H   UNL     1      32.129  26.223  40.221  1.00  0.00     0.210 HD
ENDBRANCH  30  31
ENDBRANCH   4  30
BRANCH  13  33
ATOM     33  O   UNL     1      25.147  17.301  34.456  1.00  0.00    -0.393 OA
ATOM     34  H   UNL     1      24.416  17.972  34.454  1.00  0.00     0.210 HD
ENDBRANCH  13  33
TORSDOF 4
ENDMDL
MODEL 8
REMARK VINA RESULT:    -4.721      2.689      4.703
REMARK INTER + INTRA:          -6.015
REMARK INTER:                  -5.753
REMARK INTRA:                  -0.263
REMARK UNBOUND:                -0.466
REMARK SMILES C=C(C)[C@H]1CC[C@]2(CO)CC[C@@]3(C)[C@H](CC[C@H]4[C@]5(C)CC[C@H](O)C(C)(C)[C@H]5CC[C@@]43C)[C@H]12
REMARK SMILES IDX 4 1 5 2 6 3 7 4 32 5 14 6 15 7 16 8 17 9 18 10 20 11 21 12
REMARK SMILES IDX 22 13 24 14 27 15 28 16 29 17 30 18 12 19 11 20 10 21 13 22
REMARK SMILES IDX 31 23 25 24 26 25 19 26 2 27 3 28 1 29 8 30 9 31 23 33
REMARK H PARENT 9 32 23 34
REMARK Flexibility Score: inf
ROOT
ATOM      1  C   UNL     1      27.622  18.615  36.080  1.00  0.00     0.018 C 
ATOM      2  C   UNL     1      28.485  19.045  34.866  1.00  0.00     0.009 C 
ATOM      3  C   UNL     1      28.858  20.521  35.055  1.00  0.00     0.010 C 
ATOM      4  C   UNL     1      27.902  21.061  36.127  1.00  0.00    -0.003 C 
ATOM      5  C   UNL     1      27.701  19.831  37.052  1.00  0.00     0.008 C 
ATOM      6  C   UNL     1      28.805  19.656  38.185  1.00  0.00    -0.000 C 
ATOM      7  C   UNL     1      30.122  18.932  37.802  1.00  0.00     0.005 C 
ATOM      8  C   UNL     1      30.854  18.409  39.051  1.00  0.00     0.005 C 
ATOM      9  C   UNL     1      30.576  19.233  40.351  1.00  0.00     0.002 C 
ATOM     10  C   UNL     1      31.473  18.797  41.606  1.00  0.00    -0.026 C 
ATOM     11  C   UNL     1      31.174  17.276  41.907  1.00  0.00     0.010 C 
ATOM     12  C   UNL     1      31.052  16.899  43.396  1.00  0.00     0.033 C 
ATOM     13  C   UNL     1      32.002  17.715  44.284  1.00  0.00     0.120 C 
ATOM     14  C   UNL     1      31.663  19.250  44.252  1.00  0.00    -0.006 C 
ATOM     15  C   UNL     1      31.033  19.659  42.849  1.00  0.00     0.003 C 
ATOM     16  C   UNL     1      31.095  21.175  42.540  1.00  0.00     0.005 C 
ATOM     17  C   UNL     1      30.144  21.533  41.393  1.00  0.00     0.008 C 
ATOM     18  C   UNL     1      30.406  20.775  40.040  1.00  0.00    -0.024 C 
ATOM     19  C   UNL     1      29.157  20.988  38.968  1.00  0.00    -0.024 C 
ATOM     20  C   UNL     1      29.510  22.080  37.904  1.00  0.00     0.008 C 
ATOM     21  C   UNL     1      28.442  22.330  36.843  1.00  0.00     0.010 C 
ATOM     22  C   UNL     1      27.849  21.441  39.695  1.00  0.00     0.012 C 
ATOM     23  C   UNL     1      31.756  21.340  39.482  1.00  0.00     0.012 C 
ATOM     24  C   UNL     1      32.954  20.037  44.587  1.00  0.00     0.014 C 
ATOM     25  C   UNL     1      30.628  19.585  45.366  1.00  0.00     0.014 C 
ATOM     26  C   UNL     1      33.010  18.945  41.342  1.00  0.00     0.012 C 
ENDROOT
BRANCH   1  27
ATOM     27  C   UNL     1      26.238  18.098  35.629  1.00  0.00    -0.077 C 
ATOM     28  C   UNL     1      25.488  18.518  34.379  1.00  0.00     0.039 C 
ATOM     29  C   UNL     1      25.586  17.257  36.457  1.00  0.00     0.008 C 
ENDBRANCH   1  27
BRANCH   4  30
ATOM     30  C   UNL     1      26.574  21.483  35.423  1.00  0.00     0.163 C 
BRANCH  30  31
ATOM     31  O   UNL     1      26.810  22.468  34.452  1.00  0.00    -0.396 OA
ATOM     32  H   UNL     1      27.149  23.270  34.933  1.00  0.00     0.210 HD
ENDBRANCH  30  31
ENDBRANCH   4  30
BRANCH  13  33
ATOM     33  O   UNL     1      32.037  17.201  45.597  1.00  0.00    -0.393 OA
ATOM     34  H   UNL     1      32.934  17.381  45.982  1.00  0.00     0.210 HD
ENDBRANCH  13  33
TORSDOF 4
ENDMDL
MODEL 9
REMARK VINA RESULT:    -4.632      1.573      8.112
REMARK INTER + INTRA:          -5.910
REMARK INTER:                  -5.402
REMARK INTRA:                  -0.508
REMARK UNBOUND:                -0.466
REMARK SMILES C=C(C)[C@H]1CC[C@]2(CO)CC[C@@]3(C)[C@H](CC[C@H]4[C@]5(C)CC[C@H](O)C(C)(C)[C@H]5CC[C@@]43C)[C@H]12
REMARK SMILES IDX 4 1 5 2 6 3 7 4 32 5 14 6 15 7 16 8 17 9 18 10 20 11 21 12
REMARK SMILES IDX 22 13 24 14 27 15 28 16 29 17 30 18 12 19 11 20 10 21 13 22
REMARK SMILES IDX 31 23 25 24 26 25 19 26 2 27 3 28 1 29 8 30 9 31 23 33
REMARK H PARENT 9 32 23 34
REMARK Flexibility Score: inf
ROOT
ATOM      1  C   UNL     1      31.339  22.608  40.644  1.00  0.00     0.018 C 
ATOM      2  C   UNL     1      32.775  22.294  40.152  1.00  0.00     0.009 C 
ATOM      3  C   UNL     1      32.974  20.773  40.229  1.00  0.00     0.010 C 
ATOM      4  C   UNL     1      31.848  20.248  41.129  1.00  0.00    -0.003 C 
ATOM      5  C   UNL     1      30.674  21.206  40.796  1.00  0.00     0.008 C 
ATOM      6  C   UNL     1      29.802  20.786  39.533  1.00  0.00    -0.000 C 
ATOM      7  C   UNL     1      30.314  21.210  38.131  1.00  0.00     0.005 C 
ATOM      8  C   UNL     1      29.179  21.181  37.092  1.00  0.00     0.005 C 
ATOM      9  C   UNL     1      28.042  20.153  37.409  1.00  0.00     0.002 C 
ATOM     10  C   UNL     1      26.956  19.999  36.241  1.00  0.00    -0.026 C 
ATOM     11  C   UNL     1      26.296  21.415  36.005  1.00  0.00     0.010 C 
ATOM     12  C   UNL     1      24.774  21.413  35.775  1.00  0.00     0.033 C 
ATOM     13  C   UNL     1      24.301  20.175  35.000  1.00  0.00     0.120 C 
ATOM     14  C   UNL     1      24.565  18.847  35.798  1.00  0.00    -0.006 C 
ATOM     15  C   UNL     1      25.847  18.994  36.730  1.00  0.00     0.003 C 
ATOM     16  C   UNL     1      26.460  17.648  37.187  1.00  0.00     0.005 C 
ATOM     17  C   UNL     1      27.416  17.862  38.366  1.00  0.00     0.008 C 
ATOM     18  C   UNL     1      28.612  18.846  38.092  1.00  0.00    -0.024 C 
ATOM     19  C   UNL     1      29.401  19.254  39.494  1.00  0.00    -0.024 C 
ATOM     20  C   UNL     1      30.714  18.419  39.663  1.00  0.00     0.008 C 
ATOM     21  C   UNL     1      31.540  18.742  40.905  1.00  0.00     0.010 C 
ATOM     22  C   UNL     1      28.509  18.991  40.752  1.00  0.00     0.012 C 
ATOM     23  C   UNL     1      29.558  18.107  37.086  1.00  0.00     0.012 C 
ATOM     24  C   UNL     1      24.690  17.687  34.777  1.00  0.00     0.014 C 
ATOM     25  C   UNL     1      23.340  18.521  36.702  1.00  0.00     0.014 C 
ATOM     26  C   UNL     1      27.579  19.523  34.883  1.00  0.00     0.012 C 
ENDROOT
BRANCH   1  27
ATOM     27  C   UNL     1      31.358  23.571  41.851  1.00  0.00    -0.077 C 
ATOM     28  C   UNL     1      32.592  24.162  42.506  1.00  0.00     0.039 C 
ATOM     29  C   UNL     1      30.181  23.854  42.443  1.00  0.00     0.008 C 
ENDBRANCH   1  27
BRANCH   4  30
ATOM     30  C   UNL     1      32.311  20.389  42.614  1.00  0.00     0.163 C 
BRANCH  30  31
ATOM     31  O   UNL     1      33.683  20.124  42.742  1.00  0.00    -0.396 OA
ATOM     32  H   UNL     1      33.900  20.198  43.710  1.00  0.00     0.210 HD
ENDBRANCH  30  31
ENDBRANCH   4  30
BRANCH  13  33
ATOM     33  O   UNL     1      22.953  20.306  34.607  1.00  0.00    -0.393 OA
ATOM     34  H   UNL     1      22.733  21.272  34.551  1.00  0.00     0.210 HD
ENDBRANCH  13  33
TORSDOF 4
ENDMDL
