MODEL 1
REMARK VINA RESULT:    -5.560      0.000      0.000
REMARK INTER + INTRA:          -6.946
REMARK INTER:                  -6.697
REMARK INTRA:                  -0.249
REMARK UNBOUND:                -0.249
REMARK SMILES CCCCc1oc(O)c2ccccc12
REMARK SMILES IDX 4 1 5 2 7 3 6 4 9 5 14 6 10 7 13 8 11 9 12 10 8 11 3 13 2 14
REMARK SMILES IDX 1 15
REMARK H PARENT 8 12
REMARK Flexibility Score: inf
ROOT
ATOM      1  C   UNL     1       4.995 -12.898  -4.838  1.00  0.00     0.076 C 
ENDROOT
BRANCH   1   2
ATOM      2  C   UNL     1       6.115 -13.880  -5.007  1.00  0.00     0.116 A 
ATOM      3  C   UNL     1       7.193 -15.602  -5.693  1.00  0.00     0.290 A 
ATOM      4  O   UNL     1       6.058 -14.936  -5.799  1.00  0.00    -0.430 OA
ATOM      5  C   UNL     1       8.024 -14.966  -4.801  1.00  0.00     0.066 A 
ATOM      6  C   UNL     1       7.338 -13.866  -4.359  1.00  0.00     0.027 A 
ATOM      7  C   UNL     1       9.305 -15.269  -4.347  1.00  0.00     0.016 A 
ATOM      8  C   UNL     1       7.887 -12.986  -3.427  1.00  0.00     0.012 A 
ATOM      9  C   UNL     1       9.888 -14.399  -3.407  1.00  0.00     0.001 A 
ATOM     10  C   UNL     1       9.181 -13.263  -2.949  1.00  0.00     0.001 A 
BRANCH   3  11
ATOM     11  O   UNL     1       7.485 -16.771  -6.385  1.00  0.00    -0.480 OA
ATOM     12  H   UNL     1       6.786 -17.207  -6.973  1.00  0.00     0.297 HD
ENDBRANCH   3  11
ENDBRANCH   1   2
BRANCH   1  13
ATOM     13  C   UNL     1       3.752 -13.297  -5.650  1.00  0.00     0.008 C 
BRANCH  13  14
ATOM     14  C   UNL     1       2.779 -14.223  -4.899  1.00  0.00    -0.003 C 
ATOM     15  C   UNL     1       2.445 -13.721  -3.495  1.00  0.00     0.004 C 
ENDBRANCH  13  14
ENDBRANCH   1  13
TORSDOF 4
ENDMDL
MODEL 2
REMARK VINA RESULT:    -5.321      2.310      3.042
REMARK INTER + INTRA:          -6.658
REMARK INTER:                  -6.258
REMARK INTRA:                  -0.400
REMARK UNBOUND:                -0.249
REMARK SMILES CCCCc1oc(O)c2ccccc12
REMARK SMILES IDX 4 1 5 2 7 3 6 4 9 5 14 6 10 7 13 8 11 9 12 10 8 11 3 13 2 14
REMARK SMILES IDX 1 15
REMARK H PARENT 8 12
REMARK Flexibility Score: inf
ROOT
ATOM      1  C   UNL     1       6.218 -13.481  -3.938  1.00  0.00     0.076 C 
ENDROOT
BRANCH   1   2
ATOM      2  C   UNL     1       7.515 -14.037  -4.447  1.00  0.00     0.116 A 
ATOM      3  C   UNL     1       9.462 -14.934  -4.431  1.00  0.00     0.290 A 
ATOM      4  O   UNL     1       8.443 -14.574  -3.674  1.00  0.00    -0.430 OA
ATOM      5  C   UNL     1       9.199 -14.623  -5.745  1.00  0.00     0.066 A 
ATOM      6  C   UNL     1       7.956 -14.048  -5.759  1.00  0.00     0.027 A 
ATOM      7  C   UNL     1       9.948 -14.793  -6.907  1.00  0.00     0.016 A 
ATOM      8  C   UNL     1       7.370 -13.599  -6.942  1.00  0.00     0.012 A 
ATOM      9  C   UNL     1       9.383 -14.351  -8.118  1.00  0.00     0.001 A 
ATOM     10  C   UNL     1       8.100 -13.757  -8.135  1.00  0.00     0.001 A 
BRANCH   3  11
ATOM     11  O   UNL     1      10.621 -15.533  -3.954  1.00  0.00    -0.480 OA
ATOM     12  H   UNL     1      10.930 -16.422  -4.327  1.00  0.00     0.297 HD
ENDBRANCH   3  11
ENDBRANCH   1   2
BRANCH   1  13
ATOM     13  C   UNL     1       5.148 -14.573  -3.779  1.00  0.00     0.008 C 
BRANCH  13  14
ATOM     14  C   UNL     1       4.412 -14.930  -5.083  1.00  0.00    -0.003 C 
ATOM     15  C   UNL     1       3.118 -14.141  -5.270  1.00  0.00     0.004 C 
ENDBRANCH  13  14
ENDBRANCH   1  13
TORSDOF 4
ENDMDL
MODEL 3
REMARK VINA RESULT:    -5.297      1.440      4.590
REMARK INTER + INTRA:          -6.630
REMARK INTER:                  -6.101
REMARK INTRA:                  -0.529
REMARK UNBOUND:                -0.249
REMARK SMILES CCCCc1oc(O)c2ccccc12
REMARK SMILES IDX 4 1 5 2 7 3 6 4 9 5 14 6 10 7 13 8 11 9 12 10 8 11 3 13 2 14
REMARK SMILES IDX 1 15
REMARK H PARENT 8 12
REMARK Flexibility Score: inf
ROOT
ATOM      1  C   UNL     1       8.752 -15.634  -4.860  1.00  0.00     0.076 C 
ENDROOT
BRANCH   1   2
ATOM      2  C   UNL     1       7.666 -14.995  -5.673  1.00  0.00     0.116 A 
ATOM      3  C   UNL     1       6.593 -14.284  -7.388  1.00  0.00     0.290 A 
ATOM      4  O   UNL     1       7.673 -14.931  -6.993  1.00  0.00    -0.430 OA
ATOM      5  C   UNL     1       5.851 -13.907  -6.292  1.00  0.00     0.066 A 
ATOM      6  C   UNL     1       6.534 -14.359  -5.196  1.00  0.00     0.027 A 
ATOM      7  C   UNL     1       4.651 -13.208  -6.180  1.00  0.00     0.016 A 
ATOM      8  C   UNL     1       6.064 -14.143  -3.899  1.00  0.00     0.012 A 
ATOM      9  C   UNL     1       4.150 -12.975  -4.886  1.00  0.00     0.001 A 
ATOM     10  C   UNL     1       4.854 -13.441  -3.751  1.00  0.00     0.001 A 
BRANCH   3  11
ATOM     11  O   UNL     1       6.272 -14.027  -8.715  1.00  0.00    -0.480 OA
ATOM     12  H   UNL     1       6.128 -14.790  -9.364  1.00  0.00     0.297 HD
ENDBRANCH   3  11
ENDBRANCH   1   2
BRANCH   1  13
ATOM     13  C   UNL     1      10.052 -14.813  -4.888  1.00  0.00     0.008 C 
BRANCH  13  14
ATOM     14  C   UNL     1       9.951 -13.449  -4.183  1.00  0.00    -0.003 C 
ATOM     15  C   UNL     1       9.498 -13.564  -2.729  1.00  0.00     0.004 C 
ENDBRANCH  13  14
ENDBRANCH   1  13
TORSDOF 4
ENDMDL
MODEL 4
REMARK VINA RESULT:    -5.210      2.880      5.004
REMARK INTER + INTRA:          -6.525
REMARK INTER:                  -6.045
REMARK INTRA:                  -0.480
REMARK UNBOUND:                -0.249
REMARK SMILES CCCCc1oc(O)c2ccccc12
REMARK SMILES IDX 4 1 5 2 7 3 6 4 9 5 14 6 10 7 13 8 11 9 12 10 8 11 3 13 2 14
REMARK SMILES IDX 1 15
REMARK H PARENT 8 12
REMARK Flexibility Score: inf
ROOT
ATOM      1  C   UNL     1      10.273 -14.767  -6.815  1.00  0.00     0.076 C 
ENDROOT
BRANCH   1   2
ATOM      2  C   UNL     1       9.561 -14.412  -5.544  1.00  0.00     0.116 A 
ATOM      3  C   UNL     1       9.263 -13.802  -3.510  1.00  0.00     0.290 A 
ATOM      4  O   UNL     1      10.171 -13.998  -4.447  1.00  0.00    -0.430 OA
ATOM      5  C   UNL     1       8.014 -14.098  -4.005  1.00  0.00     0.066 A 
ATOM      6  C   UNL     1       8.201 -14.489  -5.303  1.00  0.00     0.027 A 
ATOM      7  C   UNL     1       6.750 -14.059  -3.419  1.00  0.00     0.016 A 
ATOM      8  C   UNL     1       7.132 -14.873  -6.115  1.00  0.00     0.012 A 
ATOM      9  C   UNL     1       5.652 -14.439  -4.212  1.00  0.00     0.001 A 
ATOM     10  C   UNL     1       5.842 -14.844  -5.554  1.00  0.00     0.001 A 
BRANCH   3  11
ATOM     11  O   UNL     1       9.545 -13.365  -2.222  1.00  0.00    -0.480 OA
ATOM     12  H   UNL     1       8.945 -12.688  -1.768  1.00  0.00     0.297 HD
ENDBRANCH   3  11
ENDBRANCH   1   2
BRANCH   1  13
ATOM     13  C   UNL     1      10.172 -13.646  -7.863  1.00  0.00     0.008 C 
BRANCH  13  14
ATOM     14  C   UNL     1       9.453 -14.059  -9.160  1.00  0.00    -0.003 C 
ATOM     15  C   UNL     1       8.100 -13.372  -9.334  1.00  0.00     0.004 C 
ENDBRANCH  13  14
ENDBRANCH   1  13
TORSDOF 4
ENDMDL
MODEL 5
REMARK VINA RESULT:    -5.094      2.703      4.480
REMARK INTER + INTRA:          -6.385
REMARK INTER:                  -5.882
REMARK INTRA:                  -0.503
REMARK UNBOUND:                -0.249
REMARK SMILES CCCCc1oc(O)c2ccccc12
REMARK SMILES IDX 4 1 5 2 7 3 6 4 9 5 14 6 10 7 13 8 11 9 12 10 8 11 3 13 2 14
REMARK SMILES IDX 1 15
REMARK H PARENT 8 12
REMARK Flexibility Score: inf
ROOT
ATOM      1  C   UNL     1       7.660 -14.740  -4.560  1.00  0.00     0.076 C 
ENDROOT
BRANCH   1   2
ATOM      2  C   UNL     1       7.672 -14.491  -6.039  1.00  0.00     0.116 A 
ATOM      3  C   UNL     1       6.947 -14.221  -8.039  1.00  0.00     0.290 A 
ATOM      4  O   UNL     1       6.584 -14.420  -6.785  1.00  0.00    -0.430 OA
ATOM      5  C   UNL     1       8.318 -14.162  -8.121  1.00  0.00     0.066 A 
ATOM      6  C   UNL     1       8.785 -14.335  -6.846  1.00  0.00     0.027 A 
ATOM      7  C   UNL     1       9.176 -13.978  -9.204  1.00  0.00     0.016 A 
ATOM      8  C   UNL     1      10.151 -14.338  -6.560  1.00  0.00     0.012 A 
ATOM      9  C   UNL     1      10.559 -13.975  -8.948  1.00  0.00     0.001 A 
ATOM     10  C   UNL     1      11.044 -14.154  -7.631  1.00  0.00     0.001 A 
BRANCH   3  11
ATOM     11  O   UNL     1       6.061 -14.097  -9.102  1.00  0.00    -0.480 OA
ATOM     12  H   UNL     1       5.245 -13.504  -9.023  1.00  0.00     0.297 HD
ENDBRANCH   3  11
ENDBRANCH   1   2
BRANCH   1  13
ATOM     13  C   UNL     1       7.771 -13.435  -3.756  1.00  0.00     0.008 C 
BRANCH  13  14
ATOM     14  C   UNL     1       9.124 -13.246  -3.045  1.00  0.00    -0.003 C 
ATOM     15  C   UNL     1       9.915 -14.547  -2.919  1.00  0.00     0.004 C 
ENDBRANCH  13  14
ENDBRANCH   1  13
TORSDOF 4
ENDMDL
MODEL 6
REMARK VINA RESULT:    -5.060     10.513     11.670
REMARK INTER + INTRA:          -6.344
REMARK INTER:                  -6.182
REMARK INTRA:                  -0.162
REMARK UNBOUND:                -0.249
REMARK SMILES CCCCc1oc(O)c2ccccc12
REMARK SMILES IDX 4 1 5 2 7 3 6 4 9 5 14 6 10 7 13 8 11 9 12 10 8 11 3 13 2 14
REMARK SMILES IDX 1 15
REMARK H PARENT 8 12
REMARK Flexibility Score: inf
ROOT
ATOM      1  C   UNL     1       2.683 -21.828  -2.097  1.00  0.00     0.076 C 
ENDROOT
BRANCH   1   2
ATOM      2  C   UNL     1       2.739 -22.792  -0.950  1.00  0.00     0.116 A 
ATOM      3  C   UNL     1       3.281 -23.628   0.948  1.00  0.00     0.290 A 
ATOM      4  O   UNL     1       3.420 -22.577   0.162  1.00  0.00    -0.430 OA
ATOM      5  C   UNL     1       2.485 -24.567   0.334  1.00  0.00     0.066 A 
ATOM      6  C   UNL     1       2.138 -24.036  -0.879  1.00  0.00     0.027 A 
ATOM      7  C   UNL     1       2.053 -25.827   0.741  1.00  0.00     0.016 A 
ATOM      8  C   UNL     1       1.329 -24.732  -1.779  1.00  0.00     0.012 A 
ATOM      9  C   UNL     1       1.235 -26.554  -0.144  1.00  0.00     0.001 A 
ATOM     10  C   UNL     1       0.875 -26.008  -1.398  1.00  0.00     0.001 A 
BRANCH   3  11
ATOM     11  O   UNL     1       3.863 -23.752   2.204  1.00  0.00    -0.480 OA
ATOM     12  H   UNL     1       3.357 -24.191   2.963  1.00  0.00     0.297 HD
ENDBRANCH   3  11
ENDBRANCH   1   2
BRANCH   1  13
ATOM     13  C   UNL     1       1.246 -21.615  -2.601  1.00  0.00     0.008 C 
BRANCH  13  14
ATOM     14  C   UNL     1       1.077 -21.796  -4.120  1.00  0.00    -0.003 C 
ATOM     15  C   UNL     1       2.411 -21.861  -4.862  1.00  0.00     0.004 C 
ENDBRANCH  13  14
ENDBRANCH   1  13
TORSDOF 4
ENDMDL
MODEL 7
REMARK VINA RESULT:    -5.027     10.305     11.591
REMARK INTER + INTRA:          -6.305
REMARK INTER:                  -6.057
REMARK INTRA:                  -0.247
REMARK UNBOUND:                -0.249
REMARK SMILES CCCCc1oc(O)c2ccccc12
REMARK SMILES IDX 4 1 5 2 7 3 6 4 9 5 14 6 10 7 13 8 11 9 12 10 8 11 3 13 2 14
REMARK SMILES IDX 1 15
REMARK H PARENT 8 12
REMARK Flexibility Score: inf
ROOT
ATOM      1  C   UNL     1       2.228 -22.635   1.857  1.00  0.00     0.076 C 
ENDROOT
BRANCH   1   2
ATOM      2  C   UNL     1       2.093 -23.530   0.661  1.00  0.00     0.116 A 
ATOM      3  C   UNL     1       1.962 -25.328  -0.499  1.00  0.00     0.290 A 
ATOM      4  O   UNL     1       2.058 -24.849   0.727  1.00  0.00    -0.430 OA
ATOM      5  C   UNL     1       1.935 -24.290  -1.402  1.00  0.00     0.066 A 
ATOM      6  C   UNL     1       2.019 -23.141  -0.664  1.00  0.00     0.027 A 
ATOM      7  C   UNL     1       1.850 -24.272  -2.793  1.00  0.00     0.016 A 
ATOM      8  C   UNL     1       2.026 -21.882  -1.267  1.00  0.00     0.012 A 
ATOM      9  C   UNL     1       1.853 -23.018  -3.430  1.00  0.00     0.001 A 
ATOM     10  C   UNL     1       1.941 -21.828  -2.670  1.00  0.00     0.001 A 
BRANCH   3  11
ATOM     11  O   UNL     1       1.902 -26.680  -0.812  1.00  0.00    -0.480 OA
ATOM     12  H   UNL     1       1.654 -26.980  -1.746  1.00  0.00     0.297 HD
ENDBRANCH   3  11
ENDBRANCH   1   2
BRANCH   1  13
ATOM     13  C   UNL     1       0.896 -21.963   2.227  1.00  0.00     0.008 C 
BRANCH  13  14
ATOM     14  C   UNL     1       0.995 -20.971   3.400  1.00  0.00    -0.003 C 
ATOM     15  C   UNL     1       0.899 -19.513   2.954  1.00  0.00     0.004 C 
ENDBRANCH  13  14
ENDBRANCH   1  13
TORSDOF 4
ENDMDL
MODEL 8
REMARK VINA RESULT:    -4.941      1.529      1.873
REMARK INTER + INTRA:          -6.201
REMARK INTER:                  -5.936
REMARK INTRA:                  -0.265
REMARK UNBOUND:                -0.249
REMARK SMILES CCCCc1oc(O)c2ccccc12
REMARK SMILES IDX 4 1 5 2 7 3 6 4 9 5 14 6 10 7 13 8 11 9 12 10 8 11 3 13 2 14
REMARK SMILES IDX 1 15
REMARK H PARENT 8 12
REMARK Flexibility Score: inf
ROOT
ATOM      1  C   UNL     1       5.193 -14.194  -3.682  1.00  0.00     0.076 C 
ENDROOT
BRANCH   1   2
ATOM      2  C   UNL     1       6.051 -14.260  -4.910  1.00  0.00     0.116 A 
ATOM      3  C   UNL     1       6.591 -14.340  -6.984  1.00  0.00     0.290 A 
ATOM      4  O   UNL     1       5.578 -14.238  -6.144  1.00  0.00    -0.430 OA
ATOM      5  C   UNL     1       7.770 -14.435  -6.281  1.00  0.00     0.066 A 
ATOM      6  C   UNL     1       7.429 -14.386  -4.956  1.00  0.00     0.027 A 
ATOM      7  C   UNL     1       9.092 -14.566  -6.699  1.00  0.00     0.016 A 
ATOM      8  C   UNL     1       8.390 -14.464  -3.948  1.00  0.00     0.012 A 
ATOM      9  C   UNL     1      10.086 -14.646  -5.706  1.00  0.00     0.001 A 
ATOM     10  C   UNL     1       9.736 -14.596  -4.337  1.00  0.00     0.001 A 
BRANCH   3  11
ATOM     11  O   UNL     1       6.466 -14.352  -8.367  1.00  0.00    -0.480 OA
ATOM     12  H   UNL     1       6.567 -15.217  -8.883  1.00  0.00     0.297 HD
ENDBRANCH   3  11
ENDBRANCH   1   2
BRANCH   1  13
ATOM     13  C   UNL     1       4.043 -15.214  -3.728  1.00  0.00     0.008 C 
BRANCH  13  14
ATOM     14  C   UNL     1       2.641 -14.581  -3.790  1.00  0.00    -0.003 C 
ATOM     15  C   UNL     1       2.647 -13.092  -3.449  1.00  0.00     0.004 C 
ENDBRANCH  13  14
ENDBRANCH   1  13
TORSDOF 4
ENDMDL
MODEL 9
REMARK VINA RESULT:    -4.793      2.468      3.918
REMARK INTER + INTRA:          -6.022
REMARK INTER:                  -5.578
REMARK INTRA:                  -0.444
REMARK UNBOUND:                -0.249
REMARK SMILES CCCCc1oc(O)c2ccccc12
REMARK SMILES IDX 4 1 5 2 7 3 6 4 9 5 14 6 10 7 13 8 11 9 12 10 8 11 3 13 2 14
REMARK SMILES IDX 1 15
REMARK H PARENT 8 12
REMARK Flexibility Score: inf
ROOT
ATOM      1  C   UNL     1       6.774 -14.399  -7.742  1.00  0.00     0.076 C 
ENDROOT
BRANCH   1   2
ATOM      2  C   UNL     1       6.975 -14.367  -6.257  1.00  0.00     0.116 A 
ATOM      3  C   UNL     1       6.510 -14.255  -4.167  1.00  0.00     0.290 A 
ATOM      4  O   UNL     1       5.990 -14.291  -5.379  1.00  0.00    -0.430 OA
ATOM      5  C   UNL     1       7.882 -14.308  -4.248  1.00  0.00     0.066 A 
ATOM      6  C   UNL     1       8.183 -14.378  -5.581  1.00  0.00     0.027 A 
ATOM      7  C   UNL     1       8.870 -14.292  -3.266  1.00  0.00     0.016 A 
ATOM      8  C   UNL     1       9.502 -14.438  -6.032  1.00  0.00     0.012 A 
ATOM      9  C   UNL     1      10.211 -14.353  -3.689  1.00  0.00     0.001 A 
ATOM     10  C   UNL     1      10.525 -14.425  -5.066  1.00  0.00     0.001 A 
BRANCH   3  11
ATOM     11  O   UNL     1       5.766 -14.173  -2.996  1.00  0.00    -0.480 OA
ATOM     12  H   UNL     1       5.978 -13.466  -2.303  1.00  0.00     0.297 HD
ENDBRANCH   3  11
ENDBRANCH   1   2
BRANCH   1  13
ATOM     13  C   UNL     1       6.911 -13.003  -8.372  1.00  0.00     0.008 C 
BRANCH  13  14
ATOM     14  C   UNL     1       7.689 -12.984  -9.700  1.00  0.00    -0.003 C 
ATOM     15  C   UNL     1       9.079 -13.606  -9.583  1.00  0.00     0.004 C 
ENDBRANCH  13  14
ENDBRANCH   1  13
TORSDOF 4
ENDMDL
