MODEL 1
REMARK VINA RESULT:    -5.674      0.000      0.000
REMARK INTER + INTRA:          -5.840
REMARK INTER:                  -5.840
REMARK INTRA:                   0.000
REMARK UNBOUND:                 0.000
REMARK SMILES Nc1ncnc2nc[nH]c12
REMARK SMILES IDX 8 1 7 2 6 3 5 4 4 5 3 6 2 7 10 8 9 9 1 11
REMARK H PARENT 9 10 1 12 1 13
REMARK Flexibility Score: inf
ROOT
ATOM      1  C   UNL     1       5.004  14.337  57.148  1.00  0.00     0.199 A 
ATOM      2  N   UNL     1       4.769  15.466  56.427  1.00  0.00    -0.217 NA
ATOM      3  C   UNL     1       5.871  15.553  55.664  1.00  0.00     0.182 A 
ATOM      4  N   UNL     1       6.149  16.513  54.749  1.00  0.00    -0.215 NA
ATOM      5  C   UNL     1       7.330  16.431  54.066  1.00  0.00     0.226 A 
ATOM      6  N   UNL     1       8.204  15.402  54.307  1.00  0.00    -0.217 NA
ATOM      7  C   UNL     1       7.927  14.433  55.229  1.00  0.00     0.152 A 
ATOM      8  C   UNL     1       6.720  14.529  55.916  1.00  0.00     0.127 A 
ATOM      9  N   UNL     1       6.189  13.741  56.859  1.00  0.00    -0.340 N 
ATOM     10  H   UNL     1       6.583  12.872  57.280  1.00  0.00     0.168 HD
ENDROOT
BRANCH   7  11
ATOM     11  N   UNL     1       8.852  13.370  55.463  1.00  0.00    -0.382 N 
ATOM     12  H   UNL     1       9.744  13.557  55.974  1.00  0.00     0.158 HD
ATOM     13  H   UNL     1       8.659  12.399  55.135  1.00  0.00     0.158 HD
ENDBRANCH   7  11
TORSDOF 1
ENDMDL
MODEL 2
REMARK VINA RESULT:    -5.148     14.230     15.953
REMARK INTER + INTRA:          -5.298
REMARK INTER:                  -5.298
REMARK INTRA:                   0.000
REMARK UNBOUND:                 0.000
REMARK SMILES Nc1ncnc2nc[nH]c12
REMARK SMILES IDX 8 1 7 2 6 3 5 4 4 5 3 6 2 7 10 8 9 9 1 11
REMARK H PARENT 9 10 1 12 1 13
REMARK Flexibility Score: inf
ROOT
ATOM      1  C   UNL     1      15.862   6.756  43.090  1.00  0.00     0.199 A 
ATOM      2  N   UNL     1      16.047   7.652  44.096  1.00  0.00    -0.217 NA
ATOM      3  C   UNL     1      15.141   7.253  45.004  1.00  0.00     0.182 A 
ATOM      4  N   UNL     1      14.906   7.816  46.213  1.00  0.00    -0.215 NA
ATOM      5  C   UNL     1      13.936   7.266  47.005  1.00  0.00     0.226 A 
ATOM      6  N   UNL     1      13.226   6.173  46.577  1.00  0.00    -0.217 NA
ATOM      7  C   UNL     1      13.461   5.604  45.357  1.00  0.00     0.152 A 
ATOM      8  C   UNL     1      14.452   6.175  44.563  1.00  0.00     0.127 A 
ATOM      9  N   UNL     1      14.894   5.840  43.345  1.00  0.00    -0.340 N 
ATOM     10  H   UNL     1      14.577   5.060  42.728  1.00  0.00     0.168 HD
ENDROOT
BRANCH   7  11
ATOM     11  N   UNL     1      12.710   4.466  44.932  1.00  0.00    -0.382 N 
ATOM     12  H   UNL     1      13.186   3.683  44.431  1.00  0.00     0.158 HD
ATOM     13  H   UNL     1      11.684   4.393  45.110  1.00  0.00     0.158 HD
ENDBRANCH   7  11
TORSDOF 1
ENDMDL
MODEL 3
REMARK VINA RESULT:    -5.009     13.039     14.545
REMARK INTER + INTRA:          -5.156
REMARK INTER:                  -5.156
REMARK INTRA:                   0.000
REMARK UNBOUND:                 0.000
REMARK SMILES Nc1ncnc2nc[nH]c12
REMARK SMILES IDX 8 1 7 2 6 3 5 4 4 5 3 6 2 7 10 8 9 9 1 11
REMARK H PARENT 9 10 1 12 1 13
REMARK Flexibility Score: inf
ROOT
ATOM      1  C   UNL     1      12.255   8.405  47.138  1.00  0.00     0.199 A 
ATOM      2  N   UNL     1      13.466   8.885  46.746  1.00  0.00    -0.217 NA
ATOM      3  C   UNL     1      13.990   7.836  46.091  1.00  0.00     0.182 A 
ATOM      4  N   UNL     1      15.204   7.781  45.493  1.00  0.00    -0.215 NA
ATOM      5  C   UNL     1      15.566   6.618  44.871  1.00  0.00     0.226 A 
ATOM      6  N   UNL     1      14.716   5.542  44.859  1.00  0.00    -0.217 NA
ATOM      7  C   UNL     1      13.491   5.594  45.463  1.00  0.00     0.152 A 
ATOM      8  C   UNL     1      13.137   6.785  46.091  1.00  0.00     0.127 A 
ATOM      9  N   UNL     1      12.024   7.124  46.752  1.00  0.00    -0.340 N 
ATOM     10  H   UNL     1      11.173   6.548  46.934  1.00  0.00     0.168 HD
ENDROOT
BRANCH   7  11
ATOM     11  N   UNL     1      12.622   4.461  45.438  1.00  0.00    -0.382 N 
ATOM     12  H   UNL     1      12.863   3.631  44.851  1.00  0.00     0.158 HD
ATOM     13  H   UNL     1      11.742   4.438  45.997  1.00  0.00     0.158 HD
ENDBRANCH   7  11
TORSDOF 1
ENDMDL
MODEL 4
REMARK VINA RESULT:    -4.920     13.541     15.060
REMARK INTER + INTRA:          -5.064
REMARK INTER:                  -5.064
REMARK INTRA:                   0.000
REMARK UNBOUND:                 0.000
REMARK SMILES Nc1ncnc2nc[nH]c12
REMARK SMILES IDX 8 1 7 2 6 3 5 4 4 5 3 6 2 7 10 8 9 9 1 11
REMARK H PARENT 9 10 1 12 1 13
REMARK Flexibility Score: inf
ROOT
ATOM      1  C   UNL     1      14.064   4.392  45.391  1.00  0.00     0.199 A 
ATOM      2  N   UNL     1      14.587   5.077  46.444  1.00  0.00    -0.217 NA
ATOM      3  C   UNL     1      14.180   6.333  46.196  1.00  0.00     0.182 A 
ATOM      4  N   UNL     1      14.435   7.429  46.951  1.00  0.00    -0.215 NA
ATOM      5  C   UNL     1      13.934   8.631  46.534  1.00  0.00     0.226 A 
ATOM      6  N   UNL     1      13.195   8.715  45.382  1.00  0.00    -0.217 NA
ATOM      7  C   UNL     1      12.937   7.611  44.619  1.00  0.00     0.152 A 
ATOM      8  C   UNL     1      13.453   6.395  45.056  1.00  0.00     0.127 A 
ATOM      9  N   UNL     1      13.366   5.169  44.526  1.00  0.00    -0.340 N 
ATOM     10  H   UNL     1      12.878   4.870  43.653  1.00  0.00     0.168 HD
ENDROOT
BRANCH   7  11
ATOM     11  N   UNL     1      12.164   7.722  43.423  1.00  0.00    -0.382 N 
ATOM     12  H   UNL     1      11.989   6.877  42.834  1.00  0.00     0.158 HD
ATOM     13  H   UNL     1      11.763   8.635  43.115  1.00  0.00     0.158 HD
ENDBRANCH   7  11
TORSDOF 1
ENDMDL
MODEL 5
REMARK VINA RESULT:    -4.863      1.009      2.784
REMARK INTER + INTRA:          -5.005
REMARK INTER:                  -5.005
REMARK INTRA:                   0.000
REMARK UNBOUND:                 0.000
REMARK SMILES Nc1ncnc2nc[nH]c12
REMARK SMILES IDX 8 1 7 2 6 3 5 4 4 5 3 6 2 7 10 8 9 9 1 11
REMARK H PARENT 9 10 1 12 1 13
REMARK Flexibility Score: inf
ROOT
ATOM      1  C   UNL     1       7.399  17.735  55.023  1.00  0.00     0.199 A 
ATOM      2  N   UNL     1       6.124  17.602  55.477  1.00  0.00    -0.217 NA
ATOM      3  C   UNL     1       6.060  16.293  55.770  1.00  0.00     0.182 A 
ATOM      4  N   UNL     1       4.990  15.626  56.265  1.00  0.00    -0.215 NA
ATOM      5  C   UNL     1       5.117  14.284  56.499  1.00  0.00     0.226 A 
ATOM      6  N   UNL     1       6.300  13.641  56.237  1.00  0.00    -0.217 NA
ATOM      7  C   UNL     1       7.380  14.311  55.737  1.00  0.00     0.152 A 
ATOM      8  C   UNL     1       7.235  15.677  55.504  1.00  0.00     0.127 A 
ATOM      9  N   UNL     1       8.104  16.576  55.027  1.00  0.00    -0.340 N 
ATOM     10  H   UNL     1       9.093  16.432  54.726  1.00  0.00     0.168 HD
ENDROOT
BRANCH   7  11
ATOM     11  N   UNL     1       8.602  13.621  55.471  1.00  0.00    -0.382 N 
ATOM     12  H   UNL     1       8.581  12.669  55.041  1.00  0.00     0.158 HD
ATOM     13  H   UNL     1       9.527  14.046  55.697  1.00  0.00     0.158 HD
ENDBRANCH   7  11
TORSDOF 1
ENDMDL
MODEL 6
REMARK VINA RESULT:    -4.687     13.554     15.061
REMARK INTER + INTRA:          -4.824
REMARK INTER:                  -4.824
REMARK INTRA:                   0.000
REMARK UNBOUND:                 0.000
REMARK SMILES Nc1ncnc2nc[nH]c12
REMARK SMILES IDX 8 1 7 2 6 3 5 4 4 5 3 6 2 7 10 8 9 9 1 11
REMARK H PARENT 9 10 1 12 1 13
REMARK Flexibility Score: inf
ROOT
ATOM      1  C   UNL     1      12.844   7.846  47.106  1.00  0.00     0.199 A 
ATOM      2  N   UNL     1      14.159   7.497  47.122  1.00  0.00    -0.217 NA
ATOM      3  C   UNL     1      14.426   7.331  45.816  1.00  0.00     0.182 A 
ATOM      4  N   UNL     1      15.614   6.974  45.273  1.00  0.00    -0.215 NA
ATOM      5  C   UNL     1      15.693   6.855  43.913  1.00  0.00     0.226 A 
ATOM      6  N   UNL     1      14.593   7.092  43.129  1.00  0.00    -0.217 NA
ATOM      7  C   UNL     1      13.393   7.452  43.674  1.00  0.00     0.152 A 
ATOM      8  C   UNL     1      13.329   7.569  45.060  1.00  0.00     0.127 A 
ATOM      9  N   UNL     1      12.308   7.899  45.860  1.00  0.00    -0.340 N 
ATOM     10  H   UNL     1      11.327   8.142  45.599  1.00  0.00     0.168 HD
ENDROOT
BRANCH   7  11
ATOM     11  N   UNL     1      12.261   7.694  42.838  1.00  0.00    -0.382 N 
ATOM     12  H   UNL     1      12.288   7.419  41.831  1.00  0.00     0.158 HD
ATOM     13  H   UNL     1      11.396   8.143  43.210  1.00  0.00     0.158 HD
ENDBRANCH   7  11
TORSDOF 1
ENDMDL
MODEL 7
REMARK VINA RESULT:    -4.667      1.499      2.826
REMARK INTER + INTRA:          -4.803
REMARK INTER:                  -4.803
REMARK INTRA:                   0.000
REMARK UNBOUND:                 0.000
REMARK SMILES Nc1ncnc2nc[nH]c12
REMARK SMILES IDX 8 1 7 2 6 3 5 4 4 5 3 6 2 7 10 8 9 9 1 11
REMARK H PARENT 9 10 1 12 1 13
REMARK Flexibility Score: inf
ROOT
ATOM      1  C   UNL     1       4.729  14.656  58.243  1.00  0.00     0.199 A 
ATOM      2  N   UNL     1       5.407  13.889  57.347  1.00  0.00    -0.217 NA
ATOM      3  C   UNL     1       5.900  14.807  56.500  1.00  0.00     0.182 A 
ATOM      4  N   UNL     1       6.663  14.570  55.406  1.00  0.00    -0.215 NA
ATOM      5  C   UNL     1       7.073  15.642  54.660  1.00  0.00     0.226 A 
ATOM      6  N   UNL     1       6.714  16.916  55.018  1.00  0.00    -0.217 NA
ATOM      7  C   UNL     1       5.944  17.157  56.120  1.00  0.00     0.152 A 
ATOM      8  C   UNL     1       5.536  16.057  56.869  1.00  0.00     0.127 A 
ATOM      9  N   UNL     1       4.789  15.986  57.978  1.00  0.00    -0.340 N 
ATOM     10  H   UNL     1       4.351  16.763  58.520  1.00  0.00     0.168 HD
ENDROOT
BRANCH   7  11
ATOM     11  N   UNL     1       5.583  18.493  56.474  1.00  0.00    -0.382 N 
ATOM     12  H   UNL     1       4.745  18.666  57.073  1.00  0.00     0.158 HD
ATOM     13  H   UNL     1       6.141  19.312  56.148  1.00  0.00     0.158 HD
ENDBRANCH   7  11
TORSDOF 1
ENDMDL
MODEL 8
REMARK VINA RESULT:    -4.558      1.903      2.079
REMARK INTER + INTRA:          -4.691
REMARK INTER:                  -4.691
REMARK INTRA:                   0.000
REMARK UNBOUND:                 0.000
REMARK SMILES Nc1ncnc2nc[nH]c12
REMARK SMILES IDX 8 1 7 2 6 3 5 4 4 5 3 6 2 7 10 8 9 9 1 11
REMARK H PARENT 9 10 1 12 1 13
REMARK Flexibility Score: inf
ROOT
ATOM      1  C   UNL     1       4.827  14.121  58.120  1.00  0.00     0.199 A 
ATOM      2  N   UNL     1       4.738  15.436  58.457  1.00  0.00    -0.217 NA
ATOM      3  C   UNL     1       5.805  15.964  57.835  1.00  0.00     0.182 A 
ATOM      4  N   UNL     1       6.187  17.263  57.846  1.00  0.00    -0.215 NA
ATOM      5  C   UNL     1       7.310  17.612  57.148  1.00  0.00     0.226 A 
ATOM      6  N   UNL     1       8.024  16.665  56.460  1.00  0.00    -0.217 NA
ATOM      7  C   UNL     1       7.641  15.354  56.448  1.00  0.00     0.152 A 
ATOM      8  C   UNL     1       6.495  15.014  57.162  1.00  0.00     0.127 A 
ATOM      9  N   UNL     1       5.891  13.831  57.329  1.00  0.00    -0.340 N 
ATOM     10  H   UNL     1       6.164  12.900  56.946  1.00  0.00     0.168 HD
ENDROOT
BRANCH   7  11
ATOM     11  N   UNL     1       8.400  14.384  55.724  1.00  0.00    -0.382 N 
ATOM     12  H   UNL     1       9.374  14.605  55.419  1.00  0.00     0.158 HD
ATOM     13  H   UNL     1       8.004  13.449  55.487  1.00  0.00     0.158 HD
ENDBRANCH   7  11
TORSDOF 1
ENDMDL
MODEL 9
REMARK VINA RESULT:    -4.525     13.417     15.175
REMARK INTER + INTRA:          -4.657
REMARK INTER:                  -4.657
REMARK INTRA:                   0.000
REMARK UNBOUND:                 0.000
REMARK SMILES Nc1ncnc2nc[nH]c12
REMARK SMILES IDX 8 1 7 2 6 3 5 4 4 5 3 6 2 7 10 8 9 9 1 11
REMARK H PARENT 9 10 1 12 1 13
REMARK Flexibility Score: inf
ROOT
ATOM      1  C   UNL     1      15.873   7.276  43.610  1.00  0.00     0.199 A 
ATOM      2  N   UNL     1      16.039   6.998  44.931  1.00  0.00    -0.217 NA
ATOM      3  C   UNL     1      14.854   7.363  45.450  1.00  0.00     0.182 A 
ATOM      4  N   UNL     1      14.485   7.292  46.751  1.00  0.00    -0.215 NA
ATOM      5  C   UNL     1      13.229   7.714  47.090  1.00  0.00     0.226 A 
ATOM      6  N   UNL     1      12.374   8.193  46.131  1.00  0.00    -0.217 NA
ATOM      7  C   UNL     1      12.744   8.266  44.818  1.00  0.00     0.152 A 
ATOM      8  C   UNL     1      14.025   7.833  44.488  1.00  0.00     0.127 A 
ATOM      9  N   UNL     1      14.653   7.786  43.307  1.00  0.00    -0.340 N 
ATOM     10  H   UNL     1      14.298   8.073  42.368  1.00  0.00     0.168 HD
ENDROOT
BRANCH   7  11
ATOM     11  N   UNL     1      11.836   8.768  43.836  1.00  0.00    -0.382 N 
ATOM     12  H   UNL     1      10.806   8.672  43.979  1.00  0.00     0.158 HD
ATOM     13  H   UNL     1      12.177   9.235  42.968  1.00  0.00     0.158 HD
ENDBRANCH   7  11
TORSDOF 1
ENDMDL
