MODEL 1
REMARK VINA RESULT:    -3.180      0.000      0.000
REMARK INTER + INTRA:          -3.556
REMARK INTER:                  -3.459
REMARK INTRA:                  -0.098
REMARK UNBOUND:                -0.098
REMARK SMILES C=C(C)[C@H]1CC[C@H](C)C[C@@H]1O
REMARK SMILES IDX 8 1 7 2 6 3 5 4 4 5 10 6 9 7 11 8 2 10 1 11 3 12
REMARK H PARENT 11 9
REMARK Flexibility Score: inf
ROOT
ATOM      1  C   UNL     1     -19.125 -12.237  12.629  1.00  0.00     0.008 C 
ATOM      2  C   UNL     1     -19.030 -13.167  11.415  1.00  0.00    -0.012 C 
ATOM      3  C   UNL     1     -17.775 -12.841  10.582  1.00  0.00     0.004 C 
ATOM      4  C   UNL     1     -17.663 -13.777   9.373  1.00  0.00     0.011 C 
ATOM      5  C   UNL     1     -17.650 -15.254   9.814  1.00  0.00     0.043 C 
ATOM      6  C   UNL     1     -18.905 -15.591  10.659  1.00  0.00     0.121 C 
ATOM      7  C   UNL     1     -19.011 -14.641  11.864  1.00  0.00     0.035 C 
ENDROOT
BRANCH   6   8
ATOM      8  O   UNL     1     -18.827 -16.910  11.135  1.00  0.00    -0.392 OA
ATOM      9  H   UNL     1     -18.441 -16.866  12.048  1.00  0.00     0.210 HD
ENDBRANCH   6   8
BRANCH   5  10
ATOM     10  C   UNL     1     -17.519 -16.173   8.606  1.00  0.00    -0.075 C 
ATOM     11  C   UNL     1     -18.602 -16.484   7.875  1.00  0.00     0.008 C 
ATOM     12  C   UNL     1     -16.186 -16.753   8.203  1.00  0.00     0.039 C 
ENDBRANCH   5  10
TORSDOF 2
ENDMDL
MODEL 2
REMARK VINA RESULT:    -2.601      1.149      4.144
REMARK INTER + INTRA:          -2.927
REMARK INTER:                  -3.386
REMARK INTRA:                   0.459
REMARK UNBOUND:                -0.098
REMARK SMILES C=C(C)[C@H]1CC[C@H](C)C[C@@H]1O
REMARK SMILES IDX 8 1 7 2 6 3 5 4 4 5 10 6 9 7 11 8 2 10 1 11 3 12
REMARK H PARENT 11 9
REMARK Flexibility Score: inf
ROOT
ATOM      1  C   UNL     1     -15.396 -16.587   7.885  1.00  0.00     0.008 C 
ATOM      2  C   UNL     1     -16.001 -16.049   9.186  1.00  0.00    -0.012 C 
ATOM      3  C   UNL     1     -16.282 -14.539   9.068  1.00  0.00     0.004 C 
ATOM      4  C   UNL     1     -16.902 -13.994  10.360  1.00  0.00     0.011 C 
ATOM      5  C   UNL     1     -18.192 -14.757  10.720  1.00  0.00     0.043 C 
ATOM      6  C   UNL     1     -17.922 -16.279  10.835  1.00  0.00     0.121 C 
ATOM      7  C   UNL     1     -17.294 -16.812   9.537  1.00  0.00     0.035 C 
ENDROOT
BRANCH   6   8
ATOM      8  O   UNL     1     -19.125 -16.967  11.064  1.00  0.00    -0.392 OA
ATOM      9  H   UNL     1     -19.047 -17.847  10.612  1.00  0.00     0.210 HD
ENDBRANCH   6   8
BRANCH   5  10
ATOM     10  C   UNL     1     -18.809 -14.195  11.995  1.00  0.00    -0.075 C 
ATOM     11  C   UNL     1     -19.114 -15.014  13.014  1.00  0.00     0.008 C 
ATOM     12  C   UNL     1     -19.091 -12.720  12.145  1.00  0.00     0.039 C 
ENDBRANCH   5  10
TORSDOF 2
ENDMDL
MODEL 3
REMARK VINA RESULT:    -2.102      1.958      3.687
REMARK INTER + INTRA:          -2.384
REMARK INTER:                  -2.452
REMARK INTRA:                   0.068
REMARK UNBOUND:                -0.098
REMARK SMILES C=C(C)[C@H]1CC[C@H](C)C[C@@H]1O
REMARK SMILES IDX 8 1 7 2 6 3 5 4 4 5 10 6 9 7 11 8 2 10 1 11 3 12
REMARK H PARENT 11 9
REMARK Flexibility Score: inf
ROOT
ATOM      1  C   UNL     1     -16.444 -12.655   7.943  1.00  0.00     0.008 C 
ATOM      2  C   UNL     1     -17.273 -13.608   8.811  1.00  0.00    -0.012 C 
ATOM      3  C   UNL     1     -16.417 -14.804   9.270  1.00  0.00     0.004 C 
ATOM      4  C   UNL     1     -17.234 -15.755  10.152  1.00  0.00     0.011 C 
ATOM      5  C   UNL     1     -17.823 -15.013  11.369  1.00  0.00     0.043 C 
ATOM      6  C   UNL     1     -18.680 -13.804  10.919  1.00  0.00     0.121 C 
ATOM      7  C   UNL     1     -17.853 -12.862  10.029  1.00  0.00     0.035 C 
ENDROOT
BRANCH   6   8
ATOM      8  O   UNL     1     -19.125 -13.084  12.039  1.00  0.00    -0.392 OA
ATOM      9  H   UNL     1     -20.100 -13.248  12.122  1.00  0.00     0.210 HD
ENDBRANCH   6   8
BRANCH   5  10
ATOM     10  C   UNL     1     -18.616 -15.972  12.248  1.00  0.00    -0.075 C 
ATOM     11  C   UNL     1     -19.093 -17.118  11.736  1.00  0.00     0.008 C 
ATOM     12  C   UNL     1     -18.885 -15.664  13.701  1.00  0.00     0.039 C 
ENDBRANCH   5  10
TORSDOF 2
ENDMDL
MODEL 4
REMARK VINA RESULT:    -1.459      1.962      3.764
REMARK INTER + INTRA:          -1.685
REMARK INTER:                  -1.657
REMARK INTRA:                  -0.028
REMARK UNBOUND:                -0.098
REMARK SMILES C=C(C)[C@H]1CC[C@H](C)C[C@@H]1O
REMARK SMILES IDX 8 1 7 2 6 3 5 4 4 5 10 6 9 7 11 8 2 10 1 11 3 12
REMARK H PARENT 11 9
REMARK Flexibility Score: inf
ROOT
ATOM      1  C   UNL     1     -16.143 -13.072   7.896  1.00  0.00     0.008 C 
ATOM      2  C   UNL     1     -16.682 -13.423   9.286  1.00  0.00    -0.012 C 
ATOM      3  C   UNL     1     -18.221 -13.360   9.301  1.00  0.00     0.004 C 
ATOM      4  C   UNL     1     -18.772 -13.725  10.685  1.00  0.00     0.011 C 
ATOM      5  C   UNL     1     -18.283 -15.120  11.124  1.00  0.00     0.043 C 
ATOM      6  C   UNL     1     -16.736 -15.197  11.107  1.00  0.00     0.121 C 
ATOM      7  C   UNL     1     -16.196 -14.821   9.717  1.00  0.00     0.035 C 
ENDROOT
BRANCH   6   8
ATOM      8  O   UNL     1     -16.314 -16.501  11.412  1.00  0.00    -0.392 OA
ATOM      9  H   UNL     1     -17.044 -16.930  11.930  1.00  0.00     0.210 HD
ENDBRANCH   6   8
BRANCH   5  10
ATOM     10  C   UNL     1     -18.852 -15.480  12.492  1.00  0.00    -0.075 C 
ATOM     11  C   UNL     1     -19.125 -14.515  13.383  1.00  0.00     0.008 C 
ATOM     12  C   UNL     1     -19.119 -16.915  12.877  1.00  0.00     0.039 C 
ENDBRANCH   5  10
TORSDOF 2
ENDMDL
MODEL 5
REMARK VINA RESULT:    -0.345      1.275      4.352
REMARK INTER + INTRA:          -0.473
REMARK INTER:                  -0.953
REMARK INTRA:                   0.480
REMARK UNBOUND:                -0.098
REMARK SMILES C=C(C)[C@H]1CC[C@H](C)C[C@@H]1O
REMARK SMILES IDX 8 1 7 2 6 3 5 4 4 5 10 6 9 7 11 8 2 10 1 11 3 12
REMARK H PARENT 11 9
REMARK Flexibility Score: inf
ROOT
ATOM      1  C   UNL     1     -17.660 -16.108   8.241  1.00  0.00     0.008 C 
ATOM      2  C   UNL     1     -17.666 -15.292   9.538  1.00  0.00    -0.012 C 
ATOM      3  C   UNL     1     -18.636 -14.101   9.423  1.00  0.00     0.004 C 
ATOM      4  C   UNL     1     -18.660 -13.287  10.722  1.00  0.00     0.011 C 
ATOM      5  C   UNL     1     -19.035 -14.175  11.925  1.00  0.00     0.043 C 
ATOM      6  C   UNL     1     -18.069 -15.381  12.046  1.00  0.00     0.121 C 
ATOM      7  C   UNL     1     -18.047 -16.184  10.736  1.00  0.00     0.035 C 
ENDROOT
BRANCH   6   8
ATOM      8  O   UNL     1     -18.485 -16.231  13.084  1.00  0.00    -0.392 OA
ATOM      9  H   UNL     1     -19.210 -15.760  13.573  1.00  0.00     0.210 HD
ENDBRANCH   6   8
BRANCH   5  10
ATOM     10  C   UNL     1     -19.075 -13.352  13.207  1.00  0.00    -0.075 C 
ATOM     11  C   UNL     1     -19.069 -12.011  13.147  1.00  0.00     0.008 C 
ATOM     12  C   UNL     1     -19.119 -14.014  14.563  1.00  0.00     0.039 C 
ENDBRANCH   5  10
TORSDOF 2
ENDMDL
