MODEL 1
REMARK VINA RESULT:    -4.280      0.000      0.000
REMARK INTER + INTRA:         -16.400
REMARK INTER:                 -10.785
REMARK INTRA:                  -5.615
REMARK UNBOUND:                -5.615
REMARK SMILES CCCCCCCCCCCCCCCCCCCCCCCCCCCC(=O)[O-]
REMARK SMILES IDX 15 1 16 2 17 3 18 4 19 5 20 6 21 7 22 8 23 9 24 10 25 11
REMARK SMILES IDX 26 12 27 13 28 14 29 15 30 16 14 17 13 18 12 19 11 20 10 21
REMARK SMILES IDX 9 22 8 23 7 24 6 25 5 26 4 27 3 28 2 29 1 30
REMARK H PARENT
REMARK Flexibility Score: inf
ROOT
ATOM      1  C   UNL     1     -15.336  40.271  30.578  1.00  0.00     0.000 C 
ENDROOT
BRANCH   1   2
ATOM      2  C   UNL     1     -15.814  39.015  29.822  1.00  0.00     0.000 C 
BRANCH   2   3
ATOM      3  C   UNL     1     -14.654  38.142  29.319  1.00  0.00     0.000 C 
BRANCH   3   4
ATOM      4  C   UNL     1     -14.976  37.428  27.992  1.00  0.00     0.000 C 
BRANCH   4   5
ATOM      5  C   UNL     1     -16.424  37.599  27.496  1.00  0.00     0.000 C 
BRANCH   5   6
ATOM      6  C   UNL     1     -16.503  38.150  26.063  1.00  0.00     0.000 C 
BRANCH   6   7
ATOM      7  C   UNL     1     -17.071  39.575  26.051  1.00  0.00     0.000 C 
BRANCH   7   8
ATOM      8  C   UNL     1     -15.951  40.613  26.223  1.00  0.00     0.000 C 
BRANCH   8   9
ATOM      9  C   UNL     1     -14.787  40.412  25.238  1.00  0.00     0.000 C 
BRANCH   9  10
ATOM     10  C   UNL     1     -13.417  40.161  25.893  1.00  0.00     0.000 C 
BRANCH  10  11
ATOM     11  C   UNL     1     -13.252  40.891  27.238  1.00  0.00     0.000 C 
BRANCH  11  12
ATOM     12  C   UNL     1     -12.003  40.441  28.010  1.00  0.00     0.006 C 
BRANCH  12  13
ATOM     13  C   UNL     1     -11.959  40.997  29.440  1.00  0.00     0.053 C 
BRANCH  13  14
ATOM     14  C   UNL     1     -10.809  40.412  30.196  1.00  0.00     0.041 C 
ATOM     15  O   UNL     1     -10.687  39.161  30.301  1.00  0.00    -0.550 OA
ATOM     16  O   UNL     1      -9.896  41.248  30.827  1.00  0.00    -0.550 OA
ENDBRANCH  13  14
ENDBRANCH  12  13
ENDBRANCH  11  12
ENDBRANCH  10  11
ENDBRANCH   9  10
ENDBRANCH   8   9
ENDBRANCH   7   8
ENDBRANCH   6   7
ENDBRANCH   5   6
ENDBRANCH   4   5
ENDBRANCH   3   4
ENDBRANCH   2   3
ENDBRANCH   1   2
BRANCH   1  17
ATOM     17  C   UNL     1     -16.205  41.526  30.382  1.00  0.00     0.000 C 
BRANCH  17  18
ATOM     18  C   UNL     1     -15.652  42.562  29.383  1.00  0.00     0.000 C 
BRANCH  18  19
ATOM     19  C   UNL     1     -16.075  44.015  29.686  1.00  0.00     0.000 C 
BRANCH  19  20
ATOM     20  C   UNL     1     -14.915  44.866  30.233  1.00  0.00     0.000 C 
BRANCH  20  21
ATOM     21  C   UNL     1     -13.562  44.141  30.147  1.00  0.00     0.000 C 
BRANCH  21  22
ATOM     22  C   UNL     1     -12.631  44.481  31.326  1.00  0.00    -0.000 C 
BRANCH  22  23
ATOM     23  C   UNL     1     -12.429  43.291  32.279  1.00  0.00    -0.000 C 
BRANCH  23  24
ATOM     24  C   UNL     1     -13.700  42.956  33.079  1.00  0.00    -0.000 C 
BRANCH  24  25
ATOM     25  C   UNL     1     -13.994  43.990  34.179  1.00  0.00    -0.000 C 
BRANCH  25  26
ATOM     26  C   UNL     1     -15.362  44.672  34.004  1.00  0.00    -0.000 C 
BRANCH  26  27
ATOM     27  C   UNL     1     -16.421  43.725  33.418  1.00  0.00    -0.000 C 
BRANCH  27  28
ATOM     28  C   UNL     1     -17.640  44.479  32.858  1.00  0.00    -0.000 C 
BRANCH  28  29
ATOM     29  C   UNL     1     -18.739  43.531  32.359  1.00  0.00    -0.003 C 
ATOM     30  C   UNL     1     -18.686  42.160  33.034  1.00  0.00     0.004 C 
ENDBRANCH  28  29
ENDBRANCH  27  28
ENDBRANCH  26  27
ENDBRANCH  25  26
ENDBRANCH  24  25
ENDBRANCH  23  24
ENDBRANCH  22  23
ENDBRANCH  21  22
ENDBRANCH  20  21
ENDBRANCH  19  20
ENDBRANCH  18  19
ENDBRANCH  17  18
ENDBRANCH   1  17
TORSDOF 26
ENDMDL
MODEL 2
REMARK VINA RESULT:    -4.280      2.429      5.072
REMARK INTER + INTRA:         -16.400
REMARK INTER:                 -10.171
REMARK INTRA:                  -6.229
REMARK UNBOUND:                -5.615
REMARK SMILES CCCCCCCCCCCCCCCCCCCCCCCCCCCC(=O)[O-]
REMARK SMILES IDX 15 1 16 2 17 3 18 4 19 5 20 6 21 7 22 8 23 9 24 10 25 11
REMARK SMILES IDX 26 12 27 13 28 14 29 15 30 16 14 17 13 18 12 19 11 20 10 21
REMARK SMILES IDX 9 22 8 23 7 24 6 25 5 26 4 27 3 28 2 29 1 30
REMARK H PARENT
REMARK Flexibility Score: inf
ROOT
ATOM      1  C   UNL     1      -9.641  42.192  31.243  1.00  0.00     0.000 C 
ENDROOT
BRANCH   1   2
ATOM      2  C   UNL     1     -10.172  43.479  30.582  1.00  0.00     0.000 C 
BRANCH   2   3
ATOM      3  C   UNL     1     -10.696  43.246  29.155  1.00  0.00     0.000 C 
BRANCH   3   4
ATOM      4  C   UNL     1     -12.225  43.399  29.048  1.00  0.00     0.000 C 
BRANCH   4   5
ATOM      5  C   UNL     1     -12.941  42.264  28.292  1.00  0.00     0.000 C 
BRANCH   5   6
ATOM      6  C   UNL     1     -12.083  40.995  28.169  1.00  0.00     0.000 C 
BRANCH   6   7
ATOM      7  C   UNL     1     -12.642  40.053  27.095  1.00  0.00     0.000 C 
BRANCH   7   8
ATOM      8  C   UNL     1     -12.622  38.595  27.580  1.00  0.00     0.000 C 
BRANCH   8   9
ATOM      9  C   UNL     1     -12.484  38.470  29.107  1.00  0.00     0.000 C 
BRANCH   9  10
ATOM     10  C   UNL     1     -13.749  37.984  29.837  1.00  0.00     0.000 C 
BRANCH  10  11
ATOM     11  C   UNL     1     -14.714  39.130  30.193  1.00  0.00     0.000 C 
BRANCH  11  12
ATOM     12  C   UNL     1     -16.036  39.057  29.416  1.00  0.00     0.006 C 
BRANCH  12  13
ATOM     13  C   UNL     1     -16.107  37.840  28.482  1.00  0.00     0.053 C 
BRANCH  13  14
ATOM     14  C   UNL     1     -16.475  38.262  27.095  1.00  0.00     0.041 C 
ATOM     15  O   UNL     1     -16.131  39.396  26.664  1.00  0.00    -0.550 OA
ATOM     16  O   UNL     1     -17.240  37.423  26.295  1.00  0.00    -0.550 OA
ENDBRANCH  13  14
ENDBRANCH  12  13
ENDBRANCH  11  12
ENDBRANCH  10  11
ENDBRANCH   9  10
ENDBRANCH   8   9
ENDBRANCH   7   8
ENDBRANCH   6   7
ENDBRANCH   5   6
ENDBRANCH   4   5
ENDBRANCH   3   4
ENDBRANCH   2   3
ENDBRANCH   1   2
BRANCH   1  17
ATOM     17  C   UNL     1     -10.544  41.597  32.339  1.00  0.00     0.000 C 
BRANCH  17  18
ATOM     18  C   UNL     1     -11.833  40.920  31.836  1.00  0.00     0.000 C 
BRANCH  18  19
ATOM     19  C   UNL     1     -13.122  41.713  32.145  1.00  0.00     0.000 C 
BRANCH  19  20
ATOM     20  C   UNL     1     -12.881  42.871  33.129  1.00  0.00     0.000 C 
BRANCH  20  21
ATOM     21  C   UNL     1     -13.219  44.241  32.518  1.00  0.00     0.000 C 
BRANCH  21  22
ATOM     22  C   UNL     1     -14.454  44.892  33.168  1.00  0.00    -0.000 C 
BRANCH  22  23
ATOM     23  C   UNL     1     -15.121  43.979  34.210  1.00  0.00    -0.000 C 
BRANCH  23  24
ATOM     24  C   UNL     1     -16.520  43.509  33.771  1.00  0.00    -0.000 C 
BRANCH  24  25
ATOM     25  C   UNL     1     -16.646  41.978  33.743  1.00  0.00    -0.000 C 
BRANCH  25  26
ATOM     26  C   UNL     1     -16.731  41.414  32.314  1.00  0.00    -0.000 C 
BRANCH  26  27
ATOM     27  C   UNL     1     -17.156  42.476  31.287  1.00  0.00    -0.000 C 
BRANCH  27  28
ATOM     28  C   UNL     1     -16.092  42.701  30.198  1.00  0.00    -0.000 C 
BRANCH  28  29
ATOM     29  C   UNL     1     -15.922  44.185  29.842  1.00  0.00    -0.003 C 
ATOM     30  C   UNL     1     -17.031  45.062  30.423  1.00  0.00     0.004 C 
ENDBRANCH  28  29
ENDBRANCH  27  28
ENDBRANCH  26  27
ENDBRANCH  25  26
ENDBRANCH  24  25
ENDBRANCH  23  24
ENDBRANCH  22  23
ENDBRANCH  21  22
ENDBRANCH  20  21
ENDBRANCH  19  20
ENDBRANCH  18  19
ENDBRANCH  17  18
ENDBRANCH   1  17
TORSDOF 26
ENDMDL
MODEL 3
REMARK VINA RESULT:    -4.267      2.200      5.789
REMARK INTER + INTRA:         -16.367
REMARK INTER:                 -11.046
REMARK INTRA:                  -5.321
REMARK UNBOUND:                -5.615
REMARK SMILES CCCCCCCCCCCCCCCCCCCCCCCCCCCC(=O)[O-]
REMARK SMILES IDX 15 1 16 2 17 3 18 4 19 5 20 6 21 7 22 8 23 9 24 10 25 11
REMARK SMILES IDX 26 12 27 13 28 14 29 15 30 16 14 17 13 18 12 19 11 20 10 21
REMARK SMILES IDX 9 22 8 23 7 24 6 25 5 26 4 27 3 28 2 29 1 30
REMARK H PARENT
REMARK Flexibility Score: inf
ROOT
ATOM      1  C   UNL     1     -15.196  44.651  34.072  1.00  0.00     0.000 C 
ENDROOT
BRANCH   1   2
ATOM      2  C   UNL     1     -14.650  43.238  33.783  1.00  0.00     0.000 C 
BRANCH   2   3
ATOM      3  C   UNL     1     -13.183  43.247  33.324  1.00  0.00     0.000 C 
BRANCH   3   4
ATOM      4  C   UNL     1     -12.729  41.891  32.749  1.00  0.00     0.000 C 
BRANCH   4   5
ATOM      5  C   UNL     1     -11.290  41.867  32.199  1.00  0.00     0.000 C 
BRANCH   5   6
ATOM      6  C   UNL     1     -11.041  40.698  31.233  1.00  0.00     0.000 C 
BRANCH   6   7
ATOM      7  C   UNL     1     -12.181  40.572  30.214  1.00  0.00     0.000 C 
BRANCH   7   8
ATOM      8  C   UNL     1     -12.783  39.159  30.238  1.00  0.00     0.000 C 
BRANCH   8   9
ATOM      9  C   UNL     1     -13.249  38.679  28.852  1.00  0.00     0.000 C 
BRANCH   9  10
ATOM     10  C   UNL     1     -14.207  37.475  28.868  1.00  0.00     0.000 C 
BRANCH  10  11
ATOM     11  C   UNL     1     -15.668  37.866  28.585  1.00  0.00     0.000 C 
BRANCH  11  12
ATOM     12  C   UNL     1     -15.990  37.918  27.084  1.00  0.00     0.006 C 
BRANCH  12  13
ATOM     13  C   UNL     1     -16.419  39.317  26.619  1.00  0.00     0.053 C 
BRANCH  13  14
ATOM     14  C   UNL     1     -15.419  39.883  25.661  1.00  0.00     0.041 C 
ATOM     15  O   UNL     1     -15.420  41.116  25.397  1.00  0.00    -0.550 OA
ATOM     16  O   UNL     1     -14.516  39.042  25.023  1.00  0.00    -0.550 OA
ENDBRANCH  13  14
ENDBRANCH  12  13
ENDBRANCH  11  12
ENDBRANCH  10  11
ENDBRANCH   9  10
ENDBRANCH   8   9
ENDBRANCH   7   8
ENDBRANCH   6   7
ENDBRANCH   5   6
ENDBRANCH   4   5
ENDBRANCH   3   4
ENDBRANCH   2   3
ENDBRANCH   1   2
BRANCH   1  17
ATOM     17  C   UNL     1     -16.677  44.868  33.714  1.00  0.00     0.000 C 
BRANCH  17  18
ATOM     18  C   UNL     1     -17.066  44.508  32.267  1.00  0.00     0.000 C 
BRANCH  18  19
ATOM     19  C   UNL     1     -18.476  43.894  32.128  1.00  0.00     0.000 C 
BRANCH  19  20
ATOM     20  C   UNL     1     -19.130  43.604  33.490  1.00  0.00     0.000 C 
BRANCH  20  21
ATOM     21  C   UNL     1     -19.221  42.098  33.790  1.00  0.00     0.000 C 
BRANCH  21  22
ATOM     22  C   UNL     1     -17.999  41.574  34.567  1.00  0.00    -0.000 C 
BRANCH  22  23
ATOM     23  C   UNL     1     -17.176  40.559  33.757  1.00  0.00    -0.000 C 
BRANCH  23  24
ATOM     24  C   UNL     1     -17.820  40.231  32.398  1.00  0.00    -0.000 C 
BRANCH  24  25
ATOM     25  C   UNL     1     -16.778  39.905  31.315  1.00  0.00    -0.000 C 
BRANCH  25  26
ATOM     26  C   UNL     1     -15.839  41.087  31.018  1.00  0.00    -0.000 C 
BRANCH  26  27
ATOM     27  C   UNL     1     -15.874  41.508  29.540  1.00  0.00    -0.000 C 
BRANCH  27  28
ATOM     28  C   UNL     1     -15.614  43.014  29.351  1.00  0.00    -0.000 C 
BRANCH  28  29
ATOM     29  C   UNL     1     -14.193  43.421  29.765  1.00  0.00    -0.003 C 
ATOM     30  C   UNL     1     -14.121  44.855  30.289  1.00  0.00     0.004 C 
ENDBRANCH  28  29
ENDBRANCH  27  28
ENDBRANCH  26  27
ENDBRANCH  25  26
ENDBRANCH  24  25
ENDBRANCH  23  24
ENDBRANCH  22  23
ENDBRANCH  21  22
ENDBRANCH  20  21
ENDBRANCH  19  20
ENDBRANCH  18  19
ENDBRANCH  17  18
ENDBRANCH   1  17
TORSDOF 26
ENDMDL
MODEL 4
REMARK VINA RESULT:    -4.256      2.048      6.827
REMARK INTER + INTRA:         -16.341
REMARK INTER:                 -11.136
REMARK INTRA:                  -5.205
REMARK UNBOUND:                -5.615
REMARK SMILES CCCCCCCCCCCCCCCCCCCCCCCCCCCC(=O)[O-]
REMARK SMILES IDX 15 1 16 2 17 3 18 4 19 5 20 6 21 7 22 8 23 9 24 10 25 11
REMARK SMILES IDX 26 12 27 13 28 14 29 15 30 16 14 17 13 18 12 19 11 20 10 21
REMARK SMILES IDX 9 22 8 23 7 24 6 25 5 26 4 27 3 28 2 29 1 30
REMARK H PARENT
REMARK Flexibility Score: inf
ROOT
ATOM      1  C   UNL     1     -17.268  38.884  31.266  1.00  0.00     0.000 C 
ENDROOT
BRANCH   1   2
ATOM      2  C   UNL     1     -17.897  40.047  32.058  1.00  0.00     0.000 C 
BRANCH   2   3
ATOM      3  C   UNL     1     -17.168  40.334  33.380  1.00  0.00     0.000 C 
BRANCH   3   4
ATOM      4  C   UNL     1     -17.808  41.486  34.178  1.00  0.00     0.000 C 
BRANCH   4   5
ATOM      5  C   UNL     1     -19.129  42.024  33.597  1.00  0.00     0.000 C 
BRANCH   5   6
ATOM      6  C   UNL     1     -19.091  43.536  33.329  1.00  0.00     0.000 C 
BRANCH   6   7
ATOM      7  C   UNL     1     -17.675  44.095  33.525  1.00  0.00     0.000 C 
BRANCH   7   8
ATOM      8  C   UNL     1     -17.111  44.636  32.202  1.00  0.00     0.000 C 
BRANCH   8   9
ATOM      9  C   UNL     1     -17.447  43.744  30.994  1.00  0.00     0.000 C 
BRANCH   9  10
ATOM     10  C   UNL     1     -16.278  42.891  30.471  1.00  0.00     0.000 C 
BRANCH  10  11
ATOM     11  C   UNL     1     -14.939  43.224  31.153  1.00  0.00     0.000 C 
BRANCH  11  12
ATOM     12  C   UNL     1     -14.405  42.067  32.011  1.00  0.00     0.006 C 
BRANCH  12  13
ATOM     13  C   UNL     1     -13.240  42.491  32.916  1.00  0.00     0.053 C 
BRANCH  13  14
ATOM     14  C   UNL     1     -13.509  43.829  33.528  1.00  0.00     0.041 C 
ATOM     15  O   UNL     1     -14.306  43.933  34.501  1.00  0.00    -0.550 OA
ATOM     16  O   UNL     1     -12.919  44.968  32.996  1.00  0.00    -0.550 OA
ENDBRANCH  13  14
ENDBRANCH  12  13
ENDBRANCH  11  12
ENDBRANCH  10  11
ENDBRANCH   9  10
ENDBRANCH   8   9
ENDBRANCH   7   8
ENDBRANCH   6   7
ENDBRANCH   5   6
ENDBRANCH   4   5
ENDBRANCH   3   4
ENDBRANCH   2   3
ENDBRANCH   1   2
BRANCH   1  17
ATOM     17  C   UNL     1     -15.850  39.147  30.728  1.00  0.00     0.000 C 
BRANCH  17  18
ATOM     18  C   UNL     1     -15.651  38.865  29.226  1.00  0.00     0.000 C 
BRANCH  18  19
ATOM     19  C   UNL     1     -16.588  37.776  28.661  1.00  0.00     0.000 C 
BRANCH  19  20
ATOM     20  C   UNL     1     -16.163  37.298  27.261  1.00  0.00     0.000 C 
BRANCH  20  21
ATOM     21  C   UNL     1     -14.640  37.129  27.135  1.00  0.00     0.000 C 
BRANCH  21  22
ATOM     22  C   UNL     1     -14.038  38.002  26.018  1.00  0.00    -0.000 C 
BRANCH  22  23
ATOM     23  C   UNL     1     -15.092  38.877  25.321  1.00  0.00    -0.000 C 
BRANCH  23  24
ATOM     24  C   UNL     1     -14.774  40.379  25.429  1.00  0.00    -0.000 C 
BRANCH  24  25
ATOM     25  C   UNL     1     -15.688  41.105  26.428  1.00  0.00    -0.000 C 
BRANCH  25  26
ATOM     26  C   UNL     1     -14.944  42.172  27.249  1.00  0.00    -0.000 C 
BRANCH  26  27
ATOM     27  C   UNL     1     -13.433  41.902  27.333  1.00  0.00    -0.000 C 
BRANCH  27  28
ATOM     28  C   UNL     1     -13.022  41.271  28.675  1.00  0.00    -0.000 C 
BRANCH  28  29
ATOM     29  C   UNL     1     -11.747  41.901  29.254  1.00  0.00    -0.003 C 
ATOM     30  C   UNL     1     -11.821  43.427  29.321  1.00  0.00     0.004 C 
ENDBRANCH  28  29
ENDBRANCH  27  28
ENDBRANCH  26  27
ENDBRANCH  25  26
ENDBRANCH  24  25
ENDBRANCH  23  24
ENDBRANCH  22  23
ENDBRANCH  21  22
ENDBRANCH  20  21
ENDBRANCH  19  20
ENDBRANCH  18  19
ENDBRANCH  17  18
ENDBRANCH   1  17
TORSDOF 26
ENDMDL
MODEL 5
REMARK VINA RESULT:    -4.236      2.426      6.324
REMARK INTER + INTRA:         -16.289
REMARK INTER:                 -11.010
REMARK INTRA:                  -5.280
REMARK UNBOUND:                -5.615
REMARK SMILES CCCCCCCCCCCCCCCCCCCCCCCCCCCC(=O)[O-]
REMARK SMILES IDX 15 1 16 2 17 3 18 4 19 5 20 6 21 7 22 8 23 9 24 10 25 11
REMARK SMILES IDX 26 12 27 13 28 14 29 15 30 16 14 17 13 18 12 19 11 20 10 21
REMARK SMILES IDX 9 22 8 23 7 24 6 25 5 26 4 27 3 28 2 29 1 30
REMARK H PARENT
REMARK Flexibility Score: inf
ROOT
ATOM      1  C   UNL     1     -14.036  44.938  33.546  1.00  0.00     0.000 C 
ENDROOT
BRANCH   1   2
ATOM      2  C   UNL     1     -15.448  44.611  34.073  1.00  0.00     0.000 C 
BRANCH   2   3
ATOM      3  C   UNL     1     -15.799  43.119  33.958  1.00  0.00     0.000 C 
BRANCH   3   4
ATOM      4  C   UNL     1     -17.280  42.879  33.609  1.00  0.00     0.000 C 
BRANCH   4   5
ATOM      5  C   UNL     1     -17.952  44.012  32.810  1.00  0.00     0.000 C 
BRANCH   5   6
ATOM      6  C   UNL     1     -17.967  43.747  31.297  1.00  0.00     0.000 C 
BRANCH   6   7
ATOM      7  C   UNL     1     -17.175  44.821  30.540  1.00  0.00     0.000 C 
BRANCH   7   8
ATOM      8  C   UNL     1     -15.753  44.333  30.224  1.00  0.00     0.000 C 
BRANCH   8   9
ATOM      9  C   UNL     1     -15.690  42.830  29.900  1.00  0.00     0.000 C 
BRANCH   9  10
ATOM     10  C   UNL     1     -14.801  41.998  30.841  1.00  0.00     0.000 C 
BRANCH  10  11
ATOM     11  C   UNL     1     -14.766  40.505  30.470  1.00  0.00     0.000 C 
BRANCH  11  12
ATOM     12  C   UNL     1     -16.083  40.016  29.849  1.00  0.00     0.006 C 
BRANCH  12  13
ATOM     13  C   UNL     1     -16.420  38.570  30.240  1.00  0.00     0.053 C 
BRANCH  13  14
ATOM     14  C   UNL     1     -17.609  38.534  31.147  1.00  0.00     0.041 C 
ATOM     15  O   UNL     1     -17.759  39.420  32.032  1.00  0.00    -0.550 OA
ATOM     16  O   UNL     1     -18.526  37.496  31.048  1.00  0.00    -0.550 OA
ENDBRANCH  13  14
ENDBRANCH  12  13
ENDBRANCH  11  12
ENDBRANCH  10  11
ENDBRANCH   9  10
ENDBRANCH   8   9
ENDBRANCH   7   8
ENDBRANCH   6   7
ENDBRANCH   5   6
ENDBRANCH   4   5
ENDBRANCH   3   4
ENDBRANCH   2   3
ENDBRANCH   1   2
BRANCH   1  17
ATOM     17  C   UNL     1     -13.160  43.716  33.216  1.00  0.00     0.000 C 
BRANCH  17  18
ATOM     18  C   UNL     1     -11.890  44.017  32.397  1.00  0.00     0.000 C 
BRANCH  18  19
ATOM     19  C   UNL     1     -12.167  44.447  30.940  1.00  0.00     0.000 C 
BRANCH  19  20
ATOM     20  C   UNL     1     -10.926  45.043  30.253  1.00  0.00     0.000 C 
BRANCH  20  21
ATOM     21  C   UNL     1      -9.614  44.442  30.785  1.00  0.00     0.000 C 
BRANCH  21  22
ATOM     22  C   UNL     1      -9.196  43.168  30.028  1.00  0.00    -0.000 C 
BRANCH  22  23
ATOM     23  C   UNL     1      -9.162  41.928  30.936  1.00  0.00    -0.000 C 
BRANCH  23  24
ATOM     24  C   UNL     1      -9.865  40.715  30.302  1.00  0.00    -0.000 C 
BRANCH  24  25
ATOM     25  C   UNL     1     -11.327  41.009  29.929  1.00  0.00    -0.000 C 
BRANCH  25  26
ATOM     26  C   UNL     1     -11.583  40.920  28.415  1.00  0.00    -0.000 C 
BRANCH  26  27
ATOM     27  C   UNL     1     -12.147  42.228  27.836  1.00  0.00    -0.000 C 
BRANCH  27  28
ATOM     28  C   UNL     1     -13.579  42.064  27.296  1.00  0.00    -0.000 C 
BRANCH  28  29
ATOM     29  C   UNL     1     -13.877  40.625  26.850  1.00  0.00    -0.003 C 
ATOM     30  C   UNL     1     -14.964  40.554  25.777  1.00  0.00     0.004 C 
ENDBRANCH  28  29
ENDBRANCH  27  28
ENDBRANCH  26  27
ENDBRANCH  25  26
ENDBRANCH  24  25
ENDBRANCH  23  24
ENDBRANCH  22  23
ENDBRANCH  21  22
ENDBRANCH  20  21
ENDBRANCH  19  20
ENDBRANCH  18  19
ENDBRANCH  17  18
ENDBRANCH   1  17
TORSDOF 26
ENDMDL
MODEL 6
REMARK VINA RESULT:    -4.183      2.276      4.476
REMARK INTER + INTRA:         -16.155
REMARK INTER:                 -10.490
REMARK INTRA:                  -5.665
REMARK UNBOUND:                -5.615
REMARK SMILES CCCCCCCCCCCCCCCCCCCCCCCCCCCC(=O)[O-]
REMARK SMILES IDX 15 1 16 2 17 3 18 4 19 5 20 6 21 7 22 8 23 9 24 10 25 11
REMARK SMILES IDX 26 12 27 13 28 14 29 15 30 16 14 17 13 18 12 19 11 20 10 21
REMARK SMILES IDX 9 22 8 23 7 24 6 25 5 26 4 27 3 28 2 29 1 30
REMARK H PARENT
REMARK Flexibility Score: inf
ROOT
ATOM      1  C   UNL     1     -12.182  40.700  30.975  1.00  0.00     0.000 C 
ENDROOT
BRANCH   1   2
ATOM      2  C   UNL     1     -11.630  39.505  30.174  1.00  0.00     0.000 C 
BRANCH   2   3
ATOM      3  C   UNL     1     -11.849  39.649  28.659  1.00  0.00     0.000 C 
BRANCH   3   4
ATOM      4  C   UNL     1     -12.358  41.046  28.259  1.00  0.00     0.000 C 
BRANCH   4   5
ATOM      5  C   UNL     1     -13.364  41.063  27.092  1.00  0.00     0.000 C 
BRANCH   5   6
ATOM      6  C   UNL     1     -14.609  41.913  27.389  1.00  0.00     0.000 C 
BRANCH   6   7
ATOM      7  C   UNL     1     -14.598  42.419  28.838  1.00  0.00     0.000 C 
BRANCH   7   8
ATOM      8  C   UNL     1     -15.846  41.939  29.595  1.00  0.00     0.000 C 
BRANCH   8   9
ATOM      9  C   UNL     1     -15.538  40.851  30.638  1.00  0.00     0.000 C 
BRANCH   9  10
ATOM     10  C   UNL     1     -16.334  39.545  30.470  1.00  0.00     0.000 C 
BRANCH  10  11
ATOM     11  C   UNL     1     -15.435  38.322  30.217  1.00  0.00     0.000 C 
BRANCH  11  12
ATOM     12  C   UNL     1     -15.077  38.145  28.734  1.00  0.00     0.006 C 
BRANCH  12  13
ATOM     13  C   UNL     1     -16.227  38.541  27.796  1.00  0.00     0.053 C 
BRANCH  13  14
ATOM     14  C   UNL     1     -16.063  37.890  26.459  1.00  0.00     0.041 C 
ATOM     15  O   UNL     1     -16.661  36.810  26.201  1.00  0.00    -0.550 OA
ATOM     16  O   UNL     1     -15.213  38.450  25.514  1.00  0.00    -0.550 OA
ENDBRANCH  13  14
ENDBRANCH  12  13
ENDBRANCH  11  12
ENDBRANCH  10  11
ENDBRANCH   9  10
ENDBRANCH   8   9
ENDBRANCH   7   8
ENDBRANCH   6   7
ENDBRANCH   5   6
ENDBRANCH   4   5
ENDBRANCH   3   4
ENDBRANCH   2   3
ENDBRANCH   1   2
BRANCH   1  17
ATOM     17  C   UNL     1     -11.252  41.236  32.079  1.00  0.00     0.000 C 
BRANCH  17  18
ATOM     18  C   UNL     1     -10.168  42.224  31.607  1.00  0.00     0.000 C 
BRANCH  18  19
ATOM     19  C   UNL     1     -10.669  43.267  30.585  1.00  0.00     0.000 C 
BRANCH  19  20
ATOM     20  C   UNL     1     -11.290  44.503  31.259  1.00  0.00     0.000 C 
BRANCH  20  21
ATOM     21  C   UNL     1     -12.827  44.453  31.276  1.00  0.00     0.000 C 
BRANCH  21  22
ATOM     22  C   UNL     1     -13.410  44.622  32.691  1.00  0.00    -0.000 C 
BRANCH  22  23
ATOM     23  C   UNL     1     -14.426  43.523  33.045  1.00  0.00    -0.000 C 
BRANCH  23  24
ATOM     24  C   UNL     1     -15.831  44.088  33.318  1.00  0.00    -0.000 C 
BRANCH  24  25
ATOM     25  C   UNL     1     -16.576  44.468  32.028  1.00  0.00    -0.000 C 
BRANCH  25  26
ATOM     26  C   UNL     1     -18.065  44.086  32.065  1.00  0.00    -0.000 C 
BRANCH  26  27
ATOM     27  C   UNL     1     -18.281  42.588  32.335  1.00  0.00    -0.000 C 
BRANCH  27  28
ATOM     28  C   UNL     1     -19.067  42.330  33.633  1.00  0.00    -0.000 C 
BRANCH  28  29
ATOM     29  C   UNL     1     -18.252  41.541  34.667  1.00  0.00    -0.003 C 
ATOM     30  C   UNL     1     -17.143  40.704  34.029  1.00  0.00     0.004 C 
ENDBRANCH  28  29
ENDBRANCH  27  28
ENDBRANCH  26  27
ENDBRANCH  25  26
ENDBRANCH  24  25
ENDBRANCH  23  24
ENDBRANCH  22  23
ENDBRANCH  21  22
ENDBRANCH  20  21
ENDBRANCH  19  20
ENDBRANCH  18  19
ENDBRANCH  17  18
ENDBRANCH   1  17
TORSDOF 26
ENDMDL
MODEL 7
REMARK VINA RESULT:    -4.134      2.669      7.141
REMARK INTER + INTRA:         -16.033
REMARK INTER:                 -10.148
REMARK INTRA:                  -5.885
REMARK UNBOUND:                -5.615
REMARK SMILES CCCCCCCCCCCCCCCCCCCCCCCCCCCC(=O)[O-]
REMARK SMILES IDX 15 1 16 2 17 3 18 4 19 5 20 6 21 7 22 8 23 9 24 10 25 11
REMARK SMILES IDX 26 12 27 13 28 14 29 15 30 16 14 17 13 18 12 19 11 20 10 21
REMARK SMILES IDX 9 22 8 23 7 24 6 25 5 26 4 27 3 28 2 29 1 30
REMARK H PARENT
REMARK Flexibility Score: inf
ROOT
ATOM      1  C   UNL     1     -11.447  44.633  29.906  1.00  0.00     0.000 C 
ENDROOT
BRANCH   1   2
ATOM      2  C   UNL     1     -10.284  44.409  30.893  1.00  0.00     0.000 C 
BRANCH   2   3
ATOM      3  C   UNL     1     -10.718  43.676  32.172  1.00  0.00     0.000 C 
BRANCH   3   4
ATOM      4  C   UNL     1     -10.140  42.251  32.269  1.00  0.00     0.000 C 
BRANCH   4   5
ATOM      5  C   UNL     1     -11.186  41.120  32.225  1.00  0.00     0.000 C 
BRANCH   5   6
ATOM      6  C   UNL     1     -12.628  41.636  32.350  1.00  0.00     0.000 C 
BRANCH   6   7
ATOM      7  C   UNL     1     -13.450  41.284  31.103  1.00  0.00     0.000 C 
BRANCH   7   8
ATOM      8  C   UNL     1     -14.829  41.960  31.147  1.00  0.00     0.000 C 
BRANCH   8   9
ATOM      9  C   UNL     1     -14.885  43.269  30.340  1.00  0.00     0.000 C 
BRANCH   9  10
ATOM     10  C   UNL     1     -15.276  44.517  31.151  1.00  0.00     0.000 C 
BRANCH  10  11
ATOM     11  C   UNL     1     -14.424  44.700  32.420  1.00  0.00     0.000 C 
BRANCH  11  12
ATOM     12  C   UNL     1     -15.242  44.555  33.711  1.00  0.00     0.006 C 
BRANCH  12  13
ATOM     13  C   UNL     1     -16.754  44.490  33.450  1.00  0.00     0.053 C 
BRANCH  13  14
ATOM     14  C   UNL     1     -17.248  43.083  33.568  1.00  0.00     0.041 C 
ATOM     15  O   UNL     1     -16.643  42.258  34.306  1.00  0.00    -0.550 OA
ATOM     16  O   UNL     1     -18.347  42.669  32.827  1.00  0.00    -0.550 OA
ENDBRANCH  13  14
ENDBRANCH  12  13
ENDBRANCH  11  12
ENDBRANCH  10  11
ENDBRANCH   9  10
ENDBRANCH   8   9
ENDBRANCH   7   8
ENDBRANCH   6   7
ENDBRANCH   5   6
ENDBRANCH   4   5
ENDBRANCH   3   4
ENDBRANCH   2   3
ENDBRANCH   1   2
BRANCH   1  17
ATOM     17  C   UNL     1     -11.604  43.553  28.820  1.00  0.00     0.000 C 
BRANCH  17  18
ATOM     18  C   UNL     1     -10.291  42.899  28.346  1.00  0.00     0.000 C 
BRANCH  18  19
ATOM     19  C   UNL     1     -10.208  41.382  28.626  1.00  0.00     0.000 C 
BRANCH  19  20
ATOM     20  C   UNL     1     -11.549  40.664  28.396  1.00  0.00     0.000 C 
BRANCH  20  21
ATOM     21  C   UNL     1     -11.737  40.222  26.936  1.00  0.00     0.000 C 
BRANCH  21  22
ATOM     22  C   UNL     1     -13.123  40.596  26.377  1.00  0.00    -0.000 C 
BRANCH  22  23
ATOM     23  C   UNL     1     -13.941  41.456  27.355  1.00  0.00    -0.000 C 
BRANCH  23  24
ATOM     24  C   UNL     1     -15.448  41.425  27.046  1.00  0.00    -0.000 C 
BRANCH  24  25
ATOM     25  C   UNL     1     -16.045  40.013  27.159  1.00  0.00    -0.000 C 
BRANCH  25  26
ATOM     26  C   UNL     1     -15.941  39.435  28.581  1.00  0.00    -0.000 C 
BRANCH  26  27
ATOM     27  C   UNL     1     -15.041  38.191  28.646  1.00  0.00    -0.000 C 
BRANCH  27  28
ATOM     28  C   UNL     1     -14.188  38.148  29.926  1.00  0.00    -0.000 C 
BRANCH  28  29
ATOM     29  C   UNL     1     -12.858  37.408  29.721  1.00  0.00    -0.003 C 
ATOM     30  C   UNL     1     -12.698  36.865  28.301  1.00  0.00     0.004 C 
ENDBRANCH  28  29
ENDBRANCH  27  28
ENDBRANCH  26  27
ENDBRANCH  25  26
ENDBRANCH  24  25
ENDBRANCH  23  24
ENDBRANCH  22  23
ENDBRANCH  21  22
ENDBRANCH  20  21
ENDBRANCH  19  20
ENDBRANCH  18  19
ENDBRANCH  17  18
ENDBRANCH   1  17
TORSDOF 26
ENDMDL
MODEL 8
REMARK VINA RESULT:    -4.114      2.009      6.298
REMARK INTER + INTRA:         -15.982
REMARK INTER:                 -10.170
REMARK INTRA:                  -5.811
REMARK UNBOUND:                -5.615
REMARK SMILES CCCCCCCCCCCCCCCCCCCCCCCCCCCC(=O)[O-]
REMARK SMILES IDX 15 1 16 2 17 3 18 4 19 5 20 6 21 7 22 8 23 9 24 10 25 11
REMARK SMILES IDX 26 12 27 13 28 14 29 15 30 16 14 17 13 18 12 19 11 20 10 21
REMARK SMILES IDX 9 22 8 23 7 24 6 25 5 26 4 27 3 28 2 29 1 30
REMARK H PARENT
REMARK Flexibility Score: inf
ROOT
ATOM      1  C   UNL     1     -17.892  40.095  32.004  1.00  0.00     0.000 C 
ENDROOT
BRANCH   1   2
ATOM      2  C   UNL     1     -17.166  40.420  33.324  1.00  0.00     0.000 C 
BRANCH   2   3
ATOM      3  C   UNL     1     -17.366  41.877  33.773  1.00  0.00     0.000 C 
BRANCH   3   4
ATOM      4  C   UNL     1     -18.715  42.463  33.314  1.00  0.00     0.000 C 
BRANCH   4   5
ATOM      5  C   UNL     1     -18.626  43.839  32.625  1.00  0.00     0.000 C 
BRANCH   5   6
ATOM      6  C   UNL     1     -17.192  44.207  32.211  1.00  0.00     0.000 C 
BRANCH   6   7
ATOM      7  C   UNL     1     -17.178  44.933  30.860  1.00  0.00     0.000 C 
BRANCH   7   8
ATOM      8  C   UNL     1     -16.438  44.104  29.800  1.00  0.00     0.000 C 
BRANCH   8   9
ATOM      9  C   UNL     1     -16.042  42.703  30.299  1.00  0.00     0.000 C 
BRANCH   9  10
ATOM     10  C   UNL     1     -14.531  42.486  30.497  1.00  0.00     0.000 C 
BRANCH  10  11
ATOM     11  C   UNL     1     -14.186  41.891  31.874  1.00  0.00     0.000 C 
BRANCH  11  12
ATOM     12  C   UNL     1     -13.199  42.762  32.666  1.00  0.00     0.006 C 
BRANCH  12  13
ATOM     13  C   UNL     1     -12.979  44.139  32.025  1.00  0.00     0.053 C 
BRANCH  13  14
ATOM     14  C   UNL     1     -11.530  44.353  31.722  1.00  0.00     0.041 C 
ATOM     15  O   UNL     1     -10.644  43.828  32.451  1.00  0.00    -0.550 OA
ATOM     16  O   UNL     1     -11.156  45.170  30.663  1.00  0.00    -0.550 OA
ENDBRANCH  13  14
ENDBRANCH  12  13
ENDBRANCH  11  12
ENDBRANCH  10  11
ENDBRANCH   9  10
ENDBRANCH   8   9
ENDBRANCH   7   8
ENDBRANCH   6   7
ENDBRANCH   5   6
ENDBRANCH   4   5
ENDBRANCH   3   4
ENDBRANCH   2   3
ENDBRANCH   1   2
BRANCH   1  17
ATOM     17  C   UNL     1     -17.393  38.835  31.273  1.00  0.00     0.000 C 
BRANCH  17  18
ATOM     18  C   UNL     1     -15.941  38.902  30.760  1.00  0.00     0.000 C 
BRANCH  18  19
ATOM     19  C   UNL     1     -15.821  39.044  29.228  1.00  0.00     0.000 C 
BRANCH  19  20
ATOM     20  C   UNL     1     -14.373  38.891  28.731  1.00  0.00     0.000 C 
BRANCH  20  21
ATOM     21  C   UNL     1     -13.359  38.825  29.886  1.00  0.00     0.000 C 
BRANCH  21  22
ATOM     22  C   UNL     1     -11.965  38.358  29.425  1.00  0.00    -0.000 C 
BRANCH  22  23
ATOM     23  C   UNL     1     -10.831  39.197  30.037  1.00  0.00    -0.000 C 
BRANCH  23  24
ATOM     24  C   UNL     1     -11.240  40.662  30.266  1.00  0.00    -0.000 C 
BRANCH  24  25
ATOM     25  C   UNL     1     -10.482  41.636  29.350  1.00  0.00    -0.000 C 
BRANCH  25  26
ATOM     26  C   UNL     1     -11.422  42.538  28.531  1.00  0.00    -0.000 C 
BRANCH  26  27
ATOM     27  C   UNL     1     -12.358  41.734  27.616  1.00  0.00    -0.000 C 
BRANCH  27  28
ATOM     28  C   UNL     1     -11.604  41.034  26.471  1.00  0.00    -0.000 C 
BRANCH  28  29
ATOM     29  C   UNL     1     -12.480  40.015  25.727  1.00  0.00    -0.003 C 
ATOM     30  C   UNL     1     -11.904  38.600  25.770  1.00  0.00     0.004 C 
ENDBRANCH  28  29
ENDBRANCH  27  28
ENDBRANCH  26  27
ENDBRANCH  25  26
ENDBRANCH  24  25
ENDBRANCH  23  24
ENDBRANCH  22  23
ENDBRANCH  21  22
ENDBRANCH  20  21
ENDBRANCH  19  20
ENDBRANCH  18  19
ENDBRANCH  17  18
ENDBRANCH   1  17
TORSDOF 26
ENDMDL
MODEL 9
REMARK VINA RESULT:    -4.096      2.056      4.808
REMARK INTER + INTRA:         -15.935
REMARK INTER:                 -10.193
REMARK INTRA:                  -5.743
REMARK UNBOUND:                -5.615
REMARK SMILES CCCCCCCCCCCCCCCCCCCCCCCCCCCC(=O)[O-]
REMARK SMILES IDX 15 1 16 2 17 3 18 4 19 5 20 6 21 7 22 8 23 9 24 10 25 11
REMARK SMILES IDX 26 12 27 13 28 14 29 15 30 16 14 17 13 18 12 19 11 20 10 21
REMARK SMILES IDX 9 22 8 23 7 24 6 25 5 26 4 27 3 28 2 29 1 30
REMARK H PARENT
REMARK Flexibility Score: inf
ROOT
ATOM      1  C   UNL     1     -11.591  44.879  30.452  1.00  0.00     0.000 C 
ENDROOT
BRANCH   1   2
ATOM      2  C   UNL     1     -10.775  43.974  29.508  1.00  0.00     0.000 C 
BRANCH   2   3
ATOM      3  C   UNL     1     -10.251  42.706  30.201  1.00  0.00     0.000 C 
BRANCH   3   4
ATOM      4  C   UNL     1     -10.369  41.450  29.316  1.00  0.00     0.000 C 
BRANCH   4   5
ATOM      5  C   UNL     1     -10.812  40.173  30.055  1.00  0.00     0.000 C 
BRANCH   5   6
ATOM      6  C   UNL     1     -11.823  39.339  29.252  1.00  0.00     0.000 C 
BRANCH   6   7
ATOM      7  C   UNL     1     -12.758  38.558  30.184  1.00  0.00     0.000 C 
BRANCH   7   8
ATOM      8  C   UNL     1     -13.871  37.862  29.387  1.00  0.00     0.000 C 
BRANCH   8   9
ATOM      9  C   UNL     1     -15.280  38.178  29.916  1.00  0.00     0.000 C 
BRANCH   9  10
ATOM     10  C   UNL     1     -16.051  39.244  29.117  1.00  0.00     0.000 C 
BRANCH  10  11
ATOM     11  C   UNL     1     -16.188  38.894  27.625  1.00  0.00     0.000 C 
BRANCH  11  12
ATOM     12  C   UNL     1     -15.861  40.078  26.704  1.00  0.00     0.006 C 
BRANCH  12  13
ATOM     13  C   UNL     1     -14.354  40.354  26.607  1.00  0.00     0.053 C 
BRANCH  13  14
ATOM     14  C   UNL     1     -13.741  39.545  25.507  1.00  0.00     0.041 C 
ATOM     15  O   UNL     1     -14.118  39.707  24.314  1.00  0.00    -0.550 OA
ATOM     16  O   UNL     1     -12.789  38.579  25.803  1.00  0.00    -0.550 OA
ENDBRANCH  13  14
ENDBRANCH  12  13
ENDBRANCH  11  12
ENDBRANCH  10  11
ENDBRANCH   9  10
ENDBRANCH   8   9
ENDBRANCH   7   8
ENDBRANCH   6   7
ENDBRANCH   5   6
ENDBRANCH   4   5
ENDBRANCH   3   4
ENDBRANCH   2   3
ENDBRANCH   1   2
BRANCH   1  17
ATOM     17  C   UNL     1     -11.690  44.390  31.908  1.00  0.00     0.000 C 
BRANCH  17  18
ATOM     18  C   UNL     1     -13.060  44.600  32.583  1.00  0.00     0.000 C 
BRANCH  18  19
ATOM     19  C   UNL     1     -13.728  43.296  33.070  1.00  0.00     0.000 C 
BRANCH  19  20
ATOM     20  C   UNL     1     -13.295  42.068  32.250  1.00  0.00     0.000 C 
BRANCH  20  21
ATOM     21  C   UNL     1     -14.331  41.678  31.183  1.00  0.00     0.000 C 
BRANCH  21  22
ATOM     22  C   UNL     1     -14.020  42.289  29.804  1.00  0.00    -0.000 C 
BRANCH  22  23
ATOM     23  C   UNL     1     -15.258  42.918  29.145  1.00  0.00    -0.000 C 
BRANCH  23  24
ATOM     24  C   UNL     1     -16.422  43.102  30.134  1.00  0.00    -0.000 C 
BRANCH  24  25
ATOM     25  C   UNL     1     -16.470  44.517  30.733  1.00  0.00    -0.000 C 
BRANCH  25  26
ATOM     26  C   UNL     1     -17.235  44.573  32.067  1.00  0.00    -0.000 C 
BRANCH  26  27
ATOM     27  C   UNL     1     -18.508  43.712  32.052  1.00  0.00    -0.000 C 
BRANCH  27  28
ATOM     28  C   UNL     1     -18.554  42.710  33.220  1.00  0.00    -0.000 C 
BRANCH  28  29
ATOM     29  C   UNL     1     -17.162  42.182  33.596  1.00  0.00    -0.003 C 
ATOM     30  C   UNL     1     -17.217  40.824  34.296  1.00  0.00     0.004 C 
ENDBRANCH  28  29
ENDBRANCH  27  28
ENDBRANCH  26  27
ENDBRANCH  25  26
ENDBRANCH  24  25
ENDBRANCH  23  24
ENDBRANCH  22  23
ENDBRANCH  21  22
ENDBRANCH  20  21
ENDBRANCH  19  20
ENDBRANCH  18  19
ENDBRANCH  17  18
ENDBRANCH   1  17
TORSDOF 26
ENDMDL
