MODEL 1
REMARK VINA RESULT:    -3.553      0.000      0.000
REMARK INTER + INTRA:          -5.622
REMARK INTER:                  -5.422
REMARK INTRA:                  -0.200
REMARK UNBOUND:                -0.200
REMARK SMILES CC1=CCC[C@@H](C)C(=O)C[C@@H](C(C)C)C(=O)C1
REMARK SMILES IDX 8 1 9 2 6 3 7 4 5 5 4 6 3 7 2 8 1 9 10 11 11 12 15 13 16 14
REMARK SMILES IDX 17 15 12 17 13 18 14 19
REMARK H PARENT
REMARK Flexibility Score: 70.00
ROOT
ATOM      1  C   UNL     1      10.713  19.124  16.442  1.00  0.00     0.136 C 
ATOM      2  O   UNL     1       9.903  18.383  16.976  1.00  0.00    -0.299 OA
ENDROOT
BRANCH   1   3
ATOM      3  C   UNL     1      11.468  20.139  17.288  1.00  0.00     0.053 C 
ATOM      4  C   UNL     1      12.017  21.315  16.463  1.00  0.00     0.016 C 
BRANCH   3   5
ATOM      5  C   UNL     1      12.570  19.499  18.164  1.00  0.00     0.015 C 
BRANCH   5   6
ATOM      6  C   UNL     1      13.917  19.167  17.477  1.00  0.00     0.028 C 
BRANCH   6   7
ATOM      7  C   UNL     1      14.244  17.701  17.289  1.00  0.00    -0.028 C 
ATOM      8  C   UNL     1      14.229  17.024  16.116  1.00  0.00    -0.070 CG0
ATOM      9  C   UNL     1      14.386  15.525  16.169  1.00  0.00     0.039 C 
ATOM     10  G   UNL     1      13.934  17.684  14.786  1.00  0.00     0.000 G0
ENDBRANCH   6   7
ENDBRANCH   5   6
ENDBRANCH   3   5
ENDBRANCH   1   3
BRANCH   1  11
ATOM     11  C   UNL     1      11.059  18.939  14.974  1.00  0.00     0.087 C 
BRANCH  11  12
ATOM     12  C   UNL     1      11.273  17.482  14.458  1.00  0.00     0.066 C 
BRANCH  12  13
ATOM     13  C   UNL     1      12.715  17.158  14.054  1.00  0.00     0.140 C 
ATOM     14  O   UNL     1      12.886  16.364  13.140  1.00  0.00    -0.299 OA
BRANCH  13  15
ATOM     15  C   UNL     1      13.951  17.682  14.752  1.00  0.00     0.106 CG0
ATOM     16  G   UNL     1      14.206  17.026  16.091  1.00  0.00     0.000 G0
ENDBRANCH  13  15
ENDBRANCH  12  13
BRANCH  12  17
ATOM     17  C   UNL     1      10.220  16.975  13.411  1.00  0.00    -0.006 C 
ATOM     18  C   UNL     1       8.950  17.847  13.406  1.00  0.00     0.008 C 
ATOM     19  C   UNL     1       9.807  15.514  13.667  1.00  0.00     0.008 C 
ENDBRANCH  12  17
ENDBRANCH  11  12
ENDBRANCH   1  11
TORSDOF 1
ENDMDL
MODEL 2
REMARK VINA RESULT:    -3.281      2.289      4.821
REMARK INTER + INTRA:          -5.207
REMARK INTER:                  -4.917
REMARK INTRA:                  -0.290
REMARK UNBOUND:                -0.200
REMARK SMILES CC1=CCC[C@@H](C)C(=O)C[C@@H](C(C)C)C(=O)C1
REMARK SMILES IDX 8 1 9 2 6 3 7 4 5 5 4 6 3 7 2 8 1 9 10 11 11 12 15 13 16 14
REMARK SMILES IDX 17 15 12 17 13 18 14 19
REMARK H PARENT
REMARK Flexibility Score: 70.00
ROOT
ATOM      1  C   UNL     1      12.706  21.696  16.123  1.00  0.00     0.136 C 
ATOM      2  O   UNL     1      11.737  22.255  16.614  1.00  0.00    -0.299 OA
ENDROOT
BRANCH   1   3
ATOM      3  C   UNL     1      13.274  22.207  14.806  1.00  0.00     0.053 C 
ATOM      4  C   UNL     1      13.935  23.590  14.937  1.00  0.00     0.016 C 
BRANCH   3   5
ATOM      5  C   UNL     1      12.249  22.176  13.650  1.00  0.00     0.015 C 
BRANCH   5   6
ATOM      6  C   UNL     1      11.634  20.803  13.284  1.00  0.00     0.028 C 
BRANCH   6   7
ATOM      7  C   UNL     1      10.256  20.504  13.834  1.00  0.00    -0.028 C 
ATOM      8  C   UNL     1       9.917  19.442  14.602  1.00  0.00    -0.070 CG0
ATOM      9  C   UNL     1       8.451  19.216  14.879  1.00  0.00     0.039 C 
ATOM     10  G   UNL     1      10.920  18.414  15.079  1.00  0.00     0.000 G0
ENDBRANCH   6   7
ENDBRANCH   5   6
ENDBRANCH   3   5
ENDBRANCH   1   3
BRANCH   1  11
ATOM     11  C   UNL     1      13.415  20.592  16.888  1.00  0.00     0.087 C 
BRANCH  11  12
ATOM     12  C   UNL     1      13.120  19.117  16.472  1.00  0.00     0.066 C 
BRANCH  12  13
ATOM     13  C   UNL     1      11.630  18.776  16.365  1.00  0.00     0.140 C 
ATOM     14  O   UNL     1      10.976  18.750  17.399  1.00  0.00    -0.299 OA
BRANCH  13  15
ATOM     15  C   UNL     1      10.916  18.388  15.089  1.00  0.00     0.106 CG0
ATOM     16  G   UNL     1       9.921  19.427  14.620  1.00  0.00     0.000 G0
ENDBRANCH  13  15
ENDBRANCH  12  13
BRANCH  12  17
ATOM     17  C   UNL     1      13.941  18.022  17.238  1.00  0.00    -0.006 C 
ATOM     18  C   UNL     1      15.309  18.554  17.707  1.00  0.00     0.008 C 
ATOM     19  C   UNL     1      14.175  16.767  16.377  1.00  0.00     0.008 C 
ENDBRANCH  12  17
ENDBRANCH  11  12
ENDBRANCH   1  11
TORSDOF 1
ENDMDL
MODEL 3
REMARK VINA RESULT:    -3.267      2.032      4.386
REMARK INTER + INTRA:          -5.186
REMARK INTER:                  -5.217
REMARK INTRA:                   0.031
REMARK UNBOUND:                -0.200
REMARK SMILES CC1=CCC[C@@H](C)C(=O)C[C@@H](C(C)C)C(=O)C1
REMARK SMILES IDX 8 1 9 2 6 3 7 4 5 5 4 6 3 7 2 8 1 9 10 11 11 12 15 13 16 14
REMARK SMILES IDX 17 15 12 17 13 18 14 19
REMARK H PARENT
REMARK Flexibility Score: 70.00
ROOT
ATOM      1  C   UNL     1      15.126  17.690  16.626  1.00  0.00     0.136 C 
ATOM      2  O   UNL     1      15.814  18.624  17.008  1.00  0.00    -0.299 OA
ENDROOT
BRANCH   1   3
ATOM      3  C   UNL     1      15.783  16.531  15.890  1.00  0.00     0.053 C 
ATOM      4  C   UNL     1      16.453  16.961  14.574  1.00  0.00     0.016 C 
BRANCH   3   5
ATOM      5  C   UNL     1      14.832  15.331  15.675  1.00  0.00     0.015 C 
BRANCH   5   6
ATOM      6  C   UNL     1      14.292  15.103  14.243  1.00  0.00     0.028 C 
BRANCH   6   7
ATOM      7  C   UNL     1      12.804  15.285  14.038  1.00  0.00    -0.028 C 
ATOM      8  C   UNL     1      12.180  16.437  13.696  1.00  0.00    -0.070 CG0
ATOM      9  C   UNL     1      10.672  16.459  13.741  1.00  0.00     0.039 C 
ATOM     10  G   UNL     1      12.923  17.722  13.403  1.00  0.00     0.000 G0
ENDBRANCH   6   7
ENDBRANCH   5   6
ENDBRANCH   3   5
ENDBRANCH   1   3
BRANCH   1  11
ATOM     11  C   UNL     1      13.655  17.625  17.002  1.00  0.00     0.087 C 
BRANCH  11  12
ATOM     12  C   UNL     1      12.629  18.296  16.035  1.00  0.00     0.066 C 
BRANCH  12  13
ATOM     13  C   UNL     1      13.176  18.583  14.633  1.00  0.00     0.140 C 
ATOM     14  O   UNL     1      13.808  19.618  14.469  1.00  0.00    -0.299 OA
BRANCH  13  15
ATOM     15  C   UNL     1      12.929  17.726  13.411  1.00  0.00     0.106 CG0
ATOM     16  G   UNL     1      12.182  16.446  13.718  1.00  0.00     0.000 G0
ENDBRANCH  13  15
ENDBRANCH  12  13
BRANCH  12  17
ATOM     17  C   UNL     1      11.826  19.502  16.634  1.00  0.00    -0.006 C 
ATOM     18  C   UNL     1      12.239  19.803  18.087  1.00  0.00     0.008 C 
ATOM     19  C   UNL     1      10.306  19.258  16.600  1.00  0.00     0.008 C 
ENDBRANCH  12  17
ENDBRANCH  11  12
ENDBRANCH   1  11
TORSDOF 1
ENDMDL
MODEL 4
REMARK VINA RESULT:    -3.210      1.766      2.226
REMARK INTER + INTRA:          -5.098
REMARK INTER:                  -4.869
REMARK INTRA:                  -0.229
REMARK UNBOUND:                -0.200
REMARK SMILES CC1=CCC[C@@H](C)C(=O)C[C@@H](C(C)C)C(=O)C1
REMARK SMILES IDX 8 1 9 2 6 3 7 4 5 5 4 6 3 7 2 8 1 9 10 11 11 12 15 13 16 14
REMARK SMILES IDX 17 15 12 17 13 18 14 19
REMARK H PARENT
REMARK Flexibility Score: 70.00
ROOT
ATOM      1  C   UNL     1      12.960  19.603  15.633  1.00  0.00     0.136 C 
ATOM      2  O   UNL     1      13.713  20.556  15.507  1.00  0.00    -0.299 OA
ENDROOT
BRANCH   1   3
ATOM      3  C   UNL     1      12.922  18.851  16.956  1.00  0.00     0.053 C 
ATOM      4  C   UNL     1      12.458  19.730  18.131  1.00  0.00     0.016 C 
BRANCH   3   5
ATOM      5  C   UNL     1      14.249  18.127  17.281  1.00  0.00     0.015 C 
BRANCH   5   6
ATOM      6  C   UNL     1      15.012  17.483  16.098  1.00  0.00     0.028 C 
BRANCH   6   7
ATOM      7  C   UNL     1      14.695  16.036  15.789  1.00  0.00    -0.028 C 
ATOM      8  C   UNL     1      13.888  15.590  14.798  1.00  0.00    -0.070 CG0
ATOM      9  C   UNL     1      13.539  14.122  14.782  1.00  0.00     0.039 C 
ATOM     10  G   UNL     1      13.224  16.512  13.797  1.00  0.00     0.000 G0
ENDBRANCH   6   7
ENDBRANCH   5   6
ENDBRANCH   3   5
ENDBRANCH   1   3
BRANCH   1  11
ATOM     11  C   UNL     1      11.975  19.260  14.528  1.00  0.00     0.087 C 
BRANCH  11  12
ATOM     12  C   UNL     1      11.138  17.952  14.682  1.00  0.00     0.066 C 
BRANCH  12  13
ATOM     13  C   UNL     1      11.751  16.724  14.000  1.00  0.00     0.140 C 
ATOM     14  O   UNL     1      10.996  15.819  13.672  1.00  0.00    -0.299 OA
BRANCH  13  15
ATOM     15  C   UNL     1      13.230  16.505  13.771  1.00  0.00     0.106 CG0
ATOM     16  G   UNL     1      13.869  15.604  14.805  1.00  0.00     0.000 G0
ENDBRANCH  13  15
ENDBRANCH  12  13
BRANCH  12  17
ATOM     17  C   UNL     1       9.601  18.097  14.407  1.00  0.00    -0.006 C 
ATOM     18  C   UNL     1       9.240  19.504  13.892  1.00  0.00     0.008 C 
ATOM     19  C   UNL     1       8.759  17.807  15.663  1.00  0.00     0.008 C 
ENDBRANCH  12  17
ENDBRANCH  11  12
ENDBRANCH   1  11
TORSDOF 1
ENDMDL
MODEL 5
REMARK VINA RESULT:    -3.155      1.629      4.028
REMARK INTER + INTRA:          -5.015
REMARK INTER:                  -4.746
REMARK INTRA:                  -0.269
REMARK UNBOUND:                -0.200
REMARK SMILES CC1=CCC[C@@H](C)C(=O)C[C@@H](C(C)C)C(=O)C1
REMARK SMILES IDX 8 1 9 2 6 3 7 4 5 5 4 6 3 7 2 8 1 9 10 11 11 12 15 13 16 14
REMARK SMILES IDX 17 15 12 17 13 18 14 19
REMARK H PARENT
REMARK Flexibility Score: 70.00
ROOT
ATOM      1  C   UNL     1      12.305  19.330  17.307  1.00  0.00     0.136 C 
ATOM      2  O   UNL     1      12.311  19.829  18.422  1.00  0.00    -0.299 OA
ENDROOT
BRANCH   1   3
ATOM      3  C   UNL     1      11.733  20.119  16.138  1.00  0.00     0.053 C 
ATOM      4  C   UNL     1      11.913  21.639  16.299  1.00  0.00     0.016 C 
BRANCH   3   5
ATOM      5  C   UNL     1      10.265  19.754  15.819  1.00  0.00     0.015 C 
BRANCH   5   6
ATOM      6  C   UNL     1       9.966  19.198  14.405  1.00  0.00     0.028 C 
BRANCH   6   7
ATOM      7  C   UNL     1       9.810  17.698  14.282  1.00  0.00    -0.028 C 
ATOM      8  C   UNL     1      10.779  16.822  13.923  1.00  0.00    -0.070 CG0
ATOM      9  C   UNL     1      10.371  15.393  13.661  1.00  0.00     0.039 C 
ATOM     10  G   UNL     1      12.208  17.239  13.648  1.00  0.00     0.000 G0
ENDBRANCH   6   7
ENDBRANCH   5   6
ENDBRANCH   3   5
ENDBRANCH   1   3
BRANCH   1  11
ATOM     11  C   UNL     1      12.984  17.991  17.070  1.00  0.00     0.087 C 
BRANCH  11  12
ATOM     12  C   UNL     1      13.806  17.819  15.754  1.00  0.00     0.066 C 
BRANCH  12  13
ATOM     13  C   UNL     1      13.189  16.844  14.746  1.00  0.00     0.140 C 
ATOM     14  O   UNL     1      13.547  15.675  14.792  1.00  0.00    -0.299 OA
BRANCH  13  15
ATOM     15  C   UNL     1      12.229  17.228  13.641  1.00  0.00     0.106 CG0
ATOM     16  G   UNL     1      10.799  16.822  13.922  1.00  0.00     0.000 G0
ENDBRANCH  13  15
ENDBRANCH  12  13
BRANCH  12  17
ATOM     17  C   UNL     1      15.347  17.603  15.944  1.00  0.00    -0.006 C 
ATOM     18  C   UNL     1      15.901  18.424  17.124  1.00  0.00     0.008 C 
ATOM     19  C   UNL     1      16.144  17.970  14.678  1.00  0.00     0.008 C 
ENDBRANCH  12  17
ENDBRANCH  11  12
ENDBRANCH   1  11
TORSDOF 1
ENDMDL
MODEL 6
REMARK VINA RESULT:    -3.124      2.402      4.308
REMARK INTER + INTRA:          -4.968
REMARK INTER:                  -4.785
REMARK INTRA:                  -0.183
REMARK UNBOUND:                -0.200
REMARK SMILES CC1=CCC[C@@H](C)C(=O)C[C@@H](C(C)C)C(=O)C1
REMARK SMILES IDX 8 1 9 2 6 3 7 4 5 5 4 6 3 7 2 8 1 9 10 11 11 12 15 13 16 14
REMARK SMILES IDX 17 15 12 17 13 18 14 19
REMARK H PARENT
REMARK Flexibility Score: 70.00
ROOT
ATOM      1  C   UNL     1      13.892  17.680  16.332  1.00  0.00     0.136 C 
ATOM      2  O   UNL     1      14.351  16.639  16.777  1.00  0.00    -0.299 OA
ENDROOT
BRANCH   1   3
ATOM      3  C   UNL     1      13.910  18.933  17.195  1.00  0.00     0.053 C 
ATOM      4  C   UNL     1      15.158  19.024  18.091  1.00  0.00     0.016 C 
BRANCH   3   5
ATOM      5  C   UNL     1      12.613  19.127  18.012  1.00  0.00     0.015 C 
BRANCH   5   6
ATOM      6  C   UNL     1      11.454  19.894  17.329  1.00  0.00     0.028 C 
BRANCH   6   7
ATOM      7  C   UNL     1      10.210  19.098  16.999  1.00  0.00    -0.028 C 
ATOM      8  C   UNL     1       9.608  19.025  15.788  1.00  0.00    -0.070 CG0
ATOM      9  C   UNL     1       8.265  18.342  15.712  1.00  0.00     0.039 C 
ATOM     10  G   UNL     1      10.156  19.704  14.551  1.00  0.00     0.000 G0
ENDBRANCH   6   7
ENDBRANCH   5   6
ENDBRANCH   3   5
ENDBRANCH   1   3
BRANCH   1  11
ATOM     11  C   UNL     1      13.435  17.751  14.885  1.00  0.00     0.087 C 
BRANCH  11  12
ATOM     12  C   UNL     1      12.789  19.085  14.394  1.00  0.00     0.066 C 
BRANCH  12  13
ATOM     13  C   UNL     1      11.332  18.952  13.939  1.00  0.00     0.140 C 
ATOM     14  O   UNL     1      11.100  18.237  12.974  1.00  0.00    -0.299 OA
BRANCH  13  15
ATOM     15  C   UNL     1      10.163  19.701  14.539  1.00  0.00     0.106 CG0
ATOM     16  G   UNL     1       9.603  19.041  15.781  1.00  0.00     0.000 G0
ENDBRANCH  13  15
ENDBRANCH  12  13
BRANCH  12  17
ATOM     17  C   UNL     1      13.661  19.932  13.403  1.00  0.00    -0.006 C 
ATOM     18  C   UNL     1      14.955  19.197  13.004  1.00  0.00     0.008 C 
ATOM     19  C   UNL     1      14.042  21.302  13.996  1.00  0.00     0.008 C 
ENDBRANCH  12  17
ENDBRANCH  11  12
ENDBRANCH   1  11
TORSDOF 1
ENDMDL
MODEL 7
REMARK VINA RESULT:    -3.067      1.888      3.176
REMARK INTER + INTRA:          -4.880
REMARK INTER:                  -4.792
REMARK INTRA:                  -0.088
REMARK UNBOUND:                -0.200
REMARK SMILES CC1=CCC[C@@H](C)C(=O)C[C@@H](C(C)C)C(=O)C1
REMARK SMILES IDX 8 1 9 2 6 3 7 4 5 5 4 6 3 7 2 8 1 9 10 11 11 12 15 13 16 14
REMARK SMILES IDX 17 15 12 17 13 18 14 19
REMARK H PARENT
REMARK Flexibility Score: 70.00
ROOT
ATOM      1  C   UNL     1      10.787  18.912  14.358  1.00  0.00     0.136 C 
ATOM      2  O   UNL     1      10.820  20.023  13.853  1.00  0.00    -0.299 OA
ENDROOT
BRANCH   1   3
ATOM      3  C   UNL     1       9.724  18.597  15.400  1.00  0.00     0.053 C 
ATOM      4  C   UNL     1       8.430  19.404  15.198  1.00  0.00     0.016 C 
BRANCH   3   5
ATOM      5  C   UNL     1      10.243  18.714  16.852  1.00  0.00     0.015 C 
BRANCH   5   6
ATOM      6  C   UNL     1      11.153  19.922  17.183  1.00  0.00     0.028 C 
BRANCH   6   7
ATOM      7  C   UNL     1      12.515  19.610  17.764  1.00  0.00    -0.028 C 
ATOM      8  C   UNL     1      13.688  19.596  17.086  1.00  0.00    -0.070 CG0
ATOM      9  C   UNL     1      14.905  19.063  17.800  1.00  0.00     0.039 C 
ATOM     10  G   UNL     1      13.799  19.964  15.622  1.00  0.00     0.000 G0
ENDBRANCH   6   7
ENDBRANCH   5   6
ENDBRANCH   3   5
ENDBRANCH   1   3
BRANCH   1  11
ATOM     11  C   UNL     1      11.712  17.819  13.850  1.00  0.00     0.087 C 
BRANCH  11  12
ATOM     12  C   UNL     1      13.028  17.554  14.647  1.00  0.00     0.066 C 
BRANCH  12  13
ATOM     13  C   UNL     1      13.980  18.753  14.712  1.00  0.00     0.140 C 
ATOM     14  O   UNL     1      14.999  18.708  14.036  1.00  0.00    -0.299 OA
BRANCH  13  15
ATOM     15  C   UNL     1      13.802  19.957  15.611  1.00  0.00     0.106 CG0
ATOM     16  G   UNL     1      13.699  19.598  17.078  1.00  0.00     0.000 G0
ENDBRANCH  13  15
ENDBRANCH  12  13
BRANCH  12  17
ATOM     17  C   UNL     1      13.763  16.211  14.309  1.00  0.00    -0.006 C 
ATOM     18  C   UNL     1      12.858  15.243  13.523  1.00  0.00     0.008 C 
ATOM     19  C   UNL     1      14.263  15.491  15.575  1.00  0.00     0.008 C 
ENDBRANCH  12  17
ENDBRANCH  11  12
ENDBRANCH   1  11
TORSDOF 1
ENDMDL
MODEL 8
REMARK VINA RESULT:    -2.970      1.600      3.794
REMARK INTER + INTRA:          -4.732
REMARK INTER:                  -4.497
REMARK INTRA:                  -0.235
REMARK UNBOUND:                -0.200
REMARK SMILES CC1=CCC[C@@H](C)C(=O)C[C@@H](C(C)C)C(=O)C1
REMARK SMILES IDX 8 1 9 2 6 3 7 4 5 5 4 6 3 7 2 8 1 9 10 11 11 12 15 13 16 14
REMARK SMILES IDX 17 15 12 17 13 18 14 19
REMARK H PARENT
REMARK Flexibility Score: 70.00
ROOT
ATOM      1  C   UNL     1       9.941  18.900  15.767  1.00  0.00     0.136 C 
ATOM      2  O   UNL     1       8.783  18.943  16.151  1.00  0.00    -0.299 OA
ENDROOT
BRANCH   1   3
ATOM      3  C   UNL     1      10.233  18.581  14.307  1.00  0.00     0.053 C 
ATOM      4  C   UNL     1       9.114  19.047  13.359  1.00  0.00     0.016 C 
BRANCH   3   5
ATOM      5  C   UNL     1      10.594  17.097  14.071  1.00  0.00     0.015 C 
BRANCH   5   6
ATOM      6  C   UNL     1      12.021  16.789  13.556  1.00  0.00     0.028 C 
BRANCH   6   7
ATOM      7  C   UNL     1      12.889  15.915  14.436  1.00  0.00    -0.028 C 
ATOM      8  C   UNL     1      13.929  16.331  15.197  1.00  0.00    -0.070 CG0
ATOM      9  C   UNL     1      14.794  15.277  15.842  1.00  0.00     0.039 C 
ATOM     10  G   UNL     1      14.333  17.785  15.317  1.00  0.00     0.000 G0
ENDBRANCH   6   7
ENDBRANCH   5   6
ENDBRANCH   3   5
ENDBRANCH   1   3
BRANCH   1  11
ATOM     11  C   UNL     1      11.069  19.296  16.705  1.00  0.00     0.087 C 
BRANCH  11  12
ATOM     12  C   UNL     1      12.466  19.593  16.075  1.00  0.00     0.066 C 
BRANCH  12  13
ATOM     13  C   UNL     1      13.532  18.533  16.374  1.00  0.00     0.140 C 
ATOM     14  O   UNL     1      13.812  18.321  17.546  1.00  0.00    -0.299 OA
BRANCH  13  15
ATOM     15  C   UNL     1      14.328  17.782  15.329  1.00  0.00     0.106 CG0
ATOM     16  G   UNL     1      13.920  16.331  15.195  1.00  0.00     0.000 G0
ENDBRANCH  13  15
ENDBRANCH  12  13
BRANCH  12  17
ATOM     17  C   UNL     1      12.994  21.057  16.263  1.00  0.00    -0.006 C 
ATOM     18  C   UNL     1      11.873  22.099  16.090  1.00  0.00     0.008 C 
ATOM     19  C   UNL     1      14.129  21.394  15.278  1.00  0.00     0.008 C 
ENDBRANCH  12  17
ENDBRANCH  11  12
ENDBRANCH   1  11
TORSDOF 1
ENDMDL
MODEL 9
REMARK VINA RESULT:    -2.945      1.590      2.134
REMARK INTER + INTRA:          -4.694
REMARK INTER:                  -4.721
REMARK INTRA:                   0.027
REMARK UNBOUND:                -0.200
REMARK SMILES CC1=CCC[C@@H](C)C(=O)C[C@@H](C(C)C)C(=O)C1
REMARK SMILES IDX 8 1 9 2 6 3 7 4 5 5 4 6 3 7 2 8 1 9 10 11 11 12 15 13 16 14
REMARK SMILES IDX 17 15 12 17 13 18 14 19
REMARK H PARENT
REMARK Flexibility Score: 70.00
ROOT
ATOM      1  C   UNL     1      11.925  20.086  16.751  1.00  0.00     0.136 C 
ATOM      2  O   UNL     1      11.806  21.261  16.443  1.00  0.00    -0.299 OA
ENDROOT
BRANCH   1   3
ATOM      3  C   UNL     1      13.184  19.626  17.472  1.00  0.00     0.053 C 
ATOM      4  C   UNL     1      14.468  20.223  16.870  1.00  0.00     0.016 C 
BRANCH   3   5
ATOM      5  C   UNL     1      13.282  18.089  17.602  1.00  0.00     0.015 C 
BRANCH   5   6
ATOM      6  C   UNL     1      14.372  17.375  16.766  1.00  0.00     0.028 C 
BRANCH   6   7
ATOM      7  C   UNL     1      13.892  16.440  15.676  1.00  0.00    -0.028 C 
ATOM      8  C   UNL     1      13.344  16.807  14.494  1.00  0.00    -0.070 CG0
ATOM      9  C   UNL     1      12.744  15.725  13.631  1.00  0.00     0.039 C 
ATOM     10  G   UNL     1      13.194  18.252  14.067  1.00  0.00     0.000 G0
ENDBRANCH   6   7
ENDBRANCH   5   6
ENDBRANCH   3   5
ENDBRANCH   1   3
BRANCH   1  11
ATOM     11  C   UNL     1      10.768  19.124  16.537  1.00  0.00     0.087 C 
BRANCH  11  12
ATOM     12  C   UNL     1      10.734  18.317  15.201  1.00  0.00     0.066 C 
BRANCH  12  13
ATOM     13  C   UNL     1      11.765  18.769  14.162  1.00  0.00     0.140 C 
ATOM     14  O   UNL     1      11.397  19.555  13.300  1.00  0.00    -0.299 OA
BRANCH  13  15
ATOM     15  C   UNL     1      13.186  18.258  14.068  1.00  0.00     0.106 CG0
ATOM     16  G   UNL     1      13.331  16.812  14.490  1.00  0.00     0.000 G0
ENDBRANCH  13  15
ENDBRANCH  12  13
BRANCH  12  17
ATOM     17  C   UNL     1       9.309  18.090  14.587  1.00  0.00    -0.006 C 
ATOM     18  C   UNL     1       8.206  18.754  15.432  1.00  0.00     0.008 C 
ATOM     19  C   UNL     1       8.975  16.594  14.438  1.00  0.00     0.008 C 
ENDBRANCH  12  17
ENDBRANCH  11  12
ENDBRANCH   1  11
TORSDOF 1
ENDMDL
