MODEL 1
REMARK VINA RESULT:    -3.938      0.000      0.000
REMARK INTER + INTRA:          -5.525
REMARK INTER:                  -5.204
REMARK INTRA:                  -0.321
REMARK UNBOUND:                -0.321
REMARK SMILES C=CCC[C@@H](O)CCC
REMARK SMILES IDX 4 1 5 2 7 3 8 4 9 5 6 6 3 8 2 9 1 10
REMARK H PARENT 6 7
REMARK Flexibility Score: inf
ROOT
ATOM      1  C   UNL     1     124.252 117.849 115.192  1.00  0.00     0.036 C 
ENDROOT
BRANCH   1   2
ATOM      2  C   UNL     1     122.716 117.975 115.293  1.00  0.00     0.114 C 
BRANCH   2   3
ATOM      3  C   UNL     1     122.046 116.622 115.619  1.00  0.00     0.031 C 
BRANCH   3   4
ATOM      4  C   UNL     1     121.106 116.685 116.836  1.00  0.00    -0.001 C 
ATOM      5  C   UNL     1     121.587 117.652 117.916  1.00  0.00     0.004 C 
ENDBRANCH   3   4
ENDBRANCH   2   3
BRANCH   2   6
ATOM      6  O   UNL     1     122.196 118.487 114.092  1.00  0.00    -0.393 OA
ATOM      7  H   UNL     1     121.316 118.049 113.951  1.00  0.00     0.210 HD
ENDBRANCH   2   6
ENDBRANCH   1   2
BRANCH   1   8
ATOM      8  C   UNL     1     124.984 118.295 116.469  1.00  0.00     0.029 C 
BRANCH   8   9
ATOM      9  C   UNL     1     125.907 119.450 116.189  1.00  0.00    -0.035 C 
ATOM     10  C   UNL     1     125.589 120.408 115.314  1.00  0.00     0.004 C 
ENDBRANCH   8   9
ENDBRANCH   1   8
TORSDOF 6
ENDMDL
MODEL 2
REMARK VINA RESULT:    -3.850      2.066      2.608
REMARK INTER + INTRA:          -5.408
REMARK INTER:                  -4.858
REMARK INTRA:                  -0.550
REMARK UNBOUND:                -0.321
REMARK SMILES C=CCC[C@@H](O)CCC
REMARK SMILES IDX 4 1 5 2 7 3 8 4 9 5 6 6 3 8 2 9 1 10
REMARK H PARENT 6 7
REMARK Flexibility Score: inf
ROOT
ATOM      1  C   UNL     1     126.438 117.072 115.917  1.00  0.00     0.036 C 
ENDROOT
BRANCH   1   2
ATOM      2  C   UNL     1     125.274 116.938 114.911  1.00  0.00     0.114 C 
BRANCH   2   3
ATOM      3  C   UNL     1     123.989 116.405 115.582  1.00  0.00     0.031 C 
BRANCH   3   4
ATOM      4  C   UNL     1     122.891 117.472 115.731  1.00  0.00    -0.001 C 
ATOM      5  C   UNL     1     122.891 118.497 114.598  1.00  0.00     0.004 C 
ENDBRANCH   3   4
ENDBRANCH   2   3
BRANCH   2   6
ATOM      6  O   UNL     1     125.646 116.090 113.855  1.00  0.00    -0.393 OA
ATOM      7  H   UNL     1     126.638 116.044 113.859  1.00  0.00     0.210 HD
ENDBRANCH   2   6
ENDBRANCH   1   2
BRANCH   1   8
ATOM      8  C   UNL     1     127.257 118.360 115.732  1.00  0.00     0.029 C 
BRANCH   8   9
ATOM      9  C   UNL     1     126.456 119.414 115.017  1.00  0.00    -0.035 C 
ATOM     10  C   UNL     1     125.850 120.406 115.677  1.00  0.00     0.004 C 
ENDBRANCH   8   9
ENDBRANCH   1   8
TORSDOF 6
ENDMDL
MODEL 3
REMARK VINA RESULT:    -3.825     15.161     16.089
REMARK INTER + INTRA:          -5.376
REMARK INTER:                  -4.739
REMARK INTRA:                  -0.637
REMARK UNBOUND:                -0.321
REMARK SMILES C=CCC[C@@H](O)CCC
REMARK SMILES IDX 4 1 5 2 7 3 8 4 9 5 6 6 3 8 2 9 1 10
REMARK H PARENT 6 7
REMARK Flexibility Score: inf
ROOT
ATOM      1  C   UNL     1     120.789 128.969 125.490  1.00  0.00     0.036 C 
ENDROOT
BRANCH   1   2
ATOM      2  C   UNL     1     119.466 128.201 125.703  1.00  0.00     0.114 C 
BRANCH   2   3
ATOM      3  C   UNL     1     118.249 128.990 125.173  1.00  0.00     0.031 C 
BRANCH   3   4
ATOM      4  C   UNL     1     117.167 129.231 126.241  1.00  0.00    -0.001 C 
ATOM      5  C   UNL     1     116.469 130.581 126.095  1.00  0.00     0.004 C 
ENDBRANCH   3   4
ENDBRANCH   2   3
BRANCH   2   6
ATOM      6  O   UNL     1     119.291 127.916 127.068  1.00  0.00    -0.393 OA
ATOM      7  H   UNL     1     119.259 126.927 127.153  1.00  0.00     0.210 HD
ENDBRANCH   2   6
ENDBRANCH   1   2
BRANCH   1   8
ATOM      8  C   UNL     1     120.587 130.474 125.246  1.00  0.00     0.029 C 
BRANCH   8   9
ATOM      9  C   UNL     1     120.857 131.267 126.495  1.00  0.00    -0.035 C 
ATOM     10  C   UNL     1     119.880 131.596 127.345  1.00  0.00     0.004 C 
ENDBRANCH   8   9
ENDBRANCH   1   8
TORSDOF 6
ENDMDL
MODEL 4
REMARK VINA RESULT:    -3.743     14.911     16.210
REMARK INTER + INTRA:          -5.267
REMARK INTER:                  -4.681
REMARK INTRA:                  -0.586
REMARK UNBOUND:                -0.321
REMARK SMILES C=CCC[C@@H](O)CCC
REMARK SMILES IDX 4 1 5 2 7 3 8 4 9 5 6 6 3 8 2 9 1 10
REMARK H PARENT 6 7
REMARK Flexibility Score: inf
ROOT
ATOM      1  C   UNL     1     119.053 128.660 126.776  1.00  0.00     0.036 C 
ENDROOT
BRANCH   1   2
ATOM      2  C   UNL     1     120.129 128.544 125.674  1.00  0.00     0.114 C 
BRANCH   2   3
ATOM      3  C   UNL     1     121.118 129.730 125.704  1.00  0.00     0.031 C 
BRANCH   3   4
ATOM      4  C   UNL     1     120.556 131.007 125.055  1.00  0.00    -0.001 C 
ATOM      5  C   UNL     1     120.042 132.023 126.072  1.00  0.00     0.004 C 
ENDBRANCH   3   4
ENDBRANCH   2   3
BRANCH   2   6
ATOM      6  O   UNL     1     119.517 128.467 124.411  1.00  0.00    -0.393 OA
ATOM      7  H   UNL     1     118.676 127.953 124.530  1.00  0.00     0.210 HD
ENDBRANCH   2   6
ENDBRANCH   1   2
BRANCH   1   8
ATOM      8  C   UNL     1     117.618 128.525 126.241  1.00  0.00     0.029 C 
BRANCH   8   9
ATOM      9  C   UNL     1     116.899 129.846 126.278  1.00  0.00    -0.035 C 
ATOM     10  C   UNL     1     116.826 130.636 125.203  1.00  0.00     0.004 C 
ENDBRANCH   8   9
ENDBRANCH   1   8
TORSDOF 6
ENDMDL
MODEL 5
REMARK VINA RESULT:    -3.660     14.656     15.952
REMARK INTER + INTRA:          -5.157
REMARK INTER:                  -4.576
REMARK INTRA:                  -0.581
REMARK UNBOUND:                -0.321
REMARK SMILES C=CCC[C@@H](O)CCC
REMARK SMILES IDX 4 1 5 2 7 3 8 4 9 5 6 6 3 8 2 9 1 10
REMARK H PARENT 6 7
REMARK Flexibility Score: inf
ROOT
ATOM      1  C   UNL     1     119.795 129.175 126.452  1.00  0.00     0.036 C 
ENDROOT
BRANCH   1   2
ATOM      2  C   UNL     1     120.508 130.257 125.611  1.00  0.00     0.114 C 
BRANCH   2   3
ATOM      3  C   UNL     1     119.598 131.478 125.349  1.00  0.00     0.031 C 
BRANCH   3   4
ATOM      4  C   UNL     1     118.119 131.218 125.688  1.00  0.00    -0.001 C 
ATOM      5  C   UNL     1     117.234 131.086 124.451  1.00  0.00     0.004 C 
ENDBRANCH   3   4
ENDBRANCH   2   3
BRANCH   2   6
ATOM      6  O   UNL     1     120.937 129.712 124.390  1.00  0.00    -0.393 OA
ATOM      7  H   UNL     1     121.669 130.293 124.056  1.00  0.00     0.210 HD
ENDBRANCH   2   6
ENDBRANCH   1   2
BRANCH   1   8
ATOM      8  C   UNL     1     119.782 127.793 125.778  1.00  0.00     0.029 C 
BRANCH   8   9
ATOM      9  C   UNL     1     118.390 127.226 125.733  1.00  0.00    -0.035 C 
ATOM     10  C   UNL     1     117.444 127.610 126.595  1.00  0.00     0.004 C 
ENDBRANCH   8   9
ENDBRANCH   1   8
TORSDOF 6
ENDMDL
MODEL 6
REMARK VINA RESULT:    -3.635      1.451      4.107
REMARK INTER + INTRA:          -5.124
REMARK INTER:                  -4.705
REMARK INTRA:                  -0.419
REMARK UNBOUND:                -0.321
REMARK SMILES C=CCC[C@@H](O)CCC
REMARK SMILES IDX 4 1 5 2 7 3 8 4 9 5 6 6 3 8 2 9 1 10
REMARK H PARENT 6 7
REMARK Flexibility Score: inf
ROOT
ATOM      1  C   UNL     1     123.275 118.573 114.610  1.00  0.00     0.036 C 
ENDROOT
BRANCH   1   2
ATOM      2  C   UNL     1     124.704 118.249 115.095  1.00  0.00     0.114 C 
BRANCH   2   3
ATOM      3  C   UNL     1     125.567 119.522 115.243  1.00  0.00     0.031 C 
BRANCH   3   4
ATOM      4  C   UNL     1     126.554 119.455 116.421  1.00  0.00    -0.001 C 
ATOM      5  C   UNL     1     126.179 118.401 117.461  1.00  0.00     0.004 C 
ENDBRANCH   3   4
ENDBRANCH   2   3
BRANCH   2   6
ATOM      6  O   UNL     1     125.323 117.356 114.205  1.00  0.00    -0.393 OA
ATOM      7  H   UNL     1     125.802 117.906 113.531  1.00  0.00     0.210 HD
ENDBRANCH   2   6
ENDBRANCH   1   2
BRANCH   1   8
ATOM      8  C   UNL     1     122.190 117.737 115.310  1.00  0.00     0.029 C 
BRANCH   8   9
ATOM      9  C   UNL     1     122.540 117.494 116.752  1.00  0.00    -0.035 C 
ATOM     10  C   UNL     1     121.622 117.565 117.721  1.00  0.00     0.004 C 
ENDBRANCH   8   9
ENDBRANCH   1   8
TORSDOF 6
ENDMDL
MODEL 7
REMARK VINA RESULT:    -3.604     14.995     16.238
REMARK INTER + INTRA:          -5.083
REMARK INTER:                  -4.736
REMARK INTRA:                  -0.347
REMARK UNBOUND:                -0.321
REMARK SMILES C=CCC[C@@H](O)CCC
REMARK SMILES IDX 4 1 5 2 7 3 8 4 9 5 6 6 3 8 2 9 1 10
REMARK H PARENT 6 7
REMARK Flexibility Score: inf
ROOT
ATOM      1  C   UNL     1     116.835 129.902 126.231  1.00  0.00     0.036 C 
ENDROOT
BRANCH   1   2
ATOM      2  C   UNL     1     117.828 128.736 126.424  1.00  0.00     0.114 C 
BRANCH   2   3
ATOM      3  C   UNL     1     118.747 128.550 125.195  1.00  0.00     0.031 C 
BRANCH   3   4
ATOM      4  C   UNL     1     120.231 128.381 125.566  1.00  0.00    -0.001 C 
ATOM      5  C   UNL     1     121.050 129.654 125.360  1.00  0.00     0.004 C 
ENDBRANCH   3   4
ENDBRANCH   2   3
BRANCH   2   6
ATOM      6  O   UNL     1     117.127 127.545 126.677  1.00  0.00    -0.393 OA
ATOM      7  H   UNL     1     116.922 127.138 125.795  1.00  0.00     0.210 HD
ENDBRANCH   2   6
ENDBRANCH   1   2
BRANCH   1   8
ATOM      8  C   UNL     1     117.370 131.011 125.310  1.00  0.00     0.029 C 
BRANCH   8   9
ATOM      9  C   UNL     1     116.319 131.455 124.329  1.00  0.00    -0.035 C 
ATOM     10  C   UNL     1     116.529 131.420 123.009  1.00  0.00     0.004 C 
ENDBRANCH   8   9
ENDBRANCH   1   8
TORSDOF 6
ENDMDL
MODEL 8
REMARK VINA RESULT:    -3.578     15.020     17.029
REMARK INTER + INTRA:          -5.049
REMARK INTER:                  -4.663
REMARK INTRA:                  -0.386
REMARK UNBOUND:                -0.321
REMARK SMILES C=CCC[C@@H](O)CCC
REMARK SMILES IDX 4 1 5 2 7 3 8 4 9 5 6 6 3 8 2 9 1 10
REMARK H PARENT 6 7
REMARK Flexibility Score: inf
ROOT
ATOM      1  C   UNL     1     111.893 116.779 129.283  1.00  0.00     0.036 C 
ENDROOT
BRANCH   1   2
ATOM      2  C   UNL     1     111.944 118.032 128.382  1.00  0.00     0.114 C 
BRANCH   2   3
ATOM      3  C   UNL     1     112.237 117.673 126.908  1.00  0.00     0.031 C 
BRANCH   3   4
ATOM      4  C   UNL     1     112.501 116.173 126.689  1.00  0.00    -0.001 C 
ATOM      5  C   UNL     1     112.485 115.769 125.216  1.00  0.00     0.004 C 
ENDBRANCH   3   4
ENDBRANCH   2   3
BRANCH   2   6
ATOM      6  O   UNL     1     112.919 118.925 128.856  1.00  0.00    -0.393 OA
ATOM      7  H   UNL     1     112.494 119.822 128.895  1.00  0.00     0.210 HD
ENDBRANCH   2   6
ENDBRANCH   1   2
BRANCH   1   8
ATOM      8  C   UNL     1     112.336 117.051 130.730  1.00  0.00     0.029 C 
BRANCH   8   9
ATOM      9  C   UNL     1     113.501 116.180 131.113  1.00  0.00    -0.035 C 
ATOM     10  C   UNL     1     114.145 115.430 130.214  1.00  0.00     0.004 C 
ENDBRANCH   8   9
ENDBRANCH   1   8
TORSDOF 6
ENDMDL
MODEL 9
REMARK VINA RESULT:    -3.552     14.676     15.832
REMARK INTER + INTRA:          -5.015
REMARK INTER:                  -4.428
REMARK INTRA:                  -0.587
REMARK UNBOUND:                -0.321
REMARK SMILES C=CCC[C@@H](O)CCC
REMARK SMILES IDX 4 1 5 2 7 3 8 4 9 5 6 6 3 8 2 9 1 10
REMARK H PARENT 6 7
REMARK Flexibility Score: inf
ROOT
ATOM      1  C   UNL     1     119.813 130.179 126.504  1.00  0.00     0.036 C 
ENDROOT
BRANCH   1   2
ATOM      2  C   UNL     1     120.368 129.174 125.472  1.00  0.00     0.114 C 
BRANCH   2   3
ATOM      3  C   UNL     1     119.878 127.735 125.746  1.00  0.00     0.031 C 
BRANCH   3   4
ATOM      4  C   UNL     1     118.769 127.662 126.811  1.00  0.00    -0.001 C 
ATOM      5  C   UNL     1     117.558 126.846 126.363  1.00  0.00     0.004 C 
ENDBRANCH   3   4
ENDBRANCH   2   3
BRANCH   2   6
ATOM      6  O   UNL     1     121.772 129.207 125.476  1.00  0.00    -0.393 OA
ATOM      7  H   UNL     1     122.076 128.440 126.030  1.00  0.00     0.210 HD
ENDBRANCH   2   6
ENDBRANCH   1   2
BRANCH   1   8
ATOM      8  C   UNL     1     119.118 131.391 125.861  1.00  0.00     0.029 C 
BRANCH   8   9
ATOM      9  C   UNL     1     117.995 130.956 124.960  1.00  0.00    -0.035 C 
ATOM     10  C   UNL     1     116.818 130.553 125.446  1.00  0.00     0.004 C 
ENDBRANCH   8   9
ENDBRANCH   1   8
TORSDOF 6
ENDMDL
