MODEL 1
REMARK VINA RESULT:    29.906      0.000      0.000
REMARK INTER + INTRA:          37.274
REMARK INTER:                  37.773
REMARK INTRA:                  -0.500
REMARK UNBOUND:                -0.500
REMARK SMILES CC(C)[C@H](C)C=C[C@H](C)[C@H]1CC[C@H]2C3=CC=C4C[C@H](O)CC[C@@]4(C)[C@@H]3CC[C@@]12C
REMARK SMILES IDX 8 1 9 2 7 3 6 4 4 5 5 6 2 7 1 8 3 9 10 10 11 11 28 12 12 13
REMARK SMILES IDX 13 14 27 15 29 16 14 17 26 18 25 19 15 20 23 21 16 22 17 23
REMARK SMILES IDX 22 24 24 25 18 26 21 27 19 28 20 29
REMARK H PARENT 20 30
REMARK Flexibility Score: inf
ROOT
ATOM      1  C   UNL     1      77.371  39.360  62.223  1.00  0.00     0.012 C 
ATOM      2  C   UNL     1      78.102  38.077  62.632  1.00  0.00     0.012 C 
ENDROOT
BRANCH   1   3
ATOM      3  C   UNL     1      78.234  40.536  62.642  1.00  0.00    -0.028 C 
ATOM      4  C   UNL     1      78.411  40.863  63.936  1.00  0.00    -0.028 C 
BRANCH   4   5
ATOM      5  C   UNL     1      79.360  41.962  64.363  1.00  0.00     0.011 C 
ATOM      6  C   UNL     1      78.707  43.335  64.134  1.00  0.00     0.012 C 
BRANCH   5   7
ATOM      7  C   UNL     1      79.846  41.731  65.824  1.00  0.00    -0.011 C 
ATOM      8  C   UNL     1      80.093  40.252  66.159  1.00  0.00     0.008 C 
ATOM      9  C   UNL     1      78.878  42.342  66.848  1.00  0.00     0.008 C 
ENDBRANCH   5   7
ENDBRANCH   4   5
ENDBRANCH   1   3
BRANCH   1  10
ATOM     10  C   UNL     1      76.802  39.463  60.740  1.00  0.00     0.002 C 
ATOM     11  C   UNL     1      77.117  40.780  60.018  1.00  0.00     0.005 C 
ATOM     12  C   UNL     1      77.003  38.365  59.641  1.00  0.00    -0.023 C 
ATOM     13  C   UNL     1      76.689  40.585  58.571  1.00  0.00     0.009 C 
ATOM     14  C   UNL     1      76.424  39.084  58.389  1.00  0.00     0.021 C 
ATOM     15  C   UNL     1      78.501  38.006  59.406  1.00  0.00     0.008 C 
ATOM     16  C   UNL     1      76.165  37.084  59.918  1.00  0.00     0.012 C 
ATOM     17  C   UNL     1      76.922  38.592  57.036  1.00  0.00    -0.063 C 
ATOM     18  C   UNL     1      78.711  37.178  58.137  1.00  0.00     0.009 C 
ATOM     19  C   UNL     1      78.289  37.952  56.872  1.00  0.00     0.025 C 
ATOM     20  C   UNL     1      76.255  38.981  55.936  1.00  0.00    -0.000 C 
ATOM     21  C   UNL     1      78.381  37.094  55.553  1.00  0.00    -0.005 C 
ATOM     22  C   UNL     1      76.782  38.731  54.586  1.00  0.00    -0.000 C 
ATOM     23  C   UNL     1      77.834  37.922  54.384  1.00  0.00    -0.061 C 
ATOM     24  C   UNL     1      79.870  36.715  55.290  1.00  0.00     0.014 C 
ATOM     25  C   UNL     1      77.525  35.804  55.660  1.00  0.00     0.017 C 
ATOM     26  C   UNL     1      78.242  37.611  52.961  1.00  0.00     0.063 C 
ATOM     27  C   UNL     1      80.125  36.209  53.865  1.00  0.00     0.033 C 
ATOM     28  C   UNL     1      79.731  37.276  52.844  1.00  0.00     0.118 C 
BRANCH  28  29
ATOM     29  O   UNL     1      79.995  36.791  51.554  1.00  0.00    -0.393 OA
ATOM     30  H   UNL     1      79.292  36.118  51.345  1.00  0.00     0.210 HD
ENDBRANCH  28  29
ENDBRANCH   1  10
TORSDOF 5
ENDMDL
MODEL 2
REMARK VINA RESULT:    30.119      3.172      8.422
REMARK INTER + INTRA:          37.543
REMARK INTER:                  33.603
REMARK INTRA:                   3.940
REMARK UNBOUND:                -0.500
REMARK SMILES CC(C)[C@H](C)C=C[C@H](C)[C@H]1CC[C@H]2C3=CC=C4C[C@H](O)CC[C@@]4(C)[C@@H]3CC[C@@]12C
REMARK SMILES IDX 8 1 9 2 7 3 6 4 4 5 5 6 2 7 1 8 3 9 10 10 11 11 28 12 12 13
REMARK SMILES IDX 13 14 27 15 29 16 14 17 26 18 25 19 15 20 23 21 16 22 17 23
REMARK SMILES IDX 22 24 24 25 18 26 21 27 19 28 20 29
REMARK H PARENT 20 30
REMARK Flexibility Score: inf
ROOT
ATOM      1  C   UNL     1      77.739  38.188  52.358  1.00  0.00     0.012 C 
ATOM      2  C   UNL     1      77.930  37.514  50.995  1.00  0.00     0.012 C 
ENDROOT
BRANCH   1   3
ATOM      3  C   UNL     1      76.269  38.541  52.496  1.00  0.00    -0.028 C 
ATOM      4  C   UNL     1      75.587  38.313  53.634  1.00  0.00    -0.028 C 
BRANCH   4   5
ATOM      5  C   UNL     1      74.154  38.765  53.815  1.00  0.00     0.011 C 
ATOM      6  C   UNL     1      73.319  37.628  54.424  1.00  0.00     0.012 C 
BRANCH   5   7
ATOM      7  C   UNL     1      74.095  40.094  54.624  1.00  0.00    -0.011 C 
ATOM      8  C   UNL     1      74.897  41.237  53.982  1.00  0.00     0.008 C 
ATOM      9  C   UNL     1      74.550  39.893  56.078  1.00  0.00     0.008 C 
ENDBRANCH   5   7
ENDBRANCH   4   5
ENDBRANCH   1   3
BRANCH   1  10
ATOM     10  C   UNL     1      78.367  37.486  53.641  1.00  0.00     0.002 C 
ATOM     11  C   UNL     1      79.805  37.910  53.971  1.00  0.00     0.005 C 
ATOM     12  C   UNL     1      77.660  37.408  55.036  1.00  0.00    -0.023 C 
ATOM     13  C   UNL     1      80.125  37.308  55.329  1.00  0.00     0.009 C 
ATOM     14  C   UNL     1      78.796  36.809  55.914  1.00  0.00     0.021 C 
ATOM     15  C   UNL     1      77.239  38.803  55.585  1.00  0.00     0.008 C 
ATOM     16  C   UNL     1      76.453  36.426  55.038  1.00  0.00     0.012 C 
ATOM     17  C   UNL     1      78.710  37.084  57.411  1.00  0.00    -0.063 C 
ATOM     18  C   UNL     1      76.839  38.755  57.060  1.00  0.00     0.009 C 
ATOM     19  C   UNL     1      78.015  38.318  57.958  1.00  0.00     0.025 C 
ATOM     20  C   UNL     1      79.495  36.367  58.233  1.00  0.00    -0.000 C 
ATOM     21  C   UNL     1      77.616  38.144  59.473  1.00  0.00    -0.005 C 
ATOM     22  C   UNL     1      79.633  36.706  59.657  1.00  0.00    -0.000 C 
ATOM     23  C   UNL     1      78.824  37.602  60.245  1.00  0.00    -0.061 C 
ATOM     24  C   UNL     1      77.185  39.525  60.053  1.00  0.00     0.014 C 
ATOM     25  C   UNL     1      76.456  37.125  59.635  1.00  0.00     0.017 C 
ATOM     26  C   UNL     1      78.940  37.807  61.739  1.00  0.00     0.063 C 
ATOM     27  C   UNL     1      77.134  39.551  61.584  1.00  0.00     0.033 C 
ATOM     28  C   UNL     1      78.505  39.211  62.168  1.00  0.00     0.118 C 
BRANCH  28  29
ATOM     29  O   UNL     1      78.430  39.262  63.568  1.00  0.00    -0.393 OA
ATOM     30  H   UNL     1      77.566  39.698  63.800  1.00  0.00     0.210 HD
ENDBRANCH  28  29
ENDBRANCH   1  10
TORSDOF 5
ENDMDL
MODEL 3
REMARK VINA RESULT:    32.398      3.678     10.576
REMARK INTER + INTRA:          40.421
REMARK INTER:                  41.125
REMARK INTRA:                  -0.703
REMARK UNBOUND:                -0.500
REMARK SMILES CC(C)[C@H](C)C=C[C@H](C)[C@H]1CC[C@H]2C3=CC=C4C[C@H](O)CC[C@@]4(C)[C@@H]3CC[C@@]12C
REMARK SMILES IDX 8 1 9 2 7 3 6 4 4 5 5 6 2 7 1 8 3 9 10 10 11 11 28 12 12 13
REMARK SMILES IDX 13 14 27 15 29 16 14 17 26 18 25 19 15 20 23 21 16 22 17 23
REMARK SMILES IDX 22 24 24 25 18 26 21 27 19 28 20 29
REMARK H PARENT 20 30
REMARK Flexibility Score: inf
ROOT
ATOM      1  C   UNL     1      77.069  38.205  51.648  1.00  0.00     0.012 C 
ATOM      2  C   UNL     1      77.349  39.681  51.346  1.00  0.00     0.012 C 
ENDROOT
BRANCH   1   3
ATOM      3  C   UNL     1      77.174  37.439  50.342  1.00  0.00    -0.028 C 
ATOM      4  C   UNL     1      76.299  37.625  49.336  1.00  0.00    -0.028 C 
BRANCH   4   5
ATOM      5  C   UNL     1      76.466  36.949  47.992  1.00  0.00     0.011 C 
ATOM      6  C   UNL     1      76.014  35.483  48.084  1.00  0.00     0.012 C 
BRANCH   5   7
ATOM      7  C   UNL     1      75.747  37.761  46.876  1.00  0.00    -0.011 C 
ATOM      8  C   UNL     1      76.026  39.271  46.942  1.00  0.00     0.008 C 
ATOM      9  C   UNL     1      74.232  37.511  46.878  1.00  0.00     0.008 C 
ENDBRANCH   5   7
ENDBRANCH   4   5
ENDBRANCH   1   3
BRANCH   1  10
ATOM     10  C   UNL     1      77.836  37.527  52.867  1.00  0.00     0.002 C 
ATOM     11  C   UNL     1      79.266  38.038  53.095  1.00  0.00     0.005 C 
ATOM     12  C   UNL     1      77.244  37.384  54.310  1.00  0.00    -0.023 C 
ATOM     13  C   UNL     1      79.725  37.438  54.415  1.00  0.00     0.009 C 
ATOM     14  C   UNL     1      78.479  36.848  55.089  1.00  0.00     0.021 C 
ATOM     15  C   UNL     1      76.779  38.742  54.915  1.00  0.00     0.008 C 
ATOM     16  C   UNL     1      76.104  36.327  54.384  1.00  0.00     0.012 C 
ATOM     17  C   UNL     1      78.490  37.096  56.592  1.00  0.00    -0.063 C 
ATOM     18  C   UNL     1      76.497  38.648  56.415  1.00  0.00     0.009 C 
ATOM     19  C   UNL     1      77.763  38.275  57.213  1.00  0.00     0.025 C 
ATOM     20  C   UNL     1      79.380  36.419  57.339  1.00  0.00    -0.000 C 
ATOM     21  C   UNL     1      77.492  38.055  58.750  1.00  0.00    -0.005 C 
ATOM     22  C   UNL     1      79.604  36.746  58.755  1.00  0.00    -0.000 C 
ATOM     23  C   UNL     1      78.788  37.581  59.419  1.00  0.00    -0.061 C 
ATOM     24  C   UNL     1      77.022  39.397  59.387  1.00  0.00     0.014 C 
ATOM     25  C   UNL     1      76.415  36.962  58.980  1.00  0.00     0.017 C 
ATOM     26  C   UNL     1      79.005  37.772  60.903  1.00  0.00     0.063 C 
ATOM     27  C   UNL     1      77.086  39.399  60.918  1.00  0.00     0.033 C 
ATOM     28  C   UNL     1      78.516  39.139  61.390  1.00  0.00     0.118 C 
BRANCH  28  29
ATOM     29  O   UNL     1      78.546  39.166  62.793  1.00  0.00    -0.393 OA
ATOM     30  H   UNL     1      78.146  38.311  63.111  1.00  0.00     0.210 HD
ENDBRANCH  28  29
ENDBRANCH   1  10
TORSDOF 5
ENDMDL
