MODEL 1
REMARK VINA RESULT:    -4.607      0.000      0.000
REMARK INTER + INTRA:          -9.861
REMARK INTER:                  -8.648
REMARK INTRA:                  -1.213
REMARK UNBOUND:                -1.213
REMARK SMILES O=C([O-])CCCCCCCCCCCCCCC(=O)[O-]
REMARK SMILES IDX 10 1 9 2 8 3 7 4 6 5 5 6 4 7 2 8 1 9 3 10 11 11 12 12 13 13
REMARK SMILES IDX 14 14 15 15 16 16 17 17 18 18 19 19 20 20
REMARK H PARENT
REMARK Flexibility Score: inf
ROOT
ATOM      1  C   UNL     1      -5.462  -3.898  -1.893  1.00  0.00     0.000 C 
ENDROOT
BRANCH   1   2
ATOM      2  C   UNL     1      -5.139  -3.011  -0.671  1.00  0.00     0.000 C 
BRANCH   2   3
ATOM      3  C   UNL     1      -6.309  -2.781   0.302  1.00  0.00     0.000 C 
BRANCH   3   4
ATOM      4  C   UNL     1      -7.680  -3.066  -0.334  1.00  0.00     0.000 C 
BRANCH   4   5
ATOM      5  C   UNL     1      -8.507  -4.081   0.471  1.00  0.00     0.000 C 
BRANCH   5   6
ATOM      6  C   UNL     1      -7.763  -4.608   1.708  1.00  0.00     0.006 C 
BRANCH   6   7
ATOM      7  C   UNL     1      -7.693  -6.138   1.694  1.00  0.00     0.053 C 
BRANCH   7   8
ATOM      8  C   UNL     1      -6.838  -6.614   0.563  1.00  0.00     0.041 C 
ATOM      9  O   UNL     1      -5.584  -6.505   0.627  1.00  0.00    -0.550 OA
ATOM     10  O   UNL     1      -7.425  -7.136  -0.581  1.00  0.00    -0.550 OA
ENDBRANCH   7   8
ENDBRANCH   6   7
ENDBRANCH   5   6
ENDBRANCH   4   5
ENDBRANCH   3   4
ENDBRANCH   2   3
ENDBRANCH   1   2
BRANCH   1  11
ATOM     11  C   UNL     1      -4.507  -3.745  -3.089  1.00  0.00     0.000 C 
BRANCH  11  12
ATOM     12  C   UNL     1      -5.245  -3.498  -4.416  1.00  0.00     0.000 C 
BRANCH  12  13
ATOM     13  C   UNL     1      -4.293  -3.403  -5.624  1.00  0.00     0.000 C 
BRANCH  13  14
ATOM     14  C   UNL     1      -4.448  -2.136  -6.485  1.00  0.00     0.000 C 
BRANCH  14  15
ATOM     15  C   UNL     1      -3.378  -1.074  -6.189  1.00  0.00     0.000 C 
BRANCH  15  16
ATOM     16  C   UNL     1      -3.917  -0.002  -5.230  1.00  0.00     0.006 C 
BRANCH  16  17
ATOM     17  C   UNL     1      -4.848   0.992  -5.937  1.00  0.00     0.053 C 
BRANCH  17  18
ATOM     18  C   UNL     1      -4.126   2.239  -6.346  1.00  0.00     0.041 C 
ATOM     19  O   UNL     1      -4.621   2.999  -7.220  1.00  0.00    -0.550 OA
ATOM     20  O   UNL     1      -2.890   2.543  -5.791  1.00  0.00    -0.550 OA
ENDBRANCH  17  18
ENDBRANCH  16  17
ENDBRANCH  15  16
ENDBRANCH  14  15
ENDBRANCH  13  14
ENDBRANCH  12  13
ENDBRANCH  11  12
ENDBRANCH   1  11
TORSDOF 15
ENDMDL
MODEL 2
REMARK VINA RESULT:    -4.589      2.027      8.296
REMARK INTER + INTRA:          -9.826
REMARK INTER:                  -8.226
REMARK INTRA:                  -1.601
REMARK UNBOUND:                -1.213
REMARK SMILES O=C([O-])CCCCCCCCCCCCCCC(=O)[O-]
REMARK SMILES IDX 10 1 9 2 8 3 7 4 6 5 5 6 4 7 2 8 1 9 3 10 11 11 12 12 13 13
REMARK SMILES IDX 14 14 15 15 16 16 17 17 18 18 19 19 20 20
REMARK H PARENT
REMARK Flexibility Score: inf
ROOT
ATOM      1  C   UNL     1      -3.195  -1.152  -2.379  1.00  0.00     0.000 C 
ENDROOT
BRANCH   1   2
ATOM      2  C   UNL     1      -2.148  -2.135  -2.944  1.00  0.00     0.000 C 
BRANCH   2   3
ATOM      3  C   UNL     1      -2.682  -3.143  -3.977  1.00  0.00     0.000 C 
BRANCH   3   4
ATOM      4  C   UNL     1      -4.191  -3.402  -3.833  1.00  0.00     0.000 C 
BRANCH   4   5
ATOM      5  C   UNL     1      -4.906  -3.501  -5.191  1.00  0.00     0.000 C 
BRANCH   5   6
ATOM      6  C   UNL     1      -4.183  -2.725  -6.303  1.00  0.00     0.006 C 
BRANCH   6   7
ATOM      7  C   UNL     1      -4.839  -1.360  -6.532  1.00  0.00     0.053 C 
BRANCH   7   8
ATOM      8  C   UNL     1      -3.946  -0.261  -6.050  1.00  0.00     0.041 C 
ATOM      9  O   UNL     1      -2.764  -0.172  -6.478  1.00  0.00    -0.550 OA
ATOM     10  O   UNL     1      -4.401   0.637  -5.094  1.00  0.00    -0.550 OA
ENDBRANCH   7   8
ENDBRANCH   6   7
ENDBRANCH   5   6
ENDBRANCH   4   5
ENDBRANCH   3   4
ENDBRANCH   2   3
ENDBRANCH   1   2
BRANCH   1  11
ATOM     11  C   UNL     1      -3.485  -1.289  -0.874  1.00  0.00     0.000 C 
BRANCH  11  12
ATOM     12  C   UNL     1      -3.064  -2.655  -0.305  1.00  0.00     0.000 C 
BRANCH  12  13
ATOM     13  C   UNL     1      -4.177  -3.333   0.515  1.00  0.00     0.000 C 
BRANCH  13  14
ATOM     14  C   UNL     1      -5.530  -3.478  -0.207  1.00  0.00     0.000 C 
BRANCH  14  15
ATOM     15  C   UNL     1      -6.649  -2.650   0.443  1.00  0.00     0.000 C 
BRANCH  15  16
ATOM     16  C   UNL     1      -8.031  -3.209   0.074  1.00  0.00     0.006 C 
BRANCH  16  17
ATOM     17  C   UNL     1      -8.076  -4.741   0.146  1.00  0.00     0.053 C 
BRANCH  17  18
ATOM     18  C   UNL     1      -8.821  -5.221   1.353  1.00  0.00     0.041 C 
ATOM     19  O   UNL     1      -8.350  -6.151   2.059  1.00  0.00    -0.550 OA
ATOM     20  O   UNL     1     -10.053  -4.668   1.677  1.00  0.00    -0.550 OA
ENDBRANCH  17  18
ENDBRANCH  16  17
ENDBRANCH  15  16
ENDBRANCH  14  15
ENDBRANCH  13  14
ENDBRANCH  12  13
ENDBRANCH  11  12
ENDBRANCH   1  11
TORSDOF 15
ENDMDL
MODEL 3
REMARK VINA RESULT:    -4.563      1.194      8.805
REMARK INTER + INTRA:          -9.778
REMARK INTER:                  -8.456
REMARK INTRA:                  -1.321
REMARK UNBOUND:                -1.213
REMARK SMILES O=C([O-])CCCCCCCCCCCCCCC(=O)[O-]
REMARK SMILES IDX 10 1 9 2 8 3 7 4 6 5 5 6 4 7 2 8 1 9 3 10 11 11 12 12 13 13
REMARK SMILES IDX 14 14 15 15 16 16 17 17 18 18 19 19 20 20
REMARK H PARENT
REMARK Flexibility Score: inf
ROOT
ATOM      1  C   UNL     1      -4.713  -3.651  -3.463  1.00  0.00     0.000 C 
ENDROOT
BRANCH   1   2
ATOM      2  C   UNL     1      -5.254  -3.405  -4.888  1.00  0.00     0.000 C 
BRANCH   2   3
ATOM      3  C   UNL     1      -4.241  -2.808  -5.882  1.00  0.00     0.000 C 
BRANCH   3   4
ATOM      4  C   UNL     1      -4.741  -1.508  -6.534  1.00  0.00     0.000 C 
BRANCH   4   5
ATOM      5  C   UNL     1      -3.729  -0.357  -6.410  1.00  0.00     0.000 C 
BRANCH   5   6
ATOM      6  C   UNL     1      -3.870   0.420  -5.091  1.00  0.00     0.006 C 
BRANCH   6   7
ATOM      7  C   UNL     1      -4.673   1.708  -5.299  1.00  0.00     0.053 C 
BRANCH   7   8
ATOM      8  C   UNL     1      -3.941   2.641  -6.209  1.00  0.00     0.041 C 
ATOM      9  O   UNL     1      -4.516   3.121  -7.222  1.00  0.00    -0.550 OA
ATOM     10  O   UNL     1      -2.608   2.948  -5.967  1.00  0.00    -0.550 OA
ENDBRANCH   7   8
ENDBRANCH   6   7
ENDBRANCH   5   6
ENDBRANCH   4   5
ENDBRANCH   3   4
ENDBRANCH   2   3
ENDBRANCH   1   2
BRANCH   1  11
ATOM     11  C   UNL     1      -3.998  -2.453  -2.813  1.00  0.00     0.000 C 
BRANCH  11  12
ATOM     12  C   UNL     1      -3.126  -2.857  -1.612  1.00  0.00     0.000 C 
BRANCH  12  13
ATOM     13  C   UNL     1      -3.763  -2.491  -0.258  1.00  0.00     0.000 C 
BRANCH  13  14
ATOM     14  C   UNL     1      -4.824  -3.481   0.259  1.00  0.00     0.000 C 
BRANCH  14  15
ATOM     15  C   UNL     1      -6.214  -2.844   0.415  1.00  0.00     0.000 C 
BRANCH  15  16
ATOM     16  C   UNL     1      -7.211  -3.450  -0.583  1.00  0.00     0.006 C 
BRANCH  16  17
ATOM     17  C   UNL     1      -8.504  -3.915   0.100  1.00  0.00     0.053 C 
BRANCH  17  18
ATOM     18  C   UNL     1      -8.366  -5.289   0.679  1.00  0.00     0.041 C 
ATOM     19  O   UNL     1      -7.794  -6.198   0.022  1.00  0.00    -0.550 OA
ATOM     20  O   UNL     1      -8.900  -5.576   1.929  1.00  0.00    -0.550 OA
ENDBRANCH  17  18
ENDBRANCH  16  17
ENDBRANCH  15  16
ENDBRANCH  14  15
ENDBRANCH  13  14
ENDBRANCH  12  13
ENDBRANCH  11  12
ENDBRANCH   1  11
TORSDOF 15
ENDMDL
MODEL 4
REMARK VINA RESULT:    -4.539      1.433      2.376
REMARK INTER + INTRA:          -9.732
REMARK INTER:                  -8.200
REMARK INTRA:                  -1.532
REMARK UNBOUND:                -1.213
REMARK SMILES O=C([O-])CCCCCCCCCCCCCCC(=O)[O-]
REMARK SMILES IDX 10 1 9 2 8 3 7 4 6 5 5 6 4 7 2 8 1 9 3 10 11 11 12 12 13 13
REMARK SMILES IDX 14 14 15 15 16 16 17 17 18 18 19 19 20 20
REMARK H PARENT
REMARK Flexibility Score: inf
ROOT
ATOM      1  C   UNL     1      -2.654  -2.706  -2.907  1.00  0.00     0.000 C 
ENDROOT
BRANCH   1   2
ATOM      2  C   UNL     1      -3.626  -1.748  -2.186  1.00  0.00     0.000 C 
BRANCH   2   3
ATOM      3  C   UNL     1      -3.672  -1.887  -0.654  1.00  0.00     0.000 C 
BRANCH   3   4
ATOM      4  C   UNL     1      -3.917  -3.334  -0.194  1.00  0.00     0.000 C 
BRANCH   4   5
ATOM      5  C   UNL     1      -5.344  -3.819  -0.500  1.00  0.00     0.000 C 
BRANCH   5   6
ATOM      6  C   UNL     1      -6.390  -3.237   0.464  1.00  0.00     0.006 C 
BRANCH   6   7
ATOM      7  C   UNL     1      -7.804  -3.393  -0.104  1.00  0.00     0.053 C 
BRANCH   7   8
ATOM      8  C   UNL     1      -8.475  -4.594   0.482  1.00  0.00     0.041 C 
ATOM      9  O   UNL     1      -8.085  -5.752   0.173  1.00  0.00    -0.550 OA
ATOM     10  O   UNL     1      -9.560  -4.439   1.334  1.00  0.00    -0.550 OA
ENDBRANCH   7   8
ENDBRANCH   6   7
ENDBRANCH   5   6
ENDBRANCH   4   5
ENDBRANCH   3   4
ENDBRANCH   2   3
ENDBRANCH   1   2
BRANCH   1  11
ATOM     11  C   UNL     1      -3.299  -3.648  -3.939  1.00  0.00     0.000 C 
BRANCH  11  12
ATOM     12  C   UNL     1      -4.813  -3.424  -4.088  1.00  0.00     0.000 C 
BRANCH  12  13
ATOM     13  C   UNL     1      -5.187  -2.699  -5.394  1.00  0.00     0.000 C 
BRANCH  13  14
ATOM     14  C   UNL     1      -4.002  -2.341  -6.310  1.00  0.00     0.000 C 
BRANCH  14  15
ATOM     15  C   UNL     1      -3.665  -0.842  -6.298  1.00  0.00     0.000 C 
BRANCH  15  16
ATOM     16  C   UNL     1      -4.933   0.006  -6.122  1.00  0.00     0.006 C 
BRANCH  16  17
ATOM     17  C   UNL     1      -4.653   1.322  -5.385  1.00  0.00     0.053 C 
BRANCH  17  18
ATOM     18  C   UNL     1      -3.951   2.313  -6.262  1.00  0.00     0.041 C 
ATOM     19  O   UNL     1      -2.720   2.531  -6.111  1.00  0.00    -0.550 OA
ATOM     20  O   UNL     1      -4.662   3.024  -7.220  1.00  0.00    -0.550 OA
ENDBRANCH  17  18
ENDBRANCH  16  17
ENDBRANCH  15  16
ENDBRANCH  14  15
ENDBRANCH  13  14
ENDBRANCH  12  13
ENDBRANCH  11  12
ENDBRANCH   1  11
TORSDOF 15
ENDMDL
MODEL 5
REMARK VINA RESULT:    -4.528      4.936      7.927
REMARK INTER + INTRA:          -9.711
REMARK INTER:                  -8.444
REMARK INTRA:                  -1.268
REMARK UNBOUND:                -1.213
REMARK SMILES O=C([O-])CCCCCCCCCCCCCCC(=O)[O-]
REMARK SMILES IDX 10 1 9 2 8 3 7 4 6 5 5 6 4 7 2 8 1 9 3 10 11 11 12 12 13 13
REMARK SMILES IDX 14 14 15 15 16 16 17 17 18 18 19 19 20 20
REMARK H PARENT
REMARK Flexibility Score: inf
ROOT
ATOM      1  C   UNL     1      -2.421   3.367  -7.488  1.00  0.00     0.000 C 
ENDROOT
BRANCH   1   2
ATOM      2  C   UNL     1      -3.900   3.131  -7.114  1.00  0.00     0.000 C 
BRANCH   2   3
ATOM      3  C   UNL     1      -4.132   2.416  -5.770  1.00  0.00     0.000 C 
BRANCH   3   4
ATOM      4  C   UNL     1      -5.050   1.189  -5.899  1.00  0.00     0.000 C 
BRANCH   4   5
ATOM      5  C   UNL     1      -4.284  -0.138  -5.772  1.00  0.00     0.000 C 
BRANCH   5   6
ATOM      6  C   UNL     1      -4.948  -1.286  -6.549  1.00  0.00     0.006 C 
BRANCH   6   7
ATOM      7  C   UNL     1      -4.136  -2.578  -6.416  1.00  0.00     0.053 C 
BRANCH   7   8
ATOM      8  C   UNL     1      -4.198  -3.094  -5.013  1.00  0.00     0.041 C 
ATOM      9  O   UNL     1      -5.295  -3.475  -4.526  1.00  0.00    -0.550 OA
ATOM     10  O   UNL     1      -3.053  -3.112  -4.228  1.00  0.00    -0.550 OA
ENDBRANCH   7   8
ENDBRANCH   6   7
ENDBRANCH   5   6
ENDBRANCH   4   5
ENDBRANCH   3   4
ENDBRANCH   2   3
ENDBRANCH   1   2
BRANCH   1  11
ATOM     11  C   UNL     1      -1.496   2.148  -7.321  1.00  0.00     0.000 C 
BRANCH  11  12
ATOM     12  C   UNL     1      -1.147   1.473  -8.658  1.00  0.00     0.000 C 
BRANCH  12  13
ATOM     13  C   UNL     1       0.015   2.164  -9.395  1.00  0.00     0.000 C 
BRANCH  13  14
ATOM     14  C   UNL     1      -0.397   3.072 -10.569  1.00  0.00     0.000 C 
BRANCH  14  15
ATOM     15  C   UNL     1      -1.631   2.555 -11.323  1.00  0.00     0.000 C 
BRANCH  15  16
ATOM     16  C   UNL     1      -2.747   3.610 -11.339  1.00  0.00     0.006 C 
BRANCH  16  17
ATOM     17  C   UNL     1      -3.670   3.459 -12.556  1.00  0.00     0.053 C 
BRANCH  17  18
ATOM     18  C   UNL     1      -3.440   4.539 -13.568  1.00  0.00     0.041 C 
ATOM     19  O   UNL     1      -4.373   4.898 -14.333  1.00  0.00    -0.550 OA
ATOM     20  O   UNL     1      -2.185   5.122 -13.693  1.00  0.00    -0.550 OA
ENDBRANCH  17  18
ENDBRANCH  16  17
ENDBRANCH  15  16
ENDBRANCH  14  15
ENDBRANCH  13  14
ENDBRANCH  12  13
ENDBRANCH  11  12
ENDBRANCH   1  11
TORSDOF 15
ENDMDL
MODEL 6
REMARK VINA RESULT:    -4.493      2.813      7.353
REMARK INTER + INTRA:          -9.646
REMARK INTER:                  -7.958
REMARK INTRA:                  -1.689
REMARK UNBOUND:                -1.213
REMARK SMILES O=C([O-])CCCCCCCCCCCCCCC(=O)[O-]
REMARK SMILES IDX 10 1 9 2 8 3 7 4 6 5 5 6 4 7 2 8 1 9 3 10 11 11 12 12 13 13
REMARK SMILES IDX 14 14 15 15 16 16 17 17 18 18 19 19 20 20
REMARK H PARENT
REMARK Flexibility Score: inf
ROOT
ATOM      1  C   UNL     1      -4.014  -2.516  -6.451  1.00  0.00     0.000 C 
ENDROOT
BRANCH   1   2
ATOM      2  C   UNL     1      -5.040  -1.363  -6.472  1.00  0.00     0.000 C 
BRANCH   2   3
ATOM      3  C   UNL     1      -4.559  -0.043  -5.845  1.00  0.00     0.000 C 
BRANCH   3   4
ATOM      4  C   UNL     1      -3.176  -0.166  -5.183  1.00  0.00     0.000 C 
BRANCH   4   5
ATOM      5  C   UNL     1      -3.168   0.338  -3.730  1.00  0.00     0.000 C 
BRANCH   5   6
ATOM      6  C   UNL     1      -2.258  -0.498  -2.816  1.00  0.00     0.006 C 
BRANCH   6   7
ATOM      7  C   UNL     1      -2.690  -0.370  -1.352  1.00  0.00     0.053 C 
BRANCH   7   8
ATOM      8  C   UNL     1      -2.014  -1.408  -0.513  1.00  0.00     0.041 C 
ATOM      9  O   UNL     1      -1.653  -2.501  -1.026  1.00  0.00    -0.550 OA
ATOM     10  O   UNL     1      -1.822  -1.189   0.844  1.00  0.00    -0.550 OA
ENDBRANCH   7   8
ENDBRANCH   6   7
ENDBRANCH   5   6
ENDBRANCH   4   5
ENDBRANCH   3   4
ENDBRANCH   2   3
ENDBRANCH   1   2
BRANCH   1  11
ATOM     11  C   UNL     1      -4.380  -3.709  -5.551  1.00  0.00     0.000 C 
BRANCH  11  12
ATOM     12  C   UNL     1      -5.344  -3.328  -4.414  1.00  0.00     0.000 C 
BRANCH  12  13
ATOM     13  C   UNL     1      -4.669  -3.327  -3.030  1.00  0.00     0.000 C 
BRANCH  13  14
ATOM     14  C   UNL     1      -5.546  -3.834  -1.870  1.00  0.00     0.000 C 
BRANCH  14  15
ATOM     15  C   UNL     1      -5.214  -3.165  -0.528  1.00  0.00     0.000 C 
BRANCH  15  16
ATOM     16  C   UNL     1      -6.495  -2.804   0.239  1.00  0.00     0.006 C 
BRANCH  16  17
ATOM     17  C   UNL     1      -7.750  -3.391  -0.420  1.00  0.00     0.053 C 
BRANCH  17  18
ATOM     18  C   UNL     1      -8.289  -4.559   0.347  1.00  0.00     0.041 C 
ATOM     19  O   UNL     1      -9.270  -4.409   1.121  1.00  0.00    -0.550 OA
ATOM     20  O   UNL     1      -7.684  -5.804   0.235  1.00  0.00    -0.550 OA
ENDBRANCH  17  18
ENDBRANCH  16  17
ENDBRANCH  15  16
ENDBRANCH  14  15
ENDBRANCH  13  14
ENDBRANCH  12  13
ENDBRANCH  11  12
ENDBRANCH   1  11
TORSDOF 15
ENDMDL
MODEL 7
REMARK VINA RESULT:    -4.476      1.989      7.779
REMARK INTER + INTRA:          -9.614
REMARK INTER:                  -7.576
REMARK INTRA:                  -2.038
REMARK UNBOUND:                -1.213
REMARK SMILES O=C([O-])CCCCCCCCCCCCCCC(=O)[O-]
REMARK SMILES IDX 10 1 9 2 8 3 7 4 6 5 5 6 4 7 2 8 1 9 3 10 11 11 12 12 13 13
REMARK SMILES IDX 14 14 15 15 16 16 17 17 18 18 19 19 20 20
REMARK H PARENT
REMARK Flexibility Score: inf
ROOT
ATOM      1  C   UNL     1      -1.870  -2.461  -3.884  1.00  0.00     0.000 C 
ENDROOT
BRANCH   1   2
ATOM      2  C   UNL     1      -2.409  -3.885  -3.633  1.00  0.00     0.000 C 
BRANCH   2   3
ATOM      3  C   UNL     1      -3.864  -4.124  -4.073  1.00  0.00     0.000 C 
BRANCH   3   4
ATOM      4  C   UNL     1      -4.201  -3.450  -5.414  1.00  0.00     0.000 C 
BRANCH   4   5
ATOM      5  C   UNL     1      -5.445  -2.552  -5.329  1.00  0.00     0.000 C 
BRANCH   5   6
ATOM      6  C   UNL     1      -5.342  -1.304  -6.220  1.00  0.00     0.006 C 
BRANCH   6   7
ATOM      7  C   UNL     1      -4.015  -0.575  -5.987  1.00  0.00     0.053 C 
BRANCH   7   8
ATOM      8  C   UNL     1      -4.260   0.845  -5.586  1.00  0.00     0.041 C 
ATOM      9  O   UNL     1      -3.362   1.501  -4.994  1.00  0.00    -0.550 OA
ATOM     10  O   UNL     1      -5.496   1.432  -5.825  1.00  0.00    -0.550 OA
ENDBRANCH   7   8
ENDBRANCH   6   7
ENDBRANCH   5   6
ENDBRANCH   4   5
ENDBRANCH   3   4
ENDBRANCH   2   3
ENDBRANCH   1   2
BRANCH   1  11
ATOM     11  C   UNL     1      -1.774  -1.561  -2.639  1.00  0.00     0.000 C 
BRANCH  11  12
ATOM     12  C   UNL     1      -3.090  -0.826  -2.330  1.00  0.00     0.000 C 
BRANCH  12  13
ATOM     13  C   UNL     1      -3.623  -1.120  -0.915  1.00  0.00     0.000 C 
BRANCH  13  14
ATOM     14  C   UNL     1      -3.065  -2.394  -0.254  1.00  0.00     0.000 C 
BRANCH  14  15
ATOM     15  C   UNL     1      -4.139  -3.467  -0.014  1.00  0.00     0.000 C 
BRANCH  15  16
ATOM     16  C   UNL     1      -5.460  -3.085  -0.698  1.00  0.00     0.006 C 
BRANCH  16  17
ATOM     17  C   UNL     1      -6.618  -2.970   0.302  1.00  0.00     0.053 C 
BRANCH  17  18
ATOM     18  C   UNL     1      -7.485  -4.191   0.294  1.00  0.00     0.041 C 
ATOM     19  O   UNL     1      -6.970  -5.332   0.155  1.00  0.00    -0.550 OA
ATOM     20  O   UNL     1      -8.864  -4.068   0.404  1.00  0.00    -0.550 OA
ENDBRANCH  17  18
ENDBRANCH  16  17
ENDBRANCH  15  16
ENDBRANCH  14  15
ENDBRANCH  13  14
ENDBRANCH  12  13
ENDBRANCH  11  12
ENDBRANCH   1  11
TORSDOF 15
ENDMDL
MODEL 8
REMARK VINA RESULT:    -4.459      5.876     11.557
REMARK INTER + INTRA:          -9.582
REMARK INTER:                  -7.834
REMARK INTRA:                  -1.749
REMARK UNBOUND:                -1.213
REMARK SMILES O=C([O-])CCCCCCCCCCCCCCC(=O)[O-]
REMARK SMILES IDX 10 1 9 2 8 3 7 4 6 5 5 6 4 7 2 8 1 9 3 10 11 11 12 12 13 13
REMARK SMILES IDX 14 14 15 15 16 16 17 17 18 18 19 19 20 20
REMARK H PARENT
REMARK Flexibility Score: inf
ROOT
ATOM      1  C   UNL     1      -1.298   1.332  -7.879  1.00  0.00     0.000 C 
ENDROOT
BRANCH   1   2
ATOM      2  C   UNL     1      -0.219   1.127  -8.964  1.00  0.00     0.000 C 
BRANCH   2   3
ATOM      3  C   UNL     1       0.050   2.347  -9.863  1.00  0.00     0.000 C 
BRANCH   3   4
ATOM      4  C   UNL     1      -1.059   2.578 -10.903  1.00  0.00     0.000 C 
BRANCH   4   5
ATOM      5  C   UNL     1      -1.760   3.935 -10.729  1.00  0.00     0.000 C 
BRANCH   5   6
ATOM      6  C   UNL     1      -3.254   3.883 -11.085  1.00  0.00     0.006 C 
BRANCH   6   7
ATOM      7  C   UNL     1      -3.459   3.358 -12.510  1.00  0.00     0.053 C 
BRANCH   7   8
ATOM      8  C   UNL     1      -3.413   4.482 -13.495  1.00  0.00     0.041 C 
ATOM      9  O   UNL     1      -4.438   5.183 -13.706  1.00  0.00    -0.550 OA
ATOM     10  O   UNL     1      -2.251   4.728 -14.215  1.00  0.00    -0.550 OA
ENDBRANCH   7   8
ENDBRANCH   6   7
ENDBRANCH   5   6
ENDBRANCH   4   5
ENDBRANCH   3   4
ENDBRANCH   2   3
ENDBRANCH   1   2
BRANCH   1  11
ATOM     11  C   UNL     1      -0.909   2.284  -6.733  1.00  0.00     0.000 C 
BRANCH  11  12
ATOM     12  C   UNL     1      -1.598   3.655  -6.835  1.00  0.00     0.000 C 
BRANCH  12  13
ATOM     13  C   UNL     1      -3.049   3.563  -7.341  1.00  0.00     0.000 C 
BRANCH  13  14
ATOM     14  C   UNL     1      -4.104   3.255  -6.261  1.00  0.00     0.000 C 
BRANCH  14  15
ATOM     15  C   UNL     1      -4.778   1.887  -6.452  1.00  0.00     0.000 C 
BRANCH  15  16
ATOM     16  C   UNL     1      -4.432   0.938  -5.295  1.00  0.00     0.006 C 
BRANCH  16  17
ATOM     17  C   UNL     1      -3.674  -0.307  -5.774  1.00  0.00     0.053 C 
BRANCH  17  18
ATOM     18  C   UNL     1      -4.606  -1.390  -6.223  1.00  0.00     0.041 C 
ATOM     19  O   UNL     1      -5.852  -1.210  -6.183  1.00  0.00    -0.550 OA
ATOM     20  O   UNL     1      -4.102  -2.612  -6.650  1.00  0.00    -0.550 OA
ENDBRANCH  17  18
ENDBRANCH  16  17
ENDBRANCH  15  16
ENDBRANCH  14  15
ENDBRANCH  13  14
ENDBRANCH  12  13
ENDBRANCH  11  12
ENDBRANCH   1  11
TORSDOF 15
ENDMDL
MODEL 9
REMARK VINA RESULT:    -4.379      1.254      8.548
REMARK INTER + INTRA:          -9.433
REMARK INTER:                  -7.985
REMARK INTRA:                  -1.448
REMARK UNBOUND:                -1.213
REMARK SMILES O=C([O-])CCCCCCCCCCCCCCC(=O)[O-]
REMARK SMILES IDX 10 1 9 2 8 3 7 4 6 5 5 6 4 7 2 8 1 9 3 10 11 11 12 12 13 13
REMARK SMILES IDX 14 14 15 15 16 16 17 17 18 18 19 19 20 20
REMARK H PARENT
REMARK Flexibility Score: inf
ROOT
ATOM      1  C   UNL     1      -4.014  -2.931  -2.814  1.00  0.00     0.000 C 
ENDROOT
BRANCH   1   2
ATOM      2  C   UNL     1      -5.070  -3.691  -3.642  1.00  0.00     0.000 C 
BRANCH   2   3
ATOM      3  C   UNL     1      -4.831  -3.702  -5.163  1.00  0.00     0.000 C 
BRANCH   3   4
ATOM      4  C   UNL     1      -4.095  -2.446  -5.660  1.00  0.00     0.000 C 
BRANCH   4   5
ATOM      5  C   UNL     1      -5.007  -1.505  -6.464  1.00  0.00     0.000 C 
BRANCH   5   6
ATOM      6  C   UNL     1      -4.817  -0.027  -6.090  1.00  0.00     0.006 C 
BRANCH   6   7
ATOM      7  C   UNL     1      -3.596   0.154  -5.182  1.00  0.00     0.053 C 
BRANCH   7   8
ATOM      8  C   UNL     1      -2.499   0.860  -5.912  1.00  0.00     0.041 C 
ATOM      9  O   UNL     1      -1.861   1.791  -5.351  1.00  0.00    -0.550 OA
ATOM     10  O   UNL     1      -2.210   0.524  -7.228  1.00  0.00    -0.550 OA
ENDBRANCH   7   8
ENDBRANCH   6   7
ENDBRANCH   5   6
ENDBRANCH   4   5
ENDBRANCH   3   4
ENDBRANCH   2   3
ENDBRANCH   1   2
BRANCH   1  11
ATOM     11  C   UNL     1      -3.422  -3.709  -1.625  1.00  0.00     0.000 C 
BRANCH  11  12
ATOM     12  C   UNL     1      -4.378  -3.783  -0.423  1.00  0.00     0.000 C 
BRANCH  12  13
ATOM     13  C   UNL     1      -5.108  -2.455  -0.154  1.00  0.00     0.000 C 
BRANCH  13  14
ATOM     14  C   UNL     1      -6.554  -2.591   0.359  1.00  0.00     0.000 C 
BRANCH  14  15
ATOM     15  C   UNL     1      -7.438  -3.451  -0.557  1.00  0.00     0.000 C 
BRANCH  15  16
ATOM     16  C   UNL     1      -8.524  -4.178   0.250  1.00  0.00     0.006 C 
BRANCH  16  17
ATOM     17  C   UNL     1      -7.932  -5.203   1.226  1.00  0.00     0.053 C 
BRANCH  17  18
ATOM     18  C   UNL     1      -7.207  -6.301   0.510  1.00  0.00     0.041 C 
ATOM     19  O   UNL     1      -7.786  -6.954  -0.398  1.00  0.00    -0.550 OA
ATOM     20  O   UNL     1      -5.907  -6.629   0.871  1.00  0.00    -0.550 OA
ENDBRANCH  17  18
ENDBRANCH  16  17
ENDBRANCH  15  16
ENDBRANCH  14  15
ENDBRANCH  13  14
ENDBRANCH  12  13
ENDBRANCH  11  12
ENDBRANCH   1  11
TORSDOF 15
ENDMDL
