MODEL 1
REMARK VINA RESULT:    -3.986      0.000      0.000
REMARK INTER + INTRA:         -10.530
REMARK INTER:                  -7.715
REMARK INTRA:                  -2.815
REMARK UNBOUND:                -2.815
REMARK SMILES CCCCCCCCCCCCCCCCCC(=O)[O-]
REMARK SMILES IDX 10 1 11 2 12 3 13 4 14 5 15 6 16 7 17 8 18 9 19 10 20 11
REMARK SMILES IDX 9 12 8 13 7 14 6 15 5 16 4 17 3 18 2 19 1 20
REMARK H PARENT
REMARK Flexibility Score: inf
ROOT
ATOM      1  C   UNL     1      11.842  27.123  35.304  1.00  0.00     0.000 C 
ENDROOT
BRANCH   1   2
ATOM      2  C   UNL     1      11.670  28.626  35.589  1.00  0.00     0.000 C 
BRANCH   2   3
ATOM      3  C   UNL     1      12.955  29.272  36.148  1.00  0.00     0.000 C 
BRANCH   3   4
ATOM      4  C   UNL     1      13.940  28.262  36.769  1.00  0.00     0.000 C 
BRANCH   4   5
ATOM      5  C   UNL     1      15.317  28.185  36.083  1.00  0.00     0.000 C 
BRANCH   5   6
ATOM      6  C   UNL     1      15.321  28.568  34.591  1.00  0.00     0.000 C 
BRANCH   6   7
ATOM      7  C   UNL     1      16.729  28.556  33.979  1.00  0.00     0.006 C 
BRANCH   7   8
ATOM      8  C   UNL     1      16.709  27.963  32.566  1.00  0.00     0.053 C 
BRANCH   8   9
ATOM      9  C   UNL     1      16.858  29.045  31.544  1.00  0.00     0.041 C 
ATOM     10  O   UNL     1      17.125  28.757  30.348  1.00  0.00    -0.550 OA
ATOM     11  O   UNL     1      16.639  30.370  31.900  1.00  0.00    -0.550 OA
ENDBRANCH   8   9
ENDBRANCH   7   8
ENDBRANCH   6   7
ENDBRANCH   5   6
ENDBRANCH   4   5
ENDBRANCH   3   4
ENDBRANCH   2   3
ENDBRANCH   1   2
BRANCH   1  12
ATOM     12  C   UNL     1      12.053  26.820  33.813  1.00  0.00     0.000 C 
BRANCH  12  13
ATOM     13  C   UNL     1      12.659  25.425  33.572  1.00  0.00    -0.000 C 
BRANCH  13  14
ATOM     14  C   UNL     1      14.138  25.495  33.155  1.00  0.00    -0.000 C 
BRANCH  14  15
ATOM     15  C   UNL     1      14.760  24.099  32.971  1.00  0.00    -0.000 C 
BRANCH  15  16
ATOM     16  C   UNL     1      16.135  23.973  33.647  1.00  0.00    -0.000 C 
BRANCH  16  17
ATOM     17  C   UNL     1      16.279  24.890  34.871  1.00  0.00    -0.000 C 
BRANCH  17  18
ATOM     18  C   UNL     1      16.336  24.069  36.168  1.00  0.00    -0.000 C 
BRANCH  18  19
ATOM     19  C   UNL     1      14.969  23.484  36.556  1.00  0.00    -0.003 C 
ATOM     20  C   UNL     1      13.949  24.560  36.931  1.00  0.00     0.004 C 
ENDBRANCH  18  19
ENDBRANCH  17  18
ENDBRANCH  16  17
ENDBRANCH  15  16
ENDBRANCH  14  15
ENDBRANCH  13  14
ENDBRANCH  12  13
ENDBRANCH   1  12
TORSDOF 16
ENDMDL
MODEL 2
REMARK VINA RESULT:    -3.756      2.151      2.798
REMARK INTER + INTRA:         -10.085
REMARK INTER:                  -7.868
REMARK INTRA:                  -2.217
REMARK UNBOUND:                -2.815
REMARK SMILES CCCCCCCCCCCCCCCCCC(=O)[O-]
REMARK SMILES IDX 10 1 11 2 12 3 13 4 14 5 15 6 16 7 17 8 18 9 19 10 20 11
REMARK SMILES IDX 9 12 8 13 7 14 6 15 5 16 4 17 3 18 2 19 1 20
REMARK H PARENT
REMARK Flexibility Score: inf
ROOT
ATOM      1  C   UNL     1      12.981  26.022  35.405  1.00  0.00     0.000 C 
ENDROOT
BRANCH   1   2
ATOM      2  C   UNL     1      12.049  26.910  36.248  1.00  0.00     0.000 C 
BRANCH   2   3
ATOM      3  C   UNL     1      11.411  28.048  35.423  1.00  0.00     0.000 C 
BRANCH   3   4
ATOM      4  C   UNL     1      11.816  29.460  35.893  1.00  0.00     0.000 C 
BRANCH   4   5
ATOM      5  C   UNL     1      13.136  29.532  36.685  1.00  0.00     0.000 C 
BRANCH   5   6
ATOM      6  C   UNL     1      14.370  29.935  35.855  1.00  0.00     0.000 C 
BRANCH   6   7
ATOM      7  C   UNL     1      15.357  28.775  35.659  1.00  0.00     0.006 C 
BRANCH   7   8
ATOM      8  C   UNL     1      15.532  28.449  34.172  1.00  0.00     0.053 C 
BRANCH   8   9
ATOM      9  C   UNL     1      16.486  27.310  33.997  1.00  0.00     0.041 C 
ATOM     10  O   UNL     1      16.872  26.647  34.995  1.00  0.00    -0.550 OA
ATOM     11  O   UNL     1      16.899  26.940  32.723  1.00  0.00    -0.550 OA
ENDBRANCH   8   9
ENDBRANCH   7   8
ENDBRANCH   6   7
ENDBRANCH   5   6
ENDBRANCH   4   5
ENDBRANCH   3   4
ENDBRANCH   2   3
ENDBRANCH   1   2
BRANCH   1  12
ATOM     12  C   UNL     1      12.644  26.058  33.906  1.00  0.00     0.000 C 
BRANCH  12  13
ATOM     13  C   UNL     1      13.607  25.205  33.061  1.00  0.00    -0.000 C 
BRANCH  13  14
ATOM     14  C   UNL     1      14.452  24.251  33.922  1.00  0.00    -0.000 C 
BRANCH  14  15
ATOM     15  C   UNL     1      15.544  23.538  33.105  1.00  0.00    -0.000 C 
BRANCH  15  16
ATOM     16  C   UNL     1      16.548  22.786  33.994  1.00  0.00    -0.000 C 
BRANCH  16  17
ATOM     17  C   UNL     1      16.114  22.739  35.467  1.00  0.00    -0.000 C 
BRANCH  17  18
ATOM     18  C   UNL     1      15.715  21.313  35.875  1.00  0.00    -0.000 C 
BRANCH  18  19
ATOM     19  C   UNL     1      16.306  20.244  34.941  1.00  0.00    -0.003 C 
ATOM     20  C   UNL     1      15.275  19.201  34.508  1.00  0.00     0.004 C 
ENDBRANCH  18  19
ENDBRANCH  17  18
ENDBRANCH  16  17
ENDBRANCH  15  16
ENDBRANCH  14  15
ENDBRANCH  13  14
ENDBRANCH  12  13
ENDBRANCH   1  12
TORSDOF 16
ENDMDL
MODEL 3
REMARK VINA RESULT:    -3.727      2.808      5.697
REMARK INTER + INTRA:         -10.027
REMARK INTER:                  -8.003
REMARK INTRA:                  -2.025
REMARK UNBOUND:                -2.815
REMARK SMILES CCCCCCCCCCCCCCCCCC(=O)[O-]
REMARK SMILES IDX 10 1 11 2 12 3 13 4 14 5 15 6 16 7 17 8 18 9 19 10 20 11
REMARK SMILES IDX 9 12 8 13 7 14 6 15 5 16 4 17 3 18 2 19 1 20
REMARK H PARENT
REMARK Flexibility Score: inf
ROOT
ATOM      1  C   UNL     1      11.657  28.449  35.709  1.00  0.00     0.000 C 
ENDROOT
BRANCH   1   2
ATOM      2  C   UNL     1      12.053  27.267  36.612  1.00  0.00     0.000 C 
BRANCH   2   3
ATOM      3  C   UNL     1      12.681  26.102  35.818  1.00  0.00     0.000 C 
BRANCH   3   4
ATOM      4  C   UNL     1      12.528  26.236  34.290  1.00  0.00     0.000 C 
BRANCH   4   5
ATOM      5  C   UNL     1      13.848  26.219  33.497  1.00  0.00     0.000 C 
BRANCH   5   6
ATOM      6  C   UNL     1      14.377  24.815  33.146  1.00  0.00     0.000 C 
BRANCH   6   7
ATOM      7  C   UNL     1      15.905  24.714  33.250  1.00  0.00     0.006 C 
BRANCH   7   8
ATOM      8  C   UNL     1      16.341  24.452  34.695  1.00  0.00     0.053 C 
BRANCH   8   9
ATOM      9  C   UNL     1      15.598  23.283  35.260  1.00  0.00     0.041 C 
ATOM     10  O   UNL     1      14.853  23.430  36.265  1.00  0.00    -0.550 OA
ATOM     11  O   UNL     1      15.677  22.043  34.638  1.00  0.00    -0.550 OA
ENDBRANCH   8   9
ENDBRANCH   7   8
ENDBRANCH   6   7
ENDBRANCH   5   6
ENDBRANCH   4   5
ENDBRANCH   3   4
ENDBRANCH   2   3
ENDBRANCH   1   2
BRANCH   1  12
ATOM     12  C   UNL     1      12.391  29.749  36.074  1.00  0.00     0.000 C 
BRANCH  12  13
ATOM     13  C   UNL     1      13.840  29.503  36.532  1.00  0.00    -0.000 C 
BRANCH  13  14
ATOM     14  C   UNL     1      14.870  30.075  35.544  1.00  0.00    -0.000 C 
BRANCH  14  15
ATOM     15  C   UNL     1      15.708  28.974  34.870  1.00  0.00    -0.000 C 
BRANCH  15  16
ATOM     16  C   UNL     1      16.302  29.425  33.525  1.00  0.00    -0.000 C 
BRANCH  16  17
ATOM     17  C   UNL     1      16.865  28.254  32.706  1.00  0.00    -0.000 C 
BRANCH  17  18
ATOM     18  C   UNL     1      17.069  28.661  31.239  1.00  0.00    -0.000 C 
BRANCH  18  19
ATOM     19  C   UNL     1      16.746  30.142  30.986  1.00  0.00    -0.003 C 
ATOM     20  C   UNL     1      16.631  30.477  29.498  1.00  0.00     0.004 C 
ENDBRANCH  18  19
ENDBRANCH  17  18
ENDBRANCH  16  17
ENDBRANCH  15  16
ENDBRANCH  14  15
ENDBRANCH  13  14
ENDBRANCH  12  13
ENDBRANCH   1  12
TORSDOF 16
ENDMDL
MODEL 4
REMARK VINA RESULT:    -3.705      3.143      5.836
REMARK INTER + INTRA:          -9.985
REMARK INTER:                  -7.555
REMARK INTRA:                  -2.430
REMARK UNBOUND:                -2.815
REMARK SMILES CCCCCCCCCCCCCCCCCC(=O)[O-]
REMARK SMILES IDX 10 1 11 2 12 3 13 4 14 5 15 6 16 7 17 8 18 9 19 10 20 11
REMARK SMILES IDX 9 12 8 13 7 14 6 15 5 16 4 17 3 18 2 19 1 20
REMARK H PARENT
REMARK Flexibility Score: inf
ROOT
ATOM      1  C   UNL     1      11.763  27.528  34.858  1.00  0.00     0.000 C 
ENDROOT
BRANCH   1   2
ATOM      2  C   UNL     1      12.287  26.419  35.788  1.00  0.00     0.000 C 
BRANCH   2   3
ATOM      3  C   UNL     1      13.412  25.586  35.138  1.00  0.00     0.000 C 
BRANCH   3   4
ATOM      4  C   UNL     1      13.230  25.370  33.622  1.00  0.00     0.000 C 
BRANCH   4   5
ATOM      5  C   UNL     1      14.396  24.647  32.920  1.00  0.00     0.000 C 
BRANCH   5   6
ATOM      6  C   UNL     1      15.798  25.024  33.435  1.00  0.00     0.000 C 
BRANCH   6   7
ATOM      7  C   UNL     1      16.618  23.803  33.873  1.00  0.00     0.006 C 
BRANCH   7   8
ATOM      8  C   UNL     1      15.932  22.500  33.447  1.00  0.00     0.053 C 
BRANCH   8   9
ATOM      9  C   UNL     1      15.808  21.571  34.613  1.00  0.00     0.041 C 
ATOM     10  O   UNL     1      15.341  21.984  35.707  1.00  0.00    -0.550 OA
ATOM     11  O   UNL     1      16.148  20.231  34.472  1.00  0.00    -0.550 OA
ENDBRANCH   8   9
ENDBRANCH   7   8
ENDBRANCH   6   7
ENDBRANCH   5   6
ENDBRANCH   4   5
ENDBRANCH   3   4
ENDBRANCH   2   3
ENDBRANCH   1   2
BRANCH   1  12
ATOM     12  C   UNL     1      11.483  28.844  35.599  1.00  0.00     0.000 C 
BRANCH  12  13
ATOM     13  C   UNL     1      12.575  29.189  36.628  1.00  0.00    -0.000 C 
BRANCH  13  14
ATOM     14  C   UNL     1      13.741  29.974  36.002  1.00  0.00    -0.000 C 
BRANCH  14  15
ATOM     15  C   UNL     1      15.113  29.430  36.439  1.00  0.00    -0.000 C 
BRANCH  15  16
ATOM     16  C   UNL     1      15.660  28.366  35.474  1.00  0.00    -0.000 C 
BRANCH  16  17
ATOM     17  C   UNL     1      15.294  28.652  34.010  1.00  0.00    -0.000 C 
BRANCH  17  18
ATOM     18  C   UNL     1      16.548  28.663  33.124  1.00  0.00    -0.000 C 
BRANCH  18  19
ATOM     19  C   UNL     1      16.647  29.929  32.257  1.00  0.00    -0.003 C 
ATOM     20  C   UNL     1      16.299  31.203  33.030  1.00  0.00     0.004 C 
ENDBRANCH  18  19
ENDBRANCH  17  18
ENDBRANCH  16  17
ENDBRANCH  15  16
ENDBRANCH  14  15
ENDBRANCH  13  14
ENDBRANCH  12  13
ENDBRANCH   1  12
TORSDOF 16
ENDMDL
MODEL 5
REMARK VINA RESULT:    -3.682      2.648      5.755
REMARK INTER + INTRA:          -9.941
REMARK INTER:                  -7.132
REMARK INTRA:                  -2.809
REMARK UNBOUND:                -2.815
REMARK SMILES CCCCCCCCCCCCCCCCCC(=O)[O-]
REMARK SMILES IDX 10 1 11 2 12 3 13 4 14 5 15 6 16 7 17 8 18 9 19 10 20 11
REMARK SMILES IDX 9 12 8 13 7 14 6 15 5 16 4 17 3 18 2 19 1 20
REMARK H PARENT
REMARK Flexibility Score: inf
ROOT
ATOM      1  C   UNL     1      14.245  25.355  32.996  1.00  0.00     0.000 C 
ENDROOT
BRANCH   1   2
ATOM      2  C   UNL     1      12.869  25.322  33.685  1.00  0.00     0.000 C 
BRANCH   2   3
ATOM      3  C   UNL     1      12.597  26.589  34.523  1.00  0.00     0.000 C 
BRANCH   3   4
ATOM      4  C   UNL     1      12.710  26.366  36.044  1.00  0.00     0.000 C 
BRANCH   4   5
ATOM      5  C   UNL     1      13.601  25.183  36.467  1.00  0.00     0.000 C 
BRANCH   5   6
ATOM      6  C   UNL     1      15.086  25.534  36.685  1.00  0.00     0.000 C 
BRANCH   6   7
ATOM      7  C   UNL     1      16.026  24.363  36.363  1.00  0.00     0.006 C 
BRANCH   7   8
ATOM      8  C   UNL     1      15.251  23.187  35.759  1.00  0.00     0.053 C 
BRANCH   8   9
ATOM      9  C   UNL     1      15.970  22.648  34.563  1.00  0.00     0.041 C 
ATOM     10  O   UNL     1      15.590  21.576  34.023  1.00  0.00    -0.550 OA
ATOM     11  O   UNL     1      17.022  23.364  34.005  1.00  0.00    -0.550 OA
ENDBRANCH   8   9
ENDBRANCH   7   8
ENDBRANCH   6   7
ENDBRANCH   5   6
ENDBRANCH   4   5
ENDBRANCH   3   4
ENDBRANCH   2   3
ENDBRANCH   1   2
BRANCH   1  12
ATOM     12  C   UNL     1      14.895  26.747  33.030  1.00  0.00     0.000 C 
BRANCH  12  13
ATOM     13  C   UNL     1      16.425  26.684  33.193  1.00  0.00    -0.000 C 
BRANCH  13  14
ATOM     14  C   UNL     1      16.950  27.728  34.193  1.00  0.00    -0.000 C 
BRANCH  14  15
ATOM     15  C   UNL     1      15.815  28.545  34.835  1.00  0.00    -0.000 C 
BRANCH  15  16
ATOM     16  C   UNL     1      15.879  30.036  34.464  1.00  0.00    -0.000 C 
BRANCH  16  17
ATOM     17  C   UNL     1      16.967  30.339  33.422  1.00  0.00    -0.000 C 
BRANCH  17  18
ATOM     18  C   UNL     1      16.372  31.061  32.204  1.00  0.00    -0.000 C 
BRANCH  18  19
ATOM     19  C   UNL     1      17.113  30.726  30.900  1.00  0.00    -0.003 C 
ATOM     20  C   UNL     1      16.781  29.329  30.373  1.00  0.00     0.004 C 
ENDBRANCH  18  19
ENDBRANCH  17  18
ENDBRANCH  16  17
ENDBRANCH  15  16
ENDBRANCH  14  15
ENDBRANCH  13  14
ENDBRANCH  12  13
ENDBRANCH   1  12
TORSDOF 16
ENDMDL
MODEL 6
REMARK VINA RESULT:    -3.671      3.676      7.007
REMARK INTER + INTRA:          -9.920
REMARK INTER:                  -8.132
REMARK INTRA:                  -1.788
REMARK UNBOUND:                -2.815
REMARK SMILES CCCCCCCCCCCCCCCCCC(=O)[O-]
REMARK SMILES IDX 10 1 11 2 12 3 13 4 14 5 15 6 16 7 17 8 18 9 19 10 20 11
REMARK SMILES IDX 9 12 8 13 7 14 6 15 5 16 4 17 3 18 2 19 1 20
REMARK H PARENT
REMARK Flexibility Score: inf
ROOT
ATOM      1  C   UNL     1      13.175  27.382  34.532  1.00  0.00     0.000 C 
ENDROOT
BRANCH   1   2
ATOM      2  C   UNL     1      12.849  26.084  33.771  1.00  0.00     0.000 C 
BRANCH   2   3
ATOM      3  C   UNL     1      13.747  24.905  34.201  1.00  0.00     0.000 C 
BRANCH   3   4
ATOM      4  C   UNL     1      14.350  24.117  33.021  1.00  0.00     0.000 C 
BRANCH   4   5
ATOM      5  C   UNL     1      15.872  23.891  33.094  1.00  0.00     0.000 C 
BRANCH   5   6
ATOM      6  C   UNL     1      16.471  23.963  34.512  1.00  0.00     0.000 C 
BRANCH   6   7
ATOM      7  C   UNL     1      17.039  22.618  34.985  1.00  0.00     0.006 C 
BRANCH   7   8
ATOM      8  C   UNL     1      16.045  21.892  35.898  1.00  0.00     0.053 C 
BRANCH   8   9
ATOM      9  C   UNL     1      15.649  20.580  35.298  1.00  0.00     0.041 C 
ATOM     10  O   UNL     1      15.255  19.639  36.036  1.00  0.00    -0.550 OA
ATOM     11  O   UNL     1      15.653  20.418  33.919  1.00  0.00    -0.550 OA
ENDBRANCH   8   9
ENDBRANCH   7   8
ENDBRANCH   6   7
ENDBRANCH   5   6
ENDBRANCH   4   5
ENDBRANCH   3   4
ENDBRANCH   2   3
ENDBRANCH   1   2
BRANCH   1  12
ATOM     12  C   UNL     1      14.602  27.394  35.103  1.00  0.00     0.000 C 
BRANCH  12  13
ATOM     13  C   UNL     1      15.557  28.289  34.293  1.00  0.00    -0.000 C 
BRANCH  13  14
ATOM     14  C   UNL     1      16.285  27.512  33.183  1.00  0.00    -0.000 C 
BRANCH  14  15
ATOM     15  C   UNL     1      16.723  28.423  32.023  1.00  0.00    -0.000 C 
BRANCH  15  16
ATOM     16  C   UNL     1      16.702  29.913  32.402  1.00  0.00    -0.000 C 
BRANCH  16  17
ATOM     17  C   UNL     1      16.605  30.833  31.176  1.00  0.00    -0.000 C 
BRANCH  17  18
ATOM     18  C   UNL     1      16.660  30.019  29.874  1.00  0.00    -0.000 C 
BRANCH  18  19
ATOM     19  C   UNL     1      16.572  30.905  28.621  1.00  0.00    -0.003 C 
ATOM     20  C   UNL     1      16.046  32.309  28.924  1.00  0.00     0.004 C 
ENDBRANCH  18  19
ENDBRANCH  17  18
ENDBRANCH  16  17
ENDBRANCH  15  16
ENDBRANCH  14  15
ENDBRANCH  13  14
ENDBRANCH  12  13
ENDBRANCH   1  12
TORSDOF 16
ENDMDL
MODEL 7
REMARK VINA RESULT:    -3.635      3.549      6.250
REMARK INTER + INTRA:          -9.851
REMARK INTER:                  -7.441
REMARK INTRA:                  -2.410
REMARK UNBOUND:                -2.815
REMARK SMILES CCCCCCCCCCCCCCCCCC(=O)[O-]
REMARK SMILES IDX 10 1 11 2 12 3 13 4 14 5 15 6 16 7 17 8 18 9 19 10 20 11
REMARK SMILES IDX 9 12 8 13 7 14 6 15 5 16 4 17 3 18 2 19 1 20
REMARK H PARENT
REMARK Flexibility Score: inf
ROOT
ATOM      1  C   UNL     1      12.262  26.705  33.831  1.00  0.00     0.000 C 
ENDROOT
BRANCH   1   2
ATOM      2  C   UNL     1      12.773  25.272  33.597  1.00  0.00     0.000 C 
BRANCH   2   3
ATOM      3  C   UNL     1      14.181  25.243  32.965  1.00  0.00     0.000 C 
BRANCH   3   4
ATOM      4  C   UNL     1      14.918  23.902  33.149  1.00  0.00     0.000 C 
BRANCH   4   5
ATOM      5  C   UNL     1      15.869  23.839  34.360  1.00  0.00     0.000 C 
BRANCH   5   6
ATOM      6  C   UNL     1      15.293  23.133  35.602  1.00  0.00     0.000 C 
BRANCH   6   7
ATOM      7  C   UNL     1      16.185  21.986  36.100  1.00  0.00     0.006 C 
BRANCH   7   8
ATOM      8  C   UNL     1      15.427  20.654  36.081  1.00  0.00     0.053 C 
BRANCH   8   9
ATOM      9  C   UNL     1      15.618  19.965  34.767  1.00  0.00     0.041 C 
ATOM     10  O   UNL     1      16.451  20.407  33.933  1.00  0.00    -0.550 OA
ATOM     11  O   UNL     1      14.920  18.796  34.489  1.00  0.00    -0.550 OA
ENDBRANCH   8   9
ENDBRANCH   7   8
ENDBRANCH   6   7
ENDBRANCH   5   6
ENDBRANCH   4   5
ENDBRANCH   3   4
ENDBRANCH   2   3
ENDBRANCH   1   2
BRANCH   1  12
ATOM     12  C   UNL     1      12.501  27.196  35.267  1.00  0.00     0.000 C 
BRANCH  12  13
ATOM     13  C   UNL     1      13.094  26.105  36.176  1.00  0.00    -0.000 C 
BRANCH  13  14
ATOM     14  C   UNL     1      14.491  26.476  36.701  1.00  0.00    -0.000 C 
BRANCH  14  15
ATOM     15  C   UNL     1      15.117  27.644  35.920  1.00  0.00    -0.000 C 
BRANCH  15  16
ATOM     16  C   UNL     1      16.601  27.407  35.595  1.00  0.00    -0.000 C 
BRANCH  16  17
ATOM     17  C   UNL     1      16.875  27.360  34.084  1.00  0.00    -0.000 C 
BRANCH  17  18
ATOM     18  C   UNL     1      15.979  28.357  33.333  1.00  0.00    -0.000 C 
BRANCH  18  19
ATOM     19  C   UNL     1      16.767  29.227  32.341  1.00  0.00    -0.003 C 
ATOM     20  C   UNL     1      16.541  30.724  32.557  1.00  0.00     0.004 C 
ENDBRANCH  18  19
ENDBRANCH  17  18
ENDBRANCH  16  17
ENDBRANCH  15  16
ENDBRANCH  14  15
ENDBRANCH  13  14
ENDBRANCH  12  13
ENDBRANCH   1  12
TORSDOF 16
ENDMDL
MODEL 8
REMARK VINA RESULT:    -3.630      6.312      8.254
REMARK INTER + INTRA:          -9.841
REMARK INTER:                  -8.585
REMARK INTRA:                  -1.256
REMARK UNBOUND:                -2.815
REMARK SMILES CCCCCCCCCCCCCCCCCC(=O)[O-]
REMARK SMILES IDX 10 1 11 2 12 3 13 4 14 5 15 6 16 7 17 8 18 9 19 10 20 11
REMARK SMILES IDX 9 12 8 13 7 14 6 15 5 16 4 17 3 18 2 19 1 20
REMARK H PARENT
REMARK Flexibility Score: inf
ROOT
ATOM      1  C   UNL     1      15.429  20.380  34.114  1.00  0.00     0.000 C 
ENDROOT
BRANCH   1   2
ATOM      2  C   UNL     1      16.842  20.950  33.896  1.00  0.00     0.000 C 
BRANCH   2   3
ATOM      3  C   UNL     1      16.971  22.409  34.380  1.00  0.00     0.000 C 
BRANCH   3   4
ATOM      4  C   UNL     1      15.644  23.024  34.867  1.00  0.00     0.000 C 
BRANCH   4   5
ATOM      5  C   UNL     1      15.288  24.389  34.247  1.00  0.00     0.000 C 
BRANCH   5   6
ATOM      6  C   UNL     1      14.257  24.333  33.103  1.00  0.00     0.000 C 
BRANCH   6   7
ATOM      7  C   UNL     1      13.039  25.231  33.359  1.00  0.00     0.006 C 
BRANCH   7   8
ATOM      8  C   UNL     1      13.449  26.521  34.077  1.00  0.00     0.053 C 
BRANCH   8   9
ATOM      9  C   UNL     1      12.623  26.717  35.309  1.00  0.00     0.041 C 
ATOM     10  O   UNL     1      11.753  27.627  35.352  1.00  0.00    -0.550 OA
ATOM     11  O   UNL     1      12.770  25.854  36.387  1.00  0.00    -0.550 OA
ENDBRANCH   8   9
ENDBRANCH   7   8
ENDBRANCH   6   7
ENDBRANCH   5   6
ENDBRANCH   4   5
ENDBRANCH   3   4
ENDBRANCH   2   3
ENDBRANCH   1   2
BRANCH   1  12
ATOM     12  C   UNL     1      15.444  18.956  34.693  1.00  0.00     0.000 C 
BRANCH  12  13
ATOM     13  C   UNL     1      16.804  18.257  34.512  1.00  0.00    -0.000 C 
BRANCH  13  14
ATOM     14  C   UNL     1      16.654  16.752  34.233  1.00  0.00    -0.000 C 
BRANCH  14  15
ATOM     15  C   UNL     1      15.244  16.233  34.562  1.00  0.00    -0.000 C 
BRANCH  15  16
ATOM     16  C   UNL     1      15.269  14.982  35.455  1.00  0.00    -0.000 C 
BRANCH  16  17
ATOM     17  C   UNL     1      14.927  13.698  34.684  1.00  0.00    -0.000 C 
BRANCH  17  18
ATOM     18  C   UNL     1      14.300  14.029  33.321  1.00  0.00    -0.000 C 
BRANCH  18  19
ATOM     19  C   UNL     1      14.997  13.302  32.159  1.00  0.00    -0.003 C 
ATOM     20  C   UNL     1      16.400  13.844  31.880  1.00  0.00     0.004 C 
ENDBRANCH  18  19
ENDBRANCH  17  18
ENDBRANCH  16  17
ENDBRANCH  15  16
ENDBRANCH  14  15
ENDBRANCH  13  14
ENDBRANCH  12  13
ENDBRANCH   1  12
TORSDOF 16
ENDMDL
MODEL 9
REMARK VINA RESULT:    -3.627      5.410      7.010
REMARK INTER + INTRA:          -9.835
REMARK INTER:                  -8.701
REMARK INTRA:                  -1.134
REMARK UNBOUND:                -2.815
REMARK SMILES CCCCCCCCCCCCCCCCCC(=O)[O-]
REMARK SMILES IDX 10 1 11 2 12 3 13 4 14 5 15 6 16 7 17 8 18 9 19 10 20 11
REMARK SMILES IDX 9 12 8 13 7 14 6 15 5 16 4 17 3 18 2 19 1 20
REMARK H PARENT
REMARK Flexibility Score: inf
ROOT
ATOM      1  C   UNL     1      16.399  21.827  33.055  1.00  0.00     0.000 C 
ENDROOT
BRANCH   1   2
ATOM      2  C   UNL     1      15.594  22.908  33.799  1.00  0.00     0.000 C 
BRANCH   2   3
ATOM      3  C   UNL     1      15.812  24.317  33.210  1.00  0.00     0.000 C 
BRANCH   3   4
ATOM      4  C   UNL     1      16.985  25.085  33.850  1.00  0.00     0.000 C 
BRANCH   4   5
ATOM      5  C   UNL     1      16.665  26.529  34.281  1.00  0.00     0.000 C 
BRANCH   5   6
ATOM      6  C   UNL     1      15.517  27.200  33.502  1.00  0.00     0.000 C 
BRANCH   6   7
ATOM      7  C   UNL     1      14.502  27.894  34.421  1.00  0.00     0.006 C 
BRANCH   7   8
ATOM      8  C   UNL     1      13.554  26.875  35.061  1.00  0.00     0.053 C 
BRANCH   8   9
ATOM      9  C   UNL     1      12.452  26.521  34.113  1.00  0.00     0.041 C 
ATOM     10  O   UNL     1      11.474  27.298  33.958  1.00  0.00    -0.550 OA
ATOM     11  O   UNL     1      12.538  25.362  33.352  1.00  0.00    -0.550 OA
ENDBRANCH   8   9
ENDBRANCH   7   8
ENDBRANCH   6   7
ENDBRANCH   5   6
ENDBRANCH   4   5
ENDBRANCH   3   4
ENDBRANCH   2   3
ENDBRANCH   1   2
BRANCH   1  12
ATOM     12  C   UNL     1      16.944  20.739  33.994  1.00  0.00     0.000 C 
BRANCH  12  13
ATOM     13  C   UNL     1      15.889  20.236  34.996  1.00  0.00    -0.000 C 
BRANCH  13  14
ATOM     14  C   UNL     1      15.138  18.997  34.480  1.00  0.00    -0.000 C 
BRANCH  14  15
ATOM     15  C   UNL     1      15.672  17.692  35.096  1.00  0.00    -0.000 C 
BRANCH  15  16
ATOM     16  C   UNL     1      16.780  17.049  34.247  1.00  0.00    -0.000 C 
BRANCH  16  17
ATOM     17  C   UNL     1      16.374  15.679  33.683  1.00  0.00    -0.000 C 
BRANCH  17  18
ATOM     18  C   UNL     1      15.025  15.226  34.263  1.00  0.00    -0.000 C 
BRANCH  18  19
ATOM     19  C   UNL     1      14.348  14.146  33.405  1.00  0.00    -0.003 C 
ATOM     20  C   UNL     1      15.264  13.601  32.308  1.00  0.00     0.004 C 
ENDBRANCH  18  19
ENDBRANCH  17  18
ENDBRANCH  16  17
ENDBRANCH  15  16
ENDBRANCH  14  15
ENDBRANCH  13  14
ENDBRANCH  12  13
ENDBRANCH   1  12
TORSDOF 16
ENDMDL
