MODEL 1
REMARK VINA RESULT:    -5.573      0.000      0.000
REMARK INTER + INTRA:          -6.436
REMARK INTER:                  -6.388
REMARK INTRA:                  -0.048
REMARK UNBOUND:                -0.048
REMARK SMILES O=C([O-])c1cc(O)c(O)c(O)c1
REMARK SMILES IDX 4 1 5 2 12 3 6 4 10 5 8 6 2 7 1 8 3 9 7 10 11 12 9 14
REMARK H PARENT 7 11 11 13 9 15
REMARK Flexibility Score: inf
ROOT
ATOM      1  C   UNL     1     -24.326  17.197  18.875  1.00  0.00     0.005 A 
ATOM      2  C   UNL     1     -23.463  18.156  18.318  1.00  0.00     0.060 A 
ATOM      3  C   UNL     1     -24.603  17.250  20.249  1.00  0.00     0.060 A 
ATOM      4  C   UNL     1     -22.884  19.154  19.111  1.00  0.00     0.162 A 
ATOM      5  C   UNL     1     -24.031  18.243  21.054  1.00  0.00     0.162 A 
ATOM      6  C   UNL     1     -23.170  19.198  20.496  1.00  0.00     0.200 A 
ENDROOT
BRANCH   1   7
ATOM      7  C   UNL     1     -24.933  16.146  18.029  1.00  0.00     0.072 C 
ATOM      8  O   UNL     1     -26.172  15.920  18.078  1.00  0.00    -0.545 OA
ATOM      9  O   UNL     1     -24.144  15.392  17.167  1.00  0.00    -0.545 OA
ENDBRANCH   1   7
BRANCH   4  10
ATOM     10  O   UNL     1     -22.037  20.071  18.485  1.00  0.00    -0.504 OA
ATOM     11  H   UNL     1     -21.936  21.034  18.772  1.00  0.00     0.293 HD
ENDBRANCH   4  10
BRANCH   5  12
ATOM     12  O   UNL     1     -24.313  18.286  22.419  1.00  0.00    -0.504 OA
ATOM     13  H   UNL     1     -25.236  18.069  22.778  1.00  0.00     0.293 HD
ENDBRANCH   5  12
BRANCH   6  14
ATOM     14  O   UNL     1     -22.627  20.166  21.344  1.00  0.00    -0.502 OA
ATOM     15  H   UNL     1     -22.603  20.088  22.351  1.00  0.00     0.293 HD
ENDBRANCH   6  14
TORSDOF 4
ENDMDL
MODEL 2
REMARK VINA RESULT:    -5.557      0.099      2.438
REMARK INTER + INTRA:          -6.416
REMARK INTER:                  -6.368
REMARK INTRA:                  -0.049
REMARK UNBOUND:                -0.048
REMARK SMILES O=C([O-])c1cc(O)c(O)c(O)c1
REMARK SMILES IDX 4 1 5 2 12 3 6 4 10 5 8 6 2 7 1 8 3 9 7 10 11 12 9 14
REMARK H PARENT 7 11 11 13 9 15
REMARK Flexibility Score: inf
ROOT
ATOM      1  C   UNL     1     -24.365  17.176  18.901  1.00  0.00     0.005 A 
ATOM      2  C   UNL     1     -24.624  17.263  20.279  1.00  0.00     0.060 A 
ATOM      3  C   UNL     1     -23.493  18.104  18.314  1.00  0.00     0.060 A 
ATOM      4  C   UNL     1     -24.026  18.255  21.065  1.00  0.00     0.162 A 
ATOM      5  C   UNL     1     -22.888  19.102  19.089  1.00  0.00     0.162 A 
ATOM      6  C   UNL     1     -23.147  19.186  20.463  1.00  0.00     0.200 A 
ENDROOT
BRANCH   1   7
ATOM      7  C   UNL     1     -25.002  16.125  18.078  1.00  0.00     0.072 C 
ATOM      8  O   UNL     1     -26.217  15.832  18.240  1.00  0.00    -0.545 OA
ATOM      9  O   UNL     1     -24.268  15.444  17.113  1.00  0.00    -0.545 OA
ENDBRANCH   1   7
BRANCH   4  10
ATOM     10  O   UNL     1     -24.331  18.277  22.428  1.00  0.00    -0.504 OA
ATOM     11  H   UNL     1     -24.194  19.079  23.026  1.00  0.00     0.293 HD
ENDBRANCH   4  10
BRANCH   5  12
ATOM     12  O   UNL     1     -22.021  20.020  18.495  1.00  0.00    -0.504 OA
ATOM     13  H   UNL     1     -21.353  19.739  17.787  1.00  0.00     0.293 HD
ENDBRANCH   5  12
BRANCH   6  14
ATOM     14  O   UNL     1     -22.517  20.201  21.188  1.00  0.00    -0.502 OA
ATOM     15  H   UNL     1     -21.520  20.250  21.344  1.00  0.00     0.293 HD
ENDBRANCH   6  14
TORSDOF 4
ENDMDL
MODEL 3
REMARK VINA RESULT:    -5.219      1.532      4.743
REMARK INTER + INTRA:          -6.030
REMARK INTER:                  -5.984
REMARK INTRA:                  -0.046
REMARK UNBOUND:                -0.048
REMARK SMILES O=C([O-])c1cc(O)c(O)c(O)c1
REMARK SMILES IDX 4 1 5 2 12 3 6 4 10 5 8 6 2 7 1 8 3 9 7 10 11 12 9 14
REMARK H PARENT 7 11 11 13 9 15
REMARK Flexibility Score: inf
ROOT
ATOM      1  C   UNL     1     -22.873  18.010  19.786  1.00  0.00     0.005 A 
ATOM      2  C   UNL     1     -24.201  17.778  20.180  1.00  0.00     0.060 A 
ATOM      3  C   UNL     1     -22.211  17.038  19.022  1.00  0.00     0.060 A 
ATOM      4  C   UNL     1     -24.865  16.599  19.820  1.00  0.00     0.162 A 
ATOM      5  C   UNL     1     -22.863  15.854  18.656  1.00  0.00     0.162 A 
ATOM      6  C   UNL     1     -24.188  15.625  19.050  1.00  0.00     0.200 A 
ENDROOT
BRANCH   1   7
ATOM      7  C   UNL     1     -22.179  19.259  20.171  1.00  0.00     0.072 C 
ATOM      8  O   UNL     1     -21.855  20.108  19.298  1.00  0.00    -0.545 OA
ATOM      9  O   UNL     1     -21.875  19.514  21.504  1.00  0.00    -0.545 OA
ENDBRANCH   1   7
BRANCH   4  10
ATOM     10  O   UNL     1     -26.185  16.440  20.248  1.00  0.00    -0.504 OA
ATOM     11  H   UNL     1     -26.779  15.669  19.977  1.00  0.00     0.293 HD
ENDBRANCH   4  10
BRANCH   5  12
ATOM     12  O   UNL     1     -22.195  14.893  17.896  1.00  0.00    -0.504 OA
ATOM     13  H   UNL     1     -22.302  14.843  16.890  1.00  0.00     0.293 HD
ENDBRANCH   5  12
BRANCH   6  14
ATOM     14  O   UNL     1     -24.791  14.427  18.657  1.00  0.00    -0.502 OA
ATOM     15  H   UNL     1     -24.406  13.512  18.843  1.00  0.00     0.293 HD
ENDBRANCH   6  14
TORSDOF 4
ENDMDL
MODEL 4
REMARK VINA RESULT:    -5.215      1.524      4.304
REMARK INTER + INTRA:          -6.025
REMARK INTER:                  -5.979
REMARK INTRA:                  -0.046
REMARK UNBOUND:                -0.048
REMARK SMILES O=C([O-])c1cc(O)c(O)c(O)c1
REMARK SMILES IDX 4 1 5 2 12 3 6 4 10 5 8 6 2 7 1 8 3 9 7 10 11 12 9 14
REMARK H PARENT 7 11 11 13 9 15
REMARK Flexibility Score: inf
ROOT
ATOM      1  C   UNL     1     -22.895  18.027  19.819  1.00  0.00     0.005 A 
ATOM      2  C   UNL     1     -22.245  17.057  19.037  1.00  0.00     0.060 A 
ATOM      3  C   UNL     1     -24.219  17.799  20.220  1.00  0.00     0.060 A 
ATOM      4  C   UNL     1     -22.898  15.878  18.659  1.00  0.00     0.162 A 
ATOM      5  C   UNL     1     -24.885  16.625  19.848  1.00  0.00     0.162 A 
ATOM      6  C   UNL     1     -24.234  15.659  19.068  1.00  0.00     0.200 A 
ENDROOT
BRANCH   1   7
ATOM      7  C   UNL     1     -22.196  19.270  20.215  1.00  0.00     0.072 C 
ATOM      8  O   UNL     1     -21.875  20.127  19.349  1.00  0.00    -0.545 OA
ATOM      9  O   UNL     1     -21.885  19.509  21.548  1.00  0.00    -0.545 OA
ENDBRANCH   1   7
BRANCH   4  10
ATOM     10  O   UNL     1     -22.187  14.962  17.882  1.00  0.00    -0.504 OA
ATOM     11  H   UNL     1     -21.619  14.218  18.262  1.00  0.00     0.293 HD
ENDBRANCH   4  10
BRANCH   5  12
ATOM     12  O   UNL     1     -26.203  16.409  20.252  1.00  0.00    -0.504 OA
ATOM     13  H   UNL     1     -26.425  16.068  21.180  1.00  0.00     0.293 HD
ENDBRANCH   5  12
BRANCH   6  14
ATOM     14  O   UNL     1     -24.945  14.505  18.726  1.00  0.00    -0.502 OA
ATOM     15  H   UNL     1     -25.199  14.257  17.781  1.00  0.00     0.293 HD
ENDBRANCH   6  14
TORSDOF 4
ENDMDL
MODEL 5
REMARK VINA RESULT:    -5.130      1.865      2.197
REMARK INTER + INTRA:          -5.927
REMARK INTER:                  -5.882
REMARK INTRA:                  -0.045
REMARK UNBOUND:                -0.048
REMARK SMILES O=C([O-])c1cc(O)c(O)c(O)c1
REMARK SMILES IDX 4 1 5 2 12 3 6 4 10 5 8 6 2 7 1 8 3 9 7 10 11 12 9 14
REMARK H PARENT 7 11 11 13 9 15
REMARK Flexibility Score: inf
ROOT
ATOM      1  C   UNL     1     -24.728  16.339  19.907  1.00  0.00     0.005 A 
ATOM      2  C   UNL     1     -23.474  16.054  19.341  1.00  0.00     0.060 A 
ATOM      3  C   UNL     1     -24.908  17.555  20.582  1.00  0.00     0.060 A 
ATOM      4  C   UNL     1     -22.413  16.962  19.443  1.00  0.00     0.162 A 
ATOM      5  C   UNL     1     -23.855  18.472  20.692  1.00  0.00     0.162 A 
ATOM      6  C   UNL     1     -22.605  18.185  20.127  1.00  0.00     0.200 A 
ENDROOT
BRANCH   1   7
ATOM      7  C   UNL     1     -25.844  15.374  19.795  1.00  0.00     0.072 C 
ATOM      8  O   UNL     1     -25.810  14.280  20.418  1.00  0.00    -0.545 OA
ATOM      9  O   UNL     1     -26.947  15.662  18.998  1.00  0.00    -0.545 OA
ENDBRANCH   1   7
BRANCH   4  10
ATOM     10  O   UNL     1     -21.197  16.608  18.856  1.00  0.00    -0.504 OA
ATOM     11  H   UNL     1     -20.970  15.675  18.542  1.00  0.00     0.293 HD
ENDBRANCH   4  10
BRANCH   5  12
ATOM     12  O   UNL     1     -24.045  19.679  21.366  1.00  0.00    -0.504 OA
ATOM     13  H   UNL     1     -24.854  20.263  21.193  1.00  0.00     0.293 HD
ENDBRANCH   5  12
BRANCH   6  14
ATOM     14  O   UNL     1     -21.590  19.135  20.265  1.00  0.00    -0.502 OA
ATOM     15  H   UNL     1     -21.555  19.823  21.004  1.00  0.00     0.293 HD
ENDBRANCH   6  14
TORSDOF 4
ENDMDL
MODEL 6
REMARK VINA RESULT:    -5.114      1.876      2.707
REMARK INTER + INTRA:          -5.910
REMARK INTER:                  -5.864
REMARK INTRA:                  -0.045
REMARK UNBOUND:                -0.048
REMARK SMILES O=C([O-])c1cc(O)c(O)c(O)c1
REMARK SMILES IDX 4 1 5 2 12 3 6 4 10 5 8 6 2 7 1 8 3 9 7 10 11 12 9 14
REMARK H PARENT 7 11 11 13 9 15
REMARK Flexibility Score: inf
ROOT
ATOM      1  C   UNL     1     -24.779  16.372  19.874  1.00  0.00     0.005 A 
ATOM      2  C   UNL     1     -24.923  17.589  20.562  1.00  0.00     0.060 A 
ATOM      3  C   UNL     1     -23.539  16.060  19.299  1.00  0.00     0.060 A 
ATOM      4  C   UNL     1     -23.853  18.483  20.679  1.00  0.00     0.162 A 
ATOM      5  C   UNL     1     -22.460  16.946  19.408  1.00  0.00     0.162 A 
ATOM      6  C   UNL     1     -22.606  18.159  20.095  1.00  0.00     0.200 A 
ENDROOT
BRANCH   1   7
ATOM      7  C   UNL     1     -25.916  15.433  19.754  1.00  0.00     0.072 C 
ATOM      8  O   UNL     1     -26.913  15.721  19.040  1.00  0.00    -0.545 OA
ATOM      9  O   UNL     1     -25.900  14.218  20.430  1.00  0.00    -0.545 OA
ENDBRANCH   1   7
BRANCH   4  10
ATOM     10  O   UNL     1     -24.073  19.672  21.378  1.00  0.00    -0.504 OA
ATOM     11  H   UNL     1     -23.461  20.475  21.336  1.00  0.00     0.293 HD
ENDBRANCH   4  10
BRANCH   5  12
ATOM     12  O   UNL     1     -21.230  16.626  18.832  1.00  0.00    -0.504 OA
ATOM     13  H   UNL     1     -21.038  16.808  17.854  1.00  0.00     0.293 HD
ENDBRANCH   5  12
BRANCH   6  14
ATOM     14  O   UNL     1     -21.497  19.005  20.174  1.00  0.00    -0.502 OA
ATOM     15  H   UNL     1     -20.796  18.954  20.900  1.00  0.00     0.293 HD
ENDBRANCH   6  14
TORSDOF 4
ENDMDL
MODEL 7
REMARK VINA RESULT:    -4.707      1.409      4.631
REMARK INTER + INTRA:          -5.443
REMARK INTER:                  -5.396
REMARK INTRA:                  -0.046
REMARK UNBOUND:                -0.048
REMARK SMILES O=C([O-])c1cc(O)c(O)c(O)c1
REMARK SMILES IDX 4 1 5 2 12 3 6 4 10 5 8 6 2 7 1 8 3 9 7 10 11 12 9 14
REMARK H PARENT 7 11 11 13 9 15
REMARK Flexibility Score: inf
ROOT
ATOM      1  C   UNL     1     -24.144  17.006  19.579  1.00  0.00     0.005 A 
ATOM      2  C   UNL     1     -23.089  16.284  18.995  1.00  0.00     0.060 A 
ATOM      3  C   UNL     1     -25.463  16.667  19.247  1.00  0.00     0.060 A 
ATOM      4  C   UNL     1     -23.340  15.242  18.094  1.00  0.00     0.162 A 
ATOM      5  C   UNL     1     -25.728  15.627  18.348  1.00  0.00     0.162 A 
ATOM      6  C   UNL     1     -24.675  14.909  17.766  1.00  0.00     0.200 A 
ENDROOT
BRANCH   1   7
ATOM      7  C   UNL     1     -23.870  18.106  20.530  1.00  0.00     0.072 C 
ATOM      8  O   UNL     1     -24.288  18.047  21.717  1.00  0.00    -0.545 OA
ATOM      9  O   UNL     1     -23.145  19.222  20.126  1.00  0.00    -0.545 OA
ENDBRANCH   1   7
BRANCH   4  10
ATOM     10  O   UNL     1     -22.240  14.571  17.555  1.00  0.00    -0.504 OA
ATOM     11  H   UNL     1     -22.304  13.716  17.021  1.00  0.00     0.293 HD
ENDBRANCH   4  10
BRANCH   5  12
ATOM     12  O   UNL     1     -27.045  15.299  18.025  1.00  0.00    -0.504 OA
ATOM     13  H   UNL     1     -27.749  15.158  18.740  1.00  0.00     0.293 HD
ENDBRANCH   5  12
BRANCH   6  14
ATOM     14  O   UNL     1     -24.995  13.881  16.876  1.00  0.00    -0.502 OA
ATOM     15  H   UNL     1     -24.423  13.616  16.087  1.00  0.00     0.293 HD
ENDBRANCH   6  14
TORSDOF 4
ENDMDL
MODEL 8
REMARK VINA RESULT:    -4.079      1.125      3.766
REMARK INTER + INTRA:          -4.723
REMARK INTER:                  -4.673
REMARK INTRA:                  -0.050
REMARK UNBOUND:                -0.048
REMARK SMILES O=C([O-])c1cc(O)c(O)c(O)c1
REMARK SMILES IDX 4 1 5 2 12 3 6 4 10 5 8 6 2 7 1 8 3 9 7 10 11 12 9 14
REMARK H PARENT 7 11 11 13 9 15
REMARK Flexibility Score: inf
ROOT
ATOM      1  C   UNL     1     -23.297  18.812  18.907  1.00  0.00     0.005 A 
ATOM      2  C   UNL     1     -23.829  17.761  18.142  1.00  0.00     0.060 A 
ATOM      3  C   UNL     1     -23.580  18.864  20.280  1.00  0.00     0.060 A 
ATOM      4  C   UNL     1     -24.631  16.774  18.730  1.00  0.00     0.162 A 
ATOM      5  C   UNL     1     -24.380  17.884  20.880  1.00  0.00     0.162 A 
ATOM      6  C   UNL     1     -24.910  16.836  20.115  1.00  0.00     0.200 A 
ENDROOT
BRANCH   1   7
ATOM      7  C   UNL     1     -22.452  19.851  18.278  1.00  0.00     0.072 C 
ATOM      8  O   UNL     1     -22.682  20.239  17.102  1.00  0.00    -0.545 OA
ATOM      9  O   UNL     1     -21.390  20.413  18.977  1.00  0.00    -0.545 OA
ENDBRANCH   1   7
BRANCH   4  10
ATOM     10  O   UNL     1     -25.123  15.761  17.904  1.00  0.00    -0.504 OA
ATOM     11  H   UNL     1     -24.540  15.114  17.393  1.00  0.00     0.293 HD
ENDBRANCH   4  10
BRANCH   5  12
ATOM     12  O   UNL     1     -24.656  17.945  22.246  1.00  0.00    -0.504 OA
ATOM     13  H   UNL     1     -25.432  17.438  22.655  1.00  0.00     0.293 HD
ENDBRANCH   5  12
BRANCH   6  14
ATOM     14  O   UNL     1     -25.701  15.885  20.764  1.00  0.00    -0.502 OA
ATOM     15  H   UNL     1     -26.038  15.037  20.331  1.00  0.00     0.293 HD
ENDBRANCH   6  14
TORSDOF 4
ENDMDL
MODEL 9
REMARK VINA RESULT:    -4.072      2.151      3.490
REMARK INTER + INTRA:          -4.715
REMARK INTER:                  -4.668
REMARK INTRA:                  -0.047
REMARK UNBOUND:                -0.048
REMARK SMILES O=C([O-])c1cc(O)c(O)c(O)c1
REMARK SMILES IDX 4 1 5 2 12 3 6 4 10 5 8 6 2 7 1 8 3 9 7 10 11 12 9 14
REMARK H PARENT 7 11 11 13 9 15
REMARK Flexibility Score: inf
ROOT
ATOM      1  C   UNL     1     -24.962  15.922  18.866  1.00  0.00     0.005 A 
ATOM      2  C   UNL     1     -24.106  14.840  19.133  1.00  0.00     0.060 A 
ATOM      3  C   UNL     1     -24.418  17.211  18.774  1.00  0.00     0.060 A 
ATOM      4  C   UNL     1     -22.731  15.034  19.307  1.00  0.00     0.162 A 
ATOM      5  C   UNL     1     -23.044  17.419  18.945  1.00  0.00     0.162 A 
ATOM      6  C   UNL     1     -22.192  16.338  19.212  1.00  0.00     0.200 A 
ENDROOT
BRANCH   1   7
ATOM      7  C   UNL     1     -26.415  15.708  18.685  1.00  0.00     0.072 C 
ATOM      8  O   UNL     1     -26.840  14.867  17.848  1.00  0.00    -0.545 OA
ATOM      9  O   UNL     1     -27.333  16.434  19.436  1.00  0.00    -0.545 OA
ENDBRANCH   1   7
BRANCH   4  10
ATOM     10  O   UNL     1     -21.945  13.910  19.569  1.00  0.00    -0.504 OA
ATOM     11  H   UNL     1     -20.937  13.894  19.497  1.00  0.00     0.293 HD
ENDBRANCH   4  10
BRANCH   5  12
ATOM     12  O   UNL     1     -22.513  18.706  18.852  1.00  0.00    -0.504 OA
ATOM     13  H   UNL     1     -23.013  19.514  19.203  1.00  0.00     0.293 HD
ENDBRANCH   5  12
BRANCH   6  14
ATOM     14  O   UNL     1     -20.830  16.602  19.373  1.00  0.00    -0.502 OA
ATOM     15  H   UNL     1     -20.132  16.430  18.664  1.00  0.00     0.293 HD
ENDBRANCH   6  14
TORSDOF 4
ENDMDL
