MODEL 1
REMARK VINA RESULT:    -5.654      0.000      0.000
REMARK INTER + INTRA:         -11.069
REMARK INTER:                 -10.282
REMARK INTRA:                  -0.787
REMARK UNBOUND:                -0.787
REMARK SMILES CCCCCCCCCCCCCC[C@@H](C)C(=O)[O-]
REMARK SMILES IDX 9 1 10 2 11 3 12 4 13 5 14 6 15 7 16 8 17 9 18 10 19 11 8 12
REMARK SMILES IDX 7 13 6 14 5 15 4 16 3 17 2 18 1 19
REMARK H PARENT
REMARK Flexibility Score: inf
ROOT
ATOM      1  C   UNL     1      -3.217   8.943 -39.019  1.00  0.00     0.000 C 
ENDROOT
BRANCH   1   2
ATOM      2  C   UNL     1      -4.029   9.380 -40.252  1.00  0.00     0.000 C 
BRANCH   2   3
ATOM      3  C   UNL     1      -5.546   9.509 -40.018  1.00  0.00     0.000 C 
BRANCH   3   4
ATOM      4  C   UNL     1      -6.091   8.700 -38.825  1.00  0.00     0.000 C 
BRANCH   4   5
ATOM      5  C   UNL     1      -7.435   7.998 -39.114  1.00  0.00     0.001 C 
BRANCH   5   6
ATOM      6  C   UNL     1      -7.349   7.041 -40.317  1.00  0.00     0.009 C 
BRANCH   6   7
ATOM      7  C   UNL     1      -7.893   5.632 -39.999  1.00  0.00     0.032 C 
ATOM      8  C   UNL     1      -9.177   5.678 -39.159  1.00  0.00     0.014 C 
BRANCH   7   9
ATOM      9  C   UNL     1      -8.157   4.890 -41.280  1.00  0.00     0.044 C 
ATOM     10  O   UNL     1      -7.728   5.344 -42.374  1.00  0.00    -0.550 OA
ATOM     11  O   UNL     1      -8.876   3.700 -41.267  1.00  0.00    -0.550 OA
ENDBRANCH   7   9
ENDBRANCH   6   7
ENDBRANCH   5   6
ENDBRANCH   4   5
ENDBRANCH   3   4
ENDBRANCH   2   3
ENDBRANCH   1   2
BRANCH   1  12
ATOM     12  C   UNL     1      -1.797   8.477 -39.371  1.00  0.00     0.000 C 
BRANCH  12  13
ATOM     13  C   UNL     1      -0.775   9.016 -38.363  1.00  0.00    -0.000 C 
BRANCH  13  14
ATOM     14  C   UNL     1      -0.812  10.550 -38.306  1.00  0.00    -0.000 C 
BRANCH  14  15
ATOM     15  C   UNL     1       0.575  11.176 -38.079  1.00  0.00    -0.000 C 
BRANCH  15  16
ATOM     16  C   UNL     1       0.580  12.710 -37.944  1.00  0.00    -0.000 C 
BRANCH  16  17
ATOM     17  C   UNL     1      -0.807  13.284 -37.608  1.00  0.00    -0.000 C 
BRANCH  17  18
ATOM     18  C   UNL     1      -1.094  13.286 -36.099  1.00  0.00    -0.003 C 
ATOM     19  C   UNL     1      -2.273  12.389 -35.722  1.00  0.00     0.004 C 
ENDBRANCH  17  18
ENDBRANCH  16  17
ENDBRANCH  15  16
ENDBRANCH  14  15
ENDBRANCH  13  14
ENDBRANCH  12  13
ENDBRANCH   1  12
TORSDOF 14
ENDMDL
MODEL 2
REMARK VINA RESULT:    -5.383      2.932      4.820
REMARK INTER + INTRA:         -10.575
REMARK INTER:                  -9.839
REMARK INTRA:                  -0.736
REMARK UNBOUND:                -0.787
REMARK SMILES CCCCCCCCCCCCCC[C@@H](C)C(=O)[O-]
REMARK SMILES IDX 9 1 10 2 11 3 12 4 13 5 14 6 15 7 16 8 17 9 18 10 19 11 8 12
REMARK SMILES IDX 7 13 6 14 5 15 4 16 3 17 2 18 1 19
REMARK H PARENT
REMARK Flexibility Score: inf
ROOT
ATOM      1  C   UNL     1      -2.533   9.433 -38.608  1.00  0.00     0.000 C 
ENDROOT
BRANCH   1   2
ATOM      2  C   UNL     1      -3.381   9.071 -39.841  1.00  0.00     0.000 C 
BRANCH   2   3
ATOM      3  C   UNL     1      -4.883   9.389 -39.713  1.00  0.00     0.000 C 
BRANCH   3   4
ATOM      4  C   UNL     1      -5.708   8.332 -38.956  1.00  0.00     0.000 C 
BRANCH   4   5
ATOM      5  C   UNL     1      -7.173   8.231 -39.432  1.00  0.00     0.001 C 
BRANCH   5   6
ATOM      6  C   UNL     1      -7.344   7.234 -40.592  1.00  0.00     0.009 C 
BRANCH   6   7
ATOM      7  C   UNL     1      -7.768   5.828 -40.115  1.00  0.00     0.032 C 
ATOM      8  C   UNL     1      -8.974   5.874 -39.166  1.00  0.00     0.014 C 
BRANCH   7   9
ATOM      9  C   UNL     1      -8.095   4.967 -41.303  1.00  0.00     0.044 C 
ATOM     10  O   UNL     1      -7.694   5.293 -42.452  1.00  0.00    -0.550 OA
ATOM     11  O   UNL     1      -8.844   3.806 -41.144  1.00  0.00    -0.550 OA
ENDBRANCH   7   9
ENDBRANCH   6   7
ENDBRANCH   5   6
ENDBRANCH   4   5
ENDBRANCH   3   4
ENDBRANCH   2   3
ENDBRANCH   1   2
BRANCH   1  12
ATOM     12  C   UNL     1      -1.181   8.706 -38.576  1.00  0.00     0.000 C 
BRANCH  12  13
ATOM     13  C   UNL     1      -1.050   7.737 -39.757  1.00  0.00    -0.000 C 
BRANCH  13  14
ATOM     14  C   UNL     1       0.169   8.085 -40.623  1.00  0.00    -0.000 C 
BRANCH  14  15
ATOM     15  C   UNL     1       0.131   7.418 -42.010  1.00  0.00    -0.000 C 
BRANCH  15  16
ATOM     16  C   UNL     1       0.645   5.968 -42.046  1.00  0.00    -0.000 C 
BRANCH  16  17
ATOM     17  C   UNL     1       2.133   5.871 -42.427  1.00  0.00    -0.000 C 
BRANCH  17  18
ATOM     18  C   UNL     1       2.967   5.142 -41.361  1.00  0.00    -0.003 C 
ATOM     19  C   UNL     1       4.468   5.211 -41.640  1.00  0.00     0.004 C 
ENDBRANCH  17  18
ENDBRANCH  16  17
ENDBRANCH  15  16
ENDBRANCH  14  15
ENDBRANCH  13  14
ENDBRANCH  12  13
ENDBRANCH   1  12
TORSDOF 14
ENDMDL
MODEL 3
REMARK VINA RESULT:    -5.319      4.124      9.323
REMARK INTER + INTRA:         -10.459
REMARK INTER:                  -9.690
REMARK INTRA:                  -0.768
REMARK UNBOUND:                -0.787
REMARK SMILES CCCCCCCCCCCCCC[C@@H](C)C(=O)[O-]
REMARK SMILES IDX 9 1 10 2 11 3 12 4 13 5 14 6 15 7 16 8 17 9 18 10 19 11 8 12
REMARK SMILES IDX 7 13 6 14 5 15 4 16 3 17 2 18 1 19
REMARK H PARENT
REMARK Flexibility Score: inf
ROOT
ATOM      1  C   UNL     1      -4.950   9.622 -40.142  1.00  0.00     0.000 C 
ENDROOT
BRANCH   1   2
ATOM      2  C   UNL     1      -3.436   9.382 -40.296  1.00  0.00     0.000 C 
BRANCH   2   3
ATOM      3  C   UNL     1      -2.739   8.812 -39.046  1.00  0.00     0.000 C 
BRANCH   3   4
ATOM      4  C   UNL     1      -1.211   8.660 -39.167  1.00  0.00     0.000 C 
BRANCH   4   5
ATOM      5  C   UNL     1      -0.417   9.710 -38.362  1.00  0.00     0.001 C 
BRANCH   5   6
ATOM      6  C   UNL     1      -1.241  10.980 -38.084  1.00  0.00     0.009 C 
BRANCH   6   7
ATOM      7  C   UNL     1      -0.445  12.051 -37.309  1.00  0.00     0.032 C 
ATOM      8  C   UNL     1       0.868  12.424 -38.011  1.00  0.00     0.014 C 
BRANCH   7   9
ATOM      9  C   UNL     1      -1.289  13.283 -37.135  1.00  0.00     0.044 C 
ATOM     10  O   UNL     1      -1.870  13.504 -36.039  1.00  0.00    -0.550 OA
ATOM     11  O   UNL     1      -1.438  14.187 -38.182  1.00  0.00    -0.550 OA
ENDBRANCH   7   9
ENDBRANCH   6   7
ENDBRANCH   5   6
ENDBRANCH   4   5
ENDBRANCH   3   4
ENDBRANCH   2   3
ENDBRANCH   1   2
BRANCH   1  12
ATOM     12  C   UNL     1      -5.544   8.927 -38.908  1.00  0.00     0.000 C 
BRANCH  12  13
ATOM     13  C   UNL     1      -7.071   8.837 -39.009  1.00  0.00    -0.000 C 
BRANCH  13  14
ATOM     14  C   UNL     1      -7.517   7.415 -39.379  1.00  0.00    -0.000 C 
BRANCH  14  15
ATOM     15  C   UNL     1      -7.385   7.116 -40.884  1.00  0.00    -0.000 C 
BRANCH  15  16
ATOM     16  C   UNL     1      -7.841   5.708 -41.307  1.00  0.00    -0.000 C 
BRANCH  16  17
ATOM     17  C   UNL     1      -8.023   4.755 -40.113  1.00  0.00    -0.000 C 
BRANCH  17  18
ATOM     18  C   UNL     1      -9.417   4.110 -40.082  1.00  0.00    -0.003 C 
ATOM     19  C   UNL     1      -9.627   3.107 -41.216  1.00  0.00     0.004 C 
ENDBRANCH  17  18
ENDBRANCH  16  17
ENDBRANCH  15  16
ENDBRANCH  14  15
ENDBRANCH  13  14
ENDBRANCH  12  13
ENDBRANCH   1  12
TORSDOF 14
ENDMDL
MODEL 4
REMARK VINA RESULT:    -5.090      3.552      5.783
REMARK INTER + INTRA:         -10.043
REMARK INTER:                  -9.142
REMARK INTRA:                  -0.901
REMARK UNBOUND:                -0.787
REMARK SMILES CCCCCCCCCCCCCC[C@@H](C)C(=O)[O-]
REMARK SMILES IDX 9 1 10 2 11 3 12 4 13 5 14 6 15 7 16 8 17 9 18 10 19 11 8 12
REMARK SMILES IDX 7 13 6 14 5 15 4 16 3 17 2 18 1 19
REMARK H PARENT
REMARK Flexibility Score: inf
ROOT
ATOM      1  C   UNL     1      -0.682  10.212 -38.284  1.00  0.00     0.000 C 
ENDROOT
BRANCH   1   2
ATOM      2  C   UNL     1      -2.080  10.802 -38.021  1.00  0.00     0.000 C 
BRANCH   2   3
ATOM      3  C   UNL     1      -2.730  10.365 -36.695  1.00  0.00     0.000 C 
BRANCH   3   4
ATOM      4  C   UNL     1      -3.932   9.414 -36.843  1.00  0.00     0.000 C 
BRANCH   4   5
ATOM      5  C   UNL     1      -4.313   9.119 -38.309  1.00  0.00     0.001 C 
BRANCH   5   6
ATOM      6  C   UNL     1      -5.539   8.195 -38.421  1.00  0.00     0.009 C 
BRANCH   6   7
ATOM      7  C   UNL     1      -6.393   8.484 -39.674  1.00  0.00     0.032 C 
ATOM      8  C   UNL     1      -7.352   7.332 -40.005  1.00  0.00     0.014 C 
BRANCH   7   9
ATOM      9  C   UNL     1      -7.180   9.749 -39.469  1.00  0.00     0.044 C 
ATOM     10  O   UNL     1      -8.079   9.800 -38.588  1.00  0.00    -0.550 OA
ATOM     11  O   UNL     1      -6.923  10.870 -40.251  1.00  0.00    -0.550 OA
ENDBRANCH   7   9
ENDBRANCH   6   7
ENDBRANCH   5   6
ENDBRANCH   4   5
ENDBRANCH   3   4
ENDBRANCH   2   3
ENDBRANCH   1   2
BRANCH   1  12
ATOM     12  C   UNL     1      -0.687   8.680 -38.385  1.00  0.00     0.000 C 
BRANCH  12  13
ATOM     13  C   UNL     1      -1.365   8.217 -39.681  1.00  0.00    -0.000 C 
BRANCH  13  14
ATOM     14  C   UNL     1      -0.631   7.012 -40.286  1.00  0.00    -0.000 C 
BRANCH  14  15
ATOM     15  C   UNL     1       0.210   7.379 -41.522  1.00  0.00    -0.000 C 
BRANCH  15  16
ATOM     16  C   UNL     1       0.561   6.195 -42.442  1.00  0.00    -0.000 C 
BRANCH  16  17
ATOM     17  C   UNL     1       2.077   5.979 -42.586  1.00  0.00    -0.000 C 
BRANCH  17  18
ATOM     18  C   UNL     1       2.695   5.300 -41.353  1.00  0.00    -0.003 C 
ATOM     19  C   UNL     1       4.196   5.062 -41.503  1.00  0.00     0.004 C 
ENDBRANCH  17  18
ENDBRANCH  16  17
ENDBRANCH  15  16
ENDBRANCH  14  15
ENDBRANCH  13  14
ENDBRANCH  12  13
ENDBRANCH   1  12
TORSDOF 14
ENDMDL
MODEL 5
REMARK VINA RESULT:    -5.034      4.325      9.227
REMARK INTER + INTRA:          -9.942
REMARK INTER:                  -9.339
REMARK INTRA:                  -0.603
REMARK UNBOUND:                -0.787
REMARK SMILES CCCCCCCCCCCCCC[C@@H](C)C(=O)[O-]
REMARK SMILES IDX 9 1 10 2 11 3 12 4 13 5 14 6 15 7 16 8 17 9 18 10 19 11 8 12
REMARK SMILES IDX 7 13 6 14 5 15 4 16 3 17 2 18 1 19
REMARK H PARENT
REMARK Flexibility Score: inf
ROOT
ATOM      1  C   UNL     1      -4.472   9.346 -39.915  1.00  0.00     0.000 C 
ENDROOT
BRANCH   1   2
ATOM      2  C   UNL     1      -2.945   9.385 -40.111  1.00  0.00     0.000 C 
BRANCH   2   3
ATOM      3  C   UNL     1      -2.180   8.202 -39.488  1.00  0.00     0.000 C 
BRANCH   3   4
ATOM      4  C   UNL     1      -1.023   8.597 -38.551  1.00  0.00     0.000 C 
BRANCH   4   5
ATOM      5  C   UNL     1      -0.614  10.081 -38.663  1.00  0.00     0.001 C 
BRANCH   5   6
ATOM      6  C   UNL     1      -1.263  10.951 -37.572  1.00  0.00     0.009 C 
BRANCH   6   7
ATOM      7  C   UNL     1      -0.734  12.402 -37.570  1.00  0.00     0.032 C 
ATOM      8  C   UNL     1      -1.103  13.155 -36.285  1.00  0.00     0.014 C 
BRANCH   7   9
ATOM      9  C   UNL     1       0.760  12.397 -37.739  1.00  0.00     0.044 C 
ATOM     10  O   UNL     1       1.308  13.193 -38.547  1.00  0.00    -0.550 OA
ATOM     11  O   UNL     1       1.546  11.514 -37.007  1.00  0.00    -0.550 OA
ENDBRANCH   7   9
ENDBRANCH   6   7
ENDBRANCH   5   6
ENDBRANCH   4   5
ENDBRANCH   3   4
ENDBRANCH   2   3
ENDBRANCH   1   2
BRANCH   1  12
ATOM     12  C   UNL     1      -4.883   8.900 -38.504  1.00  0.00     0.000 C 
BRANCH  12  13
ATOM     13  C   UNL     1      -6.383   8.586 -38.441  1.00  0.00    -0.000 C 
BRANCH  13  14
ATOM     14  C   UNL     1      -7.052   8.816 -39.804  1.00  0.00    -0.000 C 
BRANCH  14  15
ATOM     15  C   UNL     1      -7.370   7.505 -40.546  1.00  0.00    -0.000 C 
BRANCH  15  16
ATOM     16  C   UNL     1      -7.754   6.323 -39.638  1.00  0.00    -0.000 C 
BRANCH  16  17
ATOM     17  C   UNL     1      -7.878   4.995 -40.405  1.00  0.00    -0.000 C 
BRANCH  17  18
ATOM     18  C   UNL     1      -9.156   4.224 -40.043  1.00  0.00    -0.003 C 
ATOM     19  C   UNL     1      -9.619   3.293 -41.163  1.00  0.00     0.004 C 
ENDBRANCH  17  18
ENDBRANCH  16  17
ENDBRANCH  15  16
ENDBRANCH  14  15
ENDBRANCH  13  14
ENDBRANCH  12  13
ENDBRANCH   1  12
TORSDOF 14
ENDMDL
MODEL 6
REMARK VINA RESULT:    -4.560      3.705      8.878
REMARK INTER + INTRA:          -9.079
REMARK INTER:                  -8.297
REMARK INTRA:                  -0.782
REMARK UNBOUND:                -0.787
REMARK SMILES CCCCCCCCCCCCCC[C@@H](C)C(=O)[O-]
REMARK SMILES IDX 9 1 10 2 11 3 12 4 13 5 14 6 15 7 16 8 17 9 18 10 19 11 8 12
REMARK SMILES IDX 7 13 6 14 5 15 4 16 3 17 2 18 1 19
REMARK H PARENT
REMARK Flexibility Score: inf
ROOT
ATOM      1  C   UNL     1      -2.467   8.469 -39.199  1.00  0.00     0.000 C 
ENDROOT
BRANCH   1   2
ATOM      2  C   UNL     1      -1.003   8.769 -38.829  1.00  0.00     0.000 C 
BRANCH   2   3
ATOM      3  C   UNL     1      -0.756  10.170 -38.238  1.00  0.00     0.000 C 
BRANCH   3   4
ATOM      4  C   UNL     1       0.506  10.882 -38.759  1.00  0.00     0.000 C 
BRANCH   4   5
ATOM      5  C   UNL     1       0.840  12.185 -38.002  1.00  0.00     0.001 C 
BRANCH   5   6
ATOM      6  C   UNL     1       0.048  12.318 -36.688  1.00  0.00     0.009 C 
BRANCH   6   7
ATOM      7  C   UNL     1      -1.020  13.431 -36.744  1.00  0.00     0.032 C 
ATOM      8  C   UNL     1      -1.386  13.816 -38.184  1.00  0.00     0.014 C 
BRANCH   7   9
ATOM      9  C   UNL     1      -2.255  12.985 -36.013  1.00  0.00     0.044 C 
ATOM     10  O   UNL     1      -3.067  13.837 -35.561  1.00  0.00    -0.550 OA
ATOM     11  O   UNL     1      -2.512  11.631 -35.828  1.00  0.00    -0.550 OA
ENDBRANCH   7   9
ENDBRANCH   6   7
ENDBRANCH   5   6
ENDBRANCH   4   5
ENDBRANCH   3   4
ENDBRANCH   2   3
ENDBRANCH   1   2
BRANCH   1  12
ATOM     12  C   UNL     1      -3.227   9.710 -39.690  1.00  0.00     0.000 C 
BRANCH  12  13
ATOM     13  C   UNL     1      -4.680   9.364 -40.036  1.00  0.00    -0.000 C 
BRANCH  13  14
ATOM     14  C   UNL     1      -5.405   8.754 -38.828  1.00  0.00    -0.000 C 
BRANCH  14  15
ATOM     15  C   UNL     1      -6.904   8.515 -39.085  1.00  0.00    -0.000 C 
BRANCH  15  16
ATOM     16  C   UNL     1      -7.217   7.564 -40.254  1.00  0.00    -0.000 C 
BRANCH  16  17
ATOM     17  C   UNL     1      -7.720   6.187 -39.787  1.00  0.00    -0.000 C 
BRANCH  17  18
ATOM     18  C   UNL     1      -8.063   5.255 -40.960  1.00  0.00    -0.003 C 
ATOM     19  C   UNL     1      -8.960   4.091 -40.545  1.00  0.00     0.004 C 
ENDBRANCH  17  18
ENDBRANCH  16  17
ENDBRANCH  15  16
ENDBRANCH  14  15
ENDBRANCH  13  14
ENDBRANCH  12  13
ENDBRANCH   1  12
TORSDOF 14
ENDMDL
MODEL 7
REMARK VINA RESULT:    -4.422      2.690      4.393
REMARK INTER + INTRA:          -8.829
REMARK INTER:                  -8.449
REMARK INTRA:                  -0.380
REMARK UNBOUND:                -0.787
REMARK SMILES CCCCCCCCCCCCCC[C@@H](C)C(=O)[O-]
REMARK SMILES IDX 9 1 10 2 11 3 12 4 13 5 14 6 15 7 16 8 17 9 18 10 19 11 8 12
REMARK SMILES IDX 7 13 6 14 5 15 4 16 3 17 2 18 1 19
REMARK H PARENT
REMARK Flexibility Score: inf
ROOT
ATOM      1  C   UNL     1      -1.018  10.516 -38.503  1.00  0.00     0.000 C 
ENDROOT
BRANCH   1   2
ATOM      2  C   UNL     1      -1.045   8.982 -38.366  1.00  0.00     0.000 C 
BRANCH   2   3
ATOM      3  C   UNL     1      -1.954   8.256 -39.375  1.00  0.00     0.000 C 
BRANCH   3   4
ATOM      4  C   UNL     1      -3.247   9.007 -39.742  1.00  0.00     0.000 C 
BRANCH   4   5
ATOM      5  C   UNL     1      -4.254   9.115 -38.576  1.00  0.00     0.001 C 
BRANCH   5   6
ATOM      6  C   UNL     1      -5.387   8.079 -38.685  1.00  0.00     0.009 C 
BRANCH   6   7
ATOM      7  C   UNL     1      -6.408   8.423 -39.790  1.00  0.00     0.032 C 
ATOM      8  C   UNL     1      -7.372   7.262 -40.076  1.00  0.00     0.014 C 
BRANCH   7   9
ATOM      9  C   UNL     1      -7.193   9.642 -39.394  1.00  0.00     0.044 C 
ATOM     10  O   UNL     1      -7.019  10.732 -40.001  1.00  0.00    -0.550 OA
ATOM     11  O   UNL     1      -8.114   9.578 -38.355  1.00  0.00    -0.550 OA
ENDBRANCH   7   9
ENDBRANCH   6   7
ENDBRANCH   5   6
ENDBRANCH   4   5
ENDBRANCH   3   4
ENDBRANCH   2   3
ENDBRANCH   1   2
BRANCH   1  12
ATOM     12  C   UNL     1      -1.680  11.235 -37.318  1.00  0.00     0.000 C 
BRANCH  12  13
ATOM     13  C   UNL     1      -0.942  12.536 -36.983  1.00  0.00    -0.000 C 
BRANCH  13  14
ATOM     14  C   UNL     1       0.562  12.406 -37.262  1.00  0.00    -0.000 C 
BRANCH  14  15
ATOM     15  C   UNL     1       0.964  12.942 -38.648  1.00  0.00    -0.000 C 
BRANCH  15  16
ATOM     16  C   UNL     1       1.777  11.961 -39.512  1.00  0.00    -0.000 C 
BRANCH  16  17
ATOM     17  C   UNL     1       2.344  12.613 -40.785  1.00  0.00    -0.000 C 
BRANCH  17  18
ATOM     18  C   UNL     1       3.088  11.610 -41.679  1.00  0.00    -0.003 C 
ATOM     19  C   UNL     1       2.140  10.750 -42.515  1.00  0.00     0.004 C 
ENDBRANCH  17  18
ENDBRANCH  16  17
ENDBRANCH  15  16
ENDBRANCH  14  15
ENDBRANCH  13  14
ENDBRANCH  12  13
ENDBRANCH   1  12
TORSDOF 14
ENDMDL
MODEL 8
REMARK VINA RESULT:    -4.251      3.790      8.310
REMARK INTER + INTRA:          -8.517
REMARK INTER:                  -7.607
REMARK INTRA:                  -0.910
REMARK UNBOUND:                -0.787
REMARK SMILES CCCCCCCCCCCCCC[C@@H](C)C(=O)[O-]
REMARK SMILES IDX 9 1 10 2 11 3 12 4 13 5 14 6 15 7 16 8 17 9 18 10 19 11 8 12
REMARK SMILES IDX 7 13 6 14 5 15 4 16 3 17 2 18 1 19
REMARK H PARENT
REMARK Flexibility Score: inf
ROOT
ATOM      1  C   UNL     1      -4.259   8.973 -38.173  1.00  0.00     0.000 C 
ENDROOT
BRANCH   1   2
ATOM      2  C   UNL     1      -3.078   9.667 -37.470  1.00  0.00     0.000 C 
BRANCH   2   3
ATOM      3  C   UNL     1      -1.775   9.719 -38.290  1.00  0.00     0.000 C 
BRANCH   3   4
ATOM      4  C   UNL     1      -1.222   8.347 -38.718  1.00  0.00     0.000 C 
BRANCH   4   5
ATOM      5  C   UNL     1      -0.779   8.291 -40.196  1.00  0.00     0.001 C 
BRANCH   5   6
ATOM      6  C   UNL     1      -0.399   6.866 -40.639  1.00  0.00     0.009 C 
BRANCH   6   7
ATOM      7  C   UNL     1       0.394   6.844 -41.963  1.00  0.00     0.032 C 
ATOM      8  C   UNL     1       0.998   8.213 -42.304  1.00  0.00     0.014 C 
BRANCH   7   9
ATOM      9  C   UNL     1       1.489   5.817 -41.881  1.00  0.00     0.044 C 
ATOM     10  O   UNL     1       2.417   5.812 -42.733  1.00  0.00    -0.550 OA
ATOM     11  O   UNL     1       1.486   4.866 -40.867  1.00  0.00    -0.550 OA
ENDBRANCH   7   9
ENDBRANCH   6   7
ENDBRANCH   5   6
ENDBRANCH   4   5
ENDBRANCH   3   4
ENDBRANCH   2   3
ENDBRANCH   1   2
BRANCH   1  12
ATOM     12  C   UNL     1      -4.443   9.429 -39.628  1.00  0.00     0.000 C 
BRANCH  12  13
ATOM     13  C   UNL     1      -5.923   9.412 -40.028  1.00  0.00    -0.000 C 
BRANCH  13  14
ATOM     14  C   UNL     1      -6.773   8.702 -38.964  1.00  0.00    -0.000 C 
BRANCH  14  15
ATOM     15  C   UNL     1      -7.303   7.335 -39.432  1.00  0.00    -0.000 C 
BRANCH  15  16
ATOM     16  C   UNL     1      -7.379   7.158 -40.959  1.00  0.00    -0.000 C 
BRANCH  16  17
ATOM     17  C   UNL     1      -7.800   5.738 -41.377  1.00  0.00    -0.000 C 
BRANCH  17  18
ATOM     18  C   UNL     1      -8.376   4.926 -40.205  1.00  0.00    -0.003 C 
ATOM     19  C   UNL     1      -9.247   3.761 -40.669  1.00  0.00     0.004 C 
ENDBRANCH  17  18
ENDBRANCH  16  17
ENDBRANCH  15  16
ENDBRANCH  14  15
ENDBRANCH  13  14
ENDBRANCH  12  13
ENDBRANCH   1  12
TORSDOF 14
ENDMDL
MODEL 9
REMARK VINA RESULT:    -3.866     14.362     16.058
REMARK INTER + INTRA:          -7.818
REMARK INTER:                  -5.773
REMARK INTRA:                  -2.045
REMARK UNBOUND:                -0.787
REMARK SMILES CCCCCCCCCCCCCC[C@@H](C)C(=O)[O-]
REMARK SMILES IDX 9 1 10 2 11 3 12 4 13 5 14 6 15 7 16 8 17 9 18 10 19 11 8 12
REMARK SMILES IDX 7 13 6 14 5 15 4 16 3 17 2 18 1 19
REMARK H PARENT
REMARK Flexibility Score: inf
ROOT
ATOM      1  C   UNL     1      -9.293   5.192 -25.286  1.00  0.00     0.000 C 
ENDROOT
BRANCH   1   2
ATOM      2  C   UNL     1      -9.623   3.991 -26.192  1.00  0.00     0.000 C 
BRANCH   2   3
ATOM      3  C   UNL     1     -11.098   3.547 -26.170  1.00  0.00     0.000 C 
BRANCH   3   4
ATOM      4  C   UNL     1     -11.979   4.164 -27.272  1.00  0.00     0.000 C 
BRANCH   4   5
ATOM      5  C   UNL     1     -12.866   5.327 -26.777  1.00  0.00     0.001 C 
BRANCH   5   6
ATOM      6  C   UNL     1     -12.151   6.687 -26.864  1.00  0.00     0.009 C 
BRANCH   6   7
ATOM      7  C   UNL     1     -12.321   7.533 -25.584  1.00  0.00     0.032 C 
ATOM      8  C   UNL     1     -12.644   6.673 -24.354  1.00  0.00     0.014 C 
BRANCH   7   9
ATOM      9  C   UNL     1     -11.068   8.324 -25.329  1.00  0.00     0.044 C 
ATOM     10  O   UNL     1     -10.327   8.665 -26.291  1.00  0.00    -0.550 OA
ATOM     11  O   UNL     1     -10.715   8.683 -24.033  1.00  0.00    -0.550 OA
ENDBRANCH   7   9
ENDBRANCH   6   7
ENDBRANCH   5   6
ENDBRANCH   4   5
ENDBRANCH   3   4
ENDBRANCH   2   3
ENDBRANCH   1   2
BRANCH   1  12
ATOM     12  C   UNL     1      -9.336   4.843 -23.791  1.00  0.00     0.000 C 
BRANCH  12  13
ATOM     13  C   UNL     1      -7.962   4.377 -23.296  1.00  0.00    -0.000 C 
BRANCH  13  14
ATOM     14  C   UNL     1      -7.947   2.861 -23.056  1.00  0.00    -0.000 C 
BRANCH  14  15
ATOM     15  C   UNL     1      -7.104   2.096 -24.092  1.00  0.00    -0.000 C 
BRANCH  15  16
ATOM     16  C   UNL     1      -6.133   2.968 -24.908  1.00  0.00    -0.000 C 
BRANCH  16  17
ATOM     17  C   UNL     1      -5.801   2.367 -26.284  1.00  0.00    -0.000 C 
BRANCH  17  18
ATOM     18  C   UNL     1      -6.135   3.323 -27.441  1.00  0.00    -0.003 C 
ATOM     19  C   UNL     1      -5.414   2.954 -28.736  1.00  0.00     0.004 C 
ENDBRANCH  17  18
ENDBRANCH  16  17
ENDBRANCH  15  16
ENDBRANCH  14  15
ENDBRANCH  13  14
ENDBRANCH  12  13
ENDBRANCH   1  12
TORSDOF 14
ENDMDL
