MODEL 1
REMARK VINA RESULT:    -3.891      0.000      0.000
REMARK INTER + INTRA:          -7.610
REMARK INTER:                  -6.280
REMARK INTRA:                  -1.331
REMARK UNBOUND:                -1.331
REMARK SMILES CCCCCCCCCCCCO
REMARK SMILES IDX 7 1 6 2 5 3 4 4 3 5 2 6 1 7 8 8 9 9 10 10 11 11 12 12 13 13
REMARK H PARENT 13 14
REMARK Flexibility Score: inf
ROOT
ATOM      1  C   UNL     1       3.800  12.531  11.977  1.00  0.00     0.000 C 
ENDROOT
BRANCH   1   2
ATOM      2  C   UNL     1       4.785  13.269  12.899  1.00  0.00    -0.000 C 
BRANCH   2   3
ATOM      3  C   UNL     1       4.904  12.609  14.285  1.00  0.00    -0.000 C 
BRANCH   3   4
ATOM      4  C   UNL     1       5.919  11.455  14.303  1.00  0.00    -0.000 C 
BRANCH   4   5
ATOM      5  C   UNL     1       5.251  10.079  14.482  1.00  0.00    -0.000 C 
BRANCH   5   6
ATOM      6  C   UNL     1       6.206   8.917  14.167  1.00  0.00    -0.003 C 
ATOM      7  C   UNL     1       5.592   7.891  13.214  1.00  0.00     0.004 C 
ENDBRANCH   5   6
ENDBRANCH   4   5
ENDBRANCH   3   4
ENDBRANCH   2   3
ENDBRANCH   1   2
BRANCH   1   8
ATOM      8  C   UNL     1       4.450  12.061  10.667  1.00  0.00     0.000 C 
BRANCH   8   9
ATOM      9  C   UNL     1       4.876  10.588  10.763  1.00  0.00     0.000 C 
BRANCH   9  10
ATOM     10  C   UNL     1       6.240  10.320  10.107  1.00  0.00     0.002 C 
BRANCH  10  11
ATOM     11  C   UNL     1       7.418  10.780  10.981  1.00  0.00     0.028 C 
BRANCH  11  12
ATOM     12  C   UNL     1       8.765  10.521  10.297  1.00  0.00     0.156 C 
BRANCH  12  13
ATOM     13  O   UNL     1       9.090   9.158  10.331  1.00  0.00    -0.396 OA
ATOM     14  H   UNL     1       9.878   9.068  10.930  1.00  0.00     0.210 HD
ENDBRANCH  12  13
ENDBRANCH  11  12
ENDBRANCH  10  11
ENDBRANCH   9  10
ENDBRANCH   8   9
ENDBRANCH   1   8
TORSDOF 11
ENDMDL
MODEL 2
REMARK VINA RESULT:    -3.881      3.519      5.612
REMARK INTER + INTRA:          -7.594
REMARK INTER:                  -6.165
REMARK INTRA:                  -1.429
REMARK UNBOUND:                -1.331
REMARK SMILES CCCCCCCCCCCCO
REMARK SMILES IDX 7 1 6 2 5 3 4 4 3 5 2 6 1 7 8 8 9 9 10 10 11 11 12 12 13 13
REMARK H PARENT 13 14
REMARK Flexibility Score: inf
ROOT
ATOM      1  C   UNL     1       7.230  11.269  13.052  1.00  0.00     0.000 C 
ENDROOT
BRANCH   1   2
ATOM      2  C   UNL     1       6.798  10.277  14.144  1.00  0.00    -0.000 C 
BRANCH   2   3
ATOM      3  C   UNL     1       5.323  10.450  14.550  1.00  0.00    -0.000 C 
BRANCH   3   4
ATOM      4  C   UNL     1       4.391  10.591  13.336  1.00  0.00    -0.000 C 
BRANCH   4   5
ATOM      5  C   UNL     1       3.540  11.873  13.387  1.00  0.00    -0.000 C 
BRANCH   5   6
ATOM      6  C   UNL     1       3.820  12.811  12.202  1.00  0.00    -0.003 C 
ATOM      7  C   UNL     1       4.295  12.062  10.957  1.00  0.00     0.004 C 
ENDBRANCH   5   6
ENDBRANCH   4   5
ENDBRANCH   3   4
ENDBRANCH   2   3
ENDBRANCH   1   2
BRANCH   1   8
ATOM      8  C   UNL     1       7.977  12.487  13.616  1.00  0.00     0.000 C 
BRANCH   8   9
ATOM      9  C   UNL     1       7.004  13.640  13.908  1.00  0.00     0.000 C 
BRANCH   9  10
ATOM     10  C   UNL     1       6.968  14.024  15.396  1.00  0.00     0.002 C 
BRANCH  10  11
ATOM     11  C   UNL     1       5.561  13.907  16.003  1.00  0.00     0.028 C 
BRANCH  11  12
ATOM     12  C   UNL     1       5.521  14.428  17.444  1.00  0.00     0.156 C 
BRANCH  12  13
ATOM     13  O   UNL     1       4.531  15.409  17.595  1.00  0.00    -0.396 OA
ATOM     14  H   UNL     1       4.942  16.152  18.110  1.00  0.00     0.210 HD
ENDBRANCH  12  13
ENDBRANCH  11  12
ENDBRANCH  10  11
ENDBRANCH   9  10
ENDBRANCH   8   9
ENDBRANCH   1   8
TORSDOF 11
ENDMDL
MODEL 3
REMARK VINA RESULT:    -3.849      3.394      5.344
REMARK INTER + INTRA:          -7.542
REMARK INTER:                  -6.550
REMARK INTRA:                  -0.992
REMARK UNBOUND:                -1.331
REMARK SMILES CCCCCCCCCCCCO
REMARK SMILES IDX 7 1 6 2 5 3 4 4 3 5 2 6 1 7 8 8 9 9 10 10 11 11 12 12 13 13
REMARK H PARENT 13 14
REMARK Flexibility Score: inf
ROOT
ATOM      1  C   UNL     1       3.652  12.925  12.133  1.00  0.00     0.000 C 
ENDROOT
BRANCH   1   2
ATOM      2  C   UNL     1       3.899  11.603  11.387  1.00  0.00    -0.000 C 
BRANCH   2   3
ATOM      3  C   UNL     1       4.757  11.789  10.123  1.00  0.00    -0.000 C 
BRANCH   3   4
ATOM      4  C   UNL     1       6.086  11.019  10.195  1.00  0.00    -0.000 C 
BRANCH   4   5
ATOM      5  C   UNL     1       6.292  10.314  11.548  1.00  0.00    -0.000 C 
BRANCH   5   6
ATOM      6  C   UNL     1       7.643  10.661  12.191  1.00  0.00    -0.003 C 
ATOM      7  C   UNL     1       7.889  12.168  12.269  1.00  0.00     0.004 C 
ENDBRANCH   5   6
ENDBRANCH   4   5
ENDBRANCH   3   4
ENDBRANCH   2   3
ENDBRANCH   1   2
BRANCH   1   8
ATOM      8  C   UNL     1       4.670  13.173  13.257  1.00  0.00     0.000 C 
BRANCH   8   9
ATOM      9  C   UNL     1       4.246  12.456  14.548  1.00  0.00     0.000 C 
BRANCH   9  10
ATOM     10  C   UNL     1       5.213  12.716  15.715  1.00  0.00     0.002 C 
BRANCH  10  11
ATOM     11  C   UNL     1       5.671  14.182  15.790  1.00  0.00     0.028 C 
BRANCH  11  12
ATOM     12  C   UNL     1       5.865  14.641  17.239  1.00  0.00     0.156 C 
BRANCH  12  13
ATOM     13  O   UNL     1       4.705  15.258  17.729  1.00  0.00    -0.396 OA
ATOM     14  H   UNL     1       4.500  14.828  18.600  1.00  0.00     0.210 HD
ENDBRANCH  12  13
ENDBRANCH  11  12
ENDBRANCH  10  11
ENDBRANCH   9  10
ENDBRANCH   8   9
ENDBRANCH   1   8
TORSDOF 11
ENDMDL
MODEL 4
REMARK VINA RESULT:    -3.833      2.017      3.586
REMARK INTER + INTRA:          -7.516
REMARK INTER:                  -5.912
REMARK INTRA:                  -1.604
REMARK UNBOUND:                -1.331
REMARK SMILES CCCCCCCCCCCCO
REMARK SMILES IDX 7 1 6 2 5 3 4 4 3 5 2 6 1 7 8 8 9 9 10 10 11 11 12 12 13 13
REMARK H PARENT 13 14
REMARK Flexibility Score: inf
ROOT
ATOM      1  C   UNL     1       3.943  12.787  12.035  1.00  0.00     0.000 C 
ENDROOT
BRANCH   1   2
ATOM      2  C   UNL     1       4.400  11.808  10.940  1.00  0.00    -0.000 C 
BRANCH   2   3
ATOM      3  C   UNL     1       5.892  11.448  11.055  1.00  0.00    -0.000 C 
BRANCH   3   4
ATOM      4  C   UNL     1       6.116  10.033  11.614  1.00  0.00    -0.000 C 
BRANCH   4   5
ATOM      5  C   UNL     1       6.770  10.042  13.007  1.00  0.00    -0.000 C 
BRANCH   5   6
ATOM      6  C   UNL     1       5.911   9.331  14.064  1.00  0.00    -0.003 C 
ATOM      7  C   UNL     1       6.311   9.697  15.493  1.00  0.00     0.004 C 
ENDBRANCH   5   6
ENDBRANCH   4   5
ENDBRANCH   3   4
ENDBRANCH   2   3
ENDBRANCH   1   2
BRANCH   1   8
ATOM      8  C   UNL     1       3.468  12.074  13.309  1.00  0.00     0.000 C 
BRANCH   8   9
ATOM      9  C   UNL     1       4.205  12.611  14.545  1.00  0.00     0.000 C 
BRANCH   9  10
ATOM     10  C   UNL     1       5.291  13.640  14.188  1.00  0.00     0.002 C 
BRANCH  10  11
ATOM     11  C   UNL     1       6.660  13.290  14.793  1.00  0.00     0.028 C 
BRANCH  11  12
ATOM     12  C   UNL     1       7.796  13.520  13.791  1.00  0.00     0.156 C 
BRANCH  12  13
ATOM     13  O   UNL     1       8.878  12.668  14.054  1.00  0.00    -0.396 OA
ATOM     14  H   UNL     1       8.692  12.234  14.928  1.00  0.00     0.210 HD
ENDBRANCH  12  13
ENDBRANCH  11  12
ENDBRANCH  10  11
ENDBRANCH   9  10
ENDBRANCH   8   9
ENDBRANCH   1   8
TORSDOF 11
ENDMDL
MODEL 5
REMARK VINA RESULT:    -3.832      1.518      2.533
REMARK INTER + INTRA:          -7.516
REMARK INTER:                  -6.402
REMARK INTRA:                  -1.114
REMARK UNBOUND:                -1.331
REMARK SMILES CCCCCCCCCCCCO
REMARK SMILES IDX 7 1 6 2 5 3 4 4 3 5 2 6 1 7 8 8 9 9 10 10 11 11 12 12 13 13
REMARK H PARENT 13 14
REMARK Flexibility Score: inf
ROOT
ATOM      1  C   UNL     1       4.284  12.021  11.214  1.00  0.00     0.000 C 
ENDROOT
BRANCH   1   2
ATOM      2  C   UNL     1       3.646  12.897  12.306  1.00  0.00    -0.000 C 
BRANCH   2   3
ATOM      3  C   UNL     1       3.632  12.209  13.682  1.00  0.00    -0.000 C 
BRANCH   3   4
ATOM      4  C   UNL     1       4.955  12.387  14.444  1.00  0.00    -0.000 C 
BRANCH   4   5
ATOM      5  C   UNL     1       5.678  13.697  14.080  1.00  0.00    -0.000 C 
BRANCH   5   6
ATOM      6  C   UNL     1       7.207  13.553  14.120  1.00  0.00    -0.003 C 
ATOM      7  C   UNL     1       7.793  13.105  12.782  1.00  0.00     0.004 C 
ENDBRANCH   5   6
ENDBRANCH   4   5
ENDBRANCH   3   4
ENDBRANCH   2   3
ENDBRANCH   1   2
BRANCH   1   8
ATOM      8  C   UNL     1       3.630  10.635  11.106  1.00  0.00     0.000 C 
BRANCH   8   9
ATOM      9  C   UNL     1       4.668   9.521  11.312  1.00  0.00     0.000 C 
BRANCH   9  10
ATOM     10  C   UNL     1       6.101  10.063  11.449  1.00  0.00     0.002 C 
BRANCH  10  11
ATOM     11  C   UNL     1       6.969   9.758  10.217  1.00  0.00     0.028 C 
BRANCH  11  12
ATOM     12  C   UNL     1       8.436  10.138  10.452  1.00  0.00     0.156 C 
BRANCH  12  13
ATOM     13  O   UNL     1       9.273   9.025  10.292  1.00  0.00    -0.396 OA
ATOM     14  H   UNL     1       9.234   8.774   9.332  1.00  0.00     0.210 HD
ENDBRANCH  12  13
ENDBRANCH  11  12
ENDBRANCH  10  11
ENDBRANCH   9  10
ENDBRANCH   8   9
ENDBRANCH   1   8
TORSDOF 11
ENDMDL
MODEL 6
REMARK VINA RESULT:    -3.824      2.606      3.966
REMARK INTER + INTRA:          -7.502
REMARK INTER:                  -5.877
REMARK INTRA:                  -1.625
REMARK UNBOUND:                -1.331
REMARK SMILES CCCCCCCCCCCCO
REMARK SMILES IDX 7 1 6 2 5 3 4 4 3 5 2 6 1 7 8 8 9 9 10 10 11 11 12 12 13 13
REMARK H PARENT 13 14
REMARK Flexibility Score: inf
ROOT
ATOM      1  C   UNL     1       4.018  12.509  11.424  1.00  0.00     0.000 C 
ENDROOT
BRANCH   1   2
ATOM      2  C   UNL     1       4.418  11.208  10.709  1.00  0.00    -0.000 C 
BRANCH   2   3
ATOM      3  C   UNL     1       5.898  11.195  10.289  1.00  0.00    -0.000 C 
BRANCH   3   4
ATOM      4  C   UNL     1       6.797  10.490  11.317  1.00  0.00    -0.000 C 
BRANCH   4   5
ATOM      5  C   UNL     1       6.027   9.475  12.181  1.00  0.00    -0.000 C 
BRANCH   5   6
ATOM      6  C   UNL     1       6.484   9.488  13.648  1.00  0.00    -0.003 C 
ATOM      7  C   UNL     1       5.334   9.249  14.627  1.00  0.00     0.004 C 
ENDBRANCH   5   6
ENDBRANCH   4   5
ENDBRANCH   3   4
ENDBRANCH   2   3
ENDBRANCH   1   2
BRANCH   1   8
ATOM      8  C   UNL     1       3.415  12.262  12.815  1.00  0.00     0.000 C 
BRANCH   8   9
ATOM      9  C   UNL     1       4.370  12.741  13.919  1.00  0.00     0.000 C 
BRANCH   9  10
ATOM     10  C   UNL     1       5.535  13.583  13.373  1.00  0.00     0.002 C 
BRANCH  10  11
ATOM     11  C   UNL     1       6.893  13.167  13.962  1.00  0.00     0.028 C 
BRANCH  11  12
ATOM     12  C   UNL     1       7.670  14.375  14.498  1.00  0.00     0.156 C 
BRANCH  12  13
ATOM     13  O   UNL     1       6.835  15.494  14.620  1.00  0.00    -0.396 OA
ATOM     14  H   UNL     1       7.399  16.291  14.440  1.00  0.00     0.210 HD
ENDBRANCH  12  13
ENDBRANCH  11  12
ENDBRANCH  10  11
ENDBRANCH   9  10
ENDBRANCH   8   9
ENDBRANCH   1   8
TORSDOF 11
ENDMDL
MODEL 7
REMARK VINA RESULT:    -3.755      1.527      2.536
REMARK INTER + INTRA:          -7.390
REMARK INTER:                  -5.752
REMARK INTRA:                  -1.638
REMARK UNBOUND:                -1.331
REMARK SMILES CCCCCCCCCCCCO
REMARK SMILES IDX 7 1 6 2 5 3 4 4 3 5 2 6 1 7 8 8 9 9 10 10 11 11 12 12 13 13
REMARK H PARENT 13 14
REMARK Flexibility Score: inf
ROOT
ATOM      1  C   UNL     1       3.830  12.511  11.978  1.00  0.00     0.000 C 
ENDROOT
BRANCH   1   2
ATOM      2  C   UNL     1       4.831  13.259  12.875  1.00  0.00    -0.000 C 
BRANCH   2   3
ATOM      3  C   UNL     1       5.118  12.514  14.190  1.00  0.00    -0.000 C 
BRANCH   3   4
ATOM      4  C   UNL     1       6.597  12.121  14.334  1.00  0.00    -0.000 C 
BRANCH   4   5
ATOM      5  C   UNL     1       7.406  12.370  13.048  1.00  0.00    -0.000 C 
BRANCH   5   6
ATOM      6  C   UNL     1       7.742  11.067  12.305  1.00  0.00    -0.003 C 
ATOM      7  C   UNL     1       8.074  11.298  10.831  1.00  0.00     0.004 C 
ENDBRANCH   5   6
ENDBRANCH   4   5
ENDBRANCH   3   4
ENDBRANCH   2   3
ENDBRANCH   1   2
BRANCH   1   8
ATOM      8  C   UNL     1       4.404  12.182  10.592  1.00  0.00     0.000 C 
BRANCH   8   9
ATOM      9  C   UNL     1       4.393  10.667  10.339  1.00  0.00     0.000 C 
BRANCH   9  10
ATOM     10  C   UNL     1       4.288   9.849  11.637  1.00  0.00     0.002 C 
BRANCH  10  11
ATOM     11  C   UNL     1       5.124   8.560  11.594  1.00  0.00     0.028 C 
BRANCH  11  12
ATOM     12  C   UNL     1       5.799   8.369  10.231  1.00  0.00     0.156 C 
BRANCH  12  13
ATOM     13  O   UNL     1       7.063   7.780  10.375  1.00  0.00    -0.396 OA
ATOM     14  H   UNL     1       7.407   7.616   9.458  1.00  0.00     0.210 HD
ENDBRANCH  12  13
ENDBRANCH  11  12
ENDBRANCH  10  11
ENDBRANCH   9  10
ENDBRANCH   8   9
ENDBRANCH   1   8
TORSDOF 11
ENDMDL
MODEL 8
REMARK VINA RESULT:    -3.744      1.902      3.332
REMARK INTER + INTRA:          -7.373
REMARK INTER:                  -6.403
REMARK INTRA:                  -0.970
REMARK UNBOUND:                -1.331
REMARK SMILES CCCCCCCCCCCCO
REMARK SMILES IDX 7 1 6 2 5 3 4 4 3 5 2 6 1 7 8 8 9 9 10 10 11 11 12 12 13 13
REMARK H PARENT 13 14
REMARK Flexibility Score: inf
ROOT
ATOM      1  C   UNL     1       6.811  14.025  14.361  1.00  0.00     0.000 C 
ENDROOT
BRANCH   1   2
ATOM      2  C   UNL     1       5.934  13.654  15.569  1.00  0.00    -0.000 C 
BRANCH   2   3
ATOM      3  C   UNL     1       4.952  12.512  15.257  1.00  0.00    -0.000 C 
BRANCH   3   4
ATOM      4  C   UNL     1       3.994  12.856  14.105  1.00  0.00    -0.000 C 
BRANCH   4   5
ATOM      5  C   UNL     1       4.154  11.914  12.897  1.00  0.00    -0.000 C 
BRANCH   5   6
ATOM      6  C   UNL     1       3.988  12.645  11.556  1.00  0.00    -0.003 C 
ATOM      7  C   UNL     1       4.324  11.760  10.356  1.00  0.00     0.004 C 
ENDBRANCH   5   6
ENDBRANCH   4   5
ENDBRANCH   3   4
ENDBRANCH   2   3
ENDBRANCH   1   2
BRANCH   1   8
ATOM      8  C   UNL     1       8.077  13.161  14.257  1.00  0.00     0.000 C 
BRANCH   8   9
ATOM      9  C   UNL     1       7.792  11.863  13.485  1.00  0.00     0.000 C 
BRANCH   9  10
ATOM     10  C   UNL     1       8.070  11.996  11.979  1.00  0.00     0.002 C 
BRANCH  10  11
ATOM     11  C   UNL     1       7.720  10.719  11.198  1.00  0.00     0.028 C 
BRANCH  11  12
ATOM     12  C   UNL     1       8.757  10.420  10.110  1.00  0.00     0.156 C 
BRANCH  12  13
ATOM     13  O   UNL     1       9.280   9.128  10.258  1.00  0.00    -0.396 OA
ATOM     14  H   UNL     1      10.081   9.210  10.840  1.00  0.00     0.210 HD
ENDBRANCH  12  13
ENDBRANCH  11  12
ENDBRANCH  10  11
ENDBRANCH   9  10
ENDBRANCH   8   9
ENDBRANCH   1   8
TORSDOF 11
ENDMDL
