MODEL 1
REMARK VINA RESULT:    -4.705      0.000      0.000
REMARK INTER + INTRA:          -5.885
REMARK INTER:                  -6.355
REMARK INTRA:                   0.470
REMARK UNBOUND:                 0.470
REMARK SMILES C=C(C)[C@@H]1CC[C@H](C)C2=C(C1)[C@@H](C)CC2
REMARK SMILES IDX 10 1 9 2 15 3 14 4 12 5 13 6 7 7 8 8 6 9 11 11 4 12 5 13
REMARK SMILES IDX 2 15 1 16 3 17
REMARK H PARENT
REMARK Flexibility Score: 80.00
ROOT
ATOM      1  C   UNL     1      12.016  32.764  21.977  1.00  0.00    -0.067 C 
ATOM      2  C   UNL     1      11.659  33.253  20.787  1.00  0.00    -0.068 C 
ATOM      3  C   UNL     1      12.845  33.682  19.989  1.00  0.00     0.032 C 
ATOM      4  C   UNL     1      14.026  33.554  20.949  1.00  0.00     0.012 C 
ATOM      5  C   UNL     1      13.502  32.762  22.156  1.00  0.00     0.012 C 
ATOM      6  C   UNL     1      14.048  31.329  22.174  1.00  0.00     0.012 C 
ENDROOT
BRANCH   2   7
ATOM      7  C   UNL     1      10.250  33.389  20.249  1.00  0.00     0.012 C 
ATOM      8  C   UNL     1       9.662  32.037  19.821  1.00  0.00     0.012 C 
BRANCH   7   9
ATOM      9  C   UNL     1       9.327  34.204  21.179  1.00  0.00     0.008 CG0
ATOM     10  G   UNL     1       8.929  33.513  22.494  1.00  0.00     0.000 G0
ENDBRANCH   7   9
ENDBRANCH   2   7
BRANCH   1  11
ATOM     11  C   UNL     1      11.073  32.276  23.051  1.00  0.00     0.039 C 
BRANCH  11  12
ATOM     12  C   UNL     1      10.081  33.367  23.499  1.00  0.00     0.018 C 
BRANCH  12  13
ATOM     13  C   UNL     1       8.911  33.537  22.505  1.00  0.00     0.009 CG0
ATOM     14  G   UNL     1       9.321  34.200  21.180  1.00  0.00     0.000 G0
ENDBRANCH  12  13
BRANCH  12  15
ATOM     15  C   UNL     1       9.535  33.041  24.884  1.00  0.00    -0.077 C 
ATOM     16  C   UNL     1      10.371  32.892  25.924  1.00  0.00     0.008 C 
ATOM     17  C   UNL     1       8.053  32.887  25.120  1.00  0.00     0.039 C 
ENDBRANCH  12  15
ENDBRANCH  11  12
ENDBRANCH   1  11
TORSDOF 1
ENDMDL
MODEL 2
REMARK VINA RESULT:    -4.580      1.793      4.173
REMARK INTER + INTRA:          -5.717
REMARK INTER:                  -6.183
REMARK INTRA:                   0.466
REMARK UNBOUND:                 0.470
REMARK SMILES C=C(C)[C@@H]1CC[C@H](C)C2=C(C1)[C@@H](C)CC2
REMARK SMILES IDX 10 1 9 2 15 3 14 4 12 5 13 6 7 7 8 8 6 9 11 11 4 12 5 13
REMARK SMILES IDX 2 15 1 16 3 17
REMARK H PARENT
REMARK Flexibility Score: 80.00
ROOT
ATOM      1  C   UNL     1       9.497  33.873  22.901  1.00  0.00    -0.067 C 
ATOM      2  C   UNL     1      10.722  33.351  22.997  1.00  0.00    -0.068 C 
ATOM      3  C   UNL     1      11.123  33.140  24.419  1.00  0.00     0.032 C 
ATOM      4  C   UNL     1      10.007  33.790  25.236  1.00  0.00     0.012 C 
ATOM      5  C   UNL     1       8.867  34.069  24.245  1.00  0.00     0.012 C 
ATOM      6  C   UNL     1       7.694  33.103  24.445  1.00  0.00     0.012 C 
ENDROOT
BRANCH   2   7
ATOM      7  C   UNL     1      11.649  32.997  21.852  1.00  0.00     0.012 C 
ATOM      8  C   UNL     1      12.941  32.329  22.340  1.00  0.00     0.012 C 
BRANCH   7   9
ATOM      9  C   UNL     1      10.937  32.227  20.720  1.00  0.00     0.008 CG0
ATOM     10  G   UNL     1       9.469  31.857  20.987  1.00  0.00     0.000 G0
ENDBRANCH   7   9
ENDBRANCH   2   7
BRANCH   1  11
ATOM     11  C   UNL     1       8.794  34.250  21.619  1.00  0.00     0.039 C 
BRANCH  11  12
ATOM     12  C   UNL     1       8.481  33.022  20.740  1.00  0.00     0.018 C 
BRANCH  12  13
ATOM     13  C   UNL     1       9.470  31.861  20.985  1.00  0.00     0.009 CG0
ATOM     14  G   UNL     1      10.937  32.237  20.721  1.00  0.00     0.000 G0
ENDBRANCH  12  13
BRANCH  12  15
ATOM     15  C   UNL     1       7.056  32.545  20.996  1.00  0.00    -0.077 C 
ATOM     16  C   UNL     1       6.829  31.305  21.459  1.00  0.00     0.008 C 
ATOM     17  C   UNL     1       5.877  33.451  20.747  1.00  0.00     0.039 C 
ENDBRANCH  12  15
ENDBRANCH  11  12
ENDBRANCH   1  11
TORSDOF 1
ENDMDL
MODEL 3
REMARK VINA RESULT:    -4.499      1.438      4.400
REMARK INTER + INTRA:          -5.607
REMARK INTER:                  -6.130
REMARK INTRA:                   0.523
REMARK UNBOUND:                 0.470
REMARK SMILES C=C(C)[C@@H]1CC[C@H](C)C2=C(C1)[C@@H](C)CC2
REMARK SMILES IDX 10 1 9 2 15 3 14 4 12 5 13 6 7 7 8 8 6 9 11 11 4 12 5 13
REMARK SMILES IDX 2 15 1 16 3 17
REMARK H PARENT
REMARK Flexibility Score: 80.00
ROOT
ATOM      1  C   UNL     1      10.096  32.841  23.124  1.00  0.00    -0.067 C 
ATOM      2  C   UNL     1       9.084  32.624  22.280  1.00  0.00    -0.068 C 
ATOM      3  C   UNL     1       7.812  32.333  23.006  1.00  0.00     0.032 C 
ATOM      4  C   UNL     1       8.222  32.218  24.474  1.00  0.00     0.012 C 
ATOM      5  C   UNL     1       9.658  32.758  24.553  1.00  0.00     0.012 C 
ATOM      6  C   UNL     1       9.709  34.136  25.222  1.00  0.00     0.012 C 
ENDROOT
BRANCH   2   7
ATOM      7  C   UNL     1       9.144  32.650  20.767  1.00  0.00     0.012 C 
ATOM      8  C   UNL     1       9.248  34.079  20.218  1.00  0.00     0.012 C 
BRANCH   7   9
ATOM      9  C   UNL     1      10.198  31.681  20.191  1.00  0.00     0.008 CG0
ATOM     10  G   UNL     1      11.665  32.095  20.396  1.00  0.00     0.000 G0
ENDBRANCH   7   9
ENDBRANCH   2   7
BRANCH   1  11
ATOM     11  C   UNL     1      11.526  33.125  22.734  1.00  0.00     0.039 C 
BRANCH  11  12
ATOM     12  C   UNL     1      12.132  31.999  21.871  1.00  0.00     0.018 C 
BRANCH  12  13
ATOM     13  C   UNL     1      11.668  32.076  20.401  1.00  0.00     0.009 CG0
ATOM     14  G   UNL     1      10.198  31.672  20.197  1.00  0.00     0.000 G0
ENDBRANCH  12  13
BRANCH  12  15
ATOM     15  C   UNL     1      13.654  32.054  21.933  1.00  0.00    -0.077 C 
ATOM     16  C   UNL     1      14.306  33.180  21.600  1.00  0.00     0.008 C 
ATOM     17  C   UNL     1      14.458  30.858  22.375  1.00  0.00     0.039 C 
ENDBRANCH  12  15
ENDBRANCH  11  12
ENDBRANCH   1  11
TORSDOF 1
ENDMDL
MODEL 4
REMARK VINA RESULT:    -4.481      1.530      2.327
REMARK INTER + INTRA:          -5.583
REMARK INTER:                  -6.019
REMARK INTRA:                   0.437
REMARK UNBOUND:                 0.470
REMARK SMILES C=C(C)[C@@H]1CC[C@H](C)C2=C(C1)[C@@H](C)CC2
REMARK SMILES IDX 10 1 9 2 15 3 14 4 12 5 13 6 7 7 8 8 6 9 11 11 4 12 5 13
REMARK SMILES IDX 2 15 1 16 3 17
REMARK H PARENT
REMARK Flexibility Score: 80.00
ROOT
ATOM      1  C   UNL     1      10.172  33.764  21.803  1.00  0.00    -0.067 C 
ATOM      2  C   UNL     1      10.395  33.490  20.516  1.00  0.00    -0.068 C 
ATOM      3  C   UNL     1      11.795  33.029  20.284  1.00  0.00     0.032 C 
ATOM      4  C   UNL     1      12.496  33.229  21.627  1.00  0.00     0.012 C 
ATOM      5  C   UNL     1      11.381  33.503  22.647  1.00  0.00     0.012 C 
ATOM      6  C   UNL     1      11.152  32.304  23.573  1.00  0.00     0.012 C 
ENDROOT
BRANCH   2   7
ATOM      7  C   UNL     1       9.402  33.612  19.378  1.00  0.00     0.012 C 
ATOM      8  C   UNL     1       9.974  33.086  18.054  1.00  0.00     0.012 C 
BRANCH   7   9
ATOM      9  C   UNL     1       8.013  33.040  19.729  1.00  0.00     0.008 CG0
ATOM     10  G   UNL     1       7.916  32.308  21.078  1.00  0.00     0.000 G0
ENDBRANCH   7   9
ENDBRANCH   2   7
BRANCH   1  11
ATOM     11  C   UNL     1       8.881  34.289  22.385  1.00  0.00     0.039 C 
BRANCH  11  12
ATOM     12  C   UNL     1       7.735  33.263  22.286  1.00  0.00     0.018 C 
BRANCH  12  13
ATOM     13  C   UNL     1       7.909  32.306  21.086  1.00  0.00     0.009 CG0
ATOM     14  G   UNL     1       8.026  33.029  19.735  1.00  0.00     0.000 G0
ENDBRANCH  12  13
BRANCH  12  15
ATOM     15  C   UNL     1       7.642  32.457  23.577  1.00  0.00    -0.077 C 
ATOM     16  C   UNL     1       7.422  31.133  23.534  1.00  0.00     0.008 C 
ATOM     17  C   UNL     1       7.801  33.121  24.921  1.00  0.00     0.039 C 
ENDBRANCH  12  15
ENDBRANCH  11  12
ENDBRANCH   1  11
TORSDOF 1
ENDMDL
MODEL 5
REMARK VINA RESULT:    -4.469      2.635      3.866
REMARK INTER + INTRA:          -5.566
REMARK INTER:                  -5.979
REMARK INTRA:                   0.413
REMARK UNBOUND:                 0.470
REMARK SMILES C=C(C)[C@@H]1CC[C@H](C)C2=C(C1)[C@@H](C)CC2
REMARK SMILES IDX 10 1 9 2 15 3 14 4 12 5 13 6 7 7 8 8 6 9 11 11 4 12 5 13
REMARK SMILES IDX 2 15 1 16 3 17
REMARK H PARENT
REMARK Flexibility Score: 80.00
ROOT
ATOM      1  C   UNL     1      13.581  33.552  20.587  1.00  0.00    -0.067 C 
ATOM      2  C   UNL     1      12.513  33.844  19.840  1.00  0.00    -0.068 C 
ATOM      3  C   UNL     1      12.903  34.440  18.528  1.00  0.00     0.032 C 
ATOM      4  C   UNL     1      14.413  34.652  18.632  1.00  0.00     0.012 C 
ATOM      5  C   UNL     1      14.860  33.879  19.882  1.00  0.00     0.012 C 
ATOM      6  C   UNL     1      15.624  32.601  19.515  1.00  0.00     0.012 C 
ENDROOT
BRANCH   2   7
ATOM      7  C   UNL     1      11.060  33.631  20.213  1.00  0.00     0.012 C 
ATOM      8  C   UNL     1      10.108  34.037  19.080  1.00  0.00     0.012 C 
BRANCH   7   9
ATOM      9  C   UNL     1      10.787  32.223  20.783  1.00  0.00     0.008 CG0
ATOM     10  G   UNL     1      11.997  31.275  20.825  1.00  0.00     0.000 G0
ENDBRANCH   7   9
ENDBRANCH   2   7
BRANCH   1  11
ATOM     11  C   UNL     1      13.553  32.975  21.982  1.00  0.00     0.039 C 
BRANCH  11  12
ATOM     12  C   UNL     1      12.960  31.552  22.014  1.00  0.00     0.018 C 
BRANCH  12  13
ATOM     13  C   UNL     1      12.012  31.287  20.825  1.00  0.00     0.009 CG0
ATOM     14  G   UNL     1      10.798  32.229  20.783  1.00  0.00     0.000 G0
ENDBRANCH  12  13
BRANCH  12  15
ATOM     15  C   UNL     1      14.080  30.518  22.019  1.00  0.00    -0.077 C 
ATOM     16  C   UNL     1      14.150  29.590  21.051  1.00  0.00     0.008 C 
ATOM     17  C   UNL     1      15.133  30.518  23.098  1.00  0.00     0.039 C 
ENDBRANCH  12  15
ENDBRANCH  11  12
ENDBRANCH   1  11
TORSDOF 1
ENDMDL
MODEL 6
REMARK VINA RESULT:    -4.246      2.767      4.665
REMARK INTER + INTRA:          -5.265
REMARK INTER:                  -5.707
REMARK INTRA:                   0.442
REMARK UNBOUND:                 0.470
REMARK SMILES C=C(C)[C@@H]1CC[C@H](C)C2=C(C1)[C@@H](C)CC2
REMARK SMILES IDX 10 1 9 2 15 3 14 4 12 5 13 6 7 7 8 8 6 9 11 11 4 12 5 13
REMARK SMILES IDX 2 15 1 16 3 17
REMARK H PARENT
REMARK Flexibility Score: 80.00
ROOT
ATOM      1  C   UNL     1      14.294  30.938  20.907  1.00  0.00    -0.067 C 
ATOM      2  C   UNL     1      14.997  31.097  19.783  1.00  0.00    -0.068 C 
ATOM      3  C   UNL     1      14.946  29.879  18.923  1.00  0.00     0.032 C 
ATOM      4  C   UNL     1      14.232  28.831  19.776  1.00  0.00     0.012 C 
ATOM      5  C   UNL     1      13.634  29.595  20.967  1.00  0.00     0.012 C 
ATOM      6  C   UNL     1      12.111  29.729  20.847  1.00  0.00     0.012 C 
ENDROOT
BRANCH   2   7
ATOM      7  C   UNL     1      15.777  32.328  19.369  1.00  0.00     0.012 C 
ATOM      8  C   UNL     1      16.353  32.196  17.952  1.00  0.00     0.012 C 
BRANCH   7   9
ATOM      9  C   UNL     1      15.000  33.640  19.607  1.00  0.00     0.008 CG0
ATOM     10  G   UNL     1      13.537  33.476  20.050  1.00  0.00     0.000 G0
ENDBRANCH   7   9
ENDBRANCH   2   7
BRANCH   1  11
ATOM     11  C   UNL     1      14.161  31.952  22.018  1.00  0.00     0.039 C 
BRANCH  11  12
ATOM     12  C   UNL     1      13.396  33.213  21.570  1.00  0.00     0.018 C 
BRANCH  12  13
ATOM     13  C   UNL     1      13.545  33.481  20.057  1.00  0.00     0.009 CG0
ATOM     14  G   UNL     1      15.004  33.642  19.602  1.00  0.00     0.000 G0
ENDBRANCH  12  13
BRANCH  12  15
ATOM     15  C   UNL     1      11.919  33.082  21.926  1.00  0.00    -0.077 C 
ATOM     16  C   UNL     1      11.551  32.666  23.149  1.00  0.00     0.008 C 
ATOM     17  C   UNL     1      10.845  33.422  20.924  1.00  0.00     0.039 C 
ENDBRANCH  12  15
ENDBRANCH  11  12
ENDBRANCH   1  11
TORSDOF 1
ENDMDL
MODEL 7
REMARK VINA RESULT:    -4.014      4.328      5.917
REMARK INTER + INTRA:          -4.952
REMARK INTER:                  -5.361
REMARK INTRA:                   0.408
REMARK UNBOUND:                 0.470
REMARK SMILES C=C(C)[C@@H]1CC[C@H](C)C2=C(C1)[C@@H](C)CC2
REMARK SMILES IDX 10 1 9 2 15 3 14 4 12 5 13 6 7 7 8 8 6 9 11 11 4 12 5 13
REMARK SMILES IDX 2 15 1 16 3 17
REMARK H PARENT
REMARK Flexibility Score: 80.00
ROOT
ATOM      1  C   UNL     1      15.141  31.394  20.288  1.00  0.00    -0.067 C 
ATOM      2  C   UNL     1      14.489  30.230  20.238  1.00  0.00    -0.068 C 
ATOM      3  C   UNL     1      14.146  29.729  21.601  1.00  0.00     0.032 C 
ATOM      4  C   UNL     1      14.856  30.688  22.556  1.00  0.00     0.012 C 
ATOM      5  C   UNL     1      15.316  31.874  21.696  1.00  0.00     0.012 C 
ATOM      6  C   UNL     1      14.467  33.125  21.956  1.00  0.00     0.012 C 
ENDROOT
BRANCH   2   7
ATOM      7  C   UNL     1      14.113  29.455  18.992  1.00  0.00     0.012 C 
ATOM      8  C   UNL     1      13.322  28.181  19.320  1.00  0.00     0.012 C 
BRANCH   7   9
ATOM      9  C   UNL     1      13.454  30.338  17.911  1.00  0.00     0.008 CG0
ATOM     10  G   UNL     1      13.246  31.813  18.293  1.00  0.00     0.000 G0
ENDBRANCH   7   9
ENDBRANCH   2   7
BRANCH   1  11
ATOM     11  C   UNL     1      15.671  32.163  19.102  1.00  0.00     0.039 C 
BRANCH  11  12
ATOM     12  C   UNL     1      14.543  32.656  18.174  1.00  0.00     0.018 C 
BRANCH  12  13
ATOM     13  C   UNL     1      13.258  31.811  18.316  1.00  0.00     0.009 CG0
ATOM     14  G   UNL     1      13.446  30.336  17.928  1.00  0.00     0.000 G0
ENDBRANCH  12  13
BRANCH  12  15
ATOM     15  C   UNL     1      14.230  34.120  18.463  1.00  0.00    -0.077 C 
ATOM     16  C   UNL     1      15.226  35.000  18.656  1.00  0.00     0.008 C 
ATOM     17  C   UNL     1      12.806  34.612  18.531  1.00  0.00     0.039 C 
ENDBRANCH  12  15
ENDBRANCH  11  12
ENDBRANCH   1  11
TORSDOF 1
ENDMDL
MODEL 8
REMARK VINA RESULT:    -4.009      1.487      4.624
REMARK INTER + INTRA:          -4.946
REMARK INTER:                  -5.339
REMARK INTRA:                   0.394
REMARK UNBOUND:                 0.470
REMARK SMILES C=C(C)[C@@H]1CC[C@H](C)C2=C(C1)[C@@H](C)CC2
REMARK SMILES IDX 10 1 9 2 15 3 14 4 12 5 13 6 7 7 8 8 6 9 11 11 4 12 5 13
REMARK SMILES IDX 2 15 1 16 3 17
REMARK H PARENT
REMARK Flexibility Score: 80.00
ROOT
ATOM      1  C   UNL     1       9.053  32.924  21.753  1.00  0.00    -0.067 C 
ATOM      2  C   UNL     1       8.360  32.567  22.837  1.00  0.00    -0.068 C 
ATOM      3  C   UNL     1       7.289  31.581  22.508  1.00  0.00     0.032 C 
ATOM      4  C   UNL     1       7.292  31.501  20.982  1.00  0.00     0.012 C 
ATOM      5  C   UNL     1       8.575  32.212  20.526  1.00  0.00     0.012 C 
ATOM      6  C   UNL     1       9.628  31.215  20.027  1.00  0.00     0.012 C 
ENDROOT
BRANCH   2   7
ATOM      7  C   UNL     1       8.574  33.061  24.253  1.00  0.00     0.012 C 
ATOM      8  C   UNL     1       7.610  32.400  25.247  1.00  0.00     0.012 C 
BRANCH   7   9
ATOM      9  C   UNL     1      10.053  33.010  24.690  1.00  0.00     0.008 CG0
ATOM     10  G   UNL     1      11.035  32.446  23.650  1.00  0.00     0.000 G0
ENDBRANCH   7   9
ENDBRANCH   2   7
BRANCH   1  11
ATOM     11  C   UNL     1      10.179  33.929  21.715  1.00  0.00     0.039 C 
BRANCH  11  12
ATOM     12  C   UNL     1      11.402  33.468  22.534  1.00  0.00     0.018 C 
BRANCH  12  13
ATOM     13  C   UNL     1      11.022  32.446  23.627  1.00  0.00     0.009 CG0
ATOM     14  G   UNL     1      10.065  33.009  24.690  1.00  0.00     0.000 G0
ENDBRANCH  12  13
BRANCH  12  15
ATOM     15  C   UNL     1      12.453  32.865  21.609  1.00  0.00    -0.077 C 
ATOM     16  C   UNL     1      12.728  33.442  20.428  1.00  0.00     0.008 C 
ATOM     17  C   UNL     1      13.211  31.621  22.000  1.00  0.00     0.039 C 
ENDBRANCH  12  15
ENDBRANCH  11  12
ENDBRANCH   1  11
TORSDOF 1
ENDMDL
MODEL 9
REMARK VINA RESULT:    -3.978      1.908      5.202
REMARK INTER + INTRA:          -4.903
REMARK INTER:                  -5.322
REMARK INTRA:                   0.419
REMARK UNBOUND:                 0.470
REMARK SMILES C=C(C)[C@@H]1CC[C@H](C)C2=C(C1)[C@@H](C)CC2
REMARK SMILES IDX 10 1 9 2 15 3 14 4 12 5 13 6 7 7 8 8 6 9 11 11 4 12 5 13
REMARK SMILES IDX 2 15 1 16 3 17
REMARK H PARENT
REMARK Flexibility Score: 80.00
ROOT
ATOM      1  C   UNL     1       8.110  32.544  23.354  1.00  0.00    -0.067 C 
ATOM      2  C   UNL     1       8.549  32.377  24.604  1.00  0.00    -0.068 C 
ATOM      3  C   UNL     1       8.009  31.128  25.217  1.00  0.00     0.032 C 
ATOM      4  C   UNL     1       6.991  30.608  24.203  1.00  0.00     0.012 C 
ATOM      5  C   UNL     1       7.225  31.417  22.919  1.00  0.00     0.012 C 
ATOM      6  C   UNL     1       7.906  30.575  21.834  1.00  0.00     0.012 C 
ENDROOT
BRANCH   2   7
ATOM      7  C   UNL     1       9.477  33.298  25.369  1.00  0.00     0.012 C 
ATOM      8  C   UNL     1       9.823  32.745  26.758  1.00  0.00     0.012 C 
BRANCH   7   9
ATOM      9  C   UNL     1      10.708  33.731  24.545  1.00  0.00     0.008 CG0
ATOM     10  G   UNL     1      10.820  33.114  23.142  1.00  0.00     0.000 G0
ENDBRANCH   7   9
ENDBRANCH   2   7
BRANCH   1  11
ATOM     11  C   UNL     1       8.425  33.715  22.455  1.00  0.00     0.039 C 
BRANCH  11  12
ATOM     12  C   UNL     1       9.921  33.784  22.088  1.00  0.00     0.018 C 
BRANCH  12  13
ATOM     13  C   UNL     1      10.815  33.104  23.147  1.00  0.00     0.009 CG0
ATOM     14  G   UNL     1      10.692  33.726  24.547  1.00  0.00     0.000 G0
ENDBRANCH  12  13
BRANCH  12  15
ATOM     15  C   UNL     1      10.155  33.138  20.727  1.00  0.00    -0.077 C 
ATOM     16  C   UNL     1       9.533  33.613  19.635  1.00  0.00     0.008 C 
ATOM     17  C   UNL     1      11.090  31.965  20.573  1.00  0.00     0.039 C 
ENDBRANCH  12  15
ENDBRANCH  11  12
ENDBRANCH   1  11
TORSDOF 1
ENDMDL
