MODEL 1
REMARK VINA RESULT:    -4.410      0.000      0.000
REMARK INTER + INTRA:          -6.425
REMARK INTER:                  -5.441
REMARK INTRA:                  -0.984
REMARK UNBOUND:                -0.984
REMARK SMILES CC(C)=CCC[C@@H](C)c1ccc(C)cc1
REMARK SMILES IDX 6 1 7 2 8 3 9 4 13 5 12 6 11 7 14 8 10 9 15 10 5 11 4 12
REMARK SMILES IDX 2 13 1 14 3 15
REMARK H PARENT
REMARK Flexibility Score: inf
ROOT
ATOM      1  C   UNL     1      -5.651  -8.020  13.737  1.00  0.00     0.012 C 
ENDROOT
BRANCH   1   2
ATOM      2  C   UNL     1      -5.272  -9.457  13.294  1.00  0.00     0.016 C 
ATOM      3  C   UNL     1      -6.221 -10.036  12.232  1.00  0.00     0.013 C 
BRANCH   2   4
ATOM      4  C   UNL     1      -3.798  -9.593  12.940  1.00  0.00    -0.045 A 
ATOM      5  C   UNL     1       0.427  -9.825  12.057  1.00  0.00     0.044 C 
ATOM      6  C   UNL     1      -1.040  -9.773  12.363  1.00  0.00    -0.051 A 
ATOM      7  C   UNL     1      -1.975  -9.673  11.324  1.00  0.00     0.004 A 
ATOM      8  C   UNL     1      -1.485  -9.747  13.692  1.00  0.00     0.004 A 
ATOM      9  C   UNL     1      -3.341  -9.585  11.606  1.00  0.00     0.004 A 
ATOM     10  C   UNL     1      -2.850  -9.658  13.977  1.00  0.00     0.004 A 
ENDBRANCH   2   4
ENDBRANCH   1   2
BRANCH   1  11
ATOM     11  C   UNL     1      -5.337  -6.884  12.741  1.00  0.00     0.028 C 
BRANCH  11  12
ATOM     12  C   UNL     1      -6.544  -6.416  11.966  1.00  0.00    -0.028 C 
ATOM     13  C   UNL     1      -6.655  -6.441  10.620  1.00  0.00    -0.080 C 
ATOM     14  C   UNL     1      -5.569  -7.004   9.731  1.00  0.00     0.039 C 
ATOM     15  C   UNL     1      -7.926  -5.922   9.997  1.00  0.00     0.039 C 
ENDBRANCH  11  12
ENDBRANCH   1  11
TORSDOF 4
ENDMDL
MODEL 2
REMARK VINA RESULT:    -4.307      1.717      3.368
REMARK INTER + INTRA:          -6.298
REMARK INTER:                  -4.832
REMARK INTRA:                  -1.466
REMARK UNBOUND:                -0.984
REMARK SMILES CC(C)=CCC[C@@H](C)c1ccc(C)cc1
REMARK SMILES IDX 6 1 7 2 8 3 9 4 13 5 12 6 11 7 14 8 10 9 15 10 5 11 4 12
REMARK SMILES IDX 2 13 1 14 3 15
REMARK H PARENT
REMARK Flexibility Score: inf
ROOT
ATOM      1  C   UNL     1      -7.883  -6.187  11.522  1.00  0.00     0.012 C 
ENDROOT
BRANCH   1   2
ATOM      2  C   UNL     1      -8.110  -7.631  12.040  1.00  0.00     0.016 C 
ATOM      3  C   UNL     1      -8.933  -8.500  11.073  1.00  0.00     0.013 C 
BRANCH   2   4
ATOM      4  C   UNL     1      -6.826  -8.293  12.519  1.00  0.00    -0.045 A 
ATOM      5  C   UNL     1      -3.082 -10.001  13.841  1.00  0.00     0.044 C 
ATOM      6  C   UNL     1      -4.394  -9.422  13.404  1.00  0.00    -0.051 A 
ATOM      7  C   UNL     1      -5.162 -10.072  12.427  1.00  0.00     0.004 A 
ATOM      8  C   UNL     1      -4.828  -8.189  13.910  1.00  0.00     0.004 A 
ATOM      9  C   UNL     1      -6.367  -9.516  11.988  1.00  0.00     0.004 A 
ATOM     10  C   UNL     1      -6.032  -7.631  13.472  1.00  0.00     0.004 A 
ENDBRANCH   2   4
ENDBRANCH   1   2
BRANCH   1  11
ATOM     11  C   UNL     1      -7.379  -6.044  10.071  1.00  0.00     0.028 C 
BRANCH  11  12
ATOM     12  C   UNL     1      -5.918  -6.384   9.908  1.00  0.00    -0.028 C 
ATOM     13  C   UNL     1      -5.440  -7.394   9.148  1.00  0.00    -0.080 C 
ATOM     14  C   UNL     1      -6.345  -8.280   8.323  1.00  0.00     0.039 C 
ATOM     15  C   UNL     1      -3.949  -7.611   9.103  1.00  0.00     0.039 C 
ENDBRANCH  11  12
ENDBRANCH   1  11
TORSDOF 4
ENDMDL
MODEL 3
REMARK VINA RESULT:    -4.296      2.167      4.185
REMARK INTER + INTRA:          -6.285
REMARK INTER:                  -4.746
REMARK INTRA:                  -1.538
REMARK UNBOUND:                -0.984
REMARK SMILES CC(C)=CCC[C@@H](C)c1ccc(C)cc1
REMARK SMILES IDX 6 1 7 2 8 3 9 4 13 5 12 6 11 7 14 8 10 9 15 10 5 11 4 12
REMARK SMILES IDX 2 13 1 14 3 15
REMARK H PARENT
REMARK Flexibility Score: inf
ROOT
ATOM      1  C   UNL     1      -8.373  -8.209  11.173  1.00  0.00     0.012 C 
ENDROOT
BRANCH   1   2
ATOM      2  C   UNL     1      -7.722  -7.480   9.969  1.00  0.00     0.016 C 
ATOM      3  C   UNL     1      -7.856  -5.949  10.042  1.00  0.00     0.013 C 
BRANCH   2   4
ATOM      4  C   UNL     1      -6.306  -7.959   9.686  1.00  0.00    -0.045 A 
ATOM      5  C   UNL     1      -2.277  -9.398   9.069  1.00  0.00     0.044 C 
ATOM      6  C   UNL     1      -3.681  -8.906   9.256  1.00  0.00    -0.051 A 
ATOM      7  C   UNL     1      -3.992  -7.558   9.030  1.00  0.00     0.004 A 
ATOM      8  C   UNL     1      -4.676  -9.771   9.732  1.00  0.00     0.004 A 
ATOM      9  C   UNL     1      -5.291  -7.087   9.242  1.00  0.00     0.004 A 
ATOM     10  C   UNL     1      -5.976  -9.301   9.944  1.00  0.00     0.004 A 
ENDBRANCH   2   4
ENDBRANCH   1   2
BRANCH   1  11
ATOM     11  C   UNL     1      -8.105  -7.612  12.571  1.00  0.00     0.028 C 
BRANCH  11  12
ATOM     12  C   UNL     1      -6.976  -8.290  13.306  1.00  0.00    -0.028 C 
ATOM     13  C   UNL     1      -5.714  -7.817  13.390  1.00  0.00    -0.080 C 
ATOM     14  C   UNL     1      -5.305  -6.497  12.778  1.00  0.00     0.039 C 
ATOM     15  C   UNL     1      -4.696  -8.625  14.153  1.00  0.00     0.039 C 
ENDBRANCH  11  12
ENDBRANCH   1  11
TORSDOF 4
ENDMDL
MODEL 4
REMARK VINA RESULT:    -4.210     16.118     17.359
REMARK INTER + INTRA:          -6.178
REMARK INTER:                  -4.618
REMARK INTRA:                  -1.560
REMARK UNBOUND:                -0.984
REMARK SMILES CC(C)=CCC[C@@H](C)c1ccc(C)cc1
REMARK SMILES IDX 6 1 7 2 8 3 9 4 13 5 12 6 11 7 14 8 10 9 15 10 5 11 4 12
REMARK SMILES IDX 2 13 1 14 3 15
REMARK H PARENT
REMARK Flexibility Score: inf
ROOT
ATOM      1  C   UNL     1       1.751   8.082   6.338  1.00  0.00     0.012 C 
ENDROOT
BRANCH   1   2
ATOM      2  C   UNL     1       3.207   7.997   6.864  1.00  0.00     0.016 C 
ATOM      3  C   UNL     1       3.750   9.343   7.372  1.00  0.00     0.013 C 
BRANCH   2   4
ATOM      4  C   UNL     1       3.415   6.845   7.837  1.00  0.00    -0.045 A 
ATOM      5  C   UNL     1       3.803   3.546  10.604  1.00  0.00     0.044 C 
ATOM      6  C   UNL     1       3.692   4.681   9.630  1.00  0.00    -0.051 A 
ATOM      7  C   UNL     1       4.263   5.926   9.930  1.00  0.00     0.004 A 
ATOM      8  C   UNL     1       2.951   4.532   8.450  1.00  0.00     0.004 A 
ATOM      9  C   UNL     1       4.128   6.998   9.043  1.00  0.00     0.004 A 
ATOM     10  C   UNL     1       2.815   5.603   7.562  1.00  0.00     0.004 A 
ENDBRANCH   2   4
ENDBRANCH   1   2
BRANCH   1  11
ATOM     11  C   UNL     1       0.708   8.704   7.290  1.00  0.00     0.028 C 
BRANCH  11  12
ATOM     12  C   UNL     1      -0.098   7.678   8.048  1.00  0.00    -0.028 C 
ATOM     13  C   UNL     1       0.047   7.400   9.362  1.00  0.00    -0.080 C 
ATOM     14  C   UNL     1       1.024   8.145  10.241  1.00  0.00     0.039 C 
ATOM     15  C   UNL     1      -0.830   6.333   9.967  1.00  0.00     0.039 C 
ENDBRANCH  11  12
ENDBRANCH   1  11
TORSDOF 4
ENDMDL
MODEL 5
REMARK VINA RESULT:    -4.203     15.689     16.698
REMARK INTER + INTRA:          -6.170
REMARK INTER:                  -5.301
REMARK INTRA:                  -0.870
REMARK UNBOUND:                -0.984
REMARK SMILES CC(C)=CCC[C@@H](C)c1ccc(C)cc1
REMARK SMILES IDX 6 1 7 2 8 3 9 4 13 5 12 6 11 7 14 8 10 9 15 10 5 11 4 12
REMARK SMILES IDX 2 13 1 14 3 15
REMARK H PARENT
REMARK Flexibility Score: inf
ROOT
ATOM      1  C   UNL     1       0.445   6.421   9.587  1.00  0.00     0.012 C 
ENDROOT
BRANCH   1   2
ATOM      2  C   UNL     1       1.893   6.857   9.931  1.00  0.00     0.016 C 
ATOM      3  C   UNL     1       1.986   7.686  11.224  1.00  0.00     0.013 C 
BRANCH   2   4
ATOM      4  C   UNL     1       2.885   5.706   9.867  1.00  0.00    -0.045 A 
ATOM      5  C   UNL     1       5.552   2.310   9.639  1.00  0.00     0.044 C 
ATOM      6  C   UNL     1       4.647   3.505   9.705  1.00  0.00    -0.051 A 
ATOM      7  C   UNL     1       4.625   4.311  10.852  1.00  0.00     0.004 A 
ATOM      8  C   UNL     1       3.760   3.780   8.655  1.00  0.00     0.004 A 
ATOM      9  C   UNL     1       3.755   5.402  10.934  1.00  0.00     0.004 A 
ATOM     10  C   UNL     1       2.889   4.870   8.736  1.00  0.00     0.004 A 
ENDBRANCH   2   4
ENDBRANCH   1   2
BRANCH   1  11
ATOM     11  C   UNL     1      -0.383   7.394   8.721  1.00  0.00     0.028 C 
BRANCH  11  12
ATOM     12  C   UNL     1       0.346   7.869   7.489  1.00  0.00    -0.028 C 
ATOM     13  C   UNL     1       0.928   9.081   7.355  1.00  0.00    -0.080 C 
ATOM     14  C   UNL     1       0.949  10.094   8.477  1.00  0.00     0.039 C 
ATOM     15  C   UNL     1       1.607   9.408   6.050  1.00  0.00     0.039 C 
ENDBRANCH  11  12
ENDBRANCH   1  11
TORSDOF 4
ENDMDL
MODEL 6
REMARK VINA RESULT:    -4.187     15.105     17.090
REMARK INTER + INTRA:          -6.150
REMARK INTER:                  -5.277
REMARK INTRA:                  -0.873
REMARK UNBOUND:                -0.984
REMARK SMILES CC(C)=CCC[C@@H](C)c1ccc(C)cc1
REMARK SMILES IDX 6 1 7 2 8 3 9 4 13 5 12 6 11 7 14 8 10 9 15 10 5 11 4 12
REMARK SMILES IDX 2 13 1 14 3 15
REMARK H PARENT
REMARK Flexibility Score: inf
ROOT
ATOM      1  C   UNL     1       3.732   5.613   7.234  1.00  0.00     0.012 C 
ENDROOT
BRANCH   1   2
ATOM      2  C   UNL     1       3.367   6.890   8.035  1.00  0.00     0.016 C 
ATOM      3  C   UNL     1       3.726   8.192   7.298  1.00  0.00     0.013 C 
BRANCH   2   4
ATOM      4  C   UNL     1       1.943   6.861   8.571  1.00  0.00    -0.045 A 
ATOM      5  C   UNL     1      -2.144   6.940   9.979  1.00  0.00     0.044 C 
ATOM      6  C   UNL     1      -0.727   6.884   9.490  1.00  0.00    -0.051 A 
ATOM      7  C   UNL     1       0.336   6.901  10.404  1.00  0.00     0.004 A 
ATOM      8  C   UNL     1      -0.451   6.892   8.116  1.00  0.00     0.004 A 
ATOM      9  C   UNL     1       1.658   6.889   9.952  1.00  0.00     0.004 A 
ATOM     10  C   UNL     1       0.870   6.880   7.662  1.00  0.00     0.004 A 
ENDBRANCH   2   4
ENDBRANCH   1   2
BRANCH   1  11
ATOM     11  C   UNL     1       3.253   4.269   7.821  1.00  0.00     0.028 C 
BRANCH  11  12
ATOM     12  C   UNL     1       4.374   3.418   8.364  1.00  0.00    -0.028 C 
ATOM     13  C   UNL     1       4.569   3.141   9.672  1.00  0.00    -0.080 C 
ATOM     14  C   UNL     1       3.628   3.628  10.749  1.00  0.00     0.039 C 
ATOM     15  C   UNL     1       5.750   2.284  10.052  1.00  0.00     0.039 C 
ENDBRANCH  11  12
ENDBRANCH   1  11
TORSDOF 4
ENDMDL
MODEL 7
REMARK VINA RESULT:    -4.118     16.294     17.407
REMARK INTER + INTRA:          -6.065
REMARK INTER:                  -4.832
REMARK INTRA:                  -1.233
REMARK UNBOUND:                -0.984
REMARK SMILES CC(C)=CCC[C@@H](C)c1ccc(C)cc1
REMARK SMILES IDX 6 1 7 2 8 3 9 4 13 5 12 6 11 7 14 8 10 9 15 10 5 11 4 12
REMARK SMILES IDX 2 13 1 14 3 15
REMARK H PARENT
REMARK Flexibility Score: inf
ROOT
ATOM      1  C   UNL     1       0.358   8.324   7.749  1.00  0.00     0.012 C 
ENDROOT
BRANCH   1   2
ATOM      2  C   UNL     1       0.311   7.356   8.960  1.00  0.00     0.016 C 
ATOM      3  C   UNL     1      -1.080   6.742   9.194  1.00  0.00     0.013 C 
BRANCH   2   4
ATOM      4  C   UNL     1       1.437   6.333   8.939  1.00  0.00    -0.045 A 
ATOM      5  C   UNL     1       4.759   3.567   8.959  1.00  0.00     0.044 C 
ATOM      6  C   UNL     1       3.590   4.505   8.960  1.00  0.00    -0.051 A 
ATOM      7  C   UNL     1       2.874   4.741   7.778  1.00  0.00     0.004 A 
ATOM      8  C   UNL     1       3.250   5.212  10.122  1.00  0.00     0.004 A 
ATOM      9  C   UNL     1       1.807   5.645   7.765  1.00  0.00     0.004 A 
ATOM     10  C   UNL     1       2.184   6.116  10.111  1.00  0.00     0.004 A 
ENDBRANCH   2   4
ENDBRANCH   1   2
BRANCH   1  11
ATOM     11  C   UNL     1       0.993   9.708   7.995  1.00  0.00     0.028 C 
BRANCH  11  12
ATOM     12  C   UNL     1       1.293   9.981   9.448  1.00  0.00    -0.028 C 
ATOM     13  C   UNL     1       2.502   9.822  10.030  1.00  0.00    -0.080 C 
ATOM     14  C   UNL     1       3.722   9.390   9.250  1.00  0.00     0.039 C 
ATOM     15  C   UNL     1       2.632  10.125  11.501  1.00  0.00     0.039 C 
ENDBRANCH  11  12
ENDBRANCH   1  11
TORSDOF 4
ENDMDL
MODEL 8
REMARK VINA RESULT:    -4.116     15.344     16.480
REMARK INTER + INTRA:          -6.062
REMARK INTER:                  -4.845
REMARK INTRA:                  -1.218
REMARK UNBOUND:                -0.984
REMARK SMILES CC(C)=CCC[C@@H](C)c1ccc(C)cc1
REMARK SMILES IDX 6 1 7 2 8 3 9 4 13 5 12 6 11 7 14 8 10 9 15 10 5 11 4 12
REMARK SMILES IDX 2 13 1 14 3 15
REMARK H PARENT
REMARK Flexibility Score: inf
ROOT
ATOM      1  C   UNL     1       0.727   6.286   8.305  1.00  0.00     0.012 C 
ENDROOT
BRANCH   1   2
ATOM      2  C   UNL     1       2.001   5.973   7.477  1.00  0.00     0.016 C 
ATOM      3  C   UNL     1       2.685   7.232   6.917  1.00  0.00     0.013 C 
BRANCH   2   4
ATOM      4  C   UNL     1       2.951   5.026   8.195  1.00  0.00    -0.045 A 
ATOM      5  C   UNL     1       5.606   2.194  10.097  1.00  0.00     0.044 C 
ATOM      6  C   UNL     1       4.704   3.197   9.443  1.00  0.00    -0.051 A 
ATOM      7  C   UNL     1       3.704   3.838  10.187  1.00  0.00     0.004 A 
ATOM      8  C   UNL     1       4.802   3.446   8.067  1.00  0.00     0.004 A 
ATOM      9  C   UNL     1       2.835   4.745   9.572  1.00  0.00     0.004 A 
ATOM     10  C   UNL     1       3.935   4.352   7.450  1.00  0.00     0.004 A 
ENDBRANCH   2   4
ENDBRANCH   1   2
BRANCH   1  11
ATOM     11  C   UNL     1       0.634   7.695   8.926  1.00  0.00     0.028 C 
BRANCH  11  12
ATOM     12  C   UNL     1       0.773   7.698  10.428  1.00  0.00    -0.028 C 
ATOM     13  C   UNL     1       1.912   7.979  11.098  1.00  0.00    -0.080 C 
ATOM     14  C   UNL     1       3.187   8.377  10.391  1.00  0.00     0.039 C 
ATOM     15  C   UNL     1       1.887   7.924  12.604  1.00  0.00     0.039 C 
ENDBRANCH  11  12
ENDBRANCH   1  11
TORSDOF 4
ENDMDL
MODEL 9
REMARK VINA RESULT:    -4.070     16.220     17.395
REMARK INTER + INTRA:          -6.006
REMARK INTER:                  -4.567
REMARK INTRA:                  -1.439
REMARK UNBOUND:                -0.984
REMARK SMILES CC(C)=CCC[C@@H](C)c1ccc(C)cc1
REMARK SMILES IDX 6 1 7 2 8 3 9 4 13 5 12 6 11 7 14 8 10 9 15 10 5 11 4 12
REMARK SMILES IDX 2 13 1 14 3 15
REMARK H PARENT
REMARK Flexibility Score: inf
ROOT
ATOM      1  C   UNL     1       0.029   8.065   7.725  1.00  0.00     0.012 C 
ENDROOT
BRANCH   1   2
ATOM      2  C   UNL     1       0.187   7.372   9.103  1.00  0.00     0.016 C 
ATOM      3  C   UNL     1      -1.120   6.751   9.625  1.00  0.00     0.013 C 
BRANCH   2   4
ATOM      4  C   UNL     1       1.379   6.427   9.154  1.00  0.00    -0.045 A 
ATOM      5  C   UNL     1       4.880   3.899   9.351  1.00  0.00     0.044 C 
ATOM      6  C   UNL     1       3.650   4.755   9.294  1.00  0.00    -0.051 A 
ATOM      7  C   UNL     1       2.868   4.790   8.131  1.00  0.00     0.004 A 
ATOM      8  C   UNL     1       3.314   5.585  10.373  1.00  0.00     0.004 A 
ATOM      9  C   UNL     1       1.743   5.616   8.060  1.00  0.00     0.004 A 
ATOM     10  C   UNL     1       2.189   6.412  10.303  1.00  0.00     0.004 A 
ENDBRANCH   2   4
ENDBRANCH   1   2
BRANCH   1  11
ATOM     11  C   UNL     1       0.999   9.225   7.418  1.00  0.00     0.028 C 
BRANCH  11  12
ATOM     12  C   UNL     1       2.142   8.828   6.518  1.00  0.00    -0.028 C 
ATOM     13  C   UNL     1       3.434   8.738   6.904  1.00  0.00    -0.080 C 
ATOM     14  C   UNL     1       3.868   8.984   8.330  1.00  0.00     0.039 C 
ATOM     15  C   UNL     1       4.461   8.340   5.875  1.00  0.00     0.039 C 
ENDBRANCH  11  12
ENDBRANCH   1  11
TORSDOF 4
ENDMDL
