MODEL 1
REMARK VINA RESULT:    31.970      0.000      0.000
REMARK INTER + INTRA:          38.271
REMARK INTER:                  38.511
REMARK INTRA:                  -0.240
REMARK UNBOUND:                -0.240
REMARK SMILES Oc1cc(O)c2cc(O)c(-c3ccc(O)c(O)c3)[o+]c2c1.[Cl-]
REMARK SMILES IDX 10 1 19 2 20 3 21 4 2 5 3 6 4 7 6 8 7 9 8 10 11 11 12 12
REMARK SMILES IDX 13 13 14 14 18 15 16 16 15 17 17 19 9 21 1 23 5 25
REMARK H PARENT 15 18 17 20 9 22 1 24 5 26
REMARK Flexibility Score: inf
ROOT
ATOM      1  C   UNL     1      15.889  49.915  58.880  1.00  0.00     0.402 A 
ATOM      2  O   UNL     1      16.723  50.279  59.850  1.00  0.00    -0.202 OA
ATOM      3  C   UNL     1      16.660  51.457  60.463  1.00  0.00     0.368 A 
ATOM      4  C   UNL     1      17.584  51.749  61.470  1.00  0.00     0.162 A 
ATOM      5  C   UNL     1      17.542  52.982  62.129  1.00  0.00     0.128 A 
ATOM      6  C   UNL     1      16.573  53.925  61.779  1.00  0.00     0.093 A 
ATOM      7  C   UNL     1      15.637  53.656  60.774  1.00  0.00     0.136 A 
ATOM      8  C   UNL     1      15.673  52.405  60.104  1.00  0.00     0.125 A 
ATOM      9  C   UNL     1      14.766  52.045  59.093  1.00  0.00     0.078 A 
ATOM     10  C   UNL     1      14.862  50.792  58.480  1.00  0.00     0.223 A 
ENDROOT
BRANCH   1  11
ATOM     11  C   UNL     1      16.069  48.579  58.267  1.00  0.00     0.087 A 
ATOM     12  C   UNL     1      17.181  48.287  57.459  1.00  0.00     0.022 A 
ATOM     13  C   UNL     1      17.341  47.012  56.911  1.00  0.00     0.051 A 
ATOM     14  C   UNL     1      16.403  46.008  57.168  1.00  0.00     0.157 A 
ATOM     15  C   UNL     1      15.139  47.563  58.540  1.00  0.00     0.068 A 
ATOM     16  C   UNL     1      15.296  46.283  57.989  1.00  0.00     0.158 A 
BRANCH  14  17
ATOM     17  O   UNL     1      16.588  44.747  56.604  1.00  0.00    -0.504 OA
ATOM     18  H   UNL     1      16.039  43.944  56.889  1.00  0.00     0.293 HD
ENDBRANCH  14  17
BRANCH  16  19
ATOM     19  O   UNL     1      14.360  45.285  58.256  1.00  0.00    -0.504 OA
ATOM     20  H   UNL     1      14.243  44.489  57.640  1.00  0.00     0.293 HD
ENDBRANCH  16  19
ENDBRANCH   1  11
BRANCH  10  21
ATOM     21  O   UNL     1      13.932  50.413  57.512  1.00  0.00    -0.500 OA
ATOM     22  H   UNL     1      14.162  50.408  56.525  1.00  0.00     0.294 HD
ENDBRANCH  10  21
BRANCH   5  23
ATOM     23  O   UNL     1      18.459  53.279  63.134  1.00  0.00    -0.507 OA
ATOM     24  H   UNL     1      18.305  54.042  63.784  1.00  0.00     0.293 HD
ENDBRANCH   5  23
BRANCH   7  25
ATOM     25  O   UNL     1      14.702  54.653  60.481  1.00  0.00    -0.507 OA
ATOM     26  H   UNL     1      14.053  54.619  59.708  1.00  0.00     0.293 HD
ENDBRANCH   7  25
TORSDOF 6
ENDMDL
MODEL 2
REMARK VINA RESULT:    32.123      1.702      2.513
REMARK INTER + INTRA:          38.456
REMARK INTER:                  38.790
REMARK INTRA:                  -0.334
REMARK UNBOUND:                -0.240
REMARK SMILES Oc1cc(O)c2cc(O)c(-c3ccc(O)c(O)c3)[o+]c2c1.[Cl-]
REMARK SMILES IDX 10 1 19 2 20 3 21 4 2 5 3 6 4 7 6 8 7 9 8 10 11 11 12 12
REMARK SMILES IDX 13 13 14 14 18 15 16 16 15 17 17 19 9 21 1 23 5 25
REMARK H PARENT 15 18 17 20 9 22 1 24 5 26
REMARK Flexibility Score: inf
ROOT
ATOM      1  C   UNL     1      15.854  49.184  59.678  1.00  0.00     0.402 A 
ATOM      2  O   UNL     1      15.840  50.399  59.136  1.00  0.00    -0.202 OA
ATOM      3  C   UNL     1      15.494  51.493  59.806  1.00  0.00     0.368 A 
ATOM      4  C   UNL     1      15.508  52.726  59.148  1.00  0.00     0.162 A 
ATOM      5  C   UNL     1      15.146  53.893  59.830  1.00  0.00     0.128 A 
ATOM      6  C   UNL     1      14.767  53.825  61.172  1.00  0.00     0.093 A 
ATOM      7  C   UNL     1      14.745  52.602  61.853  1.00  0.00     0.136 A 
ATOM      8  C   UNL     1      15.115  51.415  61.168  1.00  0.00     0.125 A 
ATOM      9  C   UNL     1      15.134  50.148  61.774  1.00  0.00     0.078 A 
ATOM     10  C   UNL     1      15.514  49.024  61.034  1.00  0.00     0.223 A 
ENDROOT
BRANCH   1  11
ATOM     11  C   UNL     1      16.248  48.041  58.823  1.00  0.00     0.087 A 
ATOM     12  C   UNL     1      17.599  47.711  58.618  1.00  0.00     0.022 A 
ATOM     13  C   UNL     1      17.946  46.613  57.826  1.00  0.00     0.051 A 
ATOM     14  C   UNL     1      16.954  45.823  57.238  1.00  0.00     0.157 A 
ATOM     15  C   UNL     1      15.254  47.234  58.248  1.00  0.00     0.068 A 
ATOM     16  C   UNL     1      15.600  46.132  57.451  1.00  0.00     0.158 A 
BRANCH  14  17
ATOM     17  O   UNL     1      17.331  44.736  56.451  1.00  0.00    -0.504 OA
ATOM     18  H   UNL     1      16.661  44.050  56.125  1.00  0.00     0.293 HD
ENDBRANCH  14  17
BRANCH  16  19
ATOM     19  O   UNL     1      14.605  45.344  56.874  1.00  0.00    -0.504 OA
ATOM     20  H   UNL     1      13.975  44.787  57.439  1.00  0.00     0.293 HD
ENDBRANCH  16  19
ENDBRANCH   1  11
BRANCH  10  21
ATOM     21  O   UNL     1      15.582  47.773  61.648  1.00  0.00    -0.500 OA
ATOM     22  H   UNL     1      14.748  47.237  61.859  1.00  0.00     0.294 HD
ENDBRANCH  10  21
BRANCH   5  23
ATOM     23  O   UNL     1      15.158  55.125  59.180  1.00  0.00    -0.507 OA
ATOM     24  H   UNL     1      14.330  55.494  58.727  1.00  0.00     0.293 HD
ENDBRANCH   5  23
BRANCH   7  25
ATOM     25  O   UNL     1      14.352  52.619  63.195  1.00  0.00    -0.507 OA
ATOM     26  H   UNL     1      14.152  51.794  63.742  1.00  0.00     0.293 HD
ENDBRANCH   7  25
TORSDOF 6
ENDMDL
MODEL 3
REMARK VINA RESULT:    33.931      1.846      2.851
REMARK INTER + INTRA:          40.634
REMARK INTER:                  40.943
REMARK INTRA:                  -0.309
REMARK UNBOUND:                -0.240
REMARK SMILES Oc1cc(O)c2cc(O)c(-c3ccc(O)c(O)c3)[o+]c2c1.[Cl-]
REMARK SMILES IDX 10 1 19 2 20 3 21 4 2 5 3 6 4 7 6 8 7 9 8 10 11 11 12 12
REMARK SMILES IDX 13 13 14 14 18 15 16 16 15 17 17 19 9 21 1 23 5 25
REMARK H PARENT 15 18 17 20 9 22 1 24 5 26
REMARK Flexibility Score: inf
ROOT
ATOM      1  C   UNL     1      16.878  49.768  59.382  1.00  0.00     0.402 A 
ATOM      2  O   UNL     1      15.754  49.981  60.060  1.00  0.00    -0.202 OA
ATOM      3  C   UNL     1      15.585  51.005  60.891  1.00  0.00     0.368 A 
ATOM      4  C   UNL     1      14.367  51.142  61.561  1.00  0.00     0.162 A 
ATOM      5  C   UNL     1      14.164  52.209  62.443  1.00  0.00     0.128 A 
ATOM      6  C   UNL     1      15.183  53.139  62.656  1.00  0.00     0.093 A 
ATOM      7  C   UNL     1      16.412  53.023  61.996  1.00  0.00     0.136 A 
ATOM      8  C   UNL     1      16.623  51.944  61.098  1.00  0.00     0.125 A 
ATOM      9  C   UNL     1      17.818  51.756  60.384  1.00  0.00     0.078 A 
ATOM     10  C   UNL     1      17.950  50.671  59.513  1.00  0.00     0.223 A 
ENDROOT
BRANCH   1  11
ATOM     11  C   UNL     1      16.946  48.585  58.495  1.00  0.00     0.087 A 
ATOM     12  C   UNL     1      17.148  47.293  59.011  1.00  0.00     0.022 A 
ATOM     13  C   UNL     1      17.186  46.188  58.155  1.00  0.00     0.051 A 
ATOM     14  C   UNL     1      17.013  46.354  56.778  1.00  0.00     0.157 A 
ATOM     15  C   UNL     1      16.753  48.745  57.113  1.00  0.00     0.068 A 
ATOM     16  C   UNL     1      16.792  47.638  56.253  1.00  0.00     0.158 A 
BRANCH  14  17
ATOM     17  O   UNL     1      17.059  45.233  55.950  1.00  0.00    -0.504 OA
ATOM     18  H   UNL     1      17.895  44.977  55.439  1.00  0.00     0.293 HD
ENDBRANCH  14  17
BRANCH  16  19
ATOM     19  O   UNL     1      16.612  47.809  54.881  1.00  0.00    -0.504 OA
ATOM     20  H   UNL     1      17.392  47.781  54.235  1.00  0.00     0.293 HD
ENDBRANCH  16  19
ENDBRANCH   1  11
BRANCH  10  21
ATOM     21  O   UNL     1      19.117  50.511  58.766  1.00  0.00    -0.500 OA
ATOM     22  H   UNL     1      20.034  50.568  59.192  1.00  0.00     0.294 HD
ENDBRANCH  10  21
BRANCH   5  23
ATOM     23  O   UNL     1      12.951  52.353  63.114  1.00  0.00    -0.507 OA
ATOM     24  H   UNL     1      12.562  53.267  63.317  1.00  0.00     0.293 HD
ENDBRANCH   5  23
BRANCH   7  25
ATOM     25  O   UNL     1      17.382  53.993  62.265  1.00  0.00    -0.507 OA
ATOM     26  H   UNL     1      18.370  53.877  62.095  1.00  0.00     0.293 HD
ENDBRANCH   7  25
TORSDOF 6
ENDMDL
