MODEL 1
REMARK VINA RESULT:    -5.575      0.000      0.000
REMARK INTER + INTRA:         -12.805
REMARK INTER:                 -10.138
REMARK INTRA:                  -2.667
REMARK UNBOUND:                -2.667
REMARK SMILES CCCCCC=CCC=CCCCCCCCC(=O)[O-]
REMARK SMILES IDX 11 1 12 2 13 3 14 4 15 5 16 6 17 7 18 8 19 9 20 10 10 11
REMARK SMILES IDX 9 12 8 13 7 14 6 15 5 16 4 17 3 18 2 19 1 20
REMARK H PARENT
REMARK Flexibility Score: inf
ROOT
ATOM      1  C   UNL     1       8.775  50.536  22.633  1.00  0.00     0.027 C 
ENDROOT
BRANCH   1   2
ATOM      2  C   UNL     1       8.255  51.354  21.444  1.00  0.00     0.004 C 
BRANCH   2   3
ATOM      3  C   UNL     1       8.142  50.505  20.166  1.00  0.00     0.000 C 
BRANCH   3   4
ATOM      4  C   UNL     1       9.513  50.121  19.586  1.00  0.00     0.000 C 
BRANCH   4   5
ATOM      5  C   UNL     1       9.869  48.645  19.837  1.00  0.00     0.000 C 
BRANCH   5   6
ATOM      6  C   UNL     1       8.620  47.752  19.973  1.00  0.00     0.006 C 
BRANCH   6   7
ATOM      7  C   UNL     1       8.675  46.479  19.111  1.00  0.00     0.053 C 
BRANCH   7   8
ATOM      8  C   UNL     1       8.580  46.773  17.647  1.00  0.00     0.041 C 
ATOM      9  O   UNL     1       9.624  46.972  16.971  1.00  0.00    -0.550 OA
ATOM     10  O   UNL     1       7.339  46.812  17.024  1.00  0.00    -0.550 OA
ENDBRANCH   7   8
ENDBRANCH   6   7
ENDBRANCH   5   6
ENDBRANCH   4   5
ENDBRANCH   3   4
ENDBRANCH   2   3
ENDBRANCH   1   2
BRANCH   1  11
ATOM     11  C   UNL     1       7.747  50.451  23.736  1.00  0.00    -0.031 C 
ATOM     12  C   UNL     1       6.806  49.493  23.842  1.00  0.00    -0.027 C 
BRANCH  12  13
ATOM     13  C   UNL     1       6.598  48.377  22.851  1.00  0.00     0.054 C 
BRANCH  13  14
ATOM     14  C   UNL     1       5.838  47.221  23.451  1.00  0.00    -0.027 C 
ATOM     15  C   UNL     1       6.382  46.041  23.808  1.00  0.00    -0.031 C 
BRANCH  15  16
ATOM     16  C   UNL     1       7.853  45.704  23.728  1.00  0.00     0.027 C 
BRANCH  16  17
ATOM     17  C   UNL     1       8.614  46.131  24.995  1.00  0.00     0.004 C 
BRANCH  17  18
ATOM     18  C   UNL     1       9.670  47.228  24.768  1.00  0.00     0.000 C 
BRANCH  18  19
ATOM     19  C   UNL     1      10.122  47.327  23.303  1.00  0.00    -0.003 C 
ATOM     20  C   UNL     1      11.477  48.019  23.193  1.00  0.00     0.004 C 
ENDBRANCH  18  19
ENDBRANCH  17  18
ENDBRANCH  16  17
ENDBRANCH  15  16
ENDBRANCH  13  14
ENDBRANCH  12  13
ENDBRANCH   1  11
TORSDOF 14
ENDMDL
MODEL 2
REMARK VINA RESULT:    -5.572      2.201      4.339
REMARK INTER + INTRA:         -12.800
REMARK INTER:                 -10.137
REMARK INTRA:                  -2.664
REMARK UNBOUND:                -2.667
REMARK SMILES CCCCCC=CCC=CCCCCCCCC(=O)[O-]
REMARK SMILES IDX 11 1 12 2 13 3 14 4 15 5 16 6 17 7 18 8 19 9 20 10 10 11
REMARK SMILES IDX 9 12 8 13 7 14 6 15 5 16 4 17 3 18 2 19 1 20
REMARK H PARENT
REMARK Flexibility Score: inf
ROOT
ATOM      1  C   UNL     1       8.924  48.330  24.981  1.00  0.00     0.027 C 
ENDROOT
BRANCH   1   2
ATOM      2  C   UNL     1       7.724  49.093  25.556  1.00  0.00     0.004 C 
BRANCH   2   3
ATOM      3  C   UNL     1       6.954  49.862  24.468  1.00  0.00     0.000 C 
BRANCH   3   4
ATOM      4  C   UNL     1       7.683  49.862  23.115  1.00  0.00     0.000 C 
BRANCH   4   5
ATOM      5  C   UNL     1       8.268  51.240  22.758  1.00  0.00     0.000 C 
BRANCH   5   6
ATOM      6  C   UNL     1       8.243  51.517  21.241  1.00  0.00     0.006 C 
BRANCH   6   7
ATOM      7  C   UNL     1       7.426  50.490  20.439  1.00  0.00     0.053 C 
BRANCH   7   8
ATOM      8  C   UNL     1       7.994  50.244  19.078  1.00  0.00     0.041 C 
ATOM      9  O   UNL     1       7.317  50.514  18.050  1.00  0.00    -0.550 OA
ATOM     10  O   UNL     1       9.278  49.732  18.940  1.00  0.00    -0.550 OA
ENDBRANCH   7   8
ENDBRANCH   6   7
ENDBRANCH   5   6
ENDBRANCH   4   5
ENDBRANCH   3   4
ENDBRANCH   2   3
ENDBRANCH   1   2
BRANCH   1  11
ATOM     11  C   UNL     1       8.957  46.903  25.473  1.00  0.00    -0.031 C 
ATOM     12  C   UNL     1       8.749  45.817  24.706  1.00  0.00    -0.027 C 
BRANCH  12  13
ATOM     13  C   UNL     1       8.403  45.852  23.239  1.00  0.00     0.054 C 
BRANCH  13  14
ATOM     14  C   UNL     1       7.227  44.965  22.913  1.00  0.00    -0.027 C 
ATOM     15  C   UNL     1       5.937  45.351  22.938  1.00  0.00    -0.031 C 
BRANCH  15  16
ATOM     16  C   UNL     1       5.456  46.753  23.233  1.00  0.00     0.027 C 
BRANCH  16  17
ATOM     17  C   UNL     1       4.543  46.802  24.470  1.00  0.00     0.004 C 
BRANCH  17  18
ATOM     18  C   UNL     1       5.145  46.165  25.736  1.00  0.00     0.000 C 
BRANCH  18  19
ATOM     19  C   UNL     1       4.988  47.049  26.982  1.00  0.00    -0.003 C 
ATOM     20  C   UNL     1       4.234  48.334  26.651  1.00  0.00     0.004 C 
ENDBRANCH  18  19
ENDBRANCH  17  18
ENDBRANCH  16  17
ENDBRANCH  15  16
ENDBRANCH  13  14
ENDBRANCH  12  13
ENDBRANCH   1  11
TORSDOF 14
ENDMDL
MODEL 3
REMARK VINA RESULT:    -5.565      2.266      3.538
REMARK INTER + INTRA:         -12.787
REMARK INTER:                 -10.105
REMARK INTRA:                  -2.682
REMARK UNBOUND:                -2.667
REMARK SMILES CCCCCC=CCC=CCCCCCCCC(=O)[O-]
REMARK SMILES IDX 11 1 12 2 13 3 14 4 15 5 16 6 17 7 18 8 19 9 20 10 10 11
REMARK SMILES IDX 9 12 8 13 7 14 6 15 5 16 4 17 3 18 2 19 1 20
REMARK H PARENT
REMARK Flexibility Score: inf
ROOT
ATOM      1  C   UNL     1       6.796  49.858  25.283  1.00  0.00     0.027 C 
ENDROOT
BRANCH   1   2
ATOM      2  C   UNL     1       7.980  49.740  24.315  1.00  0.00     0.004 C 
BRANCH   2   3
ATOM      3  C   UNL     1       7.603  50.166  22.886  1.00  0.00     0.000 C 
BRANCH   3   4
ATOM      4  C   UNL     1       8.406  51.383  22.399  1.00  0.00     0.000 C 
BRANCH   4   5
ATOM      5  C   UNL     1       8.479  51.469  20.865  1.00  0.00     0.000 C 
BRANCH   5   6
ATOM      6  C   UNL     1       8.597  50.082  20.201  1.00  0.00     0.006 C 
BRANCH   6   7
ATOM      7  C   UNL     1      10.046  49.581  20.074  1.00  0.00     0.053 C 
BRANCH   7   8
ATOM      8  C   UNL     1      10.321  48.396  20.945  1.00  0.00     0.041 C 
ATOM      9  O   UNL     1      10.222  47.230  20.480  1.00  0.00    -0.550 OA
ATOM     10  O   UNL     1      10.703  48.579  22.268  1.00  0.00    -0.550 OA
ENDBRANCH   7   8
ENDBRANCH   6   7
ENDBRANCH   5   6
ENDBRANCH   4   5
ENDBRANCH   3   4
ENDBRANCH   2   3
ENDBRANCH   1   2
BRANCH   1  11
ATOM     11  C   UNL     1       7.137  49.300  26.644  1.00  0.00    -0.031 C 
ATOM     12  C   UNL     1       6.370  48.441  27.341  1.00  0.00    -0.027 C 
BRANCH  12  13
ATOM     13  C   UNL     1       5.022  47.934  26.894  1.00  0.00     0.054 C 
BRANCH  13  14
ATOM     14  C   UNL     1       5.074  46.490  26.463  1.00  0.00    -0.027 C 
ATOM     15  C   UNL     1       5.007  46.061  25.188  1.00  0.00    -0.031 C 
BRANCH  15  16
ATOM     16  C   UNL     1       4.935  46.957  23.974  1.00  0.00     0.027 C 
BRANCH  16  17
ATOM     17  C   UNL     1       6.115  46.729  23.014  1.00  0.00     0.004 C 
BRANCH  17  18
ATOM     18  C   UNL     1       6.988  45.506  23.354  1.00  0.00     0.000 C 
BRANCH  18  19
ATOM     19  C   UNL     1       8.454  45.876  23.621  1.00  0.00    -0.003 C 
ATOM     20  C   UNL     1       8.689  46.154  25.103  1.00  0.00     0.004 C 
ENDBRANCH  18  19
ENDBRANCH  17  18
ENDBRANCH  16  17
ENDBRANCH  15  16
ENDBRANCH  13  14
ENDBRANCH  12  13
ENDBRANCH   1  11
TORSDOF 14
ENDMDL
MODEL 4
REMARK VINA RESULT:    -5.556      2.612      4.602
REMARK INTER + INTRA:         -12.771
REMARK INTER:                  -9.888
REMARK INTRA:                  -2.883
REMARK UNBOUND:                -2.667
REMARK SMILES CCCCCC=CCC=CCCCCCCCC(=O)[O-]
REMARK SMILES IDX 11 1 12 2 13 3 14 4 15 5 16 6 17 7 18 8 19 9 20 10 10 11
REMARK SMILES IDX 9 12 8 13 7 14 6 15 5 16 4 17 3 18 2 19 1 20
REMARK H PARENT
REMARK Flexibility Score: inf
ROOT
ATOM      1  C   UNL     1       8.172  49.540  18.334  1.00  0.00     0.027 C 
ENDROOT
BRANCH   1   2
ATOM      2  C   UNL     1       7.733  48.118  18.707  1.00  0.00     0.004 C 
BRANCH   2   3
ATOM      3  C   UNL     1       8.935  47.195  18.972  1.00  0.00     0.000 C 
BRANCH   3   4
ATOM      4  C   UNL     1       8.633  46.116  20.025  1.00  0.00     0.000 C 
BRANCH   4   5
ATOM      5  C   UNL     1       9.313  46.401  21.376  1.00  0.00     0.000 C 
BRANCH   5   6
ATOM      6  C   UNL     1      10.595  47.243  21.225  1.00  0.00     0.006 C 
BRANCH   6   7
ATOM      7  C   UNL     1      10.765  48.311  22.319  1.00  0.00     0.053 C 
BRANCH   7   8
ATOM      8  C   UNL     1      11.870  47.984  23.272  1.00  0.00     0.041 C 
ATOM      9  O   UNL     1      12.996  47.624  22.838  1.00  0.00    -0.550 OA
ATOM     10  O   UNL     1      11.664  48.094  24.641  1.00  0.00    -0.550 OA
ENDBRANCH   7   8
ENDBRANCH   6   7
ENDBRANCH   5   6
ENDBRANCH   4   5
ENDBRANCH   3   4
ENDBRANCH   2   3
ENDBRANCH   1   2
BRANCH   1  11
ATOM     11  C   UNL     1       9.372  49.977  19.141  1.00  0.00    -0.031 C 
ATOM     12  C   UNL     1       9.318  50.702  20.273  1.00  0.00    -0.027 C 
BRANCH  12  13
ATOM     13  C   UNL     1       8.053  51.237  20.894  1.00  0.00     0.054 C 
BRANCH  13  14
ATOM     14  C   UNL     1       8.011  51.007  22.384  1.00  0.00    -0.027 C 
ATOM     15  C   UNL     1       7.498  49.915  22.983  1.00  0.00    -0.031 C 
BRANCH  15  16
ATOM     16  C   UNL     1       6.939  48.711  22.262  1.00  0.00     0.027 C 
BRANCH  16  17
ATOM     17  C   UNL     1       6.072  47.836  23.184  1.00  0.00     0.004 C 
BRANCH  17  18
ATOM     18  C   UNL     1       6.680  47.575  24.575  1.00  0.00     0.000 C 
BRANCH  18  19
ATOM     19  C   UNL     1       7.222  46.146  24.730  1.00  0.00    -0.003 C 
ATOM     20  C   UNL     1       8.729  46.154  24.967  1.00  0.00     0.004 C 
ENDBRANCH  18  19
ENDBRANCH  17  18
ENDBRANCH  16  17
ENDBRANCH  15  16
ENDBRANCH  13  14
ENDBRANCH  12  13
ENDBRANCH   1  11
TORSDOF 14
ENDMDL
MODEL 5
REMARK VINA RESULT:    -5.531      2.884      3.995
REMARK INTER + INTRA:         -12.726
REMARK INTER:                 -10.457
REMARK INTRA:                  -2.269
REMARK UNBOUND:                -2.667
REMARK SMILES CCCCCC=CCC=CCCCCCCCC(=O)[O-]
REMARK SMILES IDX 11 1 12 2 13 3 14 4 15 5 16 6 17 7 18 8 19 9 20 10 10 11
REMARK SMILES IDX 9 12 8 13 7 14 6 15 5 16 4 17 3 18 2 19 1 20
REMARK H PARENT
REMARK Flexibility Score: inf
ROOT
ATOM      1  C   UNL     1       7.580  50.928  20.511  1.00  0.00     0.027 C 
ENDROOT
BRANCH   1   2
ATOM      2  C   UNL     1       8.377  49.895  19.704  1.00  0.00     0.004 C 
BRANCH   2   3
ATOM      3  C   UNL     1       9.852  50.301  19.545  1.00  0.00     0.000 C 
BRANCH   3   4
ATOM      4  C   UNL     1      10.789  49.089  19.415  1.00  0.00     0.000 C 
BRANCH   4   5
ATOM      5  C   UNL     1      10.276  47.859  20.186  1.00  0.00     0.000 C 
BRANCH   5   6
ATOM      6  C   UNL     1      11.239  47.421  21.307  1.00  0.00     0.006 C 
BRANCH   6   7
ATOM      7  C   UNL     1      10.997  48.140  22.645  1.00  0.00     0.053 C 
BRANCH   7   8
ATOM      8  C   UNL     1      12.176  48.059  23.561  1.00  0.00     0.041 C 
ATOM      9  O   UNL     1      13.312  47.758  23.107  1.00  0.00    -0.550 OA
ATOM     10  O   UNL     1      12.027  48.332  24.914  1.00  0.00    -0.550 OA
ENDBRANCH   7   8
ENDBRANCH   6   7
ENDBRANCH   5   6
ENDBRANCH   4   5
ENDBRANCH   3   4
ENDBRANCH   2   3
ENDBRANCH   1   2
BRANCH   1  11
ATOM     11  C   UNL     1       8.373  51.437  21.692  1.00  0.00    -0.031 C 
ATOM     12  C   UNL     1       8.289  50.950  22.945  1.00  0.00    -0.027 C 
BRANCH  12  13
ATOM     13  C   UNL     1       7.356  49.850  23.380  1.00  0.00     0.054 C 
BRANCH  13  14
ATOM     14  C   UNL     1       7.069  49.903  24.860  1.00  0.00    -0.027 C 
ATOM     15  C   UNL     1       7.581  49.060  25.777  1.00  0.00    -0.031 C 
BRANCH  15  16
ATOM     16  C   UNL     1       8.577  47.962  25.486  1.00  0.00     0.027 C 
BRANCH  16  17
ATOM     17  C   UNL     1       7.891  46.607  25.241  1.00  0.00     0.004 C 
BRANCH  17  18
ATOM     18  C   UNL     1       8.552  45.745  24.149  1.00  0.00     0.000 C 
BRANCH  18  19
ATOM     19  C   UNL     1       7.567  45.313  23.053  1.00  0.00    -0.003 C 
ATOM     20  C   UNL     1       8.283  45.110  21.721  1.00  0.00     0.004 C 
ENDBRANCH  18  19
ENDBRANCH  17  18
ENDBRANCH  16  17
ENDBRANCH  15  16
ENDBRANCH  13  14
ENDBRANCH  12  13
ENDBRANCH   1  11
TORSDOF 14
ENDMDL
MODEL 6
REMARK VINA RESULT:    -5.500      3.909      6.560
REMARK INTER + INTRA:         -12.668
REMARK INTER:                  -9.849
REMARK INTRA:                  -2.819
REMARK UNBOUND:                -2.667
REMARK SMILES CCCCCC=CCC=CCCCCCCCC(=O)[O-]
REMARK SMILES IDX 11 1 12 2 13 3 14 4 15 5 16 6 17 7 18 8 19 9 20 10 10 11
REMARK SMILES IDX 9 12 8 13 7 14 6 15 5 16 4 17 3 18 2 19 1 20
REMARK H PARENT
REMARK Flexibility Score: inf
ROOT
ATOM      1  C   UNL     1       8.322  45.478  23.570  1.00  0.00     0.027 C 
ENDROOT
BRANCH   1   2
ATOM      2  C   UNL     1       6.809  45.532  23.321  1.00  0.00     0.004 C 
BRANCH   2   3
ATOM      3  C   UNL     1       6.353  46.921  22.842  1.00  0.00     0.000 C 
BRANCH   3   4
ATOM      4  C   UNL     1       5.107  47.425  23.588  1.00  0.00     0.000 C 
BRANCH   4   5
ATOM      5  C   UNL     1       5.409  47.828  25.042  1.00  0.00     0.000 C 
BRANCH   5   6
ATOM      6  C   UNL     1       5.404  49.357  25.244  1.00  0.00     0.006 C 
BRANCH   6   7
ATOM      7  C   UNL     1       6.690  49.898  25.890  1.00  0.00     0.053 C 
BRANCH   7   8
ATOM      8  C   UNL     1       6.745  49.637  27.362  1.00  0.00     0.041 C 
ATOM      9  O   UNL     1       7.836  49.329  27.911  1.00  0.00    -0.550 OA
ATOM     10  O   UNL     1       5.595  49.751  28.133  1.00  0.00    -0.550 OA
ENDBRANCH   7   8
ENDBRANCH   6   7
ENDBRANCH   5   6
ENDBRANCH   4   5
ENDBRANCH   3   4
ENDBRANCH   2   3
ENDBRANCH   1   2
BRANCH   1  11
ATOM     11  C   UNL     1       8.660  45.844  24.996  1.00  0.00    -0.031 C 
ATOM     12  C   UNL     1       9.126  47.042  25.396  1.00  0.00    -0.027 C 
BRANCH  12  13
ATOM     13  C   UNL     1       9.432  48.197  24.477  1.00  0.00     0.054 C 
BRANCH  13  14
ATOM     14  C   UNL     1      10.868  48.189  24.015  1.00  0.00    -0.027 C 
ATOM     15  C   UNL     1      11.268  48.007  22.742  1.00  0.00    -0.031 C 
BRANCH  15  16
ATOM     16  C   UNL     1      10.346  47.847  21.556  1.00  0.00     0.027 C 
BRANCH  16  17
ATOM     17  C   UNL     1       9.922  49.202  20.965  1.00  0.00     0.004 C 
BRANCH  17  18
ATOM     18  C   UNL     1       8.401  49.448  20.957  1.00  0.00     0.000 C 
BRANCH  18  19
ATOM     19  C   UNL     1       8.030  50.901  21.287  1.00  0.00    -0.003 C 
ATOM     20  C   UNL     1       8.305  51.219  22.753  1.00  0.00     0.004 C 
ENDBRANCH  18  19
ENDBRANCH  17  18
ENDBRANCH  16  17
ENDBRANCH  15  16
ENDBRANCH  13  14
ENDBRANCH  12  13
ENDBRANCH   1  11
TORSDOF 14
ENDMDL
MODEL 7
REMARK VINA RESULT:    -5.480      1.616      3.278
REMARK INTER + INTRA:         -12.633
REMARK INTER:                 -10.296
REMARK INTRA:                  -2.337
REMARK UNBOUND:                -2.667
REMARK SMILES CCCCCC=CCC=CCCCCCCCC(=O)[O-]
REMARK SMILES IDX 11 1 12 2 13 3 14 4 15 5 16 6 17 7 18 8 19 9 20 10 10 11
REMARK SMILES IDX 9 12 8 13 7 14 6 15 5 16 4 17 3 18 2 19 1 20
REMARK H PARENT
REMARK Flexibility Score: inf
ROOT
ATOM      1  C   UNL     1       8.783  50.525  20.973  1.00  0.00     0.027 C 
ENDROOT
BRANCH   1   2
ATOM      2  C   UNL     1       7.540  51.110  20.289  1.00  0.00     0.004 C 
BRANCH   2   3
ATOM      3  C   UNL     1       6.812  50.066  19.425  1.00  0.00     0.000 C 
BRANCH   3   4
ATOM      4  C   UNL     1       6.912  50.368  17.921  1.00  0.00     0.000 C 
BRANCH   4   5
ATOM      5  C   UNL     1       7.646  49.262  17.143  1.00  0.00     0.000 C 
BRANCH   5   6
ATOM      6  C   UNL     1       7.512  47.880  17.812  1.00  0.00     0.006 C 
BRANCH   6   7
ATOM      7  C   UNL     1       8.716  46.956  17.567  1.00  0.00     0.053 C 
BRANCH   7   8
ATOM      8  C   UNL     1       8.794  46.479  16.151  1.00  0.00     0.041 C 
ATOM      9  O   UNL     1       9.887  46.523  15.527  1.00  0.00    -0.550 OA
ATOM     10  O   UNL     1       7.664  45.971  15.524  1.00  0.00    -0.550 OA
ENDBRANCH   7   8
ENDBRANCH   6   7
ENDBRANCH   5   6
ENDBRANCH   4   5
ENDBRANCH   3   4
ENDBRANCH   2   3
ENDBRANCH   1   2
BRANCH   1  11
ATOM     11  C   UNL     1       9.876  50.231  19.973  1.00  0.00    -0.031 C 
ATOM     12  C   UNL     1      10.536  49.062  19.873  1.00  0.00    -0.027 C 
BRANCH  12  13
ATOM     13  C   UNL     1      10.324  47.874  20.776  1.00  0.00     0.054 C 
BRANCH  13  14
ATOM     14  C   UNL     1      11.361  47.800  21.869  1.00  0.00    -0.027 C 
ATOM     15  C   UNL     1      11.106  47.924  23.186  1.00  0.00    -0.031 C 
BRANCH  15  16
ATOM     16  C   UNL     1       9.733  48.093  23.792  1.00  0.00     0.027 C 
BRANCH  16  17
ATOM     17  C   UNL     1       9.505  47.147  24.983  1.00  0.00     0.004 C 
BRANCH  17  18
ATOM     18  C   UNL     1       8.665  45.898  24.657  1.00  0.00     0.000 C 
BRANCH  18  19
ATOM     19  C   UNL     1       7.773  46.085  23.421  1.00  0.00    -0.003 C 
ATOM     20  C   UNL     1       8.027  44.989  22.390  1.00  0.00     0.004 C 
ENDBRANCH  18  19
ENDBRANCH  17  18
ENDBRANCH  16  17
ENDBRANCH  15  16
ENDBRANCH  13  14
ENDBRANCH  12  13
ENDBRANCH   1  11
TORSDOF 14
ENDMDL
MODEL 8
REMARK VINA RESULT:    -5.451      1.584      2.767
REMARK INTER + INTRA:         -12.579
REMARK INTER:                  -9.597
REMARK INTRA:                  -2.982
REMARK UNBOUND:                -2.667
REMARK SMILES CCCCCC=CCC=CCCCCCCCC(=O)[O-]
REMARK SMILES IDX 11 1 12 2 13 3 14 4 15 5 16 6 17 7 18 8 19 9 20 10 10 11
REMARK SMILES IDX 9 12 8 13 7 14 6 15 5 16 4 17 3 18 2 19 1 20
REMARK H PARENT
REMARK Flexibility Score: inf
ROOT
ATOM      1  C   UNL     1       7.888  49.310  22.301  1.00  0.00     0.027 C 
ENDROOT
BRANCH   1   2
ATOM      2  C   UNL     1       6.863  48.922  21.228  1.00  0.00     0.004 C 
BRANCH   2   3
ATOM      3  C   UNL     1       6.891  49.883  20.027  1.00  0.00     0.000 C 
BRANCH   3   4
ATOM      4  C   UNL     1       7.093  49.154  18.689  1.00  0.00     0.000 C 
BRANCH   4   5
ATOM      5  C   UNL     1       8.503  49.362  18.109  1.00  0.00     0.000 C 
BRANCH   5   6
ATOM      6  C   UNL     1       9.199  48.032  17.757  1.00  0.00     0.006 C 
BRANCH   6   7
ATOM      7  C   UNL     1       8.222  46.872  17.505  1.00  0.00     0.053 C 
BRANCH   7   8
ATOM      8  C   UNL     1       8.112  46.520  16.055  1.00  0.00     0.041 C 
ATOM      9  O   UNL     1       7.207  45.738  15.659  1.00  0.00    -0.550 OA
ATOM     10  O   UNL     1       8.997  47.069  15.136  1.00  0.00    -0.550 OA
ENDBRANCH   7   8
ENDBRANCH   6   7
ENDBRANCH   5   6
ENDBRANCH   4   5
ENDBRANCH   3   4
ENDBRANCH   2   3
ENDBRANCH   1   2
BRANCH   1  11
ATOM     11  C   UNL     1       9.252  49.552  21.699  1.00  0.00    -0.031 C 
ATOM     12  C   UNL     1      10.194  48.607  21.519  1.00  0.00    -0.027 C 
BRANCH  12  13
ATOM     13  C   UNL     1      10.057  47.164  21.934  1.00  0.00     0.054 C 
BRANCH  13  14
ATOM     14  C   UNL     1       9.281  46.356  20.924  1.00  0.00    -0.027 C 
ATOM     15  C   UNL     1       8.427  45.359  21.224  1.00  0.00    -0.031 C 
BRANCH  15  16
ATOM     16  C   UNL     1       8.054  44.928  22.623  1.00  0.00     0.027 C 
BRANCH  16  17
ATOM     17  C   UNL     1       6.944  45.808  23.223  1.00  0.00     0.004 C 
BRANCH  17  18
ATOM     18  C   UNL     1       7.275  46.401  24.605  1.00  0.00     0.000 C 
BRANCH  18  19
ATOM     19  C   UNL     1       8.691  46.048  25.083  1.00  0.00    -0.003 C 
ATOM     20  C   UNL     1       9.415  47.281  25.614  1.00  0.00     0.004 C 
ENDBRANCH  18  19
ENDBRANCH  17  18
ENDBRANCH  16  17
ENDBRANCH  15  16
ENDBRANCH  13  14
ENDBRANCH  12  13
ENDBRANCH   1  11
TORSDOF 14
ENDMDL
MODEL 9
REMARK VINA RESULT:    -5.439      1.766      3.334
REMARK INTER + INTRA:         -12.558
REMARK INTER:                  -9.982
REMARK INTRA:                  -2.576
REMARK UNBOUND:                -2.667
REMARK SMILES CCCCCC=CCC=CCCCCCCCC(=O)[O-]
REMARK SMILES IDX 11 1 12 2 13 3 14 4 15 5 16 6 17 7 18 8 19 9 20 10 10 11
REMARK SMILES IDX 9 12 8 13 7 14 6 15 5 16 4 17 3 18 2 19 1 20
REMARK H PARENT
REMARK Flexibility Score: inf
ROOT
ATOM      1  C   UNL     1       5.208  48.855  25.686  1.00  0.00     0.027 C 
ENDROOT
BRANCH   1   2
ATOM      2  C   UNL     1       6.590  49.470  25.435  1.00  0.00     0.004 C 
BRANCH   2   3
ATOM      3  C   UNL     1       6.912  49.573  23.934  1.00  0.00     0.000 C 
BRANCH   3   4
ATOM      4  C   UNL     1       8.002  50.614  23.632  1.00  0.00     0.000 C 
BRANCH   4   5
ATOM      5  C   UNL     1       8.188  50.856  22.124  1.00  0.00     0.000 C 
BRANCH   5   6
ATOM      6  C   UNL     1       9.139  49.831  21.474  1.00  0.00     0.006 C 
BRANCH   6   7
ATOM      7  C   UNL     1       9.635  50.248  20.079  1.00  0.00     0.053 C 
BRANCH   7   8
ATOM      8  C   UNL     1       8.698  49.831  18.990  1.00  0.00     0.041 C 
ATOM      9  O   UNL     1       8.999  48.876  18.226  1.00  0.00    -0.550 OA
ATOM     10  O   UNL     1       7.484  50.485  18.828  1.00  0.00    -0.550 OA
ENDBRANCH   7   8
ENDBRANCH   6   7
ENDBRANCH   5   6
ENDBRANCH   4   5
ENDBRANCH   3   4
ENDBRANCH   2   3
ENDBRANCH   1   2
BRANCH   1  11
ATOM     11  C   UNL     1       5.318  47.505  26.354  1.00  0.00    -0.031 C 
ATOM     12  C   UNL     1       5.105  46.322  25.745  1.00  0.00    -0.027 C 
BRANCH  12  13
ATOM     13  C   UNL     1       4.676  46.158  24.310  1.00  0.00     0.054 C 
BRANCH  13  14
ATOM     14  C   UNL     1       5.325  44.963  23.657  1.00  0.00    -0.027 C 
ATOM     15  C   UNL     1       6.473  44.996  22.953  1.00  0.00    -0.031 C 
BRANCH  15  16
ATOM     16  C   UNL     1       7.335  46.220  22.755  1.00  0.00     0.027 C 
BRANCH  16  17
ATOM     17  C   UNL     1       8.694  46.093  23.464  1.00  0.00     0.004 C 
BRANCH  17  18
ATOM     18  C   UNL     1       8.625  46.189  25.000  1.00  0.00     0.000 C 
BRANCH  18  19
ATOM     19  C   UNL     1       9.603  47.223  25.577  1.00  0.00    -0.003 C 
ATOM     20  C   UNL     1      10.379  47.924  24.466  1.00  0.00     0.004 C 
ENDBRANCH  18  19
ENDBRANCH  17  18
ENDBRANCH  16  17
ENDBRANCH  15  16
ENDBRANCH  13  14
ENDBRANCH  12  13
ENDBRANCH   1  11
TORSDOF 14
ENDMDL
