MODEL 1
REMARK VINA RESULT:    -4.231      0.000      0.000
REMARK INTER + INTRA:          -4.896
REMARK INTER:                  -4.849
REMARK INTRA:                  -0.047
REMARK UNBOUND:                -0.047
REMARK SMILES O=C([O-])c1cc(O)c(O)c(O)c1
REMARK SMILES IDX 4 1 5 2 12 3 6 4 10 5 8 6 2 7 1 8 3 9 7 10 11 12 9 14
REMARK H PARENT 7 11 11 13 9 15
REMARK Flexibility Score: inf
ROOT
ATOM      1  C   UNL     1      42.829  20.305  -3.972  1.00  0.00     0.005 A 
ATOM      2  C   UNL     1      42.171  21.013  -2.951  1.00  0.00     0.060 A 
ATOM      3  C   UNL     1      43.154  18.957  -3.763  1.00  0.00     0.060 A 
ATOM      4  C   UNL     1      41.843  20.394  -1.740  1.00  0.00     0.162 A 
ATOM      5  C   UNL     1      42.831  18.325  -2.556  1.00  0.00     0.162 A 
ATOM      6  C   UNL     1      42.176  19.034  -1.539  1.00  0.00     0.200 A 
ENDROOT
BRANCH   1   7
ATOM      7  C   UNL     1      43.172  20.968  -5.250  1.00  0.00     0.072 C 
ATOM      8  O   UNL     1      44.360  20.981  -5.666  1.00  0.00    -0.545 OA
ATOM      9  O   UNL     1      42.185  21.585  -6.011  1.00  0.00    -0.545 OA
ENDBRANCH   1   7
BRANCH   4  10
ATOM     10  O   UNL     1      41.191  21.162  -0.772  1.00  0.00    -0.504 OA
ATOM     11  H   UNL     1      40.448  20.818  -0.183  1.00  0.00     0.293 HD
ENDBRANCH   4  10
BRANCH   5  12
ATOM     12  O   UNL     1      43.160  16.984  -2.357  1.00  0.00    -0.504 OA
ATOM     13  H   UNL     1      42.629  16.238  -2.791  1.00  0.00     0.293 HD
ENDBRANCH   5  12
BRANCH   6  14
ATOM     14  O   UNL     1      41.877  18.355  -0.354  1.00  0.00    -0.502 OA
ATOM     15  H   UNL     1      41.004  17.877  -0.180  1.00  0.00     0.293 HD
ENDBRANCH   6  14
TORSDOF 4
ENDMDL
MODEL 2
REMARK VINA RESULT:    -4.176      0.063      2.437
REMARK INTER + INTRA:          -4.833
REMARK INTER:                  -4.786
REMARK INTRA:                  -0.047
REMARK UNBOUND:                -0.047
REMARK SMILES O=C([O-])c1cc(O)c(O)c(O)c1
REMARK SMILES IDX 4 1 5 2 12 3 6 4 10 5 8 6 2 7 1 8 3 9 7 10 11 12 9 14
REMARK H PARENT 7 11 11 13 9 15
REMARK Flexibility Score: inf
ROOT
ATOM      1  C   UNL     1      42.830  20.316  -3.983  1.00  0.00     0.005 A 
ATOM      2  C   UNL     1      43.139  18.963  -3.765  1.00  0.00     0.060 A 
ATOM      3  C   UNL     1      42.181  21.037  -2.971  1.00  0.00     0.060 A 
ATOM      4  C   UNL     1      42.807  18.333  -2.560  1.00  0.00     0.162 A 
ATOM      5  C   UNL     1      41.844  20.420  -1.761  1.00  0.00     0.162 A 
ATOM      6  C   UNL     1      42.152  19.069  -1.545  1.00  0.00     0.200 A 
ENDROOT
BRANCH   1   7
ATOM      7  C   UNL     1      43.185  20.975  -5.260  1.00  0.00     0.072 C 
ATOM      8  O   UNL     1      44.366  20.933  -5.696  1.00  0.00    -0.545 OA
ATOM      9  O   UNL     1      42.219  21.649  -5.998  1.00  0.00    -0.545 OA
ENDBRANCH   1   7
BRANCH   4  10
ATOM     10  O   UNL     1      43.145  16.986  -2.416  1.00  0.00    -0.504 OA
ATOM     11  H   UNL     1      44.092  16.644  -2.346  1.00  0.00     0.293 HD
ENDBRANCH   4  10
BRANCH   5  12
ATOM     12  O   UNL     1      41.197  21.145  -0.760  1.00  0.00    -0.504 OA
ATOM     13  H   UNL     1      40.233  21.442  -0.858  1.00  0.00     0.293 HD
ENDBRANCH   5  12
BRANCH   6  14
ATOM     14  O   UNL     1      41.793  18.502  -0.319  1.00  0.00    -0.502 OA
ATOM     15  H   UNL     1      41.049  18.849   0.269  1.00  0.00     0.293 HD
ENDBRANCH   6  14
TORSDOF 4
ENDMDL
MODEL 3
REMARK VINA RESULT:    -4.068      1.597      1.820
REMARK INTER + INTRA:          -4.710
REMARK INTER:                  -4.664
REMARK INTRA:                  -0.045
REMARK UNBOUND:                -0.047
REMARK SMILES O=C([O-])c1cc(O)c(O)c(O)c1
REMARK SMILES IDX 4 1 5 2 12 3 6 4 10 5 8 6 2 7 1 8 3 9 7 10 11 12 9 14
REMARK H PARENT 7 11 11 13 9 15
REMARK Flexibility Score: inf
ROOT
ATOM      1  C   UNL     1      41.955  20.594  -4.067  1.00  0.00     0.005 A 
ATOM      2  C   UNL     1      42.981  20.800  -3.129  1.00  0.00     0.060 A 
ATOM      3  C   UNL     1      40.935  19.680  -3.769  1.00  0.00     0.060 A 
ATOM      4  C   UNL     1      42.996  20.107  -1.914  1.00  0.00     0.162 A 
ATOM      5  C   UNL     1      40.937  18.979  -2.556  1.00  0.00     0.162 A 
ATOM      6  C   UNL     1      41.963  19.185  -1.622  1.00  0.00     0.200 A 
ENDROOT
BRANCH   1   7
ATOM      7  C   UNL     1      41.945  21.333  -5.350  1.00  0.00     0.072 C 
ATOM      8  O   UNL     1      42.787  21.066  -6.249  1.00  0.00    -0.545 OA
ATOM      9  O   UNL     1      41.005  22.330  -5.582  1.00  0.00    -0.545 OA
ENDBRANCH   1   7
BRANCH   4  10
ATOM     10  O   UNL     1      44.049  20.363  -1.033  1.00  0.00    -0.504 OA
ATOM     11  H   UNL     1      44.512  19.654  -0.483  1.00  0.00     0.293 HD
ENDBRANCH   4  10
BRANCH   5  12
ATOM     12  O   UNL     1      39.919  18.071  -2.269  1.00  0.00    -0.504 OA
ATOM     13  H   UNL     1      39.007  18.140  -2.705  1.00  0.00     0.293 HD
ENDBRANCH   5  12
BRANCH   6  14
ATOM     14  O   UNL     1      41.918  18.460  -0.428  1.00  0.00    -0.502 OA
ATOM     15  H   UNL     1      42.103  17.470  -0.360  1.00  0.00     0.293 HD
ENDBRANCH   6  14
TORSDOF 4
ENDMDL
MODEL 4
REMARK VINA RESULT:    -3.951      1.931      3.695
REMARK INTER + INTRA:          -4.575
REMARK INTER:                  -4.527
REMARK INTRA:                  -0.048
REMARK UNBOUND:                -0.047
REMARK SMILES O=C([O-])c1cc(O)c(O)c(O)c1
REMARK SMILES IDX 4 1 5 2 12 3 6 4 10 5 8 6 2 7 1 8 3 9 7 10 11 12 9 14
REMARK H PARENT 7 11 11 13 9 15
REMARK Flexibility Score: inf
ROOT
ATOM      1  C   UNL     1      42.457  18.958  -2.575  1.00  0.00     0.005 A 
ATOM      2  C   UNL     1      43.608  18.572  -3.283  1.00  0.00     0.060 A 
ATOM      3  C   UNL     1      41.677  17.970  -1.956  1.00  0.00     0.060 A 
ATOM      4  C   UNL     1      43.979  17.227  -3.378  1.00  0.00     0.162 A 
ATOM      5  C   UNL     1      42.038  16.620  -2.042  1.00  0.00     0.162 A 
ATOM      6  C   UNL     1      43.186  16.237  -2.751  1.00  0.00     0.200 A 
ENDROOT
BRANCH   1   7
ATOM      7  C   UNL     1      42.071  20.383  -2.479  1.00  0.00     0.072 C 
ATOM      8  O   UNL     1      42.089  21.122  -3.499  1.00  0.00    -0.545 OA
ATOM      9  O   UNL     1      41.683  20.928  -1.260  1.00  0.00    -0.545 OA
ENDBRANCH   1   7
BRANCH   4  10
ATOM     10  O   UNL     1      45.135  16.920  -4.100  1.00  0.00    -0.504 OA
ATOM     11  H   UNL     1      45.139  16.638  -5.068  1.00  0.00     0.293 HD
ENDBRANCH   4  10
BRANCH   5  12
ATOM     12  O   UNL     1      41.255  15.645  -1.424  1.00  0.00    -0.504 OA
ATOM     13  H   UNL     1      40.864  15.785  -0.500  1.00  0.00     0.293 HD
ENDBRANCH   5  12
BRANCH   6  14
ATOM     14  O   UNL     1      43.500  14.876  -2.806  1.00  0.00    -0.502 OA
ATOM     15  H   UNL     1      43.052  14.217  -3.425  1.00  0.00     0.293 HD
ENDBRANCH   6  14
TORSDOF 4
ENDMDL
MODEL 5
REMARK VINA RESULT:    -3.896      8.020      9.201
REMARK INTER + INTRA:          -4.512
REMARK INTER:                  -4.460
REMARK INTRA:                  -0.052
REMARK UNBOUND:                -0.047
REMARK SMILES O=C([O-])c1cc(O)c(O)c(O)c1
REMARK SMILES IDX 4 1 5 2 12 3 6 4 10 5 8 6 2 7 1 8 3 9 7 10 11 12 9 14
REMARK H PARENT 7 11 11 13 9 15
REMARK Flexibility Score: inf
ROOT
ATOM      1  C   UNL     1      50.664  15.128  -5.503  1.00  0.00     0.005 A 
ATOM      2  C   UNL     1      49.590  15.993  -5.233  1.00  0.00     0.060 A 
ATOM      3  C   UNL     1      50.659  13.842  -4.944  1.00  0.00     0.060 A 
ATOM      4  C   UNL     1      48.526  15.588  -4.419  1.00  0.00     0.162 A 
ATOM      5  C   UNL     1      49.601  13.424  -4.128  1.00  0.00     0.162 A 
ATOM      6  C   UNL     1      48.530  14.289  -3.859  1.00  0.00     0.200 A 
ENDROOT
BRANCH   1   7
ATOM      7  C   UNL     1      51.785  15.564  -6.366  1.00  0.00     0.072 C 
ATOM      8  O   UNL     1      51.659  16.561  -7.125  1.00  0.00    -0.545 OA
ATOM      9  O   UNL     1      52.995  14.879  -6.349  1.00  0.00    -0.545 OA
ENDBRANCH   1   7
BRANCH   4  10
ATOM     10  O   UNL     1      47.494  16.502  -4.195  1.00  0.00    -0.504 OA
ATOM     11  H   UNL     1      46.766  16.376  -3.508  1.00  0.00     0.293 HD
ENDBRANCH   4  10
BRANCH   5  12
ATOM     12  O   UNL     1      49.605  12.144  -3.575  1.00  0.00    -0.504 OA
ATOM     13  H   UNL     1      50.097  11.939  -2.713  1.00  0.00     0.293 HD
ENDBRANCH   5  12
BRANCH   6  14
ATOM     14  O   UNL     1      47.500  13.821  -3.038  1.00  0.00    -0.502 OA
ATOM     15  H   UNL     1      47.642  13.432  -2.117  1.00  0.00     0.293 HD
ENDBRANCH   6  14
TORSDOF 4
ENDMDL
MODEL 6
REMARK VINA RESULT:    -3.887      1.911      3.430
REMARK INTER + INTRA:          -4.502
REMARK INTER:                  -4.455
REMARK INTRA:                  -0.048
REMARK UNBOUND:                -0.047
REMARK SMILES O=C([O-])c1cc(O)c(O)c(O)c1
REMARK SMILES IDX 4 1 5 2 12 3 6 4 10 5 8 6 2 7 1 8 3 9 7 10 11 12 9 14
REMARK H PARENT 7 11 11 13 9 15
REMARK Flexibility Score: inf
ROOT
ATOM      1  C   UNL     1      42.416  18.922  -2.685  1.00  0.00     0.005 A 
ATOM      2  C   UNL     1      41.653  17.943  -2.026  1.00  0.00     0.060 A 
ATOM      3  C   UNL     1      43.572  18.532  -3.376  1.00  0.00     0.060 A 
ATOM      4  C   UNL     1      42.034  16.597  -2.049  1.00  0.00     0.162 A 
ATOM      5  C   UNL     1      43.964  17.188  -3.407  1.00  0.00     0.162 A 
ATOM      6  C   UNL     1      43.203  16.213  -2.747  1.00  0.00     0.200 A 
ENDROOT
BRANCH   1   7
ATOM      7  C   UNL     1      42.006  20.344  -2.657  1.00  0.00     0.072 C 
ATOM      8  O   UNL     1      41.909  21.004  -3.725  1.00  0.00    -0.545 OA
ATOM      9  O   UNL     1      41.721  20.971  -1.449  1.00  0.00    -0.545 OA
ENDBRANCH   1   7
BRANCH   4  10
ATOM     10  O   UNL     1      41.227  15.681  -1.369  1.00  0.00    -0.504 OA
ATOM     11  H   UNL     1      40.534  15.098  -1.814  1.00  0.00     0.293 HD
ENDBRANCH   4  10
BRANCH   5  12
ATOM     12  O   UNL     1      45.117  16.810  -4.095  1.00  0.00    -0.504 OA
ATOM     13  H   UNL     1      45.079  16.186  -4.892  1.00  0.00     0.293 HD
ENDBRANCH   5  12
BRANCH   6  14
ATOM     14  O   UNL     1      43.639  14.886  -2.810  1.00  0.00    -0.502 OA
ATOM     15  H   UNL     1      44.554  14.577  -2.516  1.00  0.00     0.293 HD
ENDBRANCH   6  14
TORSDOF 4
ENDMDL
MODEL 7
REMARK VINA RESULT:    -3.882      8.063      9.525
REMARK INTER + INTRA:          -4.496
REMARK INTER:                  -4.443
REMARK INTRA:                  -0.052
REMARK UNBOUND:                -0.047
REMARK SMILES O=C([O-])c1cc(O)c(O)c(O)c1
REMARK SMILES IDX 4 1 5 2 12 3 6 4 10 5 8 6 2 7 1 8 3 9 7 10 11 12 9 14
REMARK H PARENT 7 11 11 13 9 15
REMARK Flexibility Score: inf
ROOT
ATOM      1  C   UNL     1      50.708  15.084  -5.524  1.00  0.00     0.005 A 
ATOM      2  C   UNL     1      50.666  13.804  -4.946  1.00  0.00     0.060 A 
ATOM      3  C   UNL     1      49.661  15.980  -5.267  1.00  0.00     0.060 A 
ATOM      4  C   UNL     1      49.599  13.417  -4.127  1.00  0.00     0.162 A 
ATOM      5  C   UNL     1      48.587  15.607  -4.450  1.00  0.00     0.162 A 
ATOM      6  C   UNL     1      48.546  14.328  -3.875  1.00  0.00     0.200 A 
ENDROOT
BRANCH   1   7
ATOM      7  C   UNL     1      51.841  15.485  -6.388  1.00  0.00     0.072 C 
ATOM      8  O   UNL     1      51.755  16.503  -7.125  1.00  0.00    -0.545 OA
ATOM      9  O   UNL     1      53.018  14.745  -6.396  1.00  0.00    -0.545 OA
ENDBRANCH   1   7
BRANCH   4  10
ATOM     10  O   UNL     1      49.625  12.128  -3.590  1.00  0.00    -0.504 OA
ATOM     11  H   UNL     1      50.083  11.885  -2.724  1.00  0.00     0.293 HD
ENDBRANCH   4  10
BRANCH   5  12
ATOM     12  O   UNL     1      47.549  16.505  -4.202  1.00  0.00    -0.504 OA
ATOM     13  H   UNL     1      46.731  16.549  -4.797  1.00  0.00     0.293 HD
ENDBRANCH   5  12
BRANCH   6  14
ATOM     14  O   UNL     1      47.452  14.007  -3.068  1.00  0.00    -0.502 OA
ATOM     15  H   UNL     1      47.217  13.068  -2.781  1.00  0.00     0.293 HD
ENDBRANCH   6  14
TORSDOF 4
ENDMDL
MODEL 8
REMARK VINA RESULT:    -3.850      7.772      9.714
REMARK INTER + INTRA:          -4.459
REMARK INTER:                  -4.411
REMARK INTRA:                  -0.048
REMARK UNBOUND:                -0.047
REMARK SMILES O=C([O-])c1cc(O)c(O)c(O)c1
REMARK SMILES IDX 4 1 5 2 12 3 6 4 10 5 8 6 2 7 1 8 3 9 7 10 11 12 9 14
REMARK H PARENT 7 11 11 13 9 15
REMARK Flexibility Score: inf
ROOT
ATOM      1  C   UNL     1      48.996  13.989  -4.078  1.00  0.00     0.005 A 
ATOM      2  C   UNL     1      48.491  15.254  -4.423  1.00  0.00     0.060 A 
ATOM      3  C   UNL     1      50.278  13.627  -4.516  1.00  0.00     0.060 A 
ATOM      4  C   UNL     1      49.245  16.146  -5.194  1.00  0.00     0.162 A 
ATOM      5  C   UNL     1      51.044  14.509  -5.287  1.00  0.00     0.162 A 
ATOM      6  C   UNL     1      50.537  15.771  -5.632  1.00  0.00     0.200 A 
ENDROOT
BRANCH   1   7
ATOM      7  C   UNL     1      48.192  13.052  -3.262  1.00  0.00     0.072 C 
ATOM      8  O   UNL     1      48.088  11.841  -3.593  1.00  0.00    -0.545 OA
ATOM      9  O   UNL     1      47.541  13.495  -2.116  1.00  0.00    -0.545 OA
ENDBRANCH   1   7
BRANCH   4  10
ATOM     10  O   UNL     1      48.676  17.385  -5.498  1.00  0.00    -0.504 OA
ATOM     11  H   UNL     1      47.688  17.581  -5.446  1.00  0.00     0.293 HD
ENDBRANCH   4  10
BRANCH   5  12
ATOM     12  O   UNL     1      52.317  14.139  -5.719  1.00  0.00    -0.504 OA
ATOM     13  H   UNL     1      53.127  14.722  -5.546  1.00  0.00     0.293 HD
ENDBRANCH   5  12
BRANCH   6  14
ATOM     14  O   UNL     1      51.343  16.613  -6.403  1.00  0.00    -0.502 OA
ATOM     15  H   UNL     1      52.161  17.090  -6.053  1.00  0.00     0.293 HD
ENDBRANCH   6  14
TORSDOF 4
ENDMDL
MODEL 9
REMARK VINA RESULT:    -3.840      7.756      9.975
REMARK INTER + INTRA:          -4.449
REMARK INTER:                  -4.400
REMARK INTRA:                  -0.048
REMARK UNBOUND:                -0.047
REMARK SMILES O=C([O-])c1cc(O)c(O)c(O)c1
REMARK SMILES IDX 4 1 5 2 12 3 6 4 10 5 8 6 2 7 1 8 3 9 7 10 11 12 9 14
REMARK H PARENT 7 11 11 13 9 15
REMARK Flexibility Score: inf
ROOT
ATOM      1  C   UNL     1      48.979  13.983  -4.068  1.00  0.00     0.005 A 
ATOM      2  C   UNL     1      50.253  13.606  -4.524  1.00  0.00     0.060 A 
ATOM      3  C   UNL     1      48.479  15.247  -4.413  1.00  0.00     0.060 A 
ATOM      4  C   UNL     1      51.023  14.471  -5.309  1.00  0.00     0.162 A 
ATOM      5  C   UNL     1      49.238  16.122  -5.199  1.00  0.00     0.162 A 
ATOM      6  C   UNL     1      50.511  15.745  -5.652  1.00  0.00     0.200 A 
ENDROOT
BRANCH   1   7
ATOM      7  C   UNL     1      48.171  13.061  -3.238  1.00  0.00     0.072 C 
ATOM      8  O   UNL     1      48.077  11.842  -3.540  1.00  0.00    -0.545 OA
ATOM      9  O   UNL     1      47.506  13.528  -2.109  1.00  0.00    -0.545 OA
ENDBRANCH   1   7
BRANCH   4  10
ATOM     10  O   UNL     1      52.280  14.028  -5.724  1.00  0.00    -0.504 OA
ATOM     11  H   UNL     1      53.135  14.550  -5.597  1.00  0.00     0.293 HD
ENDBRANCH   4  10
BRANCH   5  12
ATOM     12  O   UNL     1      48.733  17.378  -5.536  1.00  0.00    -0.504 OA
ATOM     13  H   UNL     1      47.814  17.679  -5.234  1.00  0.00     0.293 HD
ENDBRANCH   5  12
BRANCH   6  14
ATOM     14  O   UNL     1      51.226  16.657  -6.433  1.00  0.00    -0.502 OA
ATOM     15  H   UNL     1      52.155  16.489  -6.791  1.00  0.00     0.293 HD
ENDBRANCH   6  14
TORSDOF 4
ENDMDL
