MODEL 1
REMARK VINA RESULT:    -3.195      0.000      0.000
REMARK INTER + INTRA:          -3.961
REMARK INTER:                  -3.848
REMARK INTRA:                  -0.113
REMARK UNBOUND:                -0.113
REMARK SMILES CC[C@@H](C)[C@H]([NH3+])C(=O)[O-]
REMARK SMILES IDX 3 1 4 2 5 3 6 4 7 8 8 9 9 10 2 11 1 12
REMARK H PARENT 6 5 6 6 6 7
REMARK Flexibility Score: inf
ROOT
ATOM      1  C   UNL     1      45.983  18.398  76.347  1.00  0.00     0.050 C 
ATOM      2  C   UNL     1      46.191  16.889  76.573  1.00  0.00     0.014 C 
ENDROOT
BRANCH   1   3
ATOM      3  C   UNL     1      46.723  19.220  77.450  1.00  0.00     0.230 C 
BRANCH   3   4
ATOM      4  N   UNL     1      47.459  18.352  78.384  1.00  0.00    -0.350 N 
ATOM      5  H   UNL     1      47.192  18.537  79.377  1.00  0.00     0.345 HD
ATOM      6  H   UNL     1      47.277  17.347  78.160  1.00  0.00     0.345 HD
ATOM      7  H   UNL     1      48.486  18.526  78.282  1.00  0.00     0.345 HD
ENDBRANCH   3   4
BRANCH   3   8
ATOM      8  C   UNL     1      45.800  20.154  78.195  1.00  0.00     0.099 C 
ATOM      9  O   UNL     1      46.263  21.101  78.886  1.00  0.00    -0.544 OA
ATOM     10  O   UNL     1      44.427  19.951  78.149  1.00  0.00    -0.544 OA
ENDBRANCH   3   8
ENDBRANCH   1   3
BRANCH   1  11
ATOM     11  C   UNL     1      46.387  18.810  74.907  1.00  0.00     0.006 C 
ATOM     12  C   UNL     1      45.804  20.162  74.489  1.00  0.00     0.004 C 
ENDBRANCH   1  11
TORSDOF 4
ENDMDL
MODEL 2
REMARK VINA RESULT:    -3.170      2.328      3.411
REMARK INTER + INTRA:          -3.931
REMARK INTER:                  -3.802
REMARK INTRA:                  -0.129
REMARK UNBOUND:                -0.113
REMARK SMILES CC[C@@H](C)[C@H]([NH3+])C(=O)[O-]
REMARK SMILES IDX 3 1 4 2 5 3 6 4 7 8 8 9 9 10 2 11 1 12
REMARK H PARENT 6 5 6 6 6 7
REMARK Flexibility Score: inf
ROOT
ATOM      1  C   UNL     1      46.511  20.069  77.518  1.00  0.00     0.050 C 
ATOM      2  C   UNL     1      47.944  20.533  77.840  1.00  0.00     0.014 C 
ENDROOT
BRANCH   1   3
ATOM      3  C   UNL     1      46.391  18.521  77.683  1.00  0.00     0.230 C 
BRANCH   3   4
ATOM      4  N   UNL     1      47.520  17.957  78.440  1.00  0.00    -0.350 N 
ATOM      5  H   UNL     1      47.827  17.038  78.051  1.00  0.00     0.345 HD
ATOM      6  H   UNL     1      48.327  18.622  78.431  1.00  0.00     0.345 HD
ATOM      7  H   UNL     1      47.232  17.813  79.436  1.00  0.00     0.345 HD
ENDBRANCH   3   4
BRANCH   3   8
ATOM      8  C   UNL     1      46.217  17.808  76.363  1.00  0.00     0.099 C 
ATOM      9  O   UNL     1      46.209  18.452  75.280  1.00  0.00    -0.544 OA
ATOM     10  O   UNL     1      46.028  16.432  76.340  1.00  0.00    -0.544 OA
ENDBRANCH   3   8
ENDBRANCH   1   3
BRANCH   1  11
ATOM     11  C   UNL     1      45.466  20.854  78.355  1.00  0.00     0.006 C 
ATOM     12  C   UNL     1      44.061  20.256  78.263  1.00  0.00     0.004 C 
ENDBRANCH   1  11
TORSDOF 4
ENDMDL
MODEL 3
REMARK VINA RESULT:    -3.166      2.738      3.521
REMARK INTER + INTRA:          -3.927
REMARK INTER:                  -3.819
REMARK INTRA:                  -0.107
REMARK UNBOUND:                -0.113
REMARK SMILES CC[C@@H](C)[C@H]([NH3+])C(=O)[O-]
REMARK SMILES IDX 3 1 4 2 5 3 6 4 7 8 8 9 9 10 2 11 1 12
REMARK H PARENT 6 5 6 6 6 7
REMARK Flexibility Score: inf
ROOT
ATOM      1  C   UNL     1      46.246  18.627  76.494  1.00  0.00     0.050 C 
ATOM      2  C   UNL     1      46.104  17.098  76.616  1.00  0.00     0.014 C 
ENDROOT
BRANCH   1   3
ATOM      3  C   UNL     1      46.285  19.050  74.991  1.00  0.00     0.230 C 
BRANCH   3   4
ATOM      4  N   UNL     1      46.495  17.900  74.098  1.00  0.00    -0.350 N 
ATOM      5  H   UNL     1      47.168  17.212  74.505  1.00  0.00     0.345 HD
ATOM      6  H   UNL     1      45.585  17.421  73.908  1.00  0.00     0.345 HD
ATOM      7  H   UNL     1      46.880  18.236  73.185  1.00  0.00     0.345 HD
ENDBRANCH   3   4
BRANCH   3   8
ATOM      8  C   UNL     1      47.298  20.136  74.721  1.00  0.00     0.099 C 
ATOM      9  O   UNL     1      47.446  20.606  73.560  1.00  0.00    -0.544 OA
ATOM     10  O   UNL     1      48.104  20.602  75.752  1.00  0.00    -0.544 OA
ENDBRANCH   3   8
ENDBRANCH   1   3
BRANCH   1  11
ATOM     11  C   UNL     1      45.144  19.358  77.305  1.00  0.00     0.006 C 
ATOM     12  C   UNL     1      45.705  20.446  78.223  1.00  0.00     0.004 C 
ENDBRANCH   1  11
TORSDOF 4
ENDMDL
MODEL 4
REMARK VINA RESULT:    -3.156     16.358     16.881
REMARK INTER + INTRA:          -3.915
REMARK INTER:                  -3.841
REMARK INTRA:                  -0.073
REMARK UNBOUND:                -0.113
REMARK SMILES CC[C@@H](C)[C@H]([NH3+])C(=O)[O-]
REMARK SMILES IDX 3 1 4 2 5 3 6 4 7 8 8 9 9 10 2 11 1 12
REMARK H PARENT 6 5 6 6 6 7
REMARK Flexibility Score: inf
ROOT
ATOM      1  C   UNL     1      41.080  30.220  88.433  1.00  0.00     0.050 C 
ATOM      2  C   UNL     1      39.661  30.811  88.328  1.00  0.00     0.014 C 
ENDROOT
BRANCH   1   3
ATOM      3  C   UNL     1      42.139  31.265  87.958  1.00  0.00     0.230 C 
BRANCH   3   4
ATOM      4  N   UNL     1      42.110  31.458  86.500  1.00  0.00    -0.350 N 
ATOM      5  H   UNL     1      42.741  30.787  86.007  1.00  0.00     0.345 HD
ATOM      6  H   UNL     1      41.134  31.340  86.142  1.00  0.00     0.345 HD
ATOM      7  H   UNL     1      42.422  32.430  86.273  1.00  0.00     0.345 HD
ENDBRANCH   3   4
BRANCH   3   8
ATOM      8  C   UNL     1      43.534  30.931  88.430  1.00  0.00     0.099 C 
ATOM      9  O   UNL     1      44.091  31.616  89.330  1.00  0.00    -0.544 OA
ATOM     10  O   UNL     1      44.229  29.880  87.845  1.00  0.00    -0.544 OA
ENDBRANCH   3   8
ENDBRANCH   1   3
BRANCH   1  11
ATOM     11  C   UNL     1      41.356  29.678  89.860  1.00  0.00     0.006 C 
ATOM     12  C   UNL     1      41.056  28.183  89.997  1.00  0.00     0.004 C 
ENDBRANCH   1  11
TORSDOF 4
ENDMDL
MODEL 5
REMARK VINA RESULT:    -3.125     14.488     16.071
REMARK INTER + INTRA:          -3.877
REMARK INTER:                  -3.753
REMARK INTRA:                  -0.124
REMARK UNBOUND:                -0.113
REMARK SMILES CC[C@@H](C)[C@H]([NH3+])C(=O)[O-]
REMARK SMILES IDX 3 1 4 2 5 3 6 4 7 8 8 9 9 10 2 11 1 12
REMARK H PARENT 6 5 6 6 6 7
REMARK Flexibility Score: inf
ROOT
ATOM      1  C   UNL     1      41.102  29.949  88.278  1.00  0.00     0.050 C 
ATOM      2  C   UNL     1      39.876  30.882  88.287  1.00  0.00     0.014 C 
ENDROOT
BRANCH   1   3
ATOM      3  C   UNL     1      42.142  30.428  87.216  1.00  0.00     0.230 C 
BRANCH   3   4
ATOM      4  N   UNL     1      41.876  31.803  86.764  1.00  0.00    -0.350 N 
ATOM      5  H   UNL     1      42.742  32.269  86.411  1.00  0.00     0.345 HD
ATOM      6  H   UNL     1      41.154  31.800  86.008  1.00  0.00     0.345 HD
ATOM      7  H   UNL     1      41.504  32.365  87.565  1.00  0.00     0.345 HD
ENDBRANCH   3   4
BRANCH   3   8
ATOM      8  C   UNL     1      42.248  29.485  86.041  1.00  0.00     0.099 C 
ATOM      9  O   UNL     1      43.286  29.458  85.328  1.00  0.00    -0.544 OA
ATOM     10  O   UNL     1      41.177  28.662  85.718  1.00  0.00    -0.544 OA
ENDBRANCH   3   8
ENDBRANCH   1   3
BRANCH   1  11
ATOM     11  C   UNL     1      41.706  29.804  89.700  1.00  0.00     0.006 C 
ATOM     12  C   UNL     1      43.182  30.201  89.762  1.00  0.00     0.004 C 
ENDBRANCH   1  11
TORSDOF 4
ENDMDL
MODEL 6
REMARK VINA RESULT:    -2.995     16.344     16.951
REMARK INTER + INTRA:          -3.721
REMARK INTER:                  -3.641
REMARK INTRA:                  -0.080
REMARK UNBOUND:                -0.113
REMARK SMILES CC[C@@H](C)[C@H]([NH3+])C(=O)[O-]
REMARK SMILES IDX 3 1 4 2 5 3 6 4 7 8 8 9 9 10 2 11 1 12
REMARK H PARENT 6 5 6 6 6 7
REMARK Flexibility Score: inf
ROOT
ATOM      1  C   UNL     1      42.113  30.474  88.128  1.00  0.00     0.050 C 
ATOM      2  C   UNL     1      41.821  31.598  87.115  1.00  0.00     0.014 C 
ENDROOT
BRANCH   1   3
ATOM      3  C   UNL     1      43.395  30.808  88.954  1.00  0.00     0.230 C 
BRANCH   3   4
ATOM      4  N   UNL     1      44.601  30.844  88.112  1.00  0.00    -0.350 N 
ATOM      5  H   UNL     1      44.805  29.913  87.687  1.00  0.00     0.345 HD
ATOM      6  H   UNL     1      44.487  31.553  87.351  1.00  0.00     0.345 HD
ATOM      7  H   UNL     1      45.423  31.127  88.695  1.00  0.00     0.345 HD
ENDBRANCH   3   4
BRANCH   3   8
ATOM      8  C   UNL     1      43.586  29.880  90.130  1.00  0.00     0.099 C 
ATOM      9  O   UNL     1      43.535  30.317  91.311  1.00  0.00    -0.544 OA
ATOM     10  O   UNL     1      43.854  28.535  89.912  1.00  0.00    -0.544 OA
ENDBRANCH   3   8
ENDBRANCH   1   3
BRANCH   1  11
ATOM     11  C   UNL     1      40.874  30.186  89.016  1.00  0.00     0.006 C 
ATOM     12  C   UNL     1      39.569  30.696  88.401  1.00  0.00     0.004 C 
ENDBRANCH   1  11
TORSDOF 4
ENDMDL
MODEL 7
REMARK VINA RESULT:    -2.992     19.265     20.008
REMARK INTER + INTRA:          -3.718
REMARK INTER:                  -3.646
REMARK INTRA:                  -0.072
REMARK UNBOUND:                -0.113
REMARK SMILES CC[C@@H](C)[C@H]([NH3+])C(=O)[O-]
REMARK SMILES IDX 3 1 4 2 5 3 6 4 7 8 8 9 9 10 2 11 1 12
REMARK H PARENT 6 5 6 6 6 7
REMARK Flexibility Score: inf
ROOT
ATOM      1  C   UNL     1      52.559  34.614  86.874  1.00  0.00     0.050 C 
ATOM      2  C   UNL     1      52.993  34.797  85.408  1.00  0.00     0.014 C 
ENDROOT
BRANCH   1   3
ATOM      3  C   UNL     1      53.783  34.793  87.829  1.00  0.00     0.230 C 
BRANCH   3   4
ATOM      4  N   UNL     1      55.062  34.736  87.104  1.00  0.00    -0.350 N 
ATOM      5  H   UNL     1      54.920  34.688  86.070  1.00  0.00     0.345 HD
ATOM      6  H   UNL     1      55.643  35.574  87.334  1.00  0.00     0.345 HD
ATOM      7  H   UNL     1      55.591  33.884  87.402  1.00  0.00     0.345 HD
ENDBRANCH   3   4
BRANCH   3   8
ATOM      8  C   UNL     1      53.769  33.814  88.978  1.00  0.00     0.099 C 
ATOM      9  O   UNL     1      52.982  32.829  88.977  1.00  0.00    -0.544 OA
ATOM     10  O   UNL     1      54.606  34.015  90.068  1.00  0.00    -0.544 OA
ENDBRANCH   3   8
ENDBRANCH   1   3
BRANCH   1  11
ATOM     11  C   UNL     1      51.370  35.547  87.227  1.00  0.00     0.006 C 
ATOM     12  C   UNL     1      50.066  35.131  86.544  1.00  0.00     0.004 C 
ENDBRANCH   1  11
TORSDOF 4
ENDMDL
MODEL 8
REMARK VINA RESULT:    -2.990     16.122     16.928
REMARK INTER + INTRA:          -3.715
REMARK INTER:                  -3.623
REMARK INTRA:                  -0.092
REMARK UNBOUND:                -0.113
REMARK SMILES CC[C@@H](C)[C@H]([NH3+])C(=O)[O-]
REMARK SMILES IDX 3 1 4 2 5 3 6 4 7 8 8 9 9 10 2 11 1 12
REMARK H PARENT 6 5 6 6 6 7
REMARK Flexibility Score: inf
ROOT
ATOM      1  C   UNL     1      42.671  30.683  88.939  1.00  0.00     0.050 C 
ATOM      2  C   UNL     1      44.169  30.911  88.665  1.00  0.00     0.014 C 
ENDROOT
BRANCH   1   3
ATOM      3  C   UNL     1      41.886  30.559  87.594  1.00  0.00     0.230 C 
BRANCH   3   4
ATOM      4  N   UNL     1      42.015  31.768  86.766  1.00  0.00    -0.350 N 
ATOM      5  H   UNL     1      41.816  31.571  85.759  1.00  0.00     0.345 HD
ATOM      6  H   UNL     1      41.362  32.509  87.108  1.00  0.00     0.345 HD
ATOM      7  H   UNL     1      42.991  32.137  86.842  1.00  0.00     0.345 HD
ENDBRANCH   3   4
BRANCH   3   8
ATOM      8  C   UNL     1      40.434  30.198  87.801  1.00  0.00     0.099 C 
ATOM      9  O   UNL     1      39.646  30.999  88.373  1.00  0.00    -0.544 OA
ATOM     10  O   UNL     1      39.965  28.957  87.389  1.00  0.00    -0.544 OA
ENDBRANCH   3   8
ENDBRANCH   1   3
BRANCH   1  11
ATOM     11  C   UNL     1      42.452  29.474  89.886  1.00  0.00     0.006 C 
ATOM     12  C   UNL     1      42.926  29.745  91.316  1.00  0.00     0.004 C 
ENDBRANCH   1  11
TORSDOF 4
ENDMDL
MODEL 9
REMARK VINA RESULT:    -2.976     17.187     17.915
REMARK INTER + INTRA:          -3.697
REMARK INTER:                  -3.612
REMARK INTRA:                  -0.085
REMARK UNBOUND:                -0.113
REMARK SMILES CC[C@@H](C)[C@H]([NH3+])C(=O)[O-]
REMARK SMILES IDX 3 1 4 2 5 3 6 4 7 8 8 9 9 10 2 11 1 12
REMARK H PARENT 6 5 6 6 6 7
REMARK Flexibility Score: inf
ROOT
ATOM      1  C   UNL     1      43.469  30.397  89.461  1.00  0.00     0.050 C 
ATOM      2  C   UNL     1      42.941  31.196  88.254  1.00  0.00     0.014 C 
ENDROOT
BRANCH   1   3
ATOM      3  C   UNL     1      44.358  31.306  90.368  1.00  0.00     0.230 C 
BRANCH   3   4
ATOM      4  N   UNL     1      45.573  31.759  89.673  1.00  0.00    -0.350 N 
ATOM      5  H   UNL     1      46.432  31.304  90.057  1.00  0.00     0.345 HD
ATOM      6  H   UNL     1      45.502  31.551  88.651  1.00  0.00     0.345 HD
ATOM      7  H   UNL     1      45.671  32.794  89.786  1.00  0.00     0.345 HD
ENDBRANCH   3   4
BRANCH   3   8
ATOM      8  C   UNL     1      44.701  30.653  91.685  1.00  0.00     0.099 C 
ATOM      9  O   UNL     1      44.281  31.134  92.772  1.00  0.00    -0.544 OA
ATOM     10  O   UNL     1      45.517  29.529  91.707  1.00  0.00    -0.544 OA
ENDBRANCH   3   8
ENDBRANCH   1   3
BRANCH   1  11
ATOM     11  C   UNL     1      42.308  29.716  90.233  1.00  0.00     0.006 C 
ATOM     12  C   UNL     1      40.943  29.954  89.584  1.00  0.00     0.004 C 
ENDBRANCH   1  11
TORSDOF 4
ENDMDL
