MODEL 1
REMARK VINA RESULT:    -5.360      0.000      0.000
REMARK INTER + INTRA:          -5.674
REMARK INTER:                  -5.674
REMARK INTRA:                   0.000
REMARK UNBOUND:                 0.000
REMARK SMILES Cc1cc(O)c(C)c(C)c1O
REMARK SMILES IDX 1 1 2 2 3 3 4 4 6 5 8 6 10 7 9 8 7 9 11 10 5 12
REMARK H PARENT 11 11 5 13
REMARK Flexibility Score: inf
ROOT
ATOM      1  C   UNL     1      47.348   4.588  14.107  1.00  0.00     0.048 C 
ATOM      2  C   UNL     1      46.537   5.483  15.002  1.00  0.00    -0.005 A 
ATOM      3  C   UNL     1      45.308   5.981  14.560  1.00  0.00     0.053 A 
ATOM      4  C   UNL     1      44.554   6.840  15.364  1.00  0.00     0.119 A 
ATOM      5  C   UNL     1      45.021   7.212  16.641  1.00  0.00    -0.003 A 
ATOM      6  C   UNL     1      46.250   6.676  17.119  1.00  0.00    -0.002 A 
ATOM      7  C   UNL     1      47.021   5.839  16.271  1.00  0.00     0.121 A 
ATOM      8  C   UNL     1      46.768   6.999  18.505  1.00  0.00     0.049 C 
ATOM      9  C   UNL     1      44.200   8.160  17.486  1.00  0.00     0.049 C 
ENDROOT
BRANCH   7  10
ATOM     10  O   UNL     1      48.274   5.353  16.662  1.00  0.00    -0.507 OA
ATOM     11  H   UNL     1      49.126   5.510  16.142  1.00  0.00     0.293 HD
ENDBRANCH   7  10
BRANCH   4  12
ATOM     12  O   UNL     1      43.333   7.323  14.888  1.00  0.00    -0.508 OA
ATOM     13  H   UNL     1      43.264   7.836  14.018  1.00  0.00     0.293 HD
ENDBRANCH   4  12
TORSDOF 2
ENDMDL
MODEL 2
REMARK VINA RESULT:    -5.287      1.080      4.309
REMARK INTER + INTRA:          -5.597
REMARK INTER:                  -5.597
REMARK INTRA:                   0.000
REMARK UNBOUND:                 0.000
REMARK SMILES Cc1cc(O)c(C)c(C)c1O
REMARK SMILES IDX 1 1 2 2 3 3 4 4 6 5 8 6 10 7 9 8 7 9 11 10 5 12
REMARK H PARENT 11 11 5 13
REMARK Flexibility Score: inf
ROOT
ATOM      1  C   UNL     1      45.294   8.274  18.876  1.00  0.00     0.048 C 
ATOM      2  C   UNL     1      45.647   7.493  17.640  1.00  0.00    -0.005 A 
ATOM      3  C   UNL     1      46.776   6.669  17.636  1.00  0.00     0.053 A 
ATOM      4  C   UNL     1      47.139   5.959  16.489  1.00  0.00     0.119 A 
ATOM      5  C   UNL     1      46.364   6.060  15.315  1.00  0.00    -0.003 A 
ATOM      6  C   UNL     1      45.187   6.861  15.321  1.00  0.00    -0.002 A 
ATOM      7  C   UNL     1      44.859   7.606  16.483  1.00  0.00     0.121 A 
ATOM      8  C   UNL     1      44.290   6.957  14.106  1.00  0.00     0.049 C 
ATOM      9  C   UNL     1      46.786   5.300  14.078  1.00  0.00     0.049 C 
ENDROOT
BRANCH   7  10
ATOM     10  O   UNL     1      43.760   8.472  16.514  1.00  0.00    -0.507 OA
ATOM     11  H   UNL     1      43.689   9.311  15.954  1.00  0.00     0.293 HD
ENDBRANCH   7  10
BRANCH   4  12
ATOM     12  O   UNL     1      48.276   5.149  16.519  1.00  0.00    -0.508 OA
ATOM     13  H   UNL     1      49.146   5.434  16.087  1.00  0.00     0.293 HD
ENDBRANCH   4  12
TORSDOF 2
ENDMDL
MODEL 3
REMARK VINA RESULT:    -4.853      1.104      3.054
REMARK INTER + INTRA:          -5.136
REMARK INTER:                  -5.136
REMARK INTRA:                   0.000
REMARK UNBOUND:                 0.000
REMARK SMILES Cc1cc(O)c(C)c(C)c1O
REMARK SMILES IDX 1 1 2 2 3 3 4 4 6 5 8 6 10 7 9 8 7 9 11 10 5 12
REMARK H PARENT 11 11 5 13
REMARK Flexibility Score: inf
ROOT
ATOM      1  C   UNL     1      46.760   7.005  19.402  1.00  0.00     0.048 C 
ATOM      2  C   UNL     1      46.174   7.112  18.021  1.00  0.00    -0.005 A 
ATOM      3  C   UNL     1      45.079   7.950  17.793  1.00  0.00     0.053 A 
ATOM      4  C   UNL     1      44.500   8.040  16.524  1.00  0.00     0.119 A 
ATOM      5  C   UNL     1      45.020   7.288  15.450  1.00  0.00    -0.003 A 
ATOM      6  C   UNL     1      46.163   6.466  15.661  1.00  0.00    -0.002 A 
ATOM      7  C   UNL     1      46.710   6.356  16.966  1.00  0.00     0.121 A 
ATOM      8  C   UNL     1      46.794   5.684  14.529  1.00  0.00     0.049 C 
ATOM      9  C   UNL     1      44.365   7.384  14.091  1.00  0.00     0.049 C 
ENDROOT
BRANCH   7  10
ATOM     10  O   UNL     1      47.781   5.499  17.243  1.00  0.00    -0.507 OA
ATOM     11  H   UNL     1      47.698   4.653  17.790  1.00  0.00     0.293 HD
ENDBRANCH   7  10
BRANCH   4  12
ATOM     12  O   UNL     1      43.403   8.883  16.333  1.00  0.00    -0.508 OA
ATOM     13  H   UNL     1      43.127   9.565  17.028  1.00  0.00     0.293 HD
ENDBRANCH   4  12
TORSDOF 2
ENDMDL
MODEL 4
REMARK VINA RESULT:    -4.849      1.378      1.951
REMARK INTER + INTRA:          -5.132
REMARK INTER:                  -5.132
REMARK INTRA:                   0.000
REMARK UNBOUND:                 0.000
REMARK SMILES Cc1cc(O)c(C)c(C)c1O
REMARK SMILES IDX 1 1 2 2 3 3 4 4 6 5 8 6 10 7 9 8 7 9 11 10 5 12
REMARK H PARENT 11 11 5 13
REMARK Flexibility Score: inf
ROOT
ATOM      1  C   UNL     1      46.213   6.055  14.777  1.00  0.00     0.048 C 
ATOM      2  C   UNL     1      45.790   6.815  16.004  1.00  0.00    -0.005 A 
ATOM      3  C   UNL     1      44.752   7.747  15.921  1.00  0.00     0.053 A 
ATOM      4  C   UNL     1      44.365   8.486  17.042  1.00  0.00     0.119 A 
ATOM      5  C   UNL     1      45.016   8.297  18.279  1.00  0.00    -0.003 A 
ATOM      6  C   UNL     1      46.045   7.319  18.385  1.00  0.00    -0.002 A 
ATOM      7  C   UNL     1      46.450   6.608  17.226  1.00  0.00     0.121 A 
ATOM      8  C   UNL     1      46.735   7.036  19.702  1.00  0.00     0.049 C 
ATOM      9  C   UNL     1      44.596   9.122  19.474  1.00  0.00     0.049 C 
ENDROOT
BRANCH   7  10
ATOM     10  O   UNL     1      47.512   5.696  17.258  1.00  0.00    -0.507 OA
ATOM     11  H   UNL     1      47.578   4.933  17.918  1.00  0.00     0.293 HD
ENDBRANCH   7  10
BRANCH   4  12
ATOM     12  O   UNL     1      43.327   9.413  16.923  1.00  0.00    -0.508 OA
ATOM     13  H   UNL     1      42.716   9.429  16.116  1.00  0.00     0.293 HD
ENDBRANCH   4  12
TORSDOF 2
ENDMDL
MODEL 5
REMARK VINA RESULT:    -4.805      3.980      5.600
REMARK INTER + INTRA:          -5.086
REMARK INTER:                  -5.086
REMARK INTRA:                   0.000
REMARK UNBOUND:                 0.000
REMARK SMILES Cc1cc(O)c(C)c(C)c1O
REMARK SMILES IDX 1 1 2 2 3 3 4 4 6 5 8 6 10 7 9 8 7 9 11 10 5 12
REMARK H PARENT 11 11 5 13
REMARK Flexibility Score: inf
ROOT
ATOM      1  C   UNL     1      44.851   8.205  17.938  1.00  0.00     0.048 C 
ATOM      2  C   UNL     1      45.145   8.262  19.412  1.00  0.00    -0.005 A 
ATOM      3  C   UNL     1      44.301   8.981  20.263  1.00  0.00     0.053 A 
ATOM      4  C   UNL     1      44.574   9.071  21.630  1.00  0.00     0.119 A 
ATOM      5  C   UNL     1      45.707   8.430  22.174  1.00  0.00    -0.003 A 
ATOM      6  C   UNL     1      46.548   7.659  21.324  1.00  0.00    -0.002 A 
ATOM      7  C   UNL     1      46.277   7.614  19.932  1.00  0.00     0.121 A 
ATOM      8  C   UNL     1      47.743   6.905  21.867  1.00  0.00     0.049 C 
ATOM      9  C   UNL     1      45.995   8.559  23.652  1.00  0.00     0.049 C 
ENDROOT
BRANCH   7  10
ATOM     10  O   UNL     1      47.120   6.937  19.041  1.00  0.00    -0.507 OA
ATOM     11  H   UNL     1      47.043   7.001  18.036  1.00  0.00     0.293 HD
ENDBRANCH   7  10
BRANCH   4  12
ATOM     12  O   UNL     1      43.712   9.802  22.450  1.00  0.00    -0.508 OA
ATOM     13  H   UNL     1      44.056  10.496  23.103  1.00  0.00     0.293 HD
ENDBRANCH   4  12
TORSDOF 2
ENDMDL
MODEL 6
REMARK VINA RESULT:    -4.780      1.336      3.489
REMARK INTER + INTRA:          -5.059
REMARK INTER:                  -5.059
REMARK INTRA:                   0.000
REMARK UNBOUND:                 0.000
REMARK SMILES Cc1cc(O)c(C)c(C)c1O
REMARK SMILES IDX 1 1 2 2 3 3 4 4 6 5 8 6 10 7 9 8 7 9 11 10 5 12
REMARK H PARENT 11 11 5 13
REMARK Flexibility Score: inf
ROOT
ATOM      1  C   UNL     1      44.491   7.325  14.095  1.00  0.00     0.048 C 
ATOM      2  C   UNL     1      45.106   7.260  15.467  1.00  0.00    -0.005 A 
ATOM      3  C   UNL     1      46.206   6.428  15.698  1.00  0.00     0.053 A 
ATOM      4  C   UNL     1      46.771   6.330  16.972  1.00  0.00     0.119 A 
ATOM      5  C   UNL     1      46.243   7.077  18.045  1.00  0.00    -0.003 A 
ATOM      6  C   UNL     1      45.151   7.961  17.811  1.00  0.00    -0.002 A 
ATOM      7  C   UNL     1      44.565   8.015  16.520  1.00  0.00     0.121 A 
ATOM      8  C   UNL     1      44.584   8.827  18.915  1.00  0.00     0.049 C 
ATOM      9  C   UNL     1      46.856   6.940  19.419  1.00  0.00     0.049 C 
ENDROOT
BRANCH   7  10
ATOM     10  O   UNL     1      43.439   8.805  16.257  1.00  0.00    -0.507 OA
ATOM     11  H   UNL     1      42.493   8.527  16.478  1.00  0.00     0.293 HD
ENDBRANCH   7  10
BRANCH   4  12
ATOM     12  O   UNL     1      47.866   5.486  17.168  1.00  0.00    -0.508 OA
ATOM     13  H   UNL     1      48.772   5.841  17.447  1.00  0.00     0.293 HD
ENDBRANCH   4  12
TORSDOF 2
ENDMDL
MODEL 7
REMARK VINA RESULT:    -4.730      2.051      4.087
REMARK INTER + INTRA:          -5.007
REMARK INTER:                  -5.007
REMARK INTRA:                   0.000
REMARK UNBOUND:                 0.000
REMARK SMILES Cc1cc(O)c(C)c(C)c1O
REMARK SMILES IDX 1 1 2 2 3 3 4 4 6 5 8 6 10 7 9 8 7 9 11 10 5 12
REMARK H PARENT 11 11 5 13
REMARK Flexibility Score: inf
ROOT
ATOM      1  C   UNL     1      45.688   8.512  21.202  1.00  0.00     0.048 C 
ATOM      2  C   UNL     1      45.422   8.341  19.731  1.00  0.00    -0.005 A 
ATOM      3  C   UNL     1      44.402   9.074  19.118  1.00  0.00     0.053 A 
ATOM      4  C   UNL     1      44.119   8.907  17.760  1.00  0.00     0.119 A 
ATOM      5  C   UNL     1      44.866   7.996  16.984  1.00  0.00    -0.003 A 
ATOM      6  C   UNL     1      45.936   7.276  17.588  1.00  0.00    -0.002 A 
ATOM      7  C   UNL     1      46.180   7.430  18.978  1.00  0.00     0.121 A 
ATOM      8  C   UNL     1      46.804   6.330  16.787  1.00  0.00     0.049 C 
ATOM      9  C   UNL     1      44.528   7.814  15.522  1.00  0.00     0.049 C 
ENDROOT
BRANCH   7  10
ATOM     10  O   UNL     1      47.166   6.685  19.636  1.00  0.00    -0.507 OA
ATOM     11  H   UNL     1      47.316   5.696  19.489  1.00  0.00     0.293 HD
ENDBRANCH   7  10
BRANCH   4  12
ATOM     12  O   UNL     1      43.090   9.652  17.181  1.00  0.00    -0.508 OA
ATOM     13  H   UNL     1      42.162   9.685  17.585  1.00  0.00     0.293 HD
ENDBRANCH   4  12
TORSDOF 2
ENDMDL
MODEL 8
REMARK VINA RESULT:    -4.674      4.449      6.406
REMARK INTER + INTRA:          -4.947
REMARK INTER:                  -4.947
REMARK INTRA:                   0.000
REMARK UNBOUND:                 0.000
REMARK SMILES Cc1cc(O)c(C)c(C)c1O
REMARK SMILES IDX 1 1 2 2 3 3 4 4 6 5 8 6 10 7 9 8 7 9 11 10 5 12
REMARK H PARENT 11 11 5 13
REMARK Flexibility Score: inf
ROOT
ATOM      1  C   UNL     1      48.220   6.592  22.500  1.00  0.00     0.048 C 
ATOM      2  C   UNL     1      47.168   7.570  22.052  1.00  0.00    -0.005 A 
ATOM      3  C   UNL     1      46.697   8.541  22.940  1.00  0.00     0.053 A 
ATOM      4  C   UNL     1      45.698   9.438  22.553  1.00  0.00     0.119 A 
ATOM      5  C   UNL     1      45.154   9.380  21.253  1.00  0.00    -0.003 A 
ATOM      6  C   UNL     1      45.658   8.424  20.326  1.00  0.00    -0.002 A 
ATOM      7  C   UNL     1      46.643   7.496  20.752  1.00  0.00     0.121 A 
ATOM      8  C   UNL     1      45.149   8.359  18.902  1.00  0.00     0.049 C 
ATOM      9  C   UNL     1      44.059  10.346  20.862  1.00  0.00     0.049 C 
ENDROOT
BRANCH   7  10
ATOM     10  O   UNL     1      47.112   6.484  19.905  1.00  0.00    -0.507 OA
ATOM     11  H   UNL     1      47.373   6.634  18.940  1.00  0.00     0.293 HD
ENDBRANCH   7  10
BRANCH   4  12
ATOM     12  O   UNL     1      45.247  10.392  23.467  1.00  0.00    -0.508 OA
ATOM     13  H   UNL     1      45.403  10.293  24.463  1.00  0.00     0.293 HD
ENDBRANCH   4  12
TORSDOF 2
ENDMDL
MODEL 9
REMARK VINA RESULT:    -4.669      4.561      7.276
REMARK INTER + INTRA:          -4.942
REMARK INTER:                  -4.942
REMARK INTRA:                   0.000
REMARK UNBOUND:                 0.000
REMARK SMILES Cc1cc(O)c(C)c(C)c1O
REMARK SMILES IDX 1 1 2 2 3 3 4 4 6 5 8 6 10 7 9 8 7 9 11 10 5 12
REMARK H PARENT 11 11 5 13
REMARK Flexibility Score: inf
ROOT
ATOM      1  C   UNL     1      45.258   9.294  24.497  1.00  0.00     0.048 C 
ATOM      2  C   UNL     1      45.595   8.755  23.134  1.00  0.00    -0.005 A 
ATOM      3  C   UNL     1      46.707   7.923  22.969  1.00  0.00     0.053 A 
ATOM      4  C   UNL     1      47.055   7.438  21.706  1.00  0.00     0.119 A 
ATOM      5  C   UNL     1      46.282   7.776  20.576  1.00  0.00    -0.003 A 
ATOM      6  C   UNL     1      45.123   8.586  20.739  1.00  0.00    -0.002 A 
ATOM      7  C   UNL     1      44.810   9.103  22.023  1.00  0.00     0.121 A 
ATOM      8  C   UNL     1      44.228   8.931  19.567  1.00  0.00     0.049 C 
ATOM      9  C   UNL     1      46.689   7.258  19.215  1.00  0.00     0.049 C 
ENDROOT
BRANCH   7  10
ATOM     10  O   UNL     1      43.729   9.969  22.222  1.00  0.00    -0.507 OA
ATOM     11  H   UNL     1      42.795   9.791  21.880  1.00  0.00     0.293 HD
ENDBRANCH   7  10
BRANCH   4  12
ATOM     12  O   UNL     1      48.175   6.614  21.577  1.00  0.00    -0.508 OA
ATOM     13  H   UNL     1      48.873   6.545  22.307  1.00  0.00     0.293 HD
ENDBRANCH   4  12
TORSDOF 2
ENDMDL
