MODEL 1
REMARK VINA RESULT:    -5.442      0.000      0.000
REMARK INTER + INTRA:          -8.723
REMARK INTER:                  -7.669
REMARK INTRA:                  -1.054
REMARK UNBOUND:                -1.054
REMARK SMILES C[C@@H](CO)CCC(=O)[C@@H](C)[C@H]1C(=O)C[C@@H]2[C@H]3CC=C4C[C@H](O)CC[C@@]4(C)[C@@H]3CC[C@@]21C
REMARK SMILES IDX 6 1 5 2 2 3 1 4 3 5 4 6 7 8 8 9 9 10 10 11 11 12 12 13 30 14
REMARK SMILES IDX 13 15 14 16 15 17 29 18 31 19 16 20 28 21 27 22 17 23 25 24
REMARK SMILES IDX 18 25 19 26 24 27 26 28 20 29 23 30 21 31 22 32
REMARK H PARENT 4 7 22 33
REMARK Flexibility Score: inf
ROOT
ATOM      1  C   UNL     1      -6.252  -6.933 -46.716  1.00  0.00     0.076 C 
ENDROOT
BRANCH   1   2
ATOM      2  C   UNL     1      -5.437  -6.929 -48.024  1.00  0.00     0.013 C 
BRANCH   2   3
ATOM      3  C   UNL     1      -3.946  -7.316 -47.858  1.00  0.00     0.012 C 
ATOM      4  C   UNL     1      -3.465  -7.103 -46.410  1.00  0.00     0.010 C 
BRANCH   3   5
ATOM      5  C   UNL     1      -3.742  -8.788 -48.274  1.00  0.00     0.159 C 
BRANCH   5   6
ATOM      6  O   UNL     1      -4.956  -9.374 -48.662  1.00  0.00    -0.396 OA
ATOM      7  H   UNL     1      -5.337  -8.795 -49.372  1.00  0.00     0.210 HD
ENDBRANCH   5   6
ENDBRANCH   3   5
ENDBRANCH   2   3
ENDBRANCH   1   2
BRANCH   1   8
ATOM      8  C   UNL     1      -7.465  -7.836 -46.785  1.00  0.00     0.136 C 
ATOM      9  O   UNL     1      -7.777  -8.332 -47.857  1.00  0.00    -0.299 OA
BRANCH   8  10
ATOM     10  C   UNL     1      -8.361  -8.069 -45.574  1.00  0.00     0.064 C 
ATOM     11  C   UNL     1      -9.827  -8.088 -46.059  1.00  0.00     0.017 C 
BRANCH  10  12
ATOM     12  C   UNL     1      -7.956  -9.370 -44.779  1.00  0.00     0.072 C 
ATOM     13  C   UNL     1      -7.153 -10.288 -45.656  1.00  0.00     0.137 C 
ATOM     14  C   UNL     1      -6.967  -9.203 -43.560  1.00  0.00    -0.019 C 
ATOM     15  O   UNL     1      -7.653 -11.027 -46.492  1.00  0.00    -0.299 OA
ATOM     16  C   UNL     1      -5.699 -10.284 -45.370  1.00  0.00     0.080 C 
ATOM     17  C   UNL     1      -5.554  -9.267 -44.226  1.00  0.00     0.007 C 
ATOM     18  C   UNL     1      -7.193 -10.399 -42.549  1.00  0.00     0.008 C 
ATOM     19  C   UNL     1      -7.146  -7.864 -42.803  1.00  0.00     0.012 C 
ATOM     20  C   UNL     1      -4.343  -9.604 -43.289  1.00  0.00     0.001 C 
ATOM     21  C   UNL     1      -5.924 -11.136 -42.078  1.00  0.00     0.005 C 
ATOM     22  C   UNL     1      -4.750 -10.163 -41.908  1.00  0.00     0.003 C 
ATOM     23  C   UNL     1      -3.427  -8.396 -43.067  1.00  0.00     0.031 C 
ATOM     24  C   UNL     1      -3.501 -10.729 -41.132  1.00  0.00    -0.008 C 
ATOM     25  C   UNL     1      -2.283  -8.735 -42.142  1.00  0.00    -0.027 C 
ATOM     26  C   UNL     1      -2.331  -9.727 -41.219  1.00  0.00    -0.065 C 
ATOM     27  C   UNL     1      -3.880 -10.912 -39.625  1.00  0.00     0.014 C 
ATOM     28  C   UNL     1      -3.045 -12.094 -41.714  1.00  0.00     0.016 C 
ATOM     29  C   UNL     1      -1.146  -9.922 -40.295  1.00  0.00     0.063 C 
ATOM     30  C   UNL     1      -2.672 -11.176 -38.708  1.00  0.00     0.033 C 
ATOM     31  C   UNL     1      -1.622 -10.062 -38.842  1.00  0.00     0.118 C 
BRANCH  31  32
ATOM     32  O   UNL     1      -0.534 -10.299 -37.984  1.00  0.00    -0.393 OA
ATOM     33  H   UNL     1       0.046 -10.981 -38.414  1.00  0.00     0.210 HD
ENDBRANCH  31  32
ENDBRANCH  10  12
ENDBRANCH   8  10
ENDBRANCH   1   8
TORSDOF 8
ENDMDL
MODEL 2
REMARK VINA RESULT:    -5.048      6.346     10.772
REMARK INTER + INTRA:          -8.167
REMARK INTER:                  -7.259
REMARK INTRA:                  -0.908
REMARK UNBOUND:                -1.054
REMARK SMILES C[C@@H](CO)CCC(=O)[C@@H](C)[C@H]1C(=O)C[C@@H]2[C@H]3CC=C4C[C@H](O)CC[C@@]4(C)[C@@H]3CC[C@@]21C
REMARK SMILES IDX 6 1 5 2 2 3 1 4 3 5 4 6 7 8 8 9 9 10 10 11 11 12 12 13 30 14
REMARK SMILES IDX 13 15 14 16 15 17 29 18 31 19 16 20 28 21 27 22 17 23 25 24
REMARK SMILES IDX 18 25 19 26 24 27 26 28 20 29 23 30 21 31 22 32
REMARK H PARENT 4 7 22 33
REMARK Flexibility Score: inf
ROOT
ATOM      1  C   UNL     1      -3.510 -12.496 -33.235  1.00  0.00     0.076 C 
ENDROOT
BRANCH   1   2
ATOM      2  C   UNL     1      -2.661 -12.331 -31.959  1.00  0.00     0.013 C 
BRANCH   2   3
ATOM      3  C   UNL     1      -1.247 -11.743 -32.195  1.00  0.00     0.012 C 
ATOM      4  C   UNL     1      -0.171 -12.845 -32.201  1.00  0.00     0.010 C 
BRANCH   3   5
ATOM      5  C   UNL     1      -1.222 -10.969 -33.530  1.00  0.00     0.159 C 
BRANCH   5   6
ATOM      6  O   UNL     1       0.047 -11.034 -34.126  1.00  0.00    -0.396 OA
ATOM      7  H   UNL     1       0.709 -10.921 -33.396  1.00  0.00     0.210 HD
ENDBRANCH   5   6
ENDBRANCH   3   5
ENDBRANCH   2   3
ENDBRANCH   1   2
BRANCH   1   8
ATOM      8  C   UNL     1      -3.888 -13.937 -33.504  1.00  0.00     0.136 C 
ATOM      9  O   UNL     1      -5.021 -14.313 -33.242  1.00  0.00    -0.299 OA
BRANCH   8  10
ATOM     10  C   UNL     1      -2.870 -14.952 -34.007  1.00  0.00     0.064 C 
ATOM     11  C   UNL     1      -3.119 -16.286 -33.270  1.00  0.00     0.017 C 
BRANCH  10  12
ATOM     12  C   UNL     1      -2.904 -15.099 -35.578  1.00  0.00     0.072 C 
ATOM     13  C   UNL     1      -4.214 -14.600 -36.120  1.00  0.00     0.137 C 
ATOM     14  C   UNL     1      -1.896 -14.218 -36.415  1.00  0.00    -0.019 C 
ATOM     15  O   UNL     1      -5.245 -15.257 -36.096  1.00  0.00    -0.299 OA
ATOM     16  C   UNL     1      -4.138 -13.267 -36.761  1.00  0.00     0.080 C 
ATOM     17  C   UNL     1      -2.661 -12.868 -36.605  1.00  0.00     0.007 C 
ATOM     18  C   UNL     1      -1.619 -14.934 -37.799  1.00  0.00     0.008 C 
ATOM     19  C   UNL     1      -0.546 -13.977 -35.695  1.00  0.00     0.012 C 
ATOM     20  C   UNL     1      -2.177 -11.936 -37.767  1.00  0.00     0.001 C 
ATOM     21  C   UNL     1      -1.742 -14.049 -39.055  1.00  0.00     0.005 C 
ATOM     22  C   UNL     1      -1.237 -12.626 -38.782  1.00  0.00     0.003 C 
ATOM     23  C   UNL     1      -1.477 -10.675 -37.249  1.00  0.00     0.031 C 
ATOM     24  C   UNL     1      -1.011 -11.725 -40.054  1.00  0.00    -0.008 C 
ATOM     25  C   UNL     1      -0.996  -9.805 -38.384  1.00  0.00    -0.027 C 
ATOM     26  C   UNL     1      -0.711 -10.275 -39.623  1.00  0.00    -0.065 C 
ATOM     27  C   UNL     1       0.223 -12.268 -40.847  1.00  0.00     0.014 C 
ATOM     28  C   UNL     1      -2.257 -11.732 -40.980  1.00  0.00     0.016 C 
ATOM     29  C   UNL     1      -0.162  -9.314 -40.659  1.00  0.00     0.063 C 
ATOM     30  C   UNL     1       0.729 -11.311 -41.941  1.00  0.00     0.033 C 
ATOM     31  C   UNL     1       1.060  -9.928 -41.357  1.00  0.00     0.118 C 
BRANCH  31  32
ATOM     32  O   UNL     1       1.543  -9.068 -42.359  1.00  0.00    -0.393 OA
ATOM     33  H   UNL     1       0.779  -8.520 -42.680  1.00  0.00     0.210 HD
ENDBRANCH  31  32
ENDBRANCH  10  12
ENDBRANCH   8  10
ENDBRANCH   1   8
TORSDOF 8
ENDMDL
MODEL 3
REMARK VINA RESULT:    -5.041      1.895      7.520
REMARK INTER + INTRA:          -8.158
REMARK INTER:                  -7.516
REMARK INTRA:                  -0.643
REMARK UNBOUND:                -1.054
REMARK SMILES C[C@@H](CO)CCC(=O)[C@@H](C)[C@H]1C(=O)C[C@@H]2[C@H]3CC=C4C[C@H](O)CC[C@@]4(C)[C@@H]3CC[C@@]21C
REMARK SMILES IDX 6 1 5 2 2 3 1 4 3 5 4 6 7 8 8 9 9 10 10 11 11 12 12 13 30 14
REMARK SMILES IDX 13 15 14 16 15 17 29 18 31 19 16 20 28 21 27 22 17 23 25 24
REMARK SMILES IDX 18 25 19 26 24 27 26 28 20 29 23 30 21 31 22 32
REMARK H PARENT 4 7 22 33
REMARK Flexibility Score: inf
ROOT
ATOM      1  C   UNL     1      -1.295 -11.433 -39.694  1.00  0.00     0.076 C 
ENDROOT
BRANCH   1   2
ATOM      2  C   UNL     1      -1.202 -10.216 -40.635  1.00  0.00     0.013 C 
BRANCH   2   3
ATOM      3  C   UNL     1      -0.932  -8.867 -39.920  1.00  0.00     0.012 C 
ATOM      4  C   UNL     1      -2.205  -8.004 -39.845  1.00  0.00     0.010 C 
BRANCH   3   5
ATOM      5  C   UNL     1      -0.383  -9.130 -38.503  1.00  0.00     0.159 C 
BRANCH   5   6
ATOM      6  O   UNL     1      -1.283  -8.683 -37.523  1.00  0.00    -0.396 OA
ATOM      7  H   UNL     1      -2.192  -8.913 -37.847  1.00  0.00     0.210 HD
ENDBRANCH   5   6
ENDBRANCH   3   5
ENDBRANCH   2   3
ENDBRANCH   1   2
BRANCH   1   8
ATOM      8  C   UNL     1      -2.713 -11.719 -39.247  1.00  0.00     0.136 C 
ATOM      9  O   UNL     1      -3.222 -11.008 -38.394  1.00  0.00    -0.299 OA
BRANCH   8  10
ATOM     10  C   UNL     1      -3.489 -12.925 -39.763  1.00  0.00     0.064 C 
ATOM     11  C   UNL     1      -3.840 -13.822 -38.556  1.00  0.00     0.017 C 
BRANCH  10  12
ATOM     12  C   UNL     1      -4.753 -12.499 -40.606  1.00  0.00     0.072 C 
ATOM     13  C   UNL     1      -5.460 -11.352 -39.942  1.00  0.00     0.137 C 
ATOM     14  C   UNL     1      -4.503 -11.889 -42.040  1.00  0.00    -0.019 C 
ATOM     15  O   UNL     1      -6.215 -11.487 -38.990  1.00  0.00    -0.299 OA
ATOM     16  C   UNL     1      -5.228 -10.039 -40.589  1.00  0.00     0.080 C 
ATOM     17  C   UNL     1      -4.281 -10.368 -41.755  1.00  0.00     0.007 C 
ATOM     18  C   UNL     1      -5.786 -12.136 -42.933  1.00  0.00     0.008 C 
ATOM     19  C   UNL     1      -3.268 -12.489 -42.757  1.00  0.00     0.012 C 
ATOM     20  C   UNL     1      -4.470  -9.385 -42.961  1.00  0.00     0.001 C 
ATOM     21  C   UNL     1      -6.327 -10.911 -43.695  1.00  0.00     0.005 C 
ATOM     22  C   UNL     1      -5.183 -10.012 -44.181  1.00  0.00     0.003 C 
ATOM     23  C   UNL     1      -3.142  -8.787 -43.438  1.00  0.00     0.031 C 
ATOM     24  C   UNL     1      -5.579  -8.912 -45.237  1.00  0.00    -0.008 C 
ATOM     25  C   UNL     1      -3.344  -7.865 -44.616  1.00  0.00    -0.027 C 
ATOM     26  C   UNL     1      -4.390  -7.958 -45.473  1.00  0.00    -0.065 C 
ATOM     27  C   UNL     1      -5.926  -9.611 -46.592  1.00  0.00     0.014 C 
ATOM     28  C   UNL     1      -6.804  -8.086 -44.760  1.00  0.00     0.016 C 
ATOM     29  C   UNL     1      -4.442  -7.022 -46.664  1.00  0.00     0.063 C 
ATOM     30  C   UNL     1      -6.042  -8.640 -47.781  1.00  0.00     0.033 C 
ATOM     31  C   UNL     1      -4.759  -7.809 -47.944  1.00  0.00     0.118 C 
BRANCH  31  32
ATOM     32  O   UNL     1      -4.866  -6.942 -49.046  1.00  0.00    -0.393 OA
ATOM     33  H   UNL     1      -5.056  -7.496 -49.848  1.00  0.00     0.210 HD
ENDBRANCH  31  32
ENDBRANCH  10  12
ENDBRANCH   8  10
ENDBRANCH   1   8
TORSDOF 8
ENDMDL
MODEL 4
REMARK VINA RESULT:    -5.023     12.323     15.583
REMARK INTER + INTRA:          -8.132
REMARK INTER:                  -7.158
REMARK INTRA:                  -0.974
REMARK UNBOUND:                -1.054
REMARK SMILES C[C@@H](CO)CCC(=O)[C@@H](C)[C@H]1C(=O)C[C@@H]2[C@H]3CC=C4C[C@H](O)CC[C@@]4(C)[C@@H]3CC[C@@]21C
REMARK SMILES IDX 6 1 5 2 2 3 1 4 3 5 4 6 7 8 8 9 9 10 10 11 11 12 12 13 30 14
REMARK SMILES IDX 13 15 14 16 15 17 29 18 31 19 16 20 28 21 27 22 17 23 25 24
REMARK SMILES IDX 18 25 19 26 24 27 26 28 20 29 23 30 21 31 22 32
REMARK H PARENT 4 7 22 33
REMARK Flexibility Score: inf
ROOT
ATOM      1  C   UNL     1      -0.533 -26.715 -44.414  1.00  0.00     0.076 C 
ENDROOT
BRANCH   1   2
ATOM      2  C   UNL     1      -1.309 -27.121 -45.683  1.00  0.00     0.013 C 
BRANCH   2   3
ATOM      3  C   UNL     1      -2.154 -25.986 -46.314  1.00  0.00     0.012 C 
ATOM      4  C   UNL     1      -2.737 -25.051 -45.239  1.00  0.00     0.010 C 
BRANCH   3   5
ATOM      5  C   UNL     1      -1.287 -25.182 -47.305  1.00  0.00     0.159 C 
BRANCH   5   6
ATOM      6  O   UNL     1      -0.435 -26.029 -48.030  1.00  0.00    -0.396 OA
ATOM      7  H   UNL     1      -0.883 -26.913 -48.074  1.00  0.00     0.210 HD
ENDBRANCH   5   6
ENDBRANCH   3   5
ENDBRANCH   2   3
ENDBRANCH   1   2
BRANCH   1   8
ATOM      8  C   UNL     1       0.948 -26.529 -44.669  1.00  0.00     0.136 C 
ATOM      9  O   UNL     1       1.403 -26.814 -45.767  1.00  0.00    -0.299 OA
BRANCH   8  10
ATOM     10  C   UNL     1       1.901 -26.084 -43.567  1.00  0.00     0.064 C 
ATOM     11  C   UNL     1       3.208 -26.895 -43.707  1.00  0.00     0.017 C 
BRANCH  10  12
ATOM     12  C   UNL     1       2.137 -24.523 -43.581  1.00  0.00     0.072 C 
ATOM     13  C   UNL     1       1.566 -23.922 -44.834  1.00  0.00     0.137 C 
ATOM     14  C   UNL     1       1.393 -23.663 -42.487  1.00  0.00    -0.019 C 
ATOM     15  O   UNL     1       2.133 -23.958 -45.916  1.00  0.00    -0.299 OA
ATOM     16  C   UNL     1       0.283 -23.207 -44.634  1.00  0.00     0.080 C 
ATOM     17  C   UNL     1      -0.001 -23.377 -43.133  1.00  0.00     0.007 C 
ATOM     18  C   UNL     1       2.210 -22.329 -42.243  1.00  0.00     0.008 C 
ATOM     19  C   UNL     1       1.221 -24.401 -41.137  1.00  0.00     0.012 C 
ATOM     20  C   UNL     1      -0.820 -22.175 -42.549  1.00  0.00     0.001 C 
ATOM     21  C   UNL     1       1.394 -21.022 -42.267  1.00  0.00     0.005 C 
ATOM     22  C   UNL     1       0.004 -21.226 -41.651  1.00  0.00     0.003 C 
ATOM     23  C   UNL     1      -2.048 -22.638 -41.758  1.00  0.00     0.031 C 
ATOM     24  C   UNL     1      -0.798 -19.910 -41.324  1.00  0.00    -0.008 C 
ATOM     25  C   UNL     1      -2.807 -21.467 -41.183  1.00  0.00    -0.027 C 
ATOM     26  C   UNL     1      -2.242 -20.264 -40.914  1.00  0.00    -0.065 C 
ATOM     27  C   UNL     1      -0.110 -19.180 -40.125  1.00  0.00     0.014 C 
ATOM     28  C   UNL     1      -0.839 -18.955 -42.548  1.00  0.00     0.016 C 
ATOM     29  C   UNL     1      -3.091 -19.189 -40.266  1.00  0.00     0.063 C 
ATOM     30  C   UNL     1      -0.956 -18.046 -39.519  1.00  0.00     0.033 C 
ATOM     31  C   UNL     1      -2.339 -18.558 -39.085  1.00  0.00     0.118 C 
BRANCH  31  32
ATOM     32  O   UNL     1      -3.095 -17.520 -38.512  1.00  0.00    -0.393 OA
ATOM     33  H   UNL     1      -2.472 -16.942 -37.997  1.00  0.00     0.210 HD
ENDBRANCH  31  32
ENDBRANCH  10  12
ENDBRANCH   8  10
ENDBRANCH   1   8
TORSDOF 8
ENDMDL
MODEL 5
REMARK VINA RESULT:    -4.928      4.878      7.232
REMARK INTER + INTRA:          -7.998
REMARK INTER:                  -7.285
REMARK INTRA:                  -0.713
REMARK UNBOUND:                -1.054
REMARK SMILES C[C@@H](CO)CCC(=O)[C@@H](C)[C@H]1C(=O)C[C@@H]2[C@H]3CC=C4C[C@H](O)CC[C@@]4(C)[C@@H]3CC[C@@]21C
REMARK SMILES IDX 6 1 5 2 2 3 1 4 3 5 4 6 7 8 8 9 9 10 10 11 11 12 12 13 30 14
REMARK SMILES IDX 13 15 14 16 15 17 29 18 31 19 16 20 28 21 27 22 17 23 25 24
REMARK SMILES IDX 18 25 19 26 24 27 26 28 20 29 23 30 21 31 22 32
REMARK H PARENT 4 7 22 33
REMARK Flexibility Score: inf
ROOT
ATOM      1  C   UNL     1       0.062  -9.480 -41.306  1.00  0.00     0.076 C 
ENDROOT
BRANCH   1   2
ATOM      2  C   UNL     1       0.983  -9.259 -42.522  1.00  0.00     0.013 C 
BRANCH   2   3
ATOM      3  C   UNL     1       1.903 -10.459 -42.863  1.00  0.00     0.012 C 
ATOM      4  C   UNL     1       2.868 -10.776 -41.706  1.00  0.00     0.010 C 
BRANCH   3   5
ATOM      5  C   UNL     1       1.043 -11.697 -43.192  1.00  0.00     0.159 C 
BRANCH   5   6
ATOM      6  O   UNL     1       1.590 -12.420 -44.263  1.00  0.00    -0.396 OA
ATOM      7  H   UNL     1       1.606 -13.372 -43.984  1.00  0.00     0.210 HD
ENDBRANCH   5   6
ENDBRANCH   3   5
ENDBRANCH   2   3
ENDBRANCH   1   2
BRANCH   1   8
ATOM      8  C   UNL     1      -1.383  -9.139 -41.596  1.00  0.00     0.136 C 
ATOM      9  O   UNL     1      -1.711  -8.863 -42.741  1.00  0.00    -0.299 OA
BRANCH   8  10
ATOM     10  C   UNL     1      -2.422  -9.040 -40.486  1.00  0.00     0.064 C 
ATOM     11  C   UNL     1      -3.413  -7.914 -40.855  1.00  0.00     0.017 C 
BRANCH  10  12
ATOM     12  C   UNL     1      -3.133 -10.423 -40.214  1.00  0.00     0.072 C 
ATOM     13  C   UNL     1      -3.335 -11.167 -41.503  1.00  0.00     0.137 C 
ATOM     14  C   UNL     1      -2.334 -11.502 -39.383  1.00  0.00    -0.019 C 
ATOM     15  O   UNL     1      -4.243 -10.924 -42.285  1.00  0.00    -0.299 OA
ATOM     16  C   UNL     1      -2.384 -12.283 -41.716  1.00  0.00     0.080 C 
ATOM     17  C   UNL     1      -1.486 -12.243 -40.468  1.00  0.00     0.007 C 
ATOM     18  C   UNL     1      -3.367 -12.475 -38.683  1.00  0.00     0.008 C 
ATOM     19  C   UNL     1      -1.410 -10.887 -38.304  1.00  0.00     0.012 C 
ATOM     20  C   UNL     1      -0.936 -13.661 -40.092  1.00  0.00     0.001 C 
ATOM     21  C   UNL     1      -3.096 -13.984 -38.849  1.00  0.00     0.005 C 
ATOM     22  C   UNL     1      -1.591 -14.280 -38.837  1.00  0.00     0.003 C 
ATOM     23  C   UNL     1       0.583 -13.661 -39.890  1.00  0.00     0.031 C 
ATOM     24  C   UNL     1      -1.194 -15.796 -38.676  1.00  0.00    -0.008 C 
ATOM     25  C   UNL     1       1.088 -15.030 -39.503  1.00  0.00    -0.027 C 
ATOM     26  C   UNL     1       0.324 -15.967 -38.891  1.00  0.00    -0.065 C 
ATOM     27  C   UNL     1      -1.541 -16.260 -37.223  1.00  0.00     0.014 C 
ATOM     28  C   UNL     1      -1.954 -16.690 -39.693  1.00  0.00     0.016 C 
ATOM     29  C   UNL     1       0.965 -17.278 -38.483  1.00  0.00     0.063 C 
ATOM     30  C   UNL     1      -0.938 -17.625 -36.846  1.00  0.00     0.033 C 
ATOM     31  C   UNL     1       0.587 -17.627 -37.036  1.00  0.00     0.118 C 
BRANCH  31  32
ATOM     32  O   UNL     1       1.132 -18.870 -36.666  1.00  0.00    -0.393 OA
ATOM     33  H   UNL     1       1.847 -19.092 -37.320  1.00  0.00     0.210 HD
ENDBRANCH  31  32
ENDBRANCH  10  12
ENDBRANCH   8  10
ENDBRANCH   1   8
TORSDOF 8
ENDMDL
MODEL 6
REMARK VINA RESULT:    -4.905      2.257      3.954
REMARK INTER + INTRA:          -7.967
REMARK INTER:                  -7.663
REMARK INTRA:                  -0.304
REMARK UNBOUND:                -1.054
REMARK SMILES C[C@@H](CO)CCC(=O)[C@@H](C)[C@H]1C(=O)C[C@@H]2[C@H]3CC=C4C[C@H](O)CC[C@@]4(C)[C@@H]3CC[C@@]21C
REMARK SMILES IDX 6 1 5 2 2 3 1 4 3 5 4 6 7 8 8 9 9 10 10 11 11 12 12 13 30 14
REMARK SMILES IDX 13 15 14 16 15 17 29 18 31 19 16 20 28 21 27 22 17 23 25 24
REMARK SMILES IDX 18 25 19 26 24 27 26 28 20 29 23 30 21 31 22 32
REMARK H PARENT 4 7 22 33
REMARK Flexibility Score: inf
ROOT
ATOM      1  C   UNL     1      -8.368 -10.635 -45.670  1.00  0.00     0.076 C 
ENDROOT
BRANCH   1   2
ATOM      2  C   UNL     1      -8.019  -9.737 -46.873  1.00  0.00     0.013 C 
BRANCH   2   3
ATOM      3  C   UNL     1      -6.548  -9.248 -46.910  1.00  0.00     0.012 C 
ATOM      4  C   UNL     1      -5.927  -9.433 -48.306  1.00  0.00     0.010 C 
BRANCH   3   5
ATOM      5  C   UNL     1      -6.483  -7.765 -46.491  1.00  0.00     0.159 C 
BRANCH   5   6
ATOM      6  O   UNL     1      -7.761  -7.186 -46.487  1.00  0.00    -0.396 OA
ATOM      7  H   UNL     1      -8.239  -7.546 -47.278  1.00  0.00     0.210 HD
ENDBRANCH   5   6
ENDBRANCH   3   5
ENDBRANCH   2   3
ENDBRANCH   1   2
BRANCH   1   8
ATOM      8  C   UNL     1      -8.653  -9.844 -44.412  1.00  0.00     0.136 C 
ATOM      9  O   UNL     1      -9.385  -8.867 -44.476  1.00  0.00    -0.299 OA
BRANCH   8  10
ATOM     10  C   UNL     1      -7.981 -10.177 -43.085  1.00  0.00     0.064 C 
ATOM     11  C   UNL     1      -7.519 -11.650 -43.140  1.00  0.00     0.017 C 
BRANCH  10  12
ATOM     12  C   UNL     1      -6.812  -9.175 -42.744  1.00  0.00     0.072 C 
ATOM     13  C   UNL     1      -6.804  -8.865 -41.274  1.00  0.00     0.137 C 
ATOM     14  C   UNL     1      -5.331  -9.688 -42.935  1.00  0.00    -0.019 C 
ATOM     15  O   UNL     1      -7.564  -8.063 -40.751  1.00  0.00    -0.299 OA
ATOM     16  C   UNL     1      -5.739  -9.559 -40.512  1.00  0.00     0.080 C 
ATOM     17  C   UNL     1      -5.013 -10.396 -41.578  1.00  0.00     0.007 C 
ATOM     18  C   UNL     1      -4.386  -8.443 -43.181  1.00  0.00     0.008 C 
ATOM     19  C   UNL     1      -5.172 -10.681 -44.112  1.00  0.00     0.012 C 
ATOM     20  C   UNL     1      -3.501 -10.611 -41.228  1.00  0.00     0.001 C 
ATOM     21  C   UNL     1      -3.104  -8.387 -42.327  1.00  0.00     0.005 C 
ATOM     22  C   UNL     1      -2.527  -9.791 -42.103  1.00  0.00     0.003 C 
ATOM     23  C   UNL     1      -3.089 -12.085 -41.306  1.00  0.00     0.031 C 
ATOM     24  C   UNL     1      -1.061  -9.843 -41.527  1.00  0.00    -0.008 C 
ATOM     25  C   UNL     1      -1.624 -12.266 -40.991  1.00  0.00    -0.027 C 
ATOM     26  C   UNL     1      -0.694 -11.294 -41.157  1.00  0.00    -0.065 C 
ATOM     27  C   UNL     1      -0.066  -9.348 -42.628  1.00  0.00     0.014 C 
ATOM     28  C   UNL     1      -0.917  -8.946 -40.268  1.00  0.00     0.016 C 
ATOM     29  C   UNL     1       0.759 -11.621 -40.878  1.00  0.00     0.063 C 
ATOM     30  C   UNL     1       1.412  -9.627 -42.300  1.00  0.00     0.033 C 
ATOM     31  C   UNL     1       1.646 -11.121 -42.028  1.00  0.00     0.118 C 
BRANCH  31  32
ATOM     32  O   UNL     1       3.003 -11.369 -41.753  1.00  0.00    -0.393 OA
ATOM     33  H   UNL     1       3.046 -12.131 -41.116  1.00  0.00     0.210 HD
ENDBRANCH  31  32
ENDBRANCH  10  12
ENDBRANCH   8  10
ENDBRANCH   1   8
TORSDOF 8
ENDMDL
MODEL 7
REMARK VINA RESULT:    -4.871     11.623     14.696
REMARK INTER + INTRA:          -7.919
REMARK INTER:                  -7.442
REMARK INTRA:                  -0.476
REMARK UNBOUND:                -1.054
REMARK SMILES C[C@@H](CO)CCC(=O)[C@@H](C)[C@H]1C(=O)C[C@@H]2[C@H]3CC=C4C[C@H](O)CC[C@@]4(C)[C@@H]3CC[C@@]21C
REMARK SMILES IDX 6 1 5 2 2 3 1 4 3 5 4 6 7 8 8 9 9 10 10 11 11 12 12 13 30 14
REMARK SMILES IDX 13 15 14 16 15 17 29 18 31 19 16 20 28 21 27 22 17 23 25 24
REMARK SMILES IDX 18 25 19 26 24 27 26 28 20 29 23 30 21 31 22 32
REMARK H PARENT 4 7 22 33
REMARK Flexibility Score: inf
ROOT
ATOM      1  C   UNL     1      -2.051 -25.982 -44.771  1.00  0.00     0.076 C 
ENDROOT
BRANCH   1   2
ATOM      2  C   UNL     1      -1.818 -27.104 -45.800  1.00  0.00     0.013 C 
BRANCH   2   3
ATOM      3  C   UNL     1      -1.299 -26.620 -47.179  1.00  0.00     0.012 C 
ATOM      4  C   UNL     1      -1.426 -25.092 -47.324  1.00  0.00     0.010 C 
BRANCH   3   5
ATOM      5  C   UNL     1       0.170 -27.052 -47.362  1.00  0.00     0.159 C 
BRANCH   5   6
ATOM      6  O   UNL     1       1.034 -26.220 -46.632  1.00  0.00    -0.396 OA
ATOM      7  H   UNL     1       0.531 -25.386 -46.442  1.00  0.00     0.210 HD
ENDBRANCH   5   6
ENDBRANCH   3   5
ENDBRANCH   2   3
ENDBRANCH   1   2
BRANCH   1   8
ATOM      8  C   UNL     1      -0.892 -25.817 -43.811  1.00  0.00     0.136 C 
ATOM      9  O   UNL     1       0.024 -26.626 -43.841  1.00  0.00    -0.299 OA
BRANCH   8  10
ATOM     10  C   UNL     1      -0.879 -24.725 -42.749  1.00  0.00     0.064 C 
ATOM     11  C   UNL     1      -1.101 -25.392 -41.373  1.00  0.00     0.017 C 
BRANCH  10  12
ATOM     12  C   UNL     1       0.436 -23.854 -42.808  1.00  0.00     0.072 C 
ATOM     13  C   UNL     1       0.548 -23.172 -44.142  1.00  0.00     0.137 C 
ATOM     14  C   UNL     1       0.531 -22.610 -41.842  1.00  0.00    -0.019 C 
ATOM     15  O   UNL     1       0.945 -23.732 -45.153  1.00  0.00    -0.299 OA
ATOM     16  C   UNL     1       0.209 -21.729 -44.116  1.00  0.00     0.080 C 
ATOM     17  C   UNL     1      -0.167 -21.467 -42.649  1.00  0.00     0.007 C 
ATOM     18  C   UNL     1       2.056 -22.288 -41.571  1.00  0.00     0.008 C 
ATOM     19  C   UNL     1      -0.186 -22.828 -40.486  1.00  0.00     0.012 C 
ATOM     20  C   UNL     1       0.151 -19.996 -42.213  1.00  0.00     0.001 C 
ATOM     21  C   UNL     1       2.478 -20.816 -41.743  1.00  0.00     0.005 C 
ATOM     22  C   UNL     1       1.371 -19.864 -41.274  1.00  0.00     0.003 C 
ATOM     23  C   UNL     1      -1.047 -19.317 -41.540  1.00  0.00     0.031 C 
ATOM     24  C   UNL     1       1.794 -18.357 -41.097  1.00  0.00    -0.008 C 
ATOM     25  C   UNL     1      -0.712 -17.911 -41.105  1.00  0.00    -0.027 C 
ATOM     26  C   UNL     1       0.547 -17.489 -40.831  1.00  0.00    -0.065 C 
ATOM     27  C   UNL     1       2.748 -18.239 -39.864  1.00  0.00     0.014 C 
ATOM     28  C   UNL     1       2.523 -17.823 -42.360  1.00  0.00     0.016 C 
ATOM     29  C   UNL     1       0.748 -16.074 -40.329  1.00  0.00     0.063 C 
ATOM     30  C   UNL     1       2.997 -16.791 -39.406  1.00  0.00     0.033 C 
ATOM     31  C   UNL     1       1.673 -16.071 -39.104  1.00  0.00     0.118 C 
BRANCH  31  32
ATOM     32  O   UNL     1       1.911 -14.757 -38.664  1.00  0.00    -0.393 OA
ATOM     33  H   UNL     1       1.231 -14.170 -39.087  1.00  0.00     0.210 HD
ENDBRANCH  31  32
ENDBRANCH  10  12
ENDBRANCH   8  10
ENDBRANCH   1   8
TORSDOF 8
ENDMDL
MODEL 8
REMARK VINA RESULT:    -4.832      3.091      5.519
REMARK INTER + INTRA:          -7.863
REMARK INTER:                  -6.819
REMARK INTRA:                  -1.045
REMARK UNBOUND:                -1.054
REMARK SMILES C[C@@H](CO)CCC(=O)[C@@H](C)[C@H]1C(=O)C[C@@H]2[C@H]3CC=C4C[C@H](O)CC[C@@]4(C)[C@@H]3CC[C@@]21C
REMARK SMILES IDX 6 1 5 2 2 3 1 4 3 5 4 6 7 8 8 9 9 10 10 11 11 12 12 13 30 14
REMARK SMILES IDX 13 15 14 16 15 17 29 18 31 19 16 20 28 21 27 22 17 23 25 24
REMARK SMILES IDX 18 25 19 26 24 27 26 28 20 29 23 30 21 31 22 32
REMARK H PARENT 4 7 22 33
REMARK Flexibility Score: inf
ROOT
ATOM      1  C   UNL     1      -8.014 -11.650 -42.403  1.00  0.00     0.076 C 
ENDROOT
BRANCH   1   2
ATOM      2  C   UNL     1      -8.942 -12.478 -41.493  1.00  0.00     0.013 C 
BRANCH   2   3
ATOM      3  C   UNL     1      -8.266 -13.034 -40.214  1.00  0.00     0.012 C 
ATOM      4  C   UNL     1      -6.735 -12.887 -40.276  1.00  0.00     0.010 C 
BRANCH   3   5
ATOM      5  C   UNL     1      -8.821 -12.303 -38.974  1.00  0.00     0.159 C 
BRANCH   5   6
ATOM      6  O   UNL     1      -8.709 -10.911 -39.118  1.00  0.00    -0.396 OA
ATOM      7  H   UNL     1      -9.601 -10.583 -39.404  1.00  0.00     0.210 HD
ENDBRANCH   5   6
ENDBRANCH   3   5
ENDBRANCH   2   3
ENDBRANCH   1   2
BRANCH   1   8
ATOM      8  C   UNL     1      -8.464 -10.211 -42.544  1.00  0.00     0.136 C 
ATOM      9  O   UNL     1      -9.377  -9.802 -41.842  1.00  0.00    -0.299 OA
BRANCH   8  10
ATOM     10  C   UNL     1      -7.873  -9.286 -43.600  1.00  0.00     0.064 C 
ATOM     11  C   UNL     1      -9.009  -8.395 -44.147  1.00  0.00     0.017 C 
BRANCH  10  12
ATOM     12  C   UNL     1      -6.650  -8.457 -43.046  1.00  0.00     0.072 C 
ATOM     13  C   UNL     1      -6.759  -8.301 -41.556  1.00  0.00     0.137 C 
ATOM     14  C   UNL     1      -5.216  -9.108 -43.160  1.00  0.00    -0.019 C 
ATOM     15  O   UNL     1      -7.485  -7.478 -41.017  1.00  0.00    -0.299 OA
ATOM     16  C   UNL     1      -5.851  -9.182 -40.784  1.00  0.00     0.080 C 
ATOM     17  C   UNL     1      -5.107  -9.981 -41.867  1.00  0.00     0.007 C 
ATOM     18  C   UNL     1      -4.132  -7.955 -43.180  1.00  0.00     0.008 C 
ATOM     19  C   UNL     1      -5.039  -9.988 -44.421  1.00  0.00     0.012 C 
ATOM     20  C   UNL     1      -3.667 -10.394 -41.409  1.00  0.00     0.001 C 
ATOM     21  C   UNL     1      -2.943  -8.127 -42.214  1.00  0.00     0.005 C 
ATOM     22  C   UNL     1      -2.533  -9.601 -42.097  1.00  0.00     0.003 C 
ATOM     23  C   UNL     1      -3.398 -11.889 -41.614  1.00  0.00     0.031 C 
ATOM     24  C   UNL     1      -1.146  -9.871 -41.402  1.00  0.00    -0.008 C 
ATOM     25  C   UNL     1      -1.998 -12.260 -41.192  1.00  0.00    -0.027 C 
ATOM     26  C   UNL     1      -0.963 -11.384 -41.165  1.00  0.00    -0.065 C 
ATOM     27  C   UNL     1      -0.001  -9.380 -42.347  1.00  0.00     0.014 C 
ATOM     28  C   UNL     1      -1.040  -9.129 -40.043  1.00  0.00     0.016 C 
ATOM     29  C   UNL     1       0.415 -11.895 -40.796  1.00  0.00     0.063 C 
ATOM     30  C   UNL     1       1.402  -9.850 -41.922  1.00  0.00     0.033 C 
ATOM     31  C   UNL     1       1.458 -11.381 -41.798  1.00  0.00     0.118 C 
BRANCH  31  32
ATOM     32  O   UNL     1       2.749 -11.803 -41.432  1.00  0.00    -0.393 OA
ATOM     33  H   UNL     1       2.702 -12.774 -41.231  1.00  0.00     0.210 HD
ENDBRANCH  31  32
ENDBRANCH  10  12
ENDBRANCH   8  10
ENDBRANCH   1   8
TORSDOF 8
ENDMDL
MODEL 9
REMARK VINA RESULT:    -4.710      5.305     11.058
REMARK INTER + INTRA:          -7.692
REMARK INTER:                  -6.663
REMARK INTRA:                  -1.029
REMARK UNBOUND:                -1.054
REMARK SMILES C[C@@H](CO)CCC(=O)[C@@H](C)[C@H]1C(=O)C[C@@H]2[C@H]3CC=C4C[C@H](O)CC[C@@]4(C)[C@@H]3CC[C@@]21C
REMARK SMILES IDX 6 1 5 2 2 3 1 4 3 5 4 6 7 8 8 9 9 10 10 11 11 12 12 13 30 14
REMARK SMILES IDX 13 15 14 16 15 17 29 18 31 19 16 20 28 21 27 22 17 23 25 24
REMARK SMILES IDX 18 25 19 26 24 27 26 28 20 29 23 30 21 31 22 32
REMARK H PARENT 4 7 22 33
REMARK Flexibility Score: inf
ROOT
ATOM      1  C   UNL     1      -2.229 -13.544 -32.537  1.00  0.00     0.076 C 
ENDROOT
BRANCH   1   2
ATOM      2  C   UNL     1      -0.690 -13.622 -32.518  1.00  0.00     0.013 C 
BRANCH   2   3
ATOM      3  C   UNL     1       0.010 -12.871 -33.679  1.00  0.00     0.012 C 
ATOM      4  C   UNL     1      -0.372 -11.379 -33.697  1.00  0.00     0.010 C 
BRANCH   3   5
ATOM      5  C   UNL     1       1.539 -13.026 -33.552  1.00  0.00     0.159 C 
BRANCH   5   6
ATOM      6  O   UNL     1       2.196 -12.473 -34.661  1.00  0.00    -0.396 OA
ATOM      7  H   UNL     1       1.489 -12.183 -35.294  1.00  0.00     0.210 HD
ENDBRANCH   5   6
ENDBRANCH   3   5
ENDBRANCH   2   3
ENDBRANCH   1   2
BRANCH   1   8
ATOM      8  C   UNL     1      -2.879 -14.879 -32.829  1.00  0.00     0.136 C 
ATOM      9  O   UNL     1      -3.750 -15.293 -32.079  1.00  0.00    -0.299 OA
BRANCH   8  10
ATOM     10  C   UNL     1      -2.415 -15.762 -33.980  1.00  0.00     0.064 C 
ATOM     11  C   UNL     1      -2.461 -17.231 -33.507  1.00  0.00     0.017 C 
BRANCH  10  12
ATOM     12  C   UNL     1      -3.250 -15.510 -35.296  1.00  0.00     0.072 C 
ATOM     13  C   UNL     1      -4.443 -14.648 -34.998  1.00  0.00     0.137 C 
ATOM     14  C   UNL     1      -2.567 -14.667 -36.443  1.00  0.00    -0.019 C 
ATOM     15  O   UNL     1      -5.473 -15.075 -34.498  1.00  0.00    -0.299 OA
ATOM     16  C   UNL     1      -4.299 -13.239 -35.435  1.00  0.00     0.080 C 
ATOM     17  C   UNL     1      -2.891 -13.189 -36.051  1.00  0.00     0.007 C 
ATOM     18  C   UNL     1      -3.224 -15.062 -37.828  1.00  0.00     0.008 C 
ATOM     19  C   UNL     1      -1.036 -14.878 -36.533  1.00  0.00     0.012 C 
ATOM     20  C   UNL     1      -2.782 -12.114 -37.186  1.00  0.00     0.001 C 
ATOM     21  C   UNL     1      -3.675 -13.890 -38.722  1.00  0.00     0.005 C 
ATOM     22  C   UNL     1      -2.707 -12.705 -38.611  1.00  0.00     0.003 C 
ATOM     23  C   UNL     1      -1.583 -11.181 -36.990  1.00  0.00     0.031 C 
ATOM     24  C   UNL     1      -2.873 -11.583 -39.704  1.00  0.00    -0.008 C 
ATOM     25  C   UNL     1      -1.482 -10.171 -38.107  1.00  0.00    -0.027 C 
ATOM     26  C   UNL     1      -1.989 -10.370 -39.349  1.00  0.00    -0.065 C 
ATOM     27  C   UNL     1      -2.404 -12.146 -41.085  1.00  0.00     0.014 C 
ATOM     28  C   UNL     1      -4.350 -11.119 -39.816  1.00  0.00     0.016 C 
ATOM     29  C   UNL     1      -1.758  -9.312 -40.409  1.00  0.00     0.063 C 
ATOM     30  C   UNL     1      -2.237 -11.069 -42.172  1.00  0.00     0.033 C 
ATOM     31  C   UNL     1      -1.273  -9.964 -41.712  1.00  0.00     0.118 C 
BRANCH  31  32
ATOM     32  O   UNL     1      -1.109  -8.997 -42.720  1.00  0.00    -0.393 OA
ATOM     33  H   UNL     1      -0.200  -9.114 -43.104  1.00  0.00     0.210 HD
ENDBRANCH  31  32
ENDBRANCH  10  12
ENDBRANCH   8  10
ENDBRANCH   1   8
TORSDOF 8
ENDMDL
