MODEL 1
REMARK VINA RESULT:    -4.069      0.000      0.000
REMARK INTER + INTRA:          -7.833
REMARK INTER:                  -6.448
REMARK INTRA:                  -1.385
REMARK UNBOUND:                -1.385
REMARK SMILES CCCCCCCCCCCC(=O)[O-]
REMARK SMILES IDX 7 1 8 2 9 3 10 4 11 5 12 6 13 7 14 8 6 9 5 10 4 11 3 12 2 13
REMARK SMILES IDX 1 14
REMARK H PARENT
REMARK Flexibility Score: inf
ROOT
ATOM      1  C   UNL     1      17.345  54.139 156.600  1.00  0.00     0.000 C 
ENDROOT
BRANCH   1   2
ATOM      2  C   UNL     1      18.422  53.382 157.395  1.00  0.00     0.000 C 
BRANCH   2   3
ATOM      3  C   UNL     1      19.182  54.290 158.378  1.00  0.00     0.000 C 
BRANCH   3   4
ATOM      4  C   UNL     1      19.281  53.682 159.786  1.00  0.00     0.006 C 
BRANCH   4   5
ATOM      5  C   UNL     1      18.162  54.170 160.718  1.00  0.00     0.053 C 
BRANCH   5   6
ATOM      6  C   UNL     1      18.385  55.600 161.095  1.00  0.00     0.041 C 
ATOM      7  O   UNL     1      19.344  55.916 161.847  1.00  0.00    -0.550 OA
ATOM      8  O   UNL     1      17.562  56.592 160.576  1.00  0.00    -0.550 OA
ENDBRANCH   5   6
ENDBRANCH   4   5
ENDBRANCH   3   4
ENDBRANCH   2   3
ENDBRANCH   1   2
BRANCH   1   9
ATOM      9  C   UNL     1      16.259  54.743 157.507  1.00  0.00     0.000 C 
BRANCH   9  10
ATOM     10  C   UNL     1      14.868  54.146 157.240  1.00  0.00    -0.000 C 
BRANCH  10  11
ATOM     11  C   UNL     1      14.821  52.627 157.483  1.00  0.00    -0.000 C 
BRANCH  11  12
ATOM     12  C   UNL     1      14.426  52.273 158.926  1.00  0.00    -0.000 C 
BRANCH  12  13
ATOM     13  C   UNL     1      15.614  51.774 159.762  1.00  0.00    -0.003 C 
ATOM     14  C   UNL     1      16.453  50.769 158.978  1.00  0.00     0.004 C 
ENDBRANCH  12  13
ENDBRANCH  11  12
ENDBRANCH  10  11
ENDBRANCH   9  10
ENDBRANCH   1   9
TORSDOF 10
ENDMDL
MODEL 2
REMARK VINA RESULT:    -4.053      1.402      2.021
REMARK INTER + INTRA:          -7.808
REMARK INTER:                  -6.462
REMARK INTRA:                  -1.345
REMARK UNBOUND:                -1.385
REMARK SMILES CCCCCCCCCCCC(=O)[O-]
REMARK SMILES IDX 7 1 8 2 9 3 10 4 11 5 12 6 13 7 14 8 6 9 5 10 4 11 3 12 2 13
REMARK SMILES IDX 1 14
REMARK H PARENT
REMARK Flexibility Score: inf
ROOT
ATOM      1  C   UNL     1      15.865  55.153 157.386  1.00  0.00     0.000 C 
ENDROOT
BRANCH   1   2
ATOM      2  C   UNL     1      17.261  54.903 156.793  1.00  0.00     0.000 C 
BRANCH   2   3
ATOM      3  C   UNL     1      18.127  53.989 157.678  1.00  0.00     0.000 C 
BRANCH   3   4
ATOM      4  C   UNL     1      17.948  54.279 159.177  1.00  0.00     0.006 C 
BRANCH   4   5
ATOM      5  C   UNL     1      18.924  53.480 160.052  1.00  0.00     0.053 C 
BRANCH   5   6
ATOM      6  C   UNL     1      20.293  54.082 159.989  1.00  0.00     0.041 C 
ATOM      7  O   UNL     1      20.435  55.333 159.977  1.00  0.00    -0.550 OA
ATOM      8  O   UNL     1      21.414  53.261 159.993  1.00  0.00    -0.550 OA
ENDBRANCH   5   6
ENDBRANCH   4   5
ENDBRANCH   3   4
ENDBRANCH   2   3
ENDBRANCH   1   2
BRANCH   1   9
ATOM      9  C   UNL     1      14.738  54.612 156.489  1.00  0.00     0.000 C 
BRANCH   9  10
ATOM     10  C   UNL     1      13.897  53.530 157.185  1.00  0.00    -0.000 C 
BRANCH  10  11
ATOM     11  C   UNL     1      14.758  52.390 157.757  1.00  0.00    -0.000 C 
BRANCH  11  12
ATOM     12  C   UNL     1      14.473  52.125 159.244  1.00  0.00    -0.000 C 
BRANCH  12  13
ATOM     13  C   UNL     1      15.609  51.360 159.939  1.00  0.00    -0.003 C 
ATOM     14  C   UNL     1      16.567  50.752 158.919  1.00  0.00     0.004 C 
ENDBRANCH  12  13
ENDBRANCH  11  12
ENDBRANCH  10  11
ENDBRANCH   9  10
ENDBRANCH   1   9
TORSDOF 10
ENDMDL
MODEL 3
REMARK VINA RESULT:    -4.011      1.584      3.182
REMARK INTER + INTRA:          -7.740
REMARK INTER:                  -6.623
REMARK INTRA:                  -1.117
REMARK UNBOUND:                -1.385
REMARK SMILES CCCCCCCCCCCC(=O)[O-]
REMARK SMILES IDX 7 1 8 2 9 3 10 4 11 5 12 6 13 7 14 8 6 9 5 10 4 11 3 12 2 13
REMARK SMILES IDX 1 14
REMARK H PARENT
REMARK Flexibility Score: inf
ROOT
ATOM      1  C   UNL     1      16.143  51.605 158.663  1.00  0.00     0.000 C 
ENDROOT
BRANCH   1   2
ATOM      2  C   UNL     1      17.293  52.493 159.166  1.00  0.00     0.000 C 
BRANCH   2   3
ATOM      3  C   UNL     1      18.146  53.065 158.019  1.00  0.00     0.000 C 
BRANCH   3   4
ATOM      4  C   UNL     1      19.357  53.865 158.527  1.00  0.00     0.006 C 
BRANCH   4   5
ATOM      5  C   UNL     1      19.228  54.250 160.007  1.00  0.00     0.053 C 
BRANCH   5   6
ATOM      6  C   UNL     1      20.523  54.020 160.720  1.00  0.00     0.041 C 
ATOM      7  O   UNL     1      20.715  54.514 161.862  1.00  0.00    -0.550 OA
ATOM      8  O   UNL     1      21.501  53.218 160.144  1.00  0.00    -0.550 OA
ENDBRANCH   5   6
ENDBRANCH   4   5
ENDBRANCH   3   4
ENDBRANCH   2   3
ENDBRANCH   1   2
BRANCH   1   9
ATOM      9  C   UNL     1      14.816  51.896 159.384  1.00  0.00     0.000 C 
BRANCH   9  10
ATOM     10  C   UNL     1      13.822  52.672 158.503  1.00  0.00    -0.000 C 
BRANCH  10  11
ATOM     11  C   UNL     1      14.331  52.855 157.062  1.00  0.00    -0.000 C 
BRANCH  11  12
ATOM     12  C   UNL     1      14.146  54.292 156.550  1.00  0.00    -0.000 C 
BRANCH  12  13
ATOM     13  C   UNL     1      15.478  54.983 156.223  1.00  0.00    -0.003 C 
ATOM     14  C   UNL     1      15.944  55.855 157.385  1.00  0.00     0.004 C 
ENDBRANCH  12  13
ENDBRANCH  11  12
ENDBRANCH  10  11
ENDBRANCH   9  10
ENDBRANCH   1   9
TORSDOF 10
ENDMDL
MODEL 4
REMARK VINA RESULT:    -3.992      1.544      2.157
REMARK INTER + INTRA:          -7.711
REMARK INTER:                  -6.339
REMARK INTRA:                  -1.372
REMARK UNBOUND:                -1.385
REMARK SMILES CCCCCCCCCCCC(=O)[O-]
REMARK SMILES IDX 7 1 8 2 9 3 10 4 11 5 12 6 13 7 14 8 6 9 5 10 4 11 3 12 2 13
REMARK SMILES IDX 1 14
REMARK H PARENT
REMARK Flexibility Score: inf
ROOT
ATOM      1  C   UNL     1      15.880  55.925 157.282  1.00  0.00     0.000 C 
ENDROOT
BRANCH   1   2
ATOM      2  C   UNL     1      17.279  55.504 157.760  1.00  0.00     0.000 C 
BRANCH   2   3
ATOM      3  C   UNL     1      17.399  55.480 159.295  1.00  0.00     0.000 C 
BRANCH   3   4
ATOM      4  C   UNL     1      17.942  54.143 159.823  1.00  0.00     0.006 C 
BRANCH   4   5
ATOM      5  C   UNL     1      19.281  53.756 159.181  1.00  0.00     0.053 C 
BRANCH   5   6
ATOM      6  C   UNL     1      20.363  53.720 160.213  1.00  0.00     0.041 C 
ATOM      7  O   UNL     1      21.478  53.199 159.946  1.00  0.00    -0.550 OA
ATOM      8  O   UNL     1      20.158  54.307 161.456  1.00  0.00    -0.550 OA
ENDBRANCH   5   6
ENDBRANCH   4   5
ENDBRANCH   3   4
ENDBRANCH   2   3
ENDBRANCH   1   2
BRANCH   1   9
ATOM      9  C   UNL     1      15.095  54.758 156.658  1.00  0.00     0.000 C 
BRANCH   9  10
ATOM     10  C   UNL     1      15.955  53.495 156.482  1.00  0.00    -0.000 C 
BRANCH  10  11
ATOM     11  C   UNL     1      15.306  52.247 157.106  1.00  0.00    -0.000 C 
BRANCH  11  12
ATOM     12  C   UNL     1      14.533  52.567 158.396  1.00  0.00    -0.000 C 
BRANCH  12  13
ATOM     13  C   UNL     1      15.032  51.759 159.603  1.00  0.00    -0.003 C 
ATOM     14  C   UNL     1      16.245  50.909 159.232  1.00  0.00     0.004 C 
ENDBRANCH  12  13
ENDBRANCH  11  12
ENDBRANCH  10  11
ENDBRANCH   9  10
ENDBRANCH   1   9
TORSDOF 10
ENDMDL
MODEL 5
REMARK VINA RESULT:    -3.961      1.887      3.802
REMARK INTER + INTRA:          -7.662
REMARK INTER:                  -6.399
REMARK INTRA:                  -1.263
REMARK UNBOUND:                -1.385
REMARK SMILES CCCCCCCCCCCC(=O)[O-]
REMARK SMILES IDX 7 1 8 2 9 3 10 4 11 5 12 6 13 7 14 8 6 9 5 10 4 11 3 12 2 13
REMARK SMILES IDX 1 14
REMARK H PARENT
REMARK Flexibility Score: inf
ROOT
ATOM      1  C   UNL     1      14.742  52.564 157.419  1.00  0.00     0.000 C 
ENDROOT
BRANCH   1   2
ATOM      2  C   UNL     1      14.480  52.267 158.905  1.00  0.00     0.000 C 
BRANCH   2   3
ATOM      3  C   UNL     1      15.774  52.002 159.694  1.00  0.00     0.000 C 
BRANCH   3   4
ATOM      4  C   UNL     1      17.011  52.624 159.025  1.00  0.00     0.006 C 
BRANCH   4   5
ATOM      5  C   UNL     1      17.823  53.500 159.989  1.00  0.00     0.053 C 
BRANCH   5   6
ATOM      6  C   UNL     1      19.227  53.653 159.498  1.00  0.00     0.041 C 
ATOM      7  O   UNL     1      20.189  53.633 160.310  1.00  0.00    -0.550 OA
ATOM      8  O   UNL     1      19.479  53.768 158.136  1.00  0.00    -0.550 OA
ENDBRANCH   5   6
ENDBRANCH   4   5
ENDBRANCH   3   4
ENDBRANCH   2   3
ENDBRANCH   1   2
BRANCH   1   9
ATOM      9  C   UNL     1      13.766  53.606 156.846  1.00  0.00     0.000 C 
BRANCH   9  10
ATOM     10  C   UNL     1      14.482  54.864 156.327  1.00  0.00    -0.000 C 
BRANCH  10  11
ATOM     11  C   UNL     1      15.929  54.580 155.889  1.00  0.00    -0.000 C 
BRANCH  11  12
ATOM     12  C   UNL     1      16.930  55.596 156.462  1.00  0.00    -0.000 C 
BRANCH  12  13
ATOM     13  C   UNL     1      16.467  56.196 157.798  1.00  0.00    -0.003 C 
ATOM     14  C   UNL     1      16.735  57.698 157.848  1.00  0.00     0.004 C 
ENDBRANCH  12  13
ENDBRANCH  11  12
ENDBRANCH  10  11
ENDBRANCH   9  10
ENDBRANCH   1   9
TORSDOF 10
ENDMDL
MODEL 6
REMARK VINA RESULT:    -3.916      2.136      4.656
REMARK INTER + INTRA:          -7.590
REMARK INTER:                  -6.487
REMARK INTRA:                  -1.103
REMARK UNBOUND:                -1.385
REMARK SMILES CCCCCCCCCCCC(=O)[O-]
REMARK SMILES IDX 7 1 8 2 9 3 10 4 11 5 12 6 13 7 14 8 6 9 5 10 4 11 3 12 2 13
REMARK SMILES IDX 1 14
REMARK H PARENT
REMARK Flexibility Score: inf
ROOT
ATOM      1  C   UNL     1      14.769  51.857 159.345  1.00  0.00     0.000 C 
ENDROOT
BRANCH   1   2
ATOM      2  C   UNL     1      14.182  52.717 158.213  1.00  0.00     0.000 C 
BRANCH   2   3
ATOM      3  C   UNL     1      14.881  52.479 156.863  1.00  0.00     0.000 C 
BRANCH   3   4
ATOM      4  C   UNL     1      15.399  53.780 156.229  1.00  0.00     0.006 C 
BRANCH   4   5
ATOM      5  C   UNL     1      15.131  55.010 157.108  1.00  0.00     0.053 C 
BRANCH   5   6
ATOM      6  C   UNL     1      16.228  56.014 156.949  1.00  0.00     0.041 C 
ATOM      7  O   UNL     1      17.253  55.732 156.273  1.00  0.00    -0.550 OA
ATOM      8  O   UNL     1      16.099  57.280 157.506  1.00  0.00    -0.550 OA
ENDBRANCH   5   6
ENDBRANCH   4   5
ENDBRANCH   3   4
ENDBRANCH   2   3
ENDBRANCH   1   2
BRANCH   1   9
ATOM      9  C   UNL     1      16.287  51.653 159.202  1.00  0.00     0.000 C 
BRANCH   9  10
ATOM     10  C   UNL     1      17.094  52.863 159.701  1.00  0.00    -0.000 C 
BRANCH  10  11
ATOM     11  C   UNL     1      18.180  53.301 158.702  1.00  0.00    -0.000 C 
BRANCH  11  12
ATOM     12  C   UNL     1      19.134  54.352 159.290  1.00  0.00    -0.000 C 
BRANCH  12  13
ATOM     13  C   UNL     1      19.969  53.808 160.459  1.00  0.00    -0.003 C 
ATOM     14  C   UNL     1      21.372  53.424 160.001  1.00  0.00     0.004 C 
ENDBRANCH  12  13
ENDBRANCH  11  12
ENDBRANCH  10  11
ENDBRANCH   9  10
ENDBRANCH   1   9
TORSDOF 10
ENDMDL
MODEL 7
REMARK VINA RESULT:    -3.910      1.426      2.140
REMARK INTER + INTRA:          -7.581
REMARK INTER:                  -6.016
REMARK INTRA:                  -1.564
REMARK UNBOUND:                -1.385
REMARK SMILES CCCCCCCCCCCC(=O)[O-]
REMARK SMILES IDX 7 1 8 2 9 3 10 4 11 5 12 6 13 7 14 8 6 9 5 10 4 11 3 12 2 13
REMARK SMILES IDX 1 14
REMARK H PARENT
REMARK Flexibility Score: inf
ROOT
ATOM      1  C   UNL     1      15.995  55.522 157.670  1.00  0.00     0.000 C 
ENDROOT
BRANCH   1   2
ATOM      2  C   UNL     1      17.392  55.507 158.311  1.00  0.00     0.000 C 
BRANCH   2   3
ATOM      3  C   UNL     1      18.443  54.813 157.427  1.00  0.00     0.000 C 
BRANCH   3   4
ATOM      4  C   UNL     1      19.207  53.709 158.176  1.00  0.00     0.006 C 
BRANCH   4   5
ATOM      5  C   UNL     1      18.893  53.691 159.678  1.00  0.00     0.053 C 
BRANCH   5   6
ATOM      6  C   UNL     1      20.130  53.970 160.472  1.00  0.00     0.041 C 
ATOM      7  O   UNL     1      20.141  54.897 161.324  1.00  0.00    -0.550 OA
ATOM      8  O   UNL     1      21.257  53.174 160.307  1.00  0.00    -0.550 OA
ENDBRANCH   5   6
ENDBRANCH   4   5
ENDBRANCH   3   4
ENDBRANCH   2   3
ENDBRANCH   1   2
BRANCH   1   9
ATOM      9  C   UNL     1      15.938  54.711 156.364  1.00  0.00     0.000 C 
BRANCH   9  10
ATOM     10  C   UNL     1      14.657  53.867 156.248  1.00  0.00    -0.000 C 
BRANCH  10  11
ATOM     11  C   UNL     1      14.652  52.669 157.213  1.00  0.00    -0.000 C 
BRANCH  11  12
ATOM     12  C   UNL     1      15.961  51.864 157.161  1.00  0.00    -0.000 C 
BRANCH  12  13
ATOM     13  C   UNL     1      16.355  51.282 158.527  1.00  0.00    -0.003 C 
ATOM     14  C   UNL     1      15.609  51.983 159.659  1.00  0.00     0.004 C 
ENDBRANCH  12  13
ENDBRANCH  11  12
ENDBRANCH  10  11
ENDBRANCH   9  10
ENDBRANCH   1   9
TORSDOF 10
ENDMDL
MODEL 8
REMARK VINA RESULT:    -3.876      1.989      3.396
REMARK INTER + INTRA:          -7.527
REMARK INTER:                  -6.130
REMARK INTRA:                  -1.397
REMARK UNBOUND:                -1.385
REMARK SMILES CCCCCCCCCCCC(=O)[O-]
REMARK SMILES IDX 7 1 8 2 9 3 10 4 11 5 12 6 13 7 14 8 6 9 5 10 4 11 3 12 2 13
REMARK SMILES IDX 1 14
REMARK H PARENT
REMARK Flexibility Score: inf
ROOT
ATOM      1  C   UNL     1      17.174  52.950 159.632  1.00  0.00     0.000 C 
ENDROOT
BRANCH   1   2
ATOM      2  C   UNL     1      18.159  53.203 158.479  1.00  0.00     0.000 C 
BRANCH   2   3
ATOM      3  C   UNL     1      18.262  54.692 158.102  1.00  0.00     0.000 C 
BRANCH   3   4
ATOM      4  C   UNL     1      17.075  55.516 158.627  1.00  0.00     0.006 C 
BRANCH   4   5
ATOM      5  C   UNL     1      16.730  56.699 157.711  1.00  0.00     0.053 C 
BRANCH   5   6
ATOM      6  C   UNL     1      17.322  57.964 158.248  1.00  0.00     0.041 C 
ATOM      7  O   UNL     1      16.591  58.812 158.825  1.00  0.00    -0.550 OA
ATOM      8  O   UNL     1      18.691  58.185 158.155  1.00  0.00    -0.550 OA
ENDBRANCH   5   6
ENDBRANCH   4   5
ENDBRANCH   3   4
ENDBRANCH   2   3
ENDBRANCH   1   2
BRANCH   1   9
ATOM      9  C   UNL     1      16.322  51.688 159.412  1.00  0.00     0.000 C 
BRANCH   9  10
ATOM     10  C   UNL     1      14.815  51.965 159.534  1.00  0.00    -0.000 C 
BRANCH  10  11
ATOM     11  C   UNL     1      14.253  52.719 158.316  1.00  0.00    -0.000 C 
BRANCH  11  12
ATOM     12  C   UNL     1      14.898  52.269 156.995  1.00  0.00    -0.000 C 
BRANCH  12  13
ATOM     13  C   UNL     1      15.204  53.443 156.053  1.00  0.00    -0.003 C 
ATOM     14  C   UNL     1      14.193  54.571 156.233  1.00  0.00     0.004 C 
ENDBRANCH  12  13
ENDBRANCH  11  12
ENDBRANCH  10  11
ENDBRANCH   9  10
ENDBRANCH   1   9
TORSDOF 10
ENDMDL
MODEL 9
REMARK VINA RESULT:    -3.859      2.781      4.981
REMARK INTER + INTRA:          -7.501
REMARK INTER:                  -6.552
REMARK INTRA:                  -0.949
REMARK UNBOUND:                -1.385
REMARK SMILES CCCCCCCCCCCC(=O)[O-]
REMARK SMILES IDX 7 1 8 2 9 3 10 4 11 5 12 6 13 7 14 8 6 9 5 10 4 11 3 12 2 13
REMARK SMILES IDX 1 14
REMARK H PARENT
REMARK Flexibility Score: inf
ROOT
ATOM      1  C   UNL     1      16.375  55.744 157.743  1.00  0.00     0.000 C 
ENDROOT
BRANCH   1   2
ATOM      2  C   UNL     1      16.022  54.421 157.043  1.00  0.00     0.000 C 
BRANCH   2   3
ATOM      3  C   UNL     1      14.504  54.181 156.960  1.00  0.00     0.000 C 
BRANCH   3   4
ATOM      4  C   UNL     1      14.043  53.010 157.843  1.00  0.00     0.006 C 
BRANCH   4   5
ATOM      5  C   UNL     1      15.217  52.267 158.494  1.00  0.00     0.053 C 
BRANCH   5   6
ATOM      6  C   UNL     1      14.736  51.432 159.639  1.00  0.00     0.041 C 
ATOM      7  O   UNL     1      15.451  50.499 160.089  1.00  0.00    -0.550 OA
ATOM      8  O   UNL     1      13.516  51.716 160.241  1.00  0.00    -0.550 OA
ENDBRANCH   5   6
ENDBRANCH   4   5
ENDBRANCH   3   4
ENDBRANCH   2   3
ENDBRANCH   1   2
BRANCH   1   9
ATOM      9  C   UNL     1      17.680  55.650 158.553  1.00  0.00     0.000 C 
BRANCH   9  10
ATOM     10  C   UNL     1      17.523  54.809 159.830  1.00  0.00    -0.000 C 
BRANCH  10  11
ATOM     11  C   UNL     1      18.451  53.581 159.846  1.00  0.00    -0.000 C 
BRANCH  11  12
ATOM     12  C   UNL     1      19.810  53.861 159.183  1.00  0.00    -0.000 C 
BRANCH  12  13
ATOM     13  C   UNL     1      20.995  53.594 160.123  1.00  0.00    -0.003 C 
ATOM     14  C   UNL     1      20.982  54.554 161.310  1.00  0.00     0.004 C 
ENDBRANCH  12  13
ENDBRANCH  11  12
ENDBRANCH  10  11
ENDBRANCH   9  10
ENDBRANCH   1   9
TORSDOF 10
ENDMDL
