MODEL 1
REMARK VINA RESULT:    -5.674      0.000      0.000
REMARK INTER + INTRA:          -6.552
REMARK INTER:                  -6.338
REMARK INTRA:                  -0.215
REMARK UNBOUND:                -0.215
REMARK SMILES CC(C)c1ccc(C(=O)[O-])cc1
REMARK SMILES IDX 7 1 6 2 11 3 5 4 12 5 4 6 8 7 9 8 10 9 2 10 1 11 3 12
REMARK H PARENT
REMARK Flexibility Score: inf
ROOT
ATOM      1  C   UNL     1      14.176 -32.507  21.900  1.00  0.00    -0.003 A 
ATOM      2  C   UNL     1      13.279 -31.665  21.220  1.00  0.00     0.010 A 
ATOM      3  C   UNL     1      14.489 -32.227  23.240  1.00  0.00     0.010 A 
ATOM      4  C   UNL     1      12.708 -30.565  21.868  1.00  0.00     0.004 A 
ATOM      5  C   UNL     1      13.918 -31.128  23.887  1.00  0.00     0.004 A 
ATOM      6  C   UNL     1      13.021 -30.284  23.207  1.00  0.00    -0.045 A 
ENDROOT
BRANCH   1   7
ATOM      7  C   UNL     1      14.783 -33.672  21.219  1.00  0.00     0.071 C 
ATOM      8  O   UNL     1      15.491 -34.493  21.862  1.00  0.00    -0.545 OA
ATOM      9  O   UNL     1      14.583 -33.876  19.858  1.00  0.00    -0.545 OA
ENDBRANCH   1   7
BRANCH   6  10
ATOM     10  C   UNL     1      12.394 -29.087  23.897  1.00  0.00     0.013 C 
ATOM     11  C   UNL     1      13.415 -27.958  24.083  1.00  0.00     0.012 C 
ATOM     12  C   UNL     1      11.159 -28.593  23.136  1.00  0.00     0.012 C 
ENDBRANCH   6  10
TORSDOF 2
ENDMDL
MODEL 2
REMARK VINA RESULT:    -5.674      0.066      1.399
REMARK INTER + INTRA:          -6.552
REMARK INTER:                  -6.337
REMARK INTRA:                  -0.214
REMARK UNBOUND:                -0.215
REMARK SMILES CC(C)c1ccc(C(=O)[O-])cc1
REMARK SMILES IDX 7 1 6 2 11 3 5 4 12 5 4 6 8 7 9 8 10 9 2 10 1 11 3 12
REMARK H PARENT
REMARK Flexibility Score: inf
ROOT
ATOM      1  C   UNL     1      14.232 -32.509  21.926  1.00  0.00    -0.003 A 
ATOM      2  C   UNL     1      14.533 -32.203  23.264  1.00  0.00     0.010 A 
ATOM      3  C   UNL     1      13.331 -31.690  21.226  1.00  0.00     0.010 A 
ATOM      4  C   UNL     1      13.944 -31.101  23.890  1.00  0.00     0.004 A 
ATOM      5  C   UNL     1      12.742 -30.587  21.852  1.00  0.00     0.004 A 
ATOM      6  C   UNL     1      13.043 -30.281  23.193  1.00  0.00    -0.045 A 
ENDROOT
BRANCH   1   7
ATOM      7  C   UNL     1      14.853 -33.675  21.259  1.00  0.00     0.071 C 
ATOM      8  O   UNL     1      15.598 -34.461  21.905  1.00  0.00    -0.545 OA
ATOM      9  O   UNL     1      14.625 -33.919  19.910  1.00  0.00    -0.545 OA
ENDBRANCH   1   7
BRANCH   6  10
ATOM     10  C   UNL     1      12.411 -29.088  23.884  1.00  0.00     0.013 C 
ATOM     11  C   UNL     1      13.443 -27.980  24.130  1.00  0.00     0.012 C 
ATOM     12  C   UNL     1      11.213 -28.557  23.088  1.00  0.00     0.012 C 
ENDBRANCH   6  10
TORSDOF 2
ENDMDL
MODEL 3
REMARK VINA RESULT:    -5.268      2.877      5.039
REMARK INTER + INTRA:          -6.098
REMARK INTER:                  -5.882
REMARK INTRA:                  -0.216
REMARK UNBOUND:                -0.215
REMARK SMILES CC(C)c1ccc(C(=O)[O-])cc1
REMARK SMILES IDX 7 1 6 2 11 3 5 4 12 5 4 6 8 7 9 8 10 9 2 10 1 11 3 12
REMARK H PARENT
REMARK Flexibility Score: inf
ROOT
ATOM      1  C   UNL     1      13.128 -30.619  23.011  1.00  0.00    -0.003 A 
ATOM      2  C   UNL     1      13.120 -30.965  21.649  1.00  0.00     0.010 A 
ATOM      3  C   UNL     1      13.844 -31.424  23.913  1.00  0.00     0.010 A 
ATOM      4  C   UNL     1      13.813 -32.092  21.198  1.00  0.00     0.004 A 
ATOM      5  C   UNL     1      14.536 -32.551  23.462  1.00  0.00     0.004 A 
ATOM      6  C   UNL     1      14.528 -32.898  22.098  1.00  0.00    -0.045 A 
ENDROOT
BRANCH   1   7
ATOM      7  C   UNL     1      12.396 -29.427  23.493  1.00  0.00     0.071 C 
ATOM      8  O   UNL     1      12.779 -28.816  24.527  1.00  0.00    -0.545 OA
ATOM      9  O   UNL     1      11.275 -28.965  22.813  1.00  0.00    -0.545 OA
ENDBRANCH   1   7
BRANCH   6  10
ATOM     10  C   UNL     1      15.275 -34.119  21.595  1.00  0.00     0.013 C 
ATOM     11  C   UNL     1      15.120 -34.276  20.078  1.00  0.00     0.012 C 
ATOM     12  C   UNL     1      16.754 -34.066  21.995  1.00  0.00     0.012 C 
ENDBRANCH   6  10
TORSDOF 2
ENDMDL
MODEL 4
REMARK VINA RESULT:    -5.197      2.782      5.322
REMARK INTER + INTRA:          -6.019
REMARK INTER:                  -5.801
REMARK INTRA:                  -0.219
REMARK UNBOUND:                -0.215
REMARK SMILES CC(C)c1ccc(C(=O)[O-])cc1
REMARK SMILES IDX 7 1 6 2 11 3 5 4 12 5 4 6 8 7 9 8 10 9 2 10 1 11 3 12
REMARK H PARENT
REMARK Flexibility Score: inf
ROOT
ATOM      1  C   UNL     1      13.159 -31.005  22.609  1.00  0.00    -0.003 A 
ATOM      2  C   UNL     1      13.893 -31.773  23.528  1.00  0.00     0.010 A 
ATOM      3  C   UNL     1      13.180 -31.364  21.251  1.00  0.00     0.010 A 
ATOM      4  C   UNL     1      14.634 -32.878  23.098  1.00  0.00     0.004 A 
ATOM      5  C   UNL     1      13.920 -32.469  20.821  1.00  0.00     0.004 A 
ATOM      6  C   UNL     1      14.657 -33.238  21.741  1.00  0.00    -0.045 A 
ENDROOT
BRANCH   1   7
ATOM      7  C   UNL     1      12.373 -29.834  23.059  1.00  0.00     0.071 C 
ATOM      8  O   UNL     1      11.326 -29.492  22.446  1.00  0.00    -0.545 OA
ATOM      9  O   UNL     1      12.780 -29.094  24.163  1.00  0.00    -0.545 OA
ENDBRANCH   1   7
BRANCH   6  10
ATOM     10  C   UNL     1      15.465 -34.440  21.288  1.00  0.00     0.013 C 
ATOM     11  C   UNL     1      15.941 -34.271  19.841  1.00  0.00     0.012 C 
ATOM     12  C   UNL     1      16.647 -34.699  22.230  1.00  0.00     0.012 C 
ENDBRANCH   6  10
TORSDOF 2
ENDMDL
MODEL 5
REMARK VINA RESULT:    -5.163      9.843     10.659
REMARK INTER + INTRA:          -5.981
REMARK INTER:                  -5.770
REMARK INTRA:                  -0.212
REMARK UNBOUND:                -0.215
REMARK SMILES CC(C)c1ccc(C(=O)[O-])cc1
REMARK SMILES IDX 7 1 6 2 11 3 5 4 12 5 4 6 8 7 9 8 10 9 2 10 1 11 3 12
REMARK H PARENT
REMARK Flexibility Score: inf
ROOT
ATOM      1  C   UNL     1      22.736 -25.459  20.426  1.00  0.00    -0.003 A 
ATOM      2  C   UNL     1      23.243 -26.591  21.085  1.00  0.00     0.010 A 
ATOM      3  C   UNL     1      21.361 -25.394  20.144  1.00  0.00     0.010 A 
ATOM      4  C   UNL     1      22.394 -27.638  21.454  1.00  0.00     0.004 A 
ATOM      5  C   UNL     1      20.512 -26.441  20.513  1.00  0.00     0.004 A 
ATOM      6  C   UNL     1      21.020 -27.576  21.172  1.00  0.00    -0.045 A 
ENDROOT
BRANCH   1   7
ATOM      7  C   UNL     1      23.631 -24.347  20.033  1.00  0.00     0.071 C 
ATOM      8  O   UNL     1      24.073 -24.267  18.856  1.00  0.00    -0.545 OA
ATOM      9  O   UNL     1      23.997 -23.378  20.959  1.00  0.00    -0.545 OA
ENDBRANCH   1   7
BRANCH   6  10
ATOM     10  C   UNL     1      20.109 -28.720  21.578  1.00  0.00     0.013 C 
ATOM     11  C   UNL     1      18.719 -28.570  20.948  1.00  0.00     0.012 C 
ATOM     12  C   UNL     1      20.731 -30.076  21.223  1.00  0.00     0.012 C 
ENDBRANCH   6  10
TORSDOF 2
ENDMDL
MODEL 6
REMARK VINA RESULT:    -5.151      9.867     10.603
REMARK INTER + INTRA:          -5.968
REMARK INTER:                  -5.756
REMARK INTRA:                  -0.212
REMARK UNBOUND:                -0.215
REMARK SMILES CC(C)c1ccc(C(=O)[O-])cc1
REMARK SMILES IDX 7 1 6 2 11 3 5 4 12 5 4 6 8 7 9 8 10 9 2 10 1 11 3 12
REMARK H PARENT
REMARK Flexibility Score: inf
ROOT
ATOM      1  C   UNL     1      22.745 -25.455  20.361  1.00  0.00    -0.003 A 
ATOM      2  C   UNL     1      21.360 -25.380  20.135  1.00  0.00     0.010 A 
ATOM      3  C   UNL     1      23.273 -26.598  20.982  1.00  0.00     0.010 A 
ATOM      4  C   UNL     1      20.520 -26.428  20.524  1.00  0.00     0.004 A 
ATOM      5  C   UNL     1      22.433 -27.646  21.371  1.00  0.00     0.004 A 
ATOM      6  C   UNL     1      21.045 -27.571  21.146  1.00  0.00    -0.045 A 
ENDROOT
BRANCH   1   7
ATOM      7  C   UNL     1      23.639 -24.349  19.951  1.00  0.00     0.071 C 
ATOM      8  O   UNL     1      24.077 -24.284  18.771  1.00  0.00    -0.545 OA
ATOM      9  O   UNL     1      24.008 -23.367  20.862  1.00  0.00    -0.545 OA
ENDBRANCH   1   7
BRANCH   6  10
ATOM     10  C   UNL     1      20.122 -28.701  21.564  1.00  0.00     0.013 C 
ATOM     11  C   UNL     1      18.747 -28.564  20.899  1.00  0.00     0.012 C 
ATOM     12  C   UNL     1      20.747 -30.067  21.260  1.00  0.00     0.012 C 
ENDBRANCH   6  10
TORSDOF 2
ENDMDL
MODEL 7
REMARK VINA RESULT:    -5.119      3.008      5.147
REMARK INTER + INTRA:          -5.932
REMARK INTER:                  -5.712
REMARK INTRA:                  -0.220
REMARK UNBOUND:                -0.215
REMARK SMILES CC(C)c1ccc(C(=O)[O-])cc1
REMARK SMILES IDX 7 1 6 2 11 3 5 4 12 5 4 6 8 7 9 8 10 9 2 10 1 11 3 12
REMARK H PARENT
REMARK Flexibility Score: inf
ROOT
ATOM      1  C   UNL     1      13.142 -30.110  23.011  1.00  0.00    -0.003 A 
ATOM      2  C   UNL     1      14.334 -30.548  23.613  1.00  0.00     0.010 A 
ATOM      3  C   UNL     1      12.724 -30.712  21.812  1.00  0.00     0.010 A 
ATOM      4  C   UNL     1      15.093 -31.565  23.028  1.00  0.00     0.004 A 
ATOM      5  C   UNL     1      13.484 -31.729  21.227  1.00  0.00     0.004 A 
ATOM      6  C   UNL     1      14.678 -32.167  21.829  1.00  0.00    -0.045 A 
ENDROOT
BRANCH   1   7
ATOM      7  C   UNL     1      12.334 -29.033  23.626  1.00  0.00     0.071 C 
ATOM      8  O   UNL     1      12.728 -28.457  24.675  1.00  0.00    -0.545 OA
ATOM      9  O   UNL     1      11.128 -28.643  23.055  1.00  0.00    -0.545 OA
ENDBRANCH   1   7
BRANCH   6  10
ATOM     10  C   UNL     1      15.512 -33.270  21.205  1.00  0.00     0.013 C 
ATOM     11  C   UNL     1      15.913 -34.319  22.250  1.00  0.00     0.012 C 
ATOM     12  C   UNL     1      14.778 -33.919  20.027  1.00  0.00     0.012 C 
ENDBRANCH   6  10
TORSDOF 2
ENDMDL
MODEL 8
REMARK VINA RESULT:    -4.935      2.274      3.292
REMARK INTER + INTRA:          -5.727
REMARK INTER:                  -5.522
REMARK INTRA:                  -0.205
REMARK UNBOUND:                -0.215
REMARK SMILES CC(C)c1ccc(C(=O)[O-])cc1
REMARK SMILES IDX 7 1 6 2 11 3 5 4 12 5 4 6 8 7 9 8 10 9 2 10 1 11 3 12
REMARK H PARENT
REMARK Flexibility Score: inf
ROOT
ATOM      1  C   UNL     1      16.021 -32.842  24.369  1.00  0.00    -0.003 A 
ATOM      2  C   UNL     1      14.635 -33.071  24.386  1.00  0.00     0.010 A 
ATOM      3  C   UNL     1      16.499 -31.595  23.932  1.00  0.00     0.010 A 
ATOM      4  C   UNL     1      13.745 -32.074  23.975  1.00  0.00     0.004 A 
ATOM      5  C   UNL     1      15.610 -30.599  23.521  1.00  0.00     0.004 A 
ATOM      6  C   UNL     1      14.221 -30.828  23.537  1.00  0.00    -0.045 A 
ENDROOT
BRANCH   1   7
ATOM      7  C   UNL     1      16.967 -33.894  24.803  1.00  0.00     0.071 C 
ATOM      8  O   UNL     1      16.939 -35.038  24.275  1.00  0.00    -0.545 OA
ATOM      9  O   UNL     1      17.899 -33.634  25.802  1.00  0.00    -0.545 OA
ENDBRANCH   1   7
BRANCH   6  10
ATOM     10  C   UNL     1      13.244 -29.756  23.093  1.00  0.00     0.013 C 
ATOM     11  C   UNL     1      12.088 -30.360  22.288  1.00  0.00     0.012 C 
ATOM     12  C   UNL     1      12.721 -28.954  24.291  1.00  0.00     0.012 C 
ENDBRANCH   6  10
TORSDOF 2
ENDMDL
MODEL 9
REMARK VINA RESULT:    -4.719      3.970      4.557
REMARK INTER + INTRA:          -5.485
REMARK INTER:                  -5.277
REMARK INTRA:                  -0.208
REMARK UNBOUND:                -0.215
REMARK SMILES CC(C)c1ccc(C(=O)[O-])cc1
REMARK SMILES IDX 7 1 6 2 11 3 5 4 12 5 4 6 8 7 9 8 10 9 2 10 1 11 3 12
REMARK H PARENT
REMARK Flexibility Score: inf
ROOT
ATOM      1  C   UNL     1      17.472 -29.208  22.396  1.00  0.00    -0.003 A 
ATOM      2  C   UNL     1      17.198 -30.365  23.145  1.00  0.00     0.010 A 
ATOM      3  C   UNL     1      16.407 -28.370  22.024  1.00  0.00     0.010 A 
ATOM      4  C   UNL     1      15.887 -30.678  23.515  1.00  0.00     0.004 A 
ATOM      5  C   UNL     1      15.096 -28.684  22.394  1.00  0.00     0.004 A 
ATOM      6  C   UNL     1      14.821 -29.843  23.143  1.00  0.00    -0.045 A 
ENDROOT
BRANCH   1   7
ATOM      7  C   UNL     1      18.858 -28.872  22.003  1.00  0.00     0.071 C 
ATOM      8  O   UNL     1      19.114 -27.778  21.431  1.00  0.00    -0.545 OA
ATOM      9  O   UNL     1      19.897 -29.760  22.256  1.00  0.00    -0.545 OA
ENDBRANCH   1   7
BRANCH   6  10
ATOM     10  C   UNL     1      13.403 -30.195  23.551  1.00  0.00     0.013 C 
ATOM     11  C   UNL     1      12.722 -29.017  24.258  1.00  0.00     0.012 C 
ATOM     12  C   UNL     1      12.580 -30.662  22.345  1.00  0.00     0.012 C 
ENDBRANCH   6  10
TORSDOF 2
ENDMDL
