MODEL 1
REMARK VINA RESULT:    -4.897      0.000      0.000
REMARK INTER + INTRA:          -5.041
REMARK INTER:                  -5.041
REMARK INTRA:                   0.000
REMARK UNBOUND:                 0.000
REMARK SMILES O=c1ccc2cc(O)ccc2o1
REMARK SMILES IDX 9 1 10 2 11 3 5 4 4 5 3 6 2 7 1 8 12 9 6 10 7 11 8 12
REMARK H PARENT 8 13
REMARK Flexibility Score: inf
ROOT
ATOM      1  C   UNL     1       7.810  -6.737  -5.693  1.00  0.00     0.050 A 
ATOM      2  C   UNL     1       8.815  -6.047  -6.379  1.00  0.00     0.052 A 
ATOM      3  C   UNL     1       9.557  -6.694  -7.372  1.00  0.00     0.138 A 
ATOM      4  C   UNL     1       9.289  -8.047  -7.679  1.00  0.00     0.021 A 
ATOM      5  C   UNL     1      10.047  -8.667  -8.677  1.00  0.00     0.019 A 
ATOM      6  C   UNL     1      11.039  -7.939  -9.334  1.00  0.00     0.094 A 
ATOM      7  C   UNL     1      11.249  -6.603  -8.977  1.00  0.00     0.336 A 
ATOM      8  O   UNL     1      12.139  -5.929  -9.559  1.00  0.00    -0.246 OA
ATOM      9  O   UNL     1      10.513  -6.036  -8.025  1.00  0.00    -0.423 OA
ATOM     10  C   UNL     1       8.280  -8.735  -6.989  1.00  0.00     0.058 A 
ATOM     11  C   UNL     1       7.540  -8.078  -5.995  1.00  0.00     0.116 A 
ENDROOT
BRANCH  11  12
ATOM     12  O   UNL     1       6.536  -8.748  -5.299  1.00  0.00    -0.508 OA
ATOM     13  H   UNL     1       6.191  -9.650  -5.606  1.00  0.00     0.293 HD
ENDBRANCH  11  12
TORSDOF 1
ENDMDL
MODEL 2
REMARK VINA RESULT:    -4.850      2.747      3.228
REMARK INTER + INTRA:          -4.992
REMARK INTER:                  -4.992
REMARK INTRA:                   0.000
REMARK UNBOUND:                 0.000
REMARK SMILES O=c1ccc2cc(O)ccc2o1
REMARK SMILES IDX 9 1 10 2 11 3 5 4 4 5 3 6 2 7 1 8 12 9 6 10 7 11 8 12
REMARK H PARENT 8 13
REMARK Flexibility Score: inf
ROOT
ATOM      1  C   UNL     1       7.851  -7.102  -5.899  1.00  0.00     0.050 A 
ATOM      2  C   UNL     1       8.002  -8.022  -6.942  1.00  0.00     0.052 A 
ATOM      3  C   UNL     1       8.107  -7.574  -8.262  1.00  0.00     0.138 A 
ATOM      4  C   UNL     1       8.059  -6.189  -8.538  1.00  0.00     0.021 A 
ATOM      5  C   UNL     1       8.166  -5.770  -9.868  1.00  0.00     0.019 A 
ATOM      6  C   UNL     1       8.316  -6.724 -10.875  1.00  0.00     0.094 A 
ATOM      7  C   UNL     1       8.354  -8.078 -10.527  1.00  0.00     0.336 A 
ATOM      8  O   UNL     1       8.489  -8.954 -11.422  1.00  0.00    -0.246 OA
ATOM      9  O   UNL     1       8.250  -8.450  -9.254  1.00  0.00    -0.423 OA
ATOM     10  C   UNL     1       7.908  -5.270  -7.489  1.00  0.00     0.058 A 
ATOM     11  C   UNL     1       7.804  -5.729  -6.168  1.00  0.00     0.116 A 
ENDROOT
BRANCH  11  12
ATOM     12  O   UNL     1       7.652  -4.829  -5.115  1.00  0.00    -0.508 OA
ATOM     13  H   UNL     1       6.865  -4.886  -4.479  1.00  0.00     0.293 HD
ENDBRANCH  11  12
TORSDOF 1
ENDMDL
MODEL 3
REMARK VINA RESULT:    -4.796      3.157      4.054
REMARK INTER + INTRA:          -4.937
REMARK INTER:                  -4.937
REMARK INTRA:                   0.000
REMARK UNBOUND:                 0.000
REMARK SMILES O=c1ccc2cc(O)ccc2o1
REMARK SMILES IDX 9 1 10 2 11 3 5 4 4 5 3 6 2 7 1 8 12 9 6 10 7 11 8 12
REMARK H PARENT 8 13
REMARK Flexibility Score: inf
ROOT
ATOM      1  C   UNL     1       8.937  -7.238  -7.200  1.00  0.00     0.050 A 
ATOM      2  C   UNL     1       8.171  -7.979  -8.105  1.00  0.00     0.052 A 
ATOM      3  C   UNL     1       8.232  -7.694  -9.473  1.00  0.00     0.138 A 
ATOM      4  C   UNL     1       9.068  -6.653  -9.935  1.00  0.00     0.021 A 
ATOM      5  C   UNL     1       9.107  -6.391 -11.308  1.00  0.00     0.019 A 
ATOM      6  C   UNL     1       8.327  -7.157 -12.174  1.00  0.00     0.094 A 
ATOM      7  C   UNL     1       7.522  -8.171 -11.644  1.00  0.00     0.336 A 
ATOM      8  O   UNL     1       6.810  -8.873 -12.409  1.00  0.00    -0.246 OA
ATOM      9  O   UNL     1       7.503  -8.400 -10.334  1.00  0.00    -0.423 OA
ATOM     10  C   UNL     1       9.833  -5.912  -9.024  1.00  0.00     0.058 A 
ATOM     11  C   UNL     1       9.767  -6.206  -7.654  1.00  0.00     0.116 A 
ENDROOT
BRANCH  11  12
ATOM     12  O   UNL     1      10.521  -5.478  -6.736  1.00  0.00    -0.508 OA
ATOM     13  H   UNL     1      10.756  -5.856  -5.826  1.00  0.00     0.293 HD
ENDBRANCH  11  12
TORSDOF 1
ENDMDL
MODEL 4
REMARK VINA RESULT:    -4.792     16.038     17.522
REMARK INTER + INTRA:          -4.932
REMARK INTER:                  -4.932
REMARK INTRA:                   0.000
REMARK UNBOUND:                 0.000
REMARK SMILES O=c1ccc2cc(O)ccc2o1
REMARK SMILES IDX 9 1 10 2 11 3 5 4 4 5 3 6 2 7 1 8 12 9 6 10 7 11 8 12
REMARK H PARENT 8 13
REMARK Flexibility Score: inf
ROOT
ATOM      1  C   UNL     1      11.643   2.747 -19.146  1.00  0.00     0.050 A 
ATOM      2  C   UNL     1      12.367   3.559 -18.267  1.00  0.00     0.052 A 
ATOM      3  C   UNL     1      12.417   4.942 -18.470  1.00  0.00     0.138 A 
ATOM      4  C   UNL     1      11.733   5.514 -19.565  1.00  0.00     0.021 A 
ATOM      5  C   UNL     1      11.801   6.900 -19.742  1.00  0.00     0.019 A 
ATOM      6  C   UNL     1      12.535   7.670 -18.840  1.00  0.00     0.094 A 
ATOM      7  C   UNL     1      13.187   7.033 -17.778  1.00  0.00     0.336 A 
ATOM      8  O   UNL     1      13.854   7.711 -16.953  1.00  0.00    -0.246 OA
ATOM      9  O   UNL     1      13.106   5.714 -17.633  1.00  0.00    -0.423 OA
ATOM     10  C   UNL     1      11.008   4.697 -20.444  1.00  0.00     0.058 A 
ATOM     11  C   UNL     1      10.964   3.311 -20.233  1.00  0.00     0.116 A 
ENDROOT
BRANCH  11  12
ATOM     12  O   UNL     1      10.249   2.485 -21.098  1.00  0.00    -0.508 OA
ATOM     13  H   UNL     1       9.321   2.151 -20.865  1.00  0.00     0.293 HD
ENDBRANCH  11  12
TORSDOF 1
ENDMDL
MODEL 5
REMARK VINA RESULT:    -4.771     23.452     24.169
REMARK INTER + INTRA:          -4.910
REMARK INTER:                  -4.910
REMARK INTRA:                   0.000
REMARK UNBOUND:                 0.000
REMARK SMILES O=c1ccc2cc(O)ccc2o1
REMARK SMILES IDX 9 1 10 2 11 3 5 4 4 5 3 6 2 7 1 8 12 9 6 10 7 11 8 12
REMARK H PARENT 8 13
REMARK Flexibility Score: inf
ROOT
ATOM      1  C   UNL     1      22.611   9.687 -18.718  1.00  0.00     0.050 A 
ATOM      2  C   UNL     1      22.162   8.684 -19.583  1.00  0.00     0.052 A 
ATOM      3  C   UNL     1      23.003   7.617 -19.915  1.00  0.00     0.138 A 
ATOM      4  C   UNL     1      24.307   7.558 -19.374  1.00  0.00     0.021 A 
ATOM      5  C   UNL     1      25.125   6.479 -19.725  1.00  0.00     0.019 A 
ATOM      6  C   UNL     1      24.635   5.501 -20.590  1.00  0.00     0.094 A 
ATOM      7  C   UNL     1      23.333   5.626 -21.087  1.00  0.00     0.336 A 
ATOM      8  O   UNL     1      22.872   4.754 -21.870  1.00  0.00    -0.246 OA
ATOM      9  O   UNL     1      22.575   6.662 -20.738  1.00  0.00    -0.423 OA
ATOM     10  C   UNL     1      24.753   8.566 -18.508  1.00  0.00     0.058 A 
ATOM     11  C   UNL     1      23.902   9.632 -18.180  1.00  0.00     0.116 A 
ENDROOT
BRANCH  11  12
ATOM     12  O   UNL     1      24.331  10.642 -17.321  1.00  0.00    -0.508 OA
ATOM     13  H   UNL     1      23.901  10.784 -16.414  1.00  0.00     0.293 HD
ENDBRANCH  11  12
TORSDOF 1
ENDMDL
MODEL 6
REMARK VINA RESULT:    -4.765      2.299      2.583
REMARK INTER + INTRA:          -4.904
REMARK INTER:                  -4.904
REMARK INTRA:                   0.000
REMARK UNBOUND:                 0.000
REMARK SMILES O=c1ccc2cc(O)ccc2o1
REMARK SMILES IDX 9 1 10 2 11 3 5 4 4 5 3 6 2 7 1 8 12 9 6 10 7 11 8 12
REMARK H PARENT 8 13
REMARK Flexibility Score: inf
ROOT
ATOM      1  C   UNL     1       7.170  -5.385  -7.528  1.00  0.00     0.050 A 
ATOM      2  C   UNL     1       7.542  -5.714  -8.835  1.00  0.00     0.052 A 
ATOM      3  C   UNL     1       8.856  -6.101  -9.115  1.00  0.00     0.138 A 
ATOM      4  C   UNL     1       9.807  -6.156  -8.071  1.00  0.00     0.021 A 
ATOM      5  C   UNL     1      11.114  -6.546  -8.381  1.00  0.00     0.019 A 
ATOM      6  C   UNL     1      11.438  -6.866  -9.699  1.00  0.00     0.094 A 
ATOM      7  C   UNL     1      10.444  -6.788 -10.680  1.00  0.00     0.336 A 
ATOM      8  O   UNL     1      10.717  -7.073 -11.876  1.00  0.00    -0.246 OA
ATOM      9  O   UNL     1       9.209  -6.415 -10.359  1.00  0.00    -0.423 OA
ATOM     10  C   UNL     1       9.431  -5.824  -6.762  1.00  0.00     0.058 A 
ATOM     11  C   UNL     1       8.110  -5.438  -6.491  1.00  0.00     0.116 A 
ENDROOT
BRANCH  11  12
ATOM     12  O   UNL     1       7.720  -5.105  -5.195  1.00  0.00    -0.508 OA
ATOM     13  H   UNL     1       8.209  -4.395  -4.662  1.00  0.00     0.293 HD
ENDBRANCH  11  12
TORSDOF 1
ENDMDL
MODEL 7
REMARK VINA RESULT:    -4.735     10.793     11.880
REMARK INTER + INTRA:          -4.873
REMARK INTER:                  -4.873
REMARK INTRA:                   0.000
REMARK UNBOUND:                 0.000
REMARK SMILES O=c1ccc2cc(O)ccc2o1
REMARK SMILES IDX 9 1 10 2 11 3 5 4 4 5 3 6 2 7 1 8 12 9 6 10 7 11 8 12
REMARK H PARENT 8 13
REMARK Flexibility Score: inf
ROOT
ATOM      1  C   UNL     1      12.669   2.299  -2.875  1.00  0.00     0.050 A 
ATOM      2  C   UNL     1      13.853   2.873  -3.349  1.00  0.00     0.052 A 
ATOM      3  C   UNL     1      13.882   3.487  -4.605  1.00  0.00     0.138 A 
ATOM      4  C   UNL     1      12.710   3.524  -5.393  1.00  0.00     0.021 A 
ATOM      5  C   UNL     1      12.768   4.145  -6.645  1.00  0.00     0.019 A 
ATOM      6  C   UNL     1      13.972   4.703  -7.076  1.00  0.00     0.094 A 
ATOM      7  C   UNL     1      15.092   4.628  -6.242  1.00  0.00     0.336 A 
ATOM      8  O   UNL     1      16.187   5.126  -6.613  1.00  0.00    -0.246 OA
ATOM      9  O   UNL     1      15.009   4.032  -5.055  1.00  0.00    -0.423 OA
ATOM     10  C   UNL     1      11.524   2.948  -4.915  1.00  0.00     0.058 A 
ATOM     11  C   UNL     1      11.505   2.335  -3.653  1.00  0.00     0.116 A 
ENDROOT
BRANCH  11  12
ATOM     12  O   UNL     1      10.336   1.756  -3.164  1.00  0.00    -0.508 OA
ATOM     13  H   UNL     1       9.436   2.212  -3.267  1.00  0.00     0.293 HD
ENDBRANCH  11  12
TORSDOF 1
ENDMDL
MODEL 8
REMARK VINA RESULT:    -4.704     23.295     24.192
REMARK INTER + INTRA:          -4.842
REMARK INTER:                  -4.842
REMARK INTRA:                   0.000
REMARK UNBOUND:                 0.000
REMARK SMILES O=c1ccc2cc(O)ccc2o1
REMARK SMILES IDX 9 1 10 2 11 3 5 4 4 5 3 6 2 7 1 8 12 9 6 10 7 11 8 12
REMARK H PARENT 8 13
REMARK Flexibility Score: inf
ROOT
ATOM      1  C   UNL     1      24.645   5.576 -20.581  1.00  0.00     0.050 A 
ATOM      2  C   UNL     1      25.125   6.591 -19.747  1.00  0.00     0.052 A 
ATOM      3  C   UNL     1      24.280   7.632 -19.352  1.00  0.00     0.138 A 
ATOM      4  C   UNL     1      22.940   7.656 -19.800  1.00  0.00     0.021 A 
ATOM      5  C   UNL     1      22.119   8.710 -19.389  1.00  0.00     0.019 A 
ATOM      6  C   UNL     1      22.641   9.700 -18.556  1.00  0.00     0.094 A 
ATOM      7  C   UNL     1      23.977   9.611 -18.153  1.00  0.00     0.336 A 
ATOM      8  O   UNL     1      24.467  10.495 -17.401  1.00  0.00    -0.246 OA
ATOM      9  O   UNL     1      24.738   8.598 -18.558  1.00  0.00    -0.423 OA
ATOM     10  C   UNL     1      22.463   6.636 -20.637  1.00  0.00     0.058 A 
ATOM     11  C   UNL     1      23.318   5.595 -21.027  1.00  0.00     0.116 A 
ENDROOT
BRANCH  11  12
ATOM     12  O   UNL     1      22.859   4.575 -21.859  1.00  0.00    -0.508 OA
ATOM     13  H   UNL     1      22.322   4.775 -22.694  1.00  0.00     0.293 HD
ENDBRANCH  11  12
TORSDOF 1
ENDMDL
MODEL 9
REMARK VINA RESULT:    -3.849     23.609     24.428
REMARK INTER + INTRA:          -3.961
REMARK INTER:                  -3.961
REMARK INTRA:                   0.000
REMARK UNBOUND:                 0.000
REMARK SMILES O=c1ccc2cc(O)ccc2o1
REMARK SMILES IDX 9 1 10 2 11 3 5 4 4 5 3 6 2 7 1 8 12 9 6 10 7 11 8 12
REMARK H PARENT 8 13
REMARK Flexibility Score: inf
ROOT
ATOM      1  C   UNL     1      22.953   6.443 -20.715  1.00  0.00     0.050 A 
ATOM      2  C   UNL     1      22.319   7.509 -20.070  1.00  0.00     0.052 A 
ATOM      3  C   UNL     1      23.047   8.343 -19.215  1.00  0.00     0.138 A 
ATOM      4  C   UNL     1      24.423   8.103 -19.006  1.00  0.00     0.021 A 
ATOM      5  C   UNL     1      25.125   8.954 -18.146  1.00  0.00     0.019 A 
ATOM      6  C   UNL     1      24.452  10.005 -17.524  1.00  0.00     0.094 A 
ATOM      7  C   UNL     1      23.088  10.182 -17.778  1.00  0.00     0.336 A 
ATOM      8  O   UNL     1      22.462  11.125 -17.227  1.00  0.00    -0.246 OA
ATOM      9  O   UNL     1      22.443   9.359 -18.601  1.00  0.00    -0.423 OA
ATOM     10  C   UNL     1      25.054   7.032 -19.656  1.00  0.00     0.058 A 
ATOM     11  C   UNL     1      24.317   6.201 -20.512  1.00  0.00     0.116 A 
ENDROOT
BRANCH  11  12
ATOM     12  O   UNL     1      24.929   5.132 -21.163  1.00  0.00    -0.508 OA
ATOM     13  H   UNL     1      24.691   4.172 -20.943  1.00  0.00     0.293 HD
ENDBRANCH  11  12
TORSDOF 1
ENDMDL
