MODEL 1
REMARK VINA RESULT:    -1.723      0.000      0.000
REMARK INTER + INTRA:          -2.777
REMARK INTER:                  -2.227
REMARK INTRA:                  -0.551
REMARK UNBOUND:                -0.551
REMARK SMILES C=CC(=O)CCCCC
REMARK SMILES IDX 6 1 7 2 8 3 9 4 5 5 3 6 4 7 2 8 1 9
REMARK H PARENT
REMARK Flexibility Score: inf
ROOT
ATOM      1  C   UNL     1      30.449  55.875  12.068  1.00  0.00     0.008 C 
ENDROOT
BRANCH   1   2
ATOM      2  C   UNL     1      31.583  55.878  13.107  1.00  0.00     0.000 C 
BRANCH   2   3
ATOM      3  C   UNL     1      31.843  57.275  13.691  1.00  0.00    -0.003 C 
ATOM      4  C   UNL     1      30.583  58.138  13.740  1.00  0.00     0.004 C 
ENDBRANCH   2   3
ENDBRANCH   1   2
BRANCH   1   5
ATOM      5  C   UNL     1      30.979  55.917  10.629  1.00  0.00     0.080 C 
BRANCH   5   6
ATOM      6  C   UNL     1      30.704  57.238   9.969  1.00  0.00     0.155 C 
ATOM      7  O   UNL     1      29.600  57.420   9.385  1.00  0.00    -0.295 OA
BRANCH   6   8
ATOM      8  C   UNL     1      31.707  58.318  10.031  1.00  0.00     0.039 C 
ATOM      9  C   UNL     1      31.370  59.601  10.146  1.00  0.00     0.012 C 
ENDBRANCH   6   8
ENDBRANCH   5   6
ENDBRANCH   1   5
TORSDOF 5
ENDMDL
MODEL 2
REMARK VINA RESULT:    -1.702      1.841      3.529
REMARK INTER + INTRA:          -2.750
REMARK INTER:                  -2.194
REMARK INTRA:                  -0.556
REMARK UNBOUND:                -0.551
REMARK SMILES C=CC(=O)CCCCC
REMARK SMILES IDX 6 1 7 2 8 3 9 4 5 5 3 6 4 7 2 8 1 9
REMARK H PARENT
REMARK Flexibility Score: inf
ROOT
ATOM      1  C   UNL     1      29.813  55.995  10.996  1.00  0.00     0.008 C 
ENDROOT
BRANCH   1   2
ATOM      2  C   UNL     1      30.132  56.891   9.787  1.00  0.00     0.000 C 
BRANCH   2   3
ATOM      3  C   UNL     1      31.576  57.413   9.806  1.00  0.00    -0.003 C 
ATOM      4  C   UNL     1      31.654  58.937   9.715  1.00  0.00     0.004 C 
ENDBRANCH   2   3
ENDBRANCH   1   2
BRANCH   1   5
ATOM      5  C   UNL     1      31.001  55.876  11.960  1.00  0.00     0.080 C 
BRANCH   5   6
ATOM      6  C   UNL     1      30.693  56.468  13.306  1.00  0.00     0.155 C 
ATOM      7  O   UNL     1      29.884  55.875  14.071  1.00  0.00    -0.295 OA
BRANCH   6   8
ATOM      8  C   UNL     1      31.356  57.715  13.734  1.00  0.00     0.039 C 
ATOM      9  C   UNL     1      30.919  58.919  13.370  1.00  0.00     0.012 C 
ENDBRANCH   6   8
ENDBRANCH   5   6
ENDBRANCH   1   5
TORSDOF 5
ENDMDL
MODEL 3
REMARK VINA RESULT:    -1.689      1.231      3.543
REMARK INTER + INTRA:          -2.733
REMARK INTER:                  -2.326
REMARK INTRA:                  -0.407
REMARK UNBOUND:                -0.551
REMARK SMILES C=CC(=O)CCCCC
REMARK SMILES IDX 6 1 7 2 8 3 9 4 5 5 3 6 4 7 2 8 1 9
REMARK H PARENT
REMARK Flexibility Score: inf
ROOT
ATOM      1  C   UNL     1      31.225  58.235   8.599  1.00  0.00     0.008 C 
ENDROOT
BRANCH   1   2
ATOM      2  C   UNL     1      32.120  59.250   9.330  1.00  0.00     0.000 C 
BRANCH   2   3
ATOM      3  C   UNL     1      31.354  60.054  10.392  1.00  0.00    -0.003 C 
ATOM      4  C   UNL     1      31.806  61.512  10.469  1.00  0.00     0.004 C 
ENDBRANCH   2   3
ENDBRANCH   1   2
BRANCH   1   5
ATOM      5  C   UNL     1      31.451  56.800   9.094  1.00  0.00     0.080 C 
BRANCH   5   6
ATOM      6  C   UNL     1      30.449  56.404  10.140  1.00  0.00     0.155 C 
ATOM      7  O   UNL     1      29.220  56.407   9.852  1.00  0.00    -0.295 OA
BRANCH   6   8
ATOM      8  C   UNL     1      30.905  55.987  11.480  1.00  0.00     0.039 C 
ATOM      9  C   UNL     1      31.230  56.862  12.429  1.00  0.00     0.012 C 
ENDBRANCH   6   8
ENDBRANCH   5   6
ENDBRANCH   1   5
TORSDOF 5
ENDMDL
MODEL 4
REMARK VINA RESULT:    -1.584      1.528      3.754
REMARK INTER + INTRA:          -2.598
REMARK INTER:                  -2.385
REMARK INTRA:                  -0.214
REMARK UNBOUND:                -0.551
REMARK SMILES C=CC(=O)CCCCC
REMARK SMILES IDX 6 1 7 2 8 3 9 4 5 5 3 6 4 7 2 8 1 9
REMARK H PARENT
REMARK Flexibility Score: inf
ROOT
ATOM      1  C   UNL     1      30.804  58.010  10.814  1.00  0.00     0.008 C 
ENDROOT
BRANCH   1   2
ATOM      2  C   UNL     1      31.730  58.511   9.693  1.00  0.00     0.000 C 
BRANCH   2   3
ATOM      3  C   UNL     1      31.853  60.042   9.670  1.00  0.00    -0.003 C 
ATOM      4  C   UNL     1      31.060  60.714  10.790  1.00  0.00     0.004 C 
ENDBRANCH   2   3
ENDBRANCH   1   2
BRANCH   1   5
ATOM      5  C   UNL     1      30.997  56.515  11.102  1.00  0.00     0.080 C 
BRANCH   5   6
ATOM      6  C   UNL     1      30.645  56.167  12.520  1.00  0.00     0.155 C 
ATOM      7  O   UNL     1      29.450  55.876  12.807  1.00  0.00    -0.295 OA
BRANCH   6   8
ATOM      8  C   UNL     1      31.694  56.137  13.556  1.00  0.00     0.039 C 
ATOM      9  C   UNL     1      32.036  57.216  14.259  1.00  0.00     0.012 C 
ENDBRANCH   6   8
ENDBRANCH   5   6
ENDBRANCH   1   5
TORSDOF 5
ENDMDL
MODEL 5
REMARK VINA RESULT:    -1.572      1.391      2.574
REMARK INTER + INTRA:          -2.582
REMARK INTER:                  -2.141
REMARK INTRA:                  -0.441
REMARK UNBOUND:                -0.551
REMARK SMILES C=CC(=O)CCCCC
REMARK SMILES IDX 6 1 7 2 8 3 9 4 5 5 3 6 4 7 2 8 1 9
REMARK H PARENT
REMARK Flexibility Score: inf
ROOT
ATOM      1  C   UNL     1      30.860  58.687  11.226  1.00  0.00     0.008 C 
ENDROOT
BRANCH   1   2
ATOM      2  C   UNL     1      30.760  58.006  12.602  1.00  0.00     0.000 C 
BRANCH   2   3
ATOM      3  C   UNL     1      31.372  56.597  12.607  1.00  0.00    -0.003 C 
ATOM      4  C   UNL     1      32.125  56.286  13.900  1.00  0.00     0.004 C 
ENDBRANCH   2   3
ENDBRANCH   1   2
BRANCH   1   5
ATOM      5  C   UNL     1      31.469  57.762  10.164  1.00  0.00     0.080 C 
BRANCH   5   6
ATOM      6  C   UNL     1      30.447  57.316   9.157  1.00  0.00     0.155 C 
ATOM      7  O   UNL     1      30.198  58.051   8.162  1.00  0.00    -0.295 OA
BRANCH   6   8
ATOM      8  C   UNL     1      29.768  56.017   9.319  1.00  0.00     0.039 C 
ATOM      9  C   UNL     1      28.655  55.877  10.037  1.00  0.00     0.012 C 
ENDBRANCH   6   8
ENDBRANCH   5   6
ENDBRANCH   1   5
TORSDOF 5
ENDMDL
MODEL 6
REMARK VINA RESULT:    -1.566      1.553      3.209
REMARK INTER + INTRA:          -2.574
REMARK INTER:                  -2.039
REMARK INTRA:                  -0.535
REMARK UNBOUND:                -0.551
REMARK SMILES C=CC(=O)CCCCC
REMARK SMILES IDX 6 1 7 2 8 3 9 4 5 5 3 6 4 7 2 8 1 9
REMARK H PARENT
REMARK Flexibility Score: inf
ROOT
ATOM      1  C   UNL     1      30.550  59.572  10.395  1.00  0.00     0.008 C 
ENDROOT
BRANCH   1   2
ATOM      2  C   UNL     1      31.113  60.546  11.443  1.00  0.00     0.000 C 
BRANCH   2   3
ATOM      3  C   UNL     1      30.379  60.452  12.790  1.00  0.00    -0.003 C 
ATOM      4  C   UNL     1      31.311  60.090  13.946  1.00  0.00     0.004 C 
ENDBRANCH   2   3
ENDBRANCH   1   2
BRANCH   1   5
ATOM      5  C   UNL     1      31.611  58.585   9.890  1.00  0.00     0.080 C 
BRANCH   5   6
ATOM      6  C   UNL     1      31.259  57.163  10.225  1.00  0.00     0.155 C 
ATOM      7  O   UNL     1      31.519  56.250   9.393  1.00  0.00    -0.295 OA
BRANCH   6   8
ATOM      8  C   UNL     1      30.644  56.841  11.526  1.00  0.00     0.039 C 
ATOM      9  C   UNL     1      31.366  56.635  12.626  1.00  0.00     0.012 C 
ENDBRANCH   6   8
ENDBRANCH   5   6
ENDBRANCH   1   5
TORSDOF 5
ENDMDL
MODEL 7
REMARK VINA RESULT:    -1.564      1.996      4.291
REMARK INTER + INTRA:          -2.571
REMARK INTER:                  -2.087
REMARK INTRA:                  -0.485
REMARK UNBOUND:                -0.551
REMARK SMILES C=CC(=O)CCCCC
REMARK SMILES IDX 6 1 7 2 8 3 9 4 5 5 3 6 4 7 2 8 1 9
REMARK H PARENT
REMARK Flexibility Score: inf
ROOT
ATOM      1  C   UNL     1      30.981  59.663  11.724  1.00  0.00     0.008 C 
ENDROOT
BRANCH   1   2
ATOM      2  C   UNL     1      30.595  59.679  10.235  1.00  0.00     0.000 C 
BRANCH   2   3
ATOM      3  C   UNL     1      31.794  59.411   9.313  1.00  0.00    -0.003 C 
ATOM      4  C   UNL     1      32.121  57.923   9.187  1.00  0.00     0.004 C 
ENDBRANCH   2   3
ENDBRANCH   1   2
BRANCH   1   5
ATOM      5  C   UNL     1      29.855  59.111  12.609  1.00  0.00     0.080 C 
BRANCH   5   6
ATOM      6  C   UNL     1      30.280  57.874  13.349  1.00  0.00     0.155 C 
ATOM      7  O   UNL     1      29.738  57.599  14.455  1.00  0.00    -0.295 OA
BRANCH   6   8
ATOM      8  C   UNL     1      31.299  56.979  12.769  1.00  0.00     0.039 C 
ATOM      9  C   UNL     1      30.981  55.876  12.094  1.00  0.00     0.012 C 
ENDBRANCH   6   8
ENDBRANCH   5   6
ENDBRANCH   1   5
TORSDOF 5
ENDMDL
MODEL 8
REMARK VINA RESULT:    -1.548      2.015      4.159
REMARK INTER + INTRA:          -2.551
REMARK INTER:                  -1.961
REMARK INTRA:                  -0.591
REMARK UNBOUND:                -0.551
REMARK SMILES C=CC(=O)CCCCC
REMARK SMILES IDX 6 1 7 2 8 3 9 4 5 5 3 6 4 7 2 8 1 9
REMARK H PARENT
REMARK Flexibility Score: inf
ROOT
ATOM      1  C   UNL     1      29.937  58.815  11.827  1.00  0.00     0.008 C 
ENDROOT
BRANCH   1   2
ATOM      2  C   UNL     1      31.048  58.636  10.778  1.00  0.00     0.000 C 
BRANCH   2   3
ATOM      3  C   UNL     1      31.154  57.189  10.273  1.00  0.00    -0.003 C 
ATOM      4  C   UNL     1      30.006  56.307  10.766  1.00  0.00     0.004 C 
ENDBRANCH   2   3
ENDBRANCH   1   2
BRANCH   1   5
ATOM      5  C   UNL     1      30.501  59.098  13.226  1.00  0.00     0.080 C 
BRANCH   5   6
ATOM      6  C   UNL     1      30.613  57.847  14.049  1.00  0.00     0.155 C 
ATOM      7  O   UNL     1      29.572  57.347  14.558  1.00  0.00    -0.295 OA
BRANCH   6   8
ATOM      8  C   UNL     1      31.924  57.196  14.230  1.00  0.00     0.039 C 
ATOM      9  C   UNL     1      32.125  55.906  13.971  1.00  0.00     0.012 C 
ENDBRANCH   6   8
ENDBRANCH   5   6
ENDBRANCH   1   5
TORSDOF 5
ENDMDL
MODEL 9
REMARK VINA RESULT:    -1.513      1.561      1.945
REMARK INTER + INTRA:          -2.505
REMARK INTER:                  -2.300
REMARK INTRA:                  -0.206
REMARK UNBOUND:                -0.551
REMARK SMILES C=CC(=O)CCCCC
REMARK SMILES IDX 6 1 7 2 8 3 9 4 5 5 3 6 4 7 2 8 1 9
REMARK H PARENT
REMARK Flexibility Score: inf
ROOT
ATOM      1  C   UNL     1      30.863  56.826  12.546  1.00  0.00     0.008 C 
ENDROOT
BRANCH   1   2
ATOM      2  C   UNL     1      31.888  55.876  13.189  1.00  0.00     0.000 C 
BRANCH   2   3
ATOM      3  C   UNL     1      32.125  56.184  14.675  1.00  0.00    -0.003 C 
ATOM      4  C   UNL     1      31.239  57.317  15.192  1.00  0.00     0.004 C 
ENDBRANCH   2   3
ENDBRANCH   1   2
BRANCH   1   5
ATOM      5  C   UNL     1      30.649  56.526  11.056  1.00  0.00     0.080 C 
BRANCH   5   6
ATOM      6  C   UNL     1      31.353  57.520  10.177  1.00  0.00     0.155 C 
ATOM      7  O   UNL     1      31.385  58.735  10.520  1.00  0.00    -0.295 OA
BRANCH   6   8
ATOM      8  C   UNL     1      32.023  57.071   8.943  1.00  0.00     0.039 C 
ATOM      9  C   UNL     1      31.736  55.912   8.354  1.00  0.00     0.012 C 
ENDBRANCH   6   8
ENDBRANCH   5   6
ENDBRANCH   1   5
TORSDOF 5
ENDMDL
