MODEL 1
REMARK VINA RESULT:    -3.421      0.000      0.000
REMARK INTER + INTRA:          -7.902
REMARK INTER:                  -5.921
REMARK INTRA:                  -1.981
REMARK UNBOUND:                -1.981
REMARK SMILES CCCCCCCCCCCCCCO
REMARK SMILES IDX 8 1 7 2 6 3 5 4 4 5 3 6 2 7 1 8 9 9 10 10 11 11 12 12 13 13
REMARK SMILES IDX 14 14 15 15
REMARK H PARENT 15 16
REMARK Flexibility Score: inf
ROOT
ATOM      1  C   UNL     1     137.128 138.645 129.967  1.00  0.00     0.000 C 
ENDROOT
BRANCH   1   2
ATOM      2  C   UNL     1     135.591 138.736 129.928  1.00  0.00    -0.000 C 
BRANCH   2   3
ATOM      3  C   UNL     1     134.962 138.097 128.669  1.00  0.00    -0.000 C 
BRANCH   3   4
ATOM      4  C   UNL     1     134.143 136.836 128.992  1.00  0.00    -0.000 C 
BRANCH   4   5
ATOM      5  C   UNL     1     134.898 135.541 128.625  1.00  0.00    -0.000 C 
BRANCH   5   6
ATOM      6  C   UNL     1     135.439 134.776 129.844  1.00  0.00    -0.000 C 
BRANCH   6   7
ATOM      7  C   UNL     1     134.868 135.292 131.173  1.00  0.00    -0.003 C 
ATOM      8  C   UNL     1     135.979 135.540 132.190  1.00  0.00     0.004 C 
ENDBRANCH   6   7
ENDBRANCH   5   6
ENDBRANCH   4   5
ENDBRANCH   3   4
ENDBRANCH   2   3
ENDBRANCH   1   2
BRANCH   1   9
ATOM      9  C   UNL     1     137.794 138.331 128.616  1.00  0.00     0.000 C 
BRANCH   9  10
ATOM     10  C   UNL     1     138.624 137.030 128.584  1.00  0.00     0.000 C 
BRANCH  10  11
ATOM     11  C   UNL     1     138.870 136.377 129.958  1.00  0.00     0.000 C 
BRANCH  11  12
ATOM     12  C   UNL     1     139.093 134.854 129.927  1.00  0.00     0.002 C 
BRANCH  12  13
ATOM     13  C   UNL     1     139.569 134.350 128.554  1.00  0.00     0.028 C 
BRANCH  13  14
ATOM     14  C   UNL     1     138.519 133.459 127.883  1.00  0.00     0.156 C 
BRANCH  14  15
ATOM     15  O   UNL     1     138.676 132.120 128.269  1.00  0.00    -0.396 OA
ATOM     16  H   UNL     1     139.140 132.130 129.146  1.00  0.00     0.210 HD
ENDBRANCH  14  15
ENDBRANCH  13  14
ENDBRANCH  12  13
ENDBRANCH  11  12
ENDBRANCH  10  11
ENDBRANCH   9  10
ENDBRANCH   1   9
TORSDOF 13
ENDMDL
MODEL 2
REMARK VINA RESULT:    -3.344      1.837      4.208
REMARK INTER + INTRA:          -7.770
REMARK INTER:                  -6.172
REMARK INTRA:                  -1.598
REMARK UNBOUND:                -1.981
REMARK SMILES CCCCCCCCCCCCCCO
REMARK SMILES IDX 8 1 7 2 6 3 5 4 4 5 3 6 2 7 1 8 9 9 10 10 11 11 12 12 13 13
REMARK SMILES IDX 14 14 15 15
REMARK H PARENT 15 16
REMARK Flexibility Score: inf
ROOT
ATOM      1  C   UNL     1     140.082 136.827 129.961  1.00  0.00     0.000 C 
ENDROOT
BRANCH   1   2
ATOM      2  C   UNL     1     140.288 137.589 128.639  1.00  0.00    -0.000 C 
BRANCH   2   3
ATOM      3  C   UNL     1     139.037 138.362 128.165  1.00  0.00    -0.000 C 
BRANCH   3   4
ATOM      4  C   UNL     1     138.986 139.798 128.716  1.00  0.00    -0.000 C 
BRANCH   4   5
ATOM      5  C   UNL     1     137.610 140.137 129.328  1.00  0.00    -0.000 C 
BRANCH   5   6
ATOM      6  C   UNL     1     137.042 139.023 130.223  1.00  0.00    -0.000 C 
BRANCH   6   7
ATOM      7  C   UNL     1     135.558 138.740 129.952  1.00  0.00    -0.003 C 
ATOM      8  C   UNL     1     135.309 138.482 128.469  1.00  0.00     0.004 C 
ENDBRANCH   6   7
ENDBRANCH   5   6
ENDBRANCH   4   5
ENDBRANCH   3   4
ENDBRANCH   2   3
ENDBRANCH   1   2
BRANCH   1   9
ATOM      9  C   UNL     1     140.396 135.321 129.898  1.00  0.00     0.000 C 
BRANCH   9  10
ATOM     10  C   UNL     1     139.830 134.588 128.665  1.00  0.00     0.000 C 
BRANCH  10  11
ATOM     11  C   UNL     1     138.435 133.961 128.859  1.00  0.00     0.000 C 
BRANCH  11  12
ATOM     12  C   UNL     1     137.252 134.919 128.630  1.00  0.00     0.002 C 
BRANCH  12  13
ATOM     13  C   UNL     1     136.463 135.209 129.917  1.00  0.00     0.028 C 
BRANCH  13  14
ATOM     14  C   UNL     1     135.086 134.538 129.901  1.00  0.00     0.156 C 
BRANCH  14  15
ATOM     15  O   UNL     1     134.375 134.881 128.742  1.00  0.00    -0.396 OA
ATOM     16  H   UNL     1     134.424 134.097 128.135  1.00  0.00     0.210 HD
ENDBRANCH  14  15
ENDBRANCH  13  14
ENDBRANCH  12  13
ENDBRANCH  11  12
ENDBRANCH  10  11
ENDBRANCH   9  10
ENDBRANCH   1   9
TORSDOF 13
ENDMDL
MODEL 3
REMARK VINA RESULT:    -3.317      2.335      4.676
REMARK INTER + INTRA:          -7.723
REMARK INTER:                  -6.072
REMARK INTRA:                  -1.651
REMARK UNBOUND:                -1.981
REMARK SMILES CCCCCCCCCCCCCCO
REMARK SMILES IDX 8 1 7 2 6 3 5 4 4 5 3 6 2 7 1 8 9 9 10 10 11 11 12 12 13 13
REMARK SMILES IDX 14 14 15 15
REMARK H PARENT 15 16
REMARK Flexibility Score: inf
ROOT
ATOM      1  C   UNL     1     136.664 138.787 131.086  1.00  0.00     0.000 C 
ENDROOT
BRANCH   1   2
ATOM      2  C   UNL     1     137.736 139.829 130.714  1.00  0.00    -0.000 C 
BRANCH   2   3
ATOM      3  C   UNL     1     137.687 140.272 129.235  1.00  0.00    -0.000 C 
BRANCH   3   4
ATOM      4  C   UNL     1     138.829 139.668 128.399  1.00  0.00    -0.000 C 
BRANCH   4   5
ATOM      5  C   UNL     1     140.209 139.891 129.052  1.00  0.00    -0.000 C 
BRANCH   5   6
ATOM      6  C   UNL     1     141.000 138.592 129.282  1.00  0.00    -0.000 C 
BRANCH   6   7
ATOM      7  C   UNL     1     140.135 137.333 129.129  1.00  0.00    -0.003 C 
ATOM      8  C   UNL     1     139.835 136.704 130.486  1.00  0.00     0.004 C 
ENDBRANCH   6   7
ENDBRANCH   5   6
ENDBRANCH   4   5
ENDBRANCH   3   4
ENDBRANCH   2   3
ENDBRANCH   1   2
BRANCH   1   9
ATOM      9  C   UNL     1     135.406 138.806 130.198  1.00  0.00     0.000 C 
BRANCH   9  10
ATOM     10  C   UNL     1     135.177 137.528 129.364  1.00  0.00     0.000 C 
BRANCH  10  11
ATOM     11  C   UNL     1     136.441 136.689 129.091  1.00  0.00     0.000 C 
BRANCH  11  12
ATOM     12  C   UNL     1     136.441 135.284 129.721  1.00  0.00     0.002 C 
BRANCH  12  13
ATOM     13  C   UNL     1     135.040 134.829 130.161  1.00  0.00     0.028 C 
BRANCH  13  14
ATOM     14  C   UNL     1     134.874 134.898 131.683  1.00  0.00     0.156 C 
BRANCH  14  15
ATOM     15  O   UNL     1     133.943 133.949 132.130  1.00  0.00    -0.396 OA
ATOM     16  H   UNL     1     134.391 133.427 132.846  1.00  0.00     0.210 HD
ENDBRANCH  14  15
ENDBRANCH  13  14
ENDBRANCH  12  13
ENDBRANCH  11  12
ENDBRANCH  10  11
ENDBRANCH   9  10
ENDBRANCH   1   9
TORSDOF 13
ENDMDL
MODEL 4
REMARK VINA RESULT:    -3.308      2.494      3.770
REMARK INTER + INTRA:          -7.706
REMARK INTER:                  -5.806
REMARK INTRA:                  -1.900
REMARK UNBOUND:                -1.981
REMARK SMILES CCCCCCCCCCCCCCO
REMARK SMILES IDX 8 1 7 2 6 3 5 4 4 5 3 6 2 7 1 8 9 9 10 10 11 11 12 12 13 13
REMARK SMILES IDX 14 14 15 15
REMARK H PARENT 15 16
REMARK Flexibility Score: inf
ROOT
ATOM      1  C   UNL     1     140.146 137.005 129.243  1.00  0.00     0.000 C 
ENDROOT
BRANCH   1   2
ATOM      2  C   UNL     1     139.512 136.072 128.194  1.00  0.00    -0.000 C 
BRANCH   2   3
ATOM      3  C   UNL     1     139.495 134.585 128.614  1.00  0.00    -0.000 C 
BRANCH   3   4
ATOM      4  C   UNL     1     138.124 134.139 129.153  1.00  0.00    -0.000 C 
BRANCH   4   5
ATOM      5  C   UNL     1     137.019 135.177 128.864  1.00  0.00    -0.000 C 
BRANCH   5   6
ATOM      6  C   UNL     1     135.691 134.879 129.578  1.00  0.00    -0.000 C 
BRANCH   6   7
ATOM      7  C   UNL     1     135.211 136.045 130.454  1.00  0.00    -0.003 C 
ATOM      8  C   UNL     1     135.430 135.748 131.935  1.00  0.00     0.004 C 
ENDBRANCH   6   7
ENDBRANCH   5   6
ENDBRANCH   4   5
ENDBRANCH   3   4
ENDBRANCH   2   3
ENDBRANCH   1   2
BRANCH   1   9
ATOM      9  C   UNL     1     139.181 138.030 129.866  1.00  0.00     0.000 C 
BRANCH   9  10
ATOM     10  C   UNL     1     138.557 137.604 131.211  1.00  0.00     0.000 C 
BRANCH  10  11
ATOM     11  C   UNL     1     139.492 136.811 132.145  1.00  0.00     0.000 C 
BRANCH  11  12
ATOM     12  C   UNL     1     139.113 135.332 132.346  1.00  0.00     0.002 C 
BRANCH  12  13
ATOM     13  C   UNL     1     140.328 134.392 132.285  1.00  0.00     0.028 C 
BRANCH  13  14
ATOM     14  C   UNL     1     140.488 133.591 133.581  1.00  0.00     0.156 C 
BRANCH  14  15
ATOM     15  O   UNL     1     141.779 133.050 133.680  1.00  0.00    -0.396 OA
ATOM     16  H   UNL     1     141.910 132.800 134.632  1.00  0.00     0.210 HD
ENDBRANCH  14  15
ENDBRANCH  13  14
ENDBRANCH  12  13
ENDBRANCH  11  12
ENDBRANCH  10  11
ENDBRANCH   9  10
ENDBRANCH   1   9
TORSDOF 13
ENDMDL
MODEL 5
REMARK VINA RESULT:    -3.297      2.982      5.022
REMARK INTER + INTRA:          -7.687
REMARK INTER:                  -5.876
REMARK INTRA:                  -1.811
REMARK UNBOUND:                -1.981
REMARK SMILES CCCCCCCCCCCCCCO
REMARK SMILES IDX 8 1 7 2 6 3 5 4 4 5 3 6 2 7 1 8 9 9 10 10 11 11 12 12 13 13
REMARK SMILES IDX 14 14 15 15
REMARK H PARENT 15 16
REMARK Flexibility Score: inf
ROOT
ATOM      1  C   UNL     1     140.968 138.770 129.295  1.00  0.00     0.000 C 
ENDROOT
BRANCH   1   2
ATOM      2  C   UNL     1     140.594 137.960 128.040  1.00  0.00    -0.000 C 
BRANCH   2   3
ATOM      3  C   UNL     1     139.668 136.757 128.329  1.00  0.00    -0.000 C 
BRANCH   3   4
ATOM      4  C   UNL     1     139.814 136.231 129.767  1.00  0.00    -0.000 C 
BRANCH   4   5
ATOM      5  C   UNL     1     138.475 135.716 130.337  1.00  0.00    -0.000 C 
BRANCH   5   6
ATOM      6  C   UNL     1     137.275 135.964 129.409  1.00  0.00    -0.000 C 
BRANCH   6   7
ATOM      7  C   UNL     1     136.109 135.000 129.671  1.00  0.00    -0.003 C 
ATOM      8  C   UNL     1     134.880 135.387 128.852  1.00  0.00     0.004 C 
ENDBRANCH   6   7
ENDBRANCH   5   6
ENDBRANCH   4   5
ENDBRANCH   3   4
ENDBRANCH   2   3
ENDBRANCH   1   2
BRANCH   1   9
ATOM      9  C   UNL     1     140.116 140.030 129.532  1.00  0.00     0.000 C 
BRANCH   9  10
ATOM     10  C   UNL     1     139.079 139.912 130.667  1.00  0.00     0.000 C 
BRANCH  10  11
ATOM     11  C   UNL     1     137.666 139.486 130.222  1.00  0.00     0.000 C 
BRANCH  11  12
ATOM     12  C   UNL     1     137.356 139.709 128.730  1.00  0.00     0.002 C 
BRANCH  12  13
ATOM     13  C   UNL     1     135.921 139.307 128.353  1.00  0.00     0.028 C 
BRANCH  13  14
ATOM     14  C   UNL     1     134.997 139.296 129.575  1.00  0.00     0.156 C 
BRANCH  14  15
ATOM     15  O   UNL     1     134.219 140.462 129.626  1.00  0.00    -0.396 OA
ATOM     16  H   UNL     1     134.846 141.216 129.780  1.00  0.00     0.210 HD
ENDBRANCH  14  15
ENDBRANCH  13  14
ENDBRANCH  12  13
ENDBRANCH  11  12
ENDBRANCH  10  11
ENDBRANCH   9  10
ENDBRANCH   1   9
TORSDOF 13
ENDMDL
MODEL 6
REMARK VINA RESULT:    -3.290      1.185      3.668
REMARK INTER + INTRA:          -7.676
REMARK INTER:                  -5.841
REMARK INTRA:                  -1.836
REMARK UNBOUND:                -1.981
REMARK SMILES CCCCCCCCCCCCCCO
REMARK SMILES IDX 8 1 7 2 6 3 5 4 4 5 3 6 2 7 1 8 9 9 10 10 11 11 12 12 13 13
REMARK SMILES IDX 14 14 15 15
REMARK H PARENT 15 16
REMARK Flexibility Score: inf
ROOT
ATOM      1  C   UNL     1     134.953 134.680 129.992  1.00  0.00     0.000 C 
ENDROOT
BRANCH   1   2
ATOM      2  C   UNL     1     134.892 135.538 128.714  1.00  0.00    -0.000 C 
BRANCH   2   3
ATOM      3  C   UNL     1     134.139 136.874 128.897  1.00  0.00    -0.000 C 
BRANCH   3   4
ATOM      4  C   UNL     1     135.060 138.098 128.744  1.00  0.00    -0.000 C 
BRANCH   4   5
ATOM      5  C   UNL     1     134.973 139.046 129.959  1.00  0.00    -0.000 C 
BRANCH   5   6
ATOM      6  C   UNL     1     136.220 139.926 130.144  1.00  0.00    -0.000 C 
BRANCH   6   7
ATOM      7  C   UNL     1     137.393 139.493 129.253  1.00  0.00    -0.003 C 
ATOM      8  C   UNL     1     138.730 139.721 129.953  1.00  0.00     0.004 C 
ENDBRANCH   6   7
ENDBRANCH   5   6
ENDBRANCH   4   5
ENDBRANCH   3   4
ENDBRANCH   2   3
ENDBRANCH   1   2
BRANCH   1   9
ATOM      9  C   UNL     1     134.878 135.473 131.309  1.00  0.00     0.000 C 
BRANCH   9  10
ATOM     10  C   UNL     1     136.207 135.576 132.085  1.00  0.00     0.000 C 
BRANCH  10  11
ATOM     11  C   UNL     1     137.264 136.503 131.454  1.00  0.00     0.000 C 
BRANCH  11  12
ATOM     12  C   UNL     1     138.546 135.800 130.972  1.00  0.00     0.002 C 
BRANCH  12  13
ATOM     13  C   UNL     1     138.541 135.523 129.460  1.00  0.00     0.028 C 
BRANCH  13  14
ATOM     14  C   UNL     1     139.940 135.171 128.945  1.00  0.00     0.156 C 
BRANCH  14  15
ATOM     15  O   UNL     1     139.956 133.892 128.368  1.00  0.00    -0.396 OA
ATOM     16  H   UNL     1     139.094 133.788 127.886  1.00  0.00     0.210 HD
ENDBRANCH  14  15
ENDBRANCH  13  14
ENDBRANCH  12  13
ENDBRANCH  11  12
ENDBRANCH  10  11
ENDBRANCH   9  10
ENDBRANCH   1   9
TORSDOF 13
ENDMDL
MODEL 7
REMARK VINA RESULT:    -3.289      2.704      4.540
REMARK INTER + INTRA:          -7.673
REMARK INTER:                  -6.022
REMARK INTRA:                  -1.651
REMARK UNBOUND:                -1.981
REMARK SMILES CCCCCCCCCCCCCCO
REMARK SMILES IDX 8 1 7 2 6 3 5 4 4 5 3 6 2 7 1 8 9 9 10 10 11 11 12 12 13 13
REMARK SMILES IDX 14 14 15 15
REMARK H PARENT 15 16
REMARK Flexibility Score: inf
ROOT
ATOM      1  C   UNL     1     134.646 138.041 129.395  1.00  0.00     0.000 C 
ENDROOT
BRANCH   1   2
ATOM      2  C   UNL     1     134.769 137.268 128.069  1.00  0.00    -0.000 C 
BRANCH   2   3
ATOM      3  C   UNL     1     135.668 136.014 128.161  1.00  0.00    -0.000 C 
BRANCH   3   4
ATOM      4  C   UNL     1     136.057 135.670 129.609  1.00  0.00    -0.000 C 
BRANCH   4   5
ATOM      5  C   UNL     1     137.479 135.078 129.704  1.00  0.00    -0.000 C 
BRANCH   5   6
ATOM      6  C   UNL     1     138.049 134.625 128.350  1.00  0.00    -0.000 C 
BRANCH   6   7
ATOM      7  C   UNL     1     139.583 134.564 128.340  1.00  0.00    -0.003 C 
ATOM      8  C   UNL     1     140.166 135.151 129.623  1.00  0.00     0.004 C 
ENDBRANCH   6   7
ENDBRANCH   5   6
ENDBRANCH   4   5
ENDBRANCH   3   4
ENDBRANCH   2   3
ENDBRANCH   1   2
BRANCH   1   9
ATOM      9  C   UNL     1     135.100 139.511 129.333  1.00  0.00     0.000 C 
BRANCH   9  10
ATOM     10  C   UNL     1     135.799 139.923 128.021  1.00  0.00     0.000 C 
BRANCH  10  11
ATOM     11  C   UNL     1     137.326 140.104 128.122  1.00  0.00     0.000 C 
BRANCH  11  12
ATOM     12  C   UNL     1     138.138 138.797 128.161  1.00  0.00     0.002 C 
BRANCH  12  13
ATOM     13  C   UNL     1     139.139 138.752 129.327  1.00  0.00     0.028 C 
BRANCH  13  14
ATOM     14  C   UNL     1     139.372 140.142 129.927  1.00  0.00     0.156 C 
BRANCH  14  15
ATOM     15  O   UNL     1     140.573 140.696 129.459  1.00  0.00    -0.396 OA
ATOM     16  H   UNL     1     140.366 141.128 128.589  1.00  0.00     0.210 HD
ENDBRANCH  14  15
ENDBRANCH  13  14
ENDBRANCH  12  13
ENDBRANCH  11  12
ENDBRANCH  10  11
ENDBRANCH   9  10
ENDBRANCH   1   9
TORSDOF 13
ENDMDL
MODEL 8
REMARK VINA RESULT:    -3.238      2.270      5.383
REMARK INTER + INTRA:          -7.586
REMARK INTER:                  -5.652
REMARK INTRA:                  -1.934
REMARK UNBOUND:                -1.981
REMARK SMILES CCCCCCCCCCCCCCO
REMARK SMILES IDX 8 1 7 2 6 3 5 4 4 5 3 6 2 7 1 8 9 9 10 10 11 11 12 12 13 13
REMARK SMILES IDX 14 14 15 15
REMARK H PARENT 15 16
REMARK Flexibility Score: inf
ROOT
ATOM      1  C   UNL     1     136.993 135.077 128.684  1.00  0.00     0.000 C 
ENDROOT
BRANCH   1   2
ATOM      2  C   UNL     1     138.319 134.354 128.984  1.00  0.00    -0.000 C 
BRANCH   2   3
ATOM      3  C   UNL     1     139.574 135.188 128.643  1.00  0.00    -0.000 C 
BRANCH   3   4
ATOM      4  C   UNL     1     140.072 136.023 129.837  1.00  0.00    -0.000 C 
BRANCH   4   5
ATOM      5  C   UNL     1     140.246 137.512 129.472  1.00  0.00    -0.000 C 
BRANCH   5   6
ATOM      6  C   UNL     1     139.424 137.947 128.248  1.00  0.00    -0.000 C 
BRANCH   6   7
ATOM      7  C   UNL     1     139.007 139.423 128.304  1.00  0.00    -0.003 C 
ATOM      8  C   UNL     1     139.214 140.001 129.701  1.00  0.00     0.004 C 
ENDBRANCH   6   7
ENDBRANCH   5   6
ENDBRANCH   4   5
ENDBRANCH   3   4
ENDBRANCH   2   3
ENDBRANCH   1   2
BRANCH   1   9
ATOM      9  C   UNL     1     135.945 135.001 129.809  1.00  0.00     0.000 C 
BRANCH   9  10
ATOM     10  C   UNL     1     136.173 135.978 130.981  1.00  0.00     0.000 C 
BRANCH  10  11
ATOM     11  C   UNL     1     136.571 137.410 130.571  1.00  0.00     0.000 C 
BRANCH  11  12
ATOM     12  C   UNL     1     135.397 138.394 130.414  1.00  0.00     0.002 C 
BRANCH  12  13
ATOM     13  C   UNL     1     135.488 139.231 129.128  1.00  0.00     0.028 C 
BRANCH  13  14
ATOM     14  C   UNL     1     135.386 138.356 127.875  1.00  0.00     0.156 C 
BRANCH  14  15
ATOM     15  O   UNL     1     134.239 137.550 127.918  1.00  0.00    -0.396 OA
ATOM     16  H   UNL     1     134.522 136.639 127.643  1.00  0.00     0.210 HD
ENDBRANCH  14  15
ENDBRANCH  13  14
ENDBRANCH  12  13
ENDBRANCH  11  12
ENDBRANCH  10  11
ENDBRANCH   9  10
ENDBRANCH   1   9
TORSDOF 13
ENDMDL
