MODEL 1
REMARK VINA RESULT:    -5.449      0.000      0.000
REMARK INTER + INTRA:          -6.538
REMARK INTER:                  -6.245
REMARK INTRA:                  -0.293
REMARK UNBOUND:                -0.293
REMARK SMILES O=C1C[C@H](c2ccc(O)cc2)Oc2cc(O)cc(O)c21
REMARK SMILES IDX 3 1 4 2 12 3 13 4 14 5 15 6 17 7 18 8 20 9 2 10 1 11 5 12
REMARK SMILES IDX 6 13 11 14 7 15 10 16 8 17 9 18 19 20 16 22
REMARK H PARENT 9 19 19 21 16 23
REMARK Flexibility Score: inf
ROOT
ATOM      1  C   UNL     1      45.446  15.295  -3.667  1.00  0.00     0.131 C 
ATOM      2  C   UNL     1      45.618  16.312  -4.805  1.00  0.00     0.211 C 
ATOM      3  O   UNL     1      45.092  17.587  -4.423  1.00  0.00    -0.484 OA
ATOM      4  C   UNL     1      43.912  17.726  -3.679  1.00  0.00     0.138 A 
ATOM      5  C   UNL     1      43.317  18.986  -3.585  1.00  0.00     0.093 A 
ATOM      6  C   UNL     1      42.134  19.155  -2.863  1.00  0.00     0.123 A 
ATOM      7  C   UNL     1      41.558  18.061  -2.208  1.00  0.00     0.093 A 
ATOM      8  C   UNL     1      42.160  16.797  -2.256  1.00  0.00     0.133 A 
ATOM      9  C   UNL     1      43.337  16.613  -3.029  1.00  0.00     0.102 A 
ATOM     10  C   UNL     1      44.018  15.307  -3.208  1.00  0.00     0.174 C 
ATOM     11  O   UNL     1      43.415  14.215  -3.039  1.00  0.00    -0.294 OA
ENDROOT
BRANCH   2  12
ATOM     12  C   UNL     1      47.072  16.445  -5.186  1.00  0.00    -0.007 A 
ATOM     13  C   UNL     1      47.450  17.280  -6.252  1.00  0.00     0.011 A 
ATOM     14  C   UNL     1      48.058  15.696  -4.519  1.00  0.00     0.011 A 
ATOM     15  C   UNL     1      48.794  17.382  -6.627  1.00  0.00     0.046 A 
ATOM     16  C   UNL     1      49.400  15.800  -4.897  1.00  0.00     0.046 A 
ATOM     17  C   UNL     1      49.771  16.646  -5.951  1.00  0.00     0.115 A 
BRANCH  17  18
ATOM     18  O   UNL     1      51.105  16.758  -6.336  1.00  0.00    -0.508 OA
ATOM     19  H   UNL     1      51.369  16.848  -7.310  1.00  0.00     0.293 HD
ENDBRANCH  17  18
ENDBRANCH   2  12
BRANCH   8  20
ATOM     20  O   UNL     1      41.576  15.779  -1.501  1.00  0.00    -0.507 OA
ATOM     21  H   UNL     1      41.780  15.610  -0.526  1.00  0.00     0.293 HD
ENDBRANCH   8  20
BRANCH   6  22
ATOM     22  O   UNL     1      41.543  20.415  -2.798  1.00  0.00    -0.508 OA
ATOM     23  H   UNL     1      41.200  20.794  -1.924  1.00  0.00     0.293 HD
ENDBRANCH   6  22
TORSDOF 4
ENDMDL
MODEL 2
REMARK VINA RESULT:    -5.251      2.460      6.621
REMARK INTER + INTRA:          -6.311
REMARK INTER:                  -5.996
REMARK INTRA:                  -0.315
REMARK UNBOUND:                -0.293
REMARK SMILES O=C1C[C@H](c2ccc(O)cc2)Oc2cc(O)cc(O)c21
REMARK SMILES IDX 3 1 4 2 12 3 13 4 14 5 15 6 17 7 18 8 20 9 2 10 1 11 5 12
REMARK SMILES IDX 6 13 11 14 7 15 10 16 8 17 9 18 19 20 16 22
REMARK H PARENT 9 19 19 21 16 23
REMARK Flexibility Score: inf
ROOT
ATOM      1  C   UNL     1      47.313  16.526  -4.878  1.00  0.00     0.131 C 
ATOM      2  C   UNL     1      45.875  15.996  -4.773  1.00  0.00     0.211 C 
ATOM      3  O   UNL     1      45.772  15.024  -3.728  1.00  0.00    -0.484 OA
ATOM      4  C   UNL     1      46.772  14.074  -3.478  1.00  0.00     0.138 A 
ATOM      5  C   UNL     1      46.485  12.996  -2.638  1.00  0.00     0.093 A 
ATOM      6  C   UNL     1      47.455  12.025  -2.381  1.00  0.00     0.123 A 
ATOM      7  C   UNL     1      48.729  12.150  -2.944  1.00  0.00     0.093 A 
ATOM      8  C   UNL     1      49.050  13.244  -3.757  1.00  0.00     0.133 A 
ATOM      9  C   UNL     1      48.052  14.207  -4.059  1.00  0.00     0.102 A 
ATOM     10  C   UNL     1      48.259  15.366  -4.962  1.00  0.00     0.174 C 
ATOM     11  O   UNL     1      49.171  15.375  -5.830  1.00  0.00    -0.294 OA
ENDROOT
BRANCH   2  12
ATOM     12  C   UNL     1      44.907  17.126  -4.527  1.00  0.00    -0.007 A 
ATOM     13  C   UNL     1      44.795  18.177  -5.453  1.00  0.00     0.011 A 
ATOM     14  C   UNL     1      44.145  17.171  -3.345  1.00  0.00     0.011 A 
ATOM     15  C   UNL     1      43.920  19.242  -5.212  1.00  0.00     0.046 A 
ATOM     16  C   UNL     1      43.271  18.237  -3.107  1.00  0.00     0.046 A 
ATOM     17  C   UNL     1      43.156  19.274  -4.042  1.00  0.00     0.115 A 
BRANCH  17  18
ATOM     18  O   UNL     1      42.288  20.340  -3.816  1.00  0.00    -0.508 OA
ATOM     19  H   UNL     1      42.513  21.074  -3.154  1.00  0.00     0.293 HD
ENDBRANCH  17  18
ENDBRANCH   2  12
BRANCH   8  20
ATOM     20  O   UNL     1      50.369  13.345  -4.205  1.00  0.00    -0.507 OA
ATOM     21  H   UNL     1      50.915  14.194  -4.166  1.00  0.00     0.293 HD
ENDBRANCH   8  20
BRANCH   6  22
ATOM     22  O   UNL     1      47.143  10.945  -1.557  1.00  0.00    -0.508 OA
ATOM     23  H   UNL     1      46.194  10.770  -1.249  1.00  0.00     0.293 HD
ENDBRANCH   6  22
TORSDOF 4
ENDMDL
MODEL 3
REMARK VINA RESULT:    -5.217      1.272      1.902
REMARK INTER + INTRA:          -6.273
REMARK INTER:                  -5.955
REMARK INTRA:                  -0.318
REMARK UNBOUND:                -0.293
REMARK SMILES O=C1C[C@H](c2ccc(O)cc2)Oc2cc(O)cc(O)c21
REMARK SMILES IDX 3 1 4 2 12 3 13 4 14 5 15 6 17 7 18 8 20 9 2 10 1 11 5 12
REMARK SMILES IDX 6 13 11 14 7 15 10 16 8 17 9 18 19 20 16 22
REMARK H PARENT 9 19 19 21 16 23
REMARK Flexibility Score: inf
ROOT
ATOM      1  C   UNL     1      44.728  16.383  -3.134  1.00  0.00     0.131 C 
ATOM      2  C   UNL     1      45.060  16.735  -4.591  1.00  0.00     0.211 C 
ATOM      3  O   UNL     1      44.716  18.095  -4.871  1.00  0.00    -0.484 OA
ATOM      4  C   UNL     1      43.558  18.702  -4.365  1.00  0.00     0.138 A 
ATOM      5  C   UNL     1      43.148  19.926  -4.898  1.00  0.00     0.093 A 
ATOM      6  C   UNL     1      41.991  20.548  -4.426  1.00  0.00     0.123 A 
ATOM      7  C   UNL     1      41.256  19.956  -3.393  1.00  0.00     0.093 A 
ATOM      8  C   UNL     1      41.671  18.749  -2.817  1.00  0.00     0.133 A 
ATOM      9  C   UNL     1      42.820  18.090  -3.328  1.00  0.00     0.102 A 
ATOM     10  C   UNL     1      43.311  16.777  -2.843  1.00  0.00     0.174 C 
ATOM     11  O   UNL     1      42.555  15.966  -2.245  1.00  0.00    -0.294 OA
ENDROOT
BRANCH   2  12
ATOM     12  C   UNL     1      46.523  16.501  -4.877  1.00  0.00    -0.007 A 
ATOM     13  C   UNL     1      47.226  15.496  -4.191  1.00  0.00     0.011 A 
ATOM     14  C   UNL     1      47.212  17.318  -5.791  1.00  0.00     0.011 A 
ATOM     15  C   UNL     1      48.589  15.297  -4.432  1.00  0.00     0.046 A 
ATOM     16  C   UNL     1      48.575  17.117  -6.029  1.00  0.00     0.046 A 
ATOM     17  C   UNL     1      49.267  16.104  -5.351  1.00  0.00     0.115 A 
BRANCH  17  18
ATOM     18  O   UNL     1      50.624  15.894  -5.581  1.00  0.00    -0.508 OA
ATOM     19  H   UNL     1      50.979  15.699  -6.510  1.00  0.00     0.293 HD
ENDBRANCH  17  18
ENDBRANCH   2  12
BRANCH   8  20
ATOM     20  O   UNL     1      40.937  18.270  -1.730  1.00  0.00    -0.507 OA
ATOM     21  H   UNL     1      40.104  18.715  -1.371  1.00  0.00     0.293 HD
ENDBRANCH   8  20
BRANCH   6  22
ATOM     22  O   UNL     1      41.585  21.758  -4.984  1.00  0.00    -0.508 OA
ATOM     23  H   UNL     1      40.608  21.961  -5.156  1.00  0.00     0.293 HD
ENDBRANCH   6  22
TORSDOF 4
ENDMDL
MODEL 4
REMARK VINA RESULT:    -5.203      2.063      7.086
REMARK INTER + INTRA:          -6.256
REMARK INTER:                  -5.971
REMARK INTRA:                  -0.285
REMARK UNBOUND:                -0.293
REMARK SMILES O=C1C[C@H](c2ccc(O)cc2)Oc2cc(O)cc(O)c21
REMARK SMILES IDX 3 1 4 2 12 3 13 4 14 5 15 6 17 7 18 8 20 9 2 10 1 11 5 12
REMARK SMILES IDX 6 13 11 14 7 15 10 16 8 17 9 18 19 20 16 22
REMARK H PARENT 9 19 19 21 16 23
REMARK Flexibility Score: inf
ROOT
ATOM      1  C   UNL     1      43.946  18.899  -4.648  1.00  0.00     0.131 C 
ATOM      2  C   UNL     1      43.024  17.986  -3.825  1.00  0.00     0.211 C 
ATOM      3  O   UNL     1      43.791  17.018  -3.102  1.00  0.00    -0.484 OA
ATOM      4  C   UNL     1      44.917  16.386  -3.647  1.00  0.00     0.138 A 
ATOM      5  C   UNL     1      45.442  15.265  -2.999  1.00  0.00     0.093 A 
ATOM      6  C   UNL     1      46.554  14.604  -3.524  1.00  0.00     0.123 A 
ATOM      7  C   UNL     1      47.162  15.085  -4.688  1.00  0.00     0.093 A 
ATOM      8  C   UNL     1      46.676  16.230  -5.332  1.00  0.00     0.133 A 
ATOM      9  C   UNL     1      45.517  16.876  -4.827  1.00  0.00     0.102 A 
ATOM     10  C   UNL     1      44.875  18.052  -5.465  1.00  0.00     0.174 C 
ATOM     11  O   UNL     1      45.047  18.322  -6.683  1.00  0.00    -0.294 OA
ENDROOT
BRANCH   2  12
ATOM     12  C   UNL     1      42.183  18.798  -2.872  1.00  0.00    -0.007 A 
ATOM     13  C   UNL     1      42.785  19.750  -2.032  1.00  0.00     0.011 A 
ATOM     14  C   UNL     1      40.798  18.574  -2.772  1.00  0.00     0.011 A 
ATOM     15  C   UNL     1      42.011  20.483  -1.125  1.00  0.00     0.046 A 
ATOM     16  C   UNL     1      40.027  19.308  -1.864  1.00  0.00     0.046 A 
ATOM     17  C   UNL     1      40.633  20.266  -1.040  1.00  0.00     0.115 A 
BRANCH  17  18
ATOM     18  O   UNL     1      39.875  21.003  -0.133  1.00  0.00    -0.508 OA
ATOM     19  H   UNL     1      38.908  20.770   0.061  1.00  0.00     0.293 HD
ENDBRANCH  17  18
ENDBRANCH   2  12
BRANCH   8  20
ATOM     20  O   UNL     1      47.393  16.700  -6.434  1.00  0.00    -0.507 OA
ATOM     21  H   UNL     1      48.352  17.015  -6.392  1.00  0.00     0.293 HD
ENDBRANCH   8  20
BRANCH   6  22
ATOM     22  O   UNL     1      47.050  13.475  -2.876  1.00  0.00    -0.508 OA
ATOM     23  H   UNL     1      48.043  13.345  -2.727  1.00  0.00     0.293 HD
ENDBRANCH   6  22
TORSDOF 4
ENDMDL
MODEL 5
REMARK VINA RESULT:    -5.185      1.768      3.130
REMARK INTER + INTRA:          -6.236
REMARK INTER:                  -5.924
REMARK INTRA:                  -0.312
REMARK UNBOUND:                -0.293
REMARK SMILES O=C1C[C@H](c2ccc(O)cc2)Oc2cc(O)cc(O)c21
REMARK SMILES IDX 3 1 4 2 12 3 13 4 14 5 15 6 17 7 18 8 20 9 2 10 1 11 5 12
REMARK SMILES IDX 6 13 11 14 7 15 10 16 8 17 9 18 19 20 16 22
REMARK H PARENT 9 19 19 21 16 23
REMARK Flexibility Score: inf
ROOT
ATOM      1  C   UNL     1      46.172  17.030  -5.852  1.00  0.00     0.131 C 
ATOM      2  C   UNL     1      46.775  16.706  -4.478  1.00  0.00     0.211 C 
ATOM      3  O   UNL     1      45.814  16.042  -3.651  1.00  0.00    -0.484 OA
ATOM      4  C   UNL     1      44.458  16.398  -3.633  1.00  0.00     0.138 A 
ATOM      5  C   UNL     1      43.643  15.903  -2.612  1.00  0.00     0.093 A 
ATOM      6  C   UNL     1      42.292  16.250  -2.558  1.00  0.00     0.123 A 
ATOM      7  C   UNL     1      41.747  17.073  -3.548  1.00  0.00     0.093 A 
ATOM      8  C   UNL     1      42.536  17.548  -4.603  1.00  0.00     0.133 A 
ATOM      9  C   UNL     1      43.922  17.236  -4.634  1.00  0.00     0.102 A 
ATOM     10  C   UNL     1      44.865  17.741  -5.661  1.00  0.00     0.174 C 
ATOM     11  O   UNL     1      44.622  18.777  -6.334  1.00  0.00    -0.294 OA
ENDROOT
BRANCH   2  12
ATOM     12  C   UNL     1      48.010  15.852  -4.625  1.00  0.00    -0.007 A 
ATOM     13  C   UNL     1      48.080  14.595  -3.999  1.00  0.00     0.011 A 
ATOM     14  C   UNL     1      49.124  16.323  -5.342  1.00  0.00     0.011 A 
ATOM     15  C   UNL     1      49.234  13.814  -4.108  1.00  0.00     0.046 A 
ATOM     16  C   UNL     1      50.278  15.539  -5.449  1.00  0.00     0.046 A 
ATOM     17  C   UNL     1      50.334  14.282  -4.834  1.00  0.00     0.115 A 
BRANCH  17  18
ATOM     18  O   UNL     1      51.478  13.492  -4.935  1.00  0.00    -0.508 OA
ATOM     19  H   UNL     1      52.389  13.901  -5.109  1.00  0.00     0.293 HD
ENDBRANCH  17  18
ENDBRANCH   2  12
BRANCH   8  20
ATOM     20  O   UNL     1      41.898  18.288  -5.601  1.00  0.00    -0.507 OA
ATOM     21  H   UNL     1      40.945  18.617  -5.538  1.00  0.00     0.293 HD
ENDBRANCH   8  20
BRANCH   6  22
ATOM     22  O   UNL     1      41.500  15.764  -1.521  1.00  0.00    -0.508 OA
ATOM     23  H   UNL     1      40.853  16.364  -1.023  1.00  0.00     0.293 HD
ENDBRANCH   6  22
TORSDOF 4
ENDMDL
MODEL 6
REMARK VINA RESULT:    -5.082      2.283      7.169
REMARK INTER + INTRA:          -6.118
REMARK INTER:                  -5.818
REMARK INTRA:                  -0.301
REMARK UNBOUND:                -0.293
REMARK SMILES O=C1C[C@H](c2ccc(O)cc2)Oc2cc(O)cc(O)c21
REMARK SMILES IDX 3 1 4 2 12 3 13 4 14 5 15 6 17 7 18 8 20 9 2 10 1 11 5 12
REMARK SMILES IDX 6 13 11 14 7 15 10 16 8 17 9 18 19 20 16 22
REMARK H PARENT 9 19 19 21 16 23
REMARK Flexibility Score: inf
ROOT
ATOM      1  C   UNL     1      46.249  16.873  -4.853  1.00  0.00     0.131 C 
ATOM      2  C   UNL     1      45.235  15.863  -4.296  1.00  0.00     0.211 C 
ATOM      3  O   UNL     1      45.882  14.931  -3.423  1.00  0.00    -0.484 OA
ATOM      4  C   UNL     1      47.156  14.407  -3.686  1.00  0.00     0.138 A 
ATOM      5  C   UNL     1      47.600  13.308  -2.948  1.00  0.00     0.093 A 
ATOM      6  C   UNL     1      48.857  12.754  -3.196  1.00  0.00     0.123 A 
ATOM      7  C   UNL     1      49.687  13.323  -4.168  1.00  0.00     0.093 A 
ATOM      8  C   UNL     1      49.278  14.449  -4.892  1.00  0.00     0.133 A 
ATOM      9  C   UNL     1      47.981  14.986  -4.676  1.00  0.00     0.102 A 
ATOM     10  C   UNL     1      47.416  16.130  -5.432  1.00  0.00     0.174 C 
ATOM     11  O   UNL     1      47.856  16.457  -6.566  1.00  0.00    -0.294 OA
ENDROOT
BRANCH   2  12
ATOM     12  C   UNL     1      44.123  16.571  -3.564  1.00  0.00    -0.007 A 
ATOM     13  C   UNL     1      43.177  15.835  -2.830  1.00  0.00     0.011 A 
ATOM     14  C   UNL     1      43.986  17.968  -3.651  1.00  0.00     0.011 A 
ATOM     15  C   UNL     1      42.127  16.487  -2.176  1.00  0.00     0.046 A 
ATOM     16  C   UNL     1      42.935  18.617  -2.995  1.00  0.00     0.046 A 
ATOM     17  C   UNL     1      42.004  17.877  -2.254  1.00  0.00     0.115 A 
BRANCH  17  18
ATOM     18  O   UNL     1      40.953  18.513  -1.596  1.00  0.00    -0.508 OA
ATOM     19  H   UNL     1      40.478  18.077  -0.813  1.00  0.00     0.293 HD
ENDBRANCH  17  18
ENDBRANCH   2  12
BRANCH   8  20
ATOM     20  O   UNL     1      50.198  15.014  -5.777  1.00  0.00    -0.507 OA
ATOM     21  H   UNL     1      50.998  14.522  -6.150  1.00  0.00     0.293 HD
ENDBRANCH   8  20
BRANCH   6  22
ATOM     22  O   UNL     1      49.275  11.644  -2.465  1.00  0.00    -0.508 OA
ATOM     23  H   UNL     1      49.951  10.989  -2.838  1.00  0.00     0.293 HD
ENDBRANCH   6  22
TORSDOF 4
ENDMDL
MODEL 7
REMARK VINA RESULT:    -4.999      2.376      3.738
REMARK INTER + INTRA:          -6.022
REMARK INTER:                  -5.713
REMARK INTRA:                  -0.309
REMARK UNBOUND:                -0.293
REMARK SMILES O=C1C[C@H](c2ccc(O)cc2)Oc2cc(O)cc(O)c21
REMARK SMILES IDX 3 1 4 2 12 3 13 4 14 5 15 6 17 7 18 8 20 9 2 10 1 11 5 12
REMARK SMILES IDX 6 13 11 14 7 15 10 16 8 17 9 18 19 20 16 22
REMARK H PARENT 9 19 19 21 16 23
REMARK Flexibility Score: inf
ROOT
ATOM      1  C   UNL     1      48.505  14.679  -4.014  1.00  0.00     0.131 C 
ATOM      2  C   UNL     1      48.698  14.882  -5.524  1.00  0.00     0.211 C 
ATOM      3  O   UNL     1      48.094  16.108  -5.947  1.00  0.00    -0.484 OA
ATOM      4  C   UNL     1      46.868  16.562  -5.441  1.00  0.00     0.138 A 
ATOM      5  C   UNL     1      46.213  17.609  -6.094  1.00  0.00     0.093 A 
ATOM      6  C   UNL     1      44.984  18.073  -5.623  1.00  0.00     0.123 A 
ATOM      7  C   UNL     1      44.420  17.506  -4.475  1.00  0.00     0.093 A 
ATOM      8  C   UNL     1      45.079  16.483  -3.783  1.00  0.00     0.133 A 
ATOM      9  C   UNL     1      46.306  15.975  -4.286  1.00  0.00     0.102 A 
ATOM     10  C   UNL     1      47.054  14.849  -3.676  1.00  0.00     0.174 C 
ATOM     11  O   UNL     1      46.491  14.006  -2.929  1.00  0.00    -0.294 OA
ENDROOT
BRANCH   2  12
ATOM     12  C   UNL     1      50.164  14.876  -5.880  1.00  0.00    -0.007 A 
ATOM     13  C   UNL     1      50.870  13.663  -5.952  1.00  0.00     0.011 A 
ATOM     14  C   UNL     1      50.853  16.083  -6.091  1.00  0.00     0.011 A 
ATOM     15  C   UNL     1      52.235  13.657  -6.253  1.00  0.00     0.046 A 
ATOM     16  C   UNL     1      52.219  16.074  -6.392  1.00  0.00     0.046 A 
ATOM     17  C   UNL     1      52.913  14.859  -6.475  1.00  0.00     0.115 A 
BRANCH  17  18
ATOM     18  O   UNL     1      54.273  14.838  -6.774  1.00  0.00    -0.508 OA
ATOM     19  H   UNL     1      54.721  14.006  -7.142  1.00  0.00     0.293 HD
ENDBRANCH  17  18
ENDBRANCH   2  12
BRANCH   8  20
ATOM     20  O   UNL     1      44.497  16.033  -2.595  1.00  0.00    -0.507 OA
ATOM     21  H   UNL     1      44.163  15.091  -2.451  1.00  0.00     0.293 HD
ENDBRANCH   8  20
BRANCH   6  22
ATOM     22  O   UNL     1      44.334  19.104  -6.299  1.00  0.00    -0.508 OA
ATOM     23  H   UNL     1      44.372  20.060  -5.968  1.00  0.00     0.293 HD
ENDBRANCH   6  22
TORSDOF 4
ENDMDL
MODEL 8
REMARK VINA RESULT:    -4.942      2.354      7.116
REMARK INTER + INTRA:          -5.958
REMARK INTER:                  -5.655
REMARK INTRA:                  -0.303
REMARK UNBOUND:                -0.293
REMARK SMILES O=C1C[C@H](c2ccc(O)cc2)Oc2cc(O)cc(O)c21
REMARK SMILES IDX 3 1 4 2 12 3 13 4 14 5 15 6 17 7 18 8 20 9 2 10 1 11 5 12
REMARK SMILES IDX 6 13 11 14 7 15 10 16 8 17 9 18 19 20 16 22
REMARK H PARENT 9 19 19 21 16 23
REMARK Flexibility Score: inf
ROOT
ATOM      1  C   UNL     1      46.790  14.249  -4.739  1.00  0.00     0.131 C 
ATOM      2  C   UNL     1      47.025  15.649  -4.153  1.00  0.00     0.211 C 
ATOM      3  O   UNL     1      48.124  16.290  -4.808  1.00  0.00    -0.484 OA
ATOM      4  C   UNL     1      49.287  15.602  -5.182  1.00  0.00     0.138 A 
ATOM      5  C   UNL     1      50.415  16.335  -5.558  1.00  0.00     0.093 A 
ATOM      6  C   UNL     1      51.592  15.680  -5.921  1.00  0.00     0.123 A 
ATOM      7  C   UNL     1      51.633  14.282  -5.937  1.00  0.00     0.093 A 
ATOM      8  C   UNL     1      50.502  13.527  -5.602  1.00  0.00     0.133 A 
ATOM      9  C   UNL     1      49.317  14.190  -5.186  1.00  0.00     0.102 A 
ATOM     10  C   UNL     1      48.085  13.493  -4.743  1.00  0.00     0.174 C 
ATOM     11  O   UNL     1      48.109  12.307  -4.320  1.00  0.00    -0.294 OA
ENDROOT
BRANCH   2  12
ATOM     12  C   UNL     1      45.782  16.496  -4.279  1.00  0.00    -0.007 A 
ATOM     13  C   UNL     1      45.594  17.313  -5.406  1.00  0.00     0.011 A 
ATOM     14  C   UNL     1      44.826  16.519  -3.248  1.00  0.00     0.011 A 
ATOM     15  C   UNL     1      44.458  18.122  -5.511  1.00  0.00     0.046 A 
ATOM     16  C   UNL     1      43.691  17.329  -3.356  1.00  0.00     0.046 A 
ATOM     17  C   UNL     1      43.503  18.131  -4.489  1.00  0.00     0.115 A 
BRANCH  17  18
ATOM     18  O   UNL     1      42.376  18.941  -4.608  1.00  0.00    -0.508 OA
ATOM     19  H   UNL     1      41.446  18.584  -4.419  1.00  0.00     0.293 HD
ENDBRANCH  17  18
ENDBRANCH   2  12
BRANCH   8  20
ATOM     20  O   UNL     1      50.594  12.140  -5.731  1.00  0.00    -0.507 OA
ATOM     21  H   UNL     1      51.176  11.555  -5.149  1.00  0.00     0.293 HD
ENDBRANCH   8  20
BRANCH   6  22
ATOM     22  O   UNL     1      52.714  16.428  -6.272  1.00  0.00    -0.508 OA
ATOM     23  H   UNL     1      52.681  17.439  -6.323  1.00  0.00     0.293 HD
ENDBRANCH   6  22
TORSDOF 4
ENDMDL
MODEL 9
REMARK VINA RESULT:    -4.848      2.112      6.770
REMARK INTER + INTRA:          -5.850
REMARK INTER:                  -5.542
REMARK INTRA:                  -0.308
REMARK UNBOUND:                -0.293
REMARK SMILES O=C1C[C@H](c2ccc(O)cc2)Oc2cc(O)cc(O)c21
REMARK SMILES IDX 3 1 4 2 12 3 13 4 14 5 15 6 17 7 18 8 20 9 2 10 1 11 5 12
REMARK SMILES IDX 6 13 11 14 7 15 10 16 8 17 9 18 19 20 16 22
REMARK H PARENT 9 19 19 21 16 23
REMARK Flexibility Score: inf
ROOT
ATOM      1  C   UNL     1      45.585  14.121  -3.009  1.00  0.00     0.131 C 
ATOM      2  C   UNL     1      45.574  15.656  -3.072  1.00  0.00     0.211 C 
ATOM      3  O   UNL     1      46.461  16.123  -4.093  1.00  0.00    -0.484 OA
ATOM      4  C   UNL     1      47.707  15.529  -4.342  1.00  0.00     0.138 A 
ATOM      5  C   UNL     1      48.626  16.200  -5.152  1.00  0.00     0.093 A 
ATOM      6  C   UNL     1      49.880  15.643  -5.406  1.00  0.00     0.123 A 
ATOM      7  C   UNL     1      50.206  14.392  -4.872  1.00  0.00     0.093 A 
ATOM      8  C   UNL     1      49.284  13.684  -4.090  1.00  0.00     0.133 A 
ATOM      9  C   UNL     1      48.026  14.269  -3.790  1.00  0.00     0.102 A 
ATOM     10  C   UNL     1      47.003  13.643  -2.917  1.00  0.00     0.174 C 
ATOM     11  O   UNL     1      47.305  12.763  -2.068  1.00  0.00    -0.294 OA
ENDROOT
BRANCH   2  12
ATOM     12  C   UNL     1      44.178  16.170  -3.325  1.00  0.00    -0.007 A 
ATOM     13  C   UNL     1      43.982  17.465  -3.834  1.00  0.00     0.011 A 
ATOM     14  C   UNL     1      43.058  15.382  -3.005  1.00  0.00     0.011 A 
ATOM     15  C   UNL     1      42.689  17.955  -4.041  1.00  0.00     0.046 A 
ATOM     16  C   UNL     1      41.765  15.875  -3.213  1.00  0.00     0.046 A 
ATOM     17  C   UNL     1      41.578  17.163  -3.733  1.00  0.00     0.115 A 
BRANCH  17  18
ATOM     18  O   UNL     1      40.296  17.664  -3.945  1.00  0.00    -0.508 OA
ATOM     19  H   UNL     1      40.081  18.644  -3.804  1.00  0.00     0.293 HD
ENDBRANCH  17  18
ENDBRANCH   2  12
BRANCH   8  20
ATOM     20  O   UNL     1      49.649  12.402  -3.671  1.00  0.00    -0.507 OA
ATOM     21  H   UNL     1      49.222  11.553  -4.012  1.00  0.00     0.293 HD
ENDBRANCH   8  20
BRANCH   6  22
ATOM     22  O   UNL     1      50.792  16.337  -6.198  1.00  0.00    -0.508 OA
ATOM     23  H   UNL     1      50.550  16.654  -7.129  1.00  0.00     0.293 HD
ENDBRANCH   6  22
TORSDOF 4
ENDMDL
