MODEL 1
REMARK VINA RESULT:    -5.803      0.000      0.000
REMARK INTER + INTRA:          -8.471
REMARK INTER:                  -8.178
REMARK INTRA:                  -0.293
REMARK UNBOUND:                -0.293
REMARK SMILES CCCCCCCCC(=O)[O-]
REMARK SMILES IDX 6 1 7 2 8 3 9 4 10 5 11 6 5 7 4 8 3 9 2 10 1 11
REMARK H PARENT
REMARK Flexibility Score: inf
ROOT
ATOM      1  C   UNL     1     -22.039 -22.033  31.361  1.00  0.00     0.000 C 
ENDROOT
BRANCH   1   2
ATOM      2  C   UNL     1     -21.994 -20.833  30.398  1.00  0.00     0.006 C 
BRANCH   2   3
ATOM      3  C   UNL     1     -21.213 -19.642  30.966  1.00  0.00     0.053 C 
BRANCH   3   4
ATOM      4  C   UNL     1     -20.381 -19.005  29.899  1.00  0.00     0.041 C 
ATOM      5  O   UNL     1     -19.198 -18.648  30.146  1.00  0.00    -0.550 OA
ATOM      6  O   UNL     1     -20.891 -18.853  28.616  1.00  0.00    -0.550 OA
ENDBRANCH   3   4
ENDBRANCH   2   3
ENDBRANCH   1   2
BRANCH   1   7
ATOM      7  C   UNL     1     -22.373 -23.387  30.702  1.00  0.00     0.000 C 
BRANCH   7   8
ATOM      8  C   UNL     1     -22.123 -23.455  29.186  1.00  0.00    -0.000 C 
BRANCH   8   9
ATOM      9  C   UNL     1     -22.881 -24.603  28.505  1.00  0.00    -0.000 C 
BRANCH   9  10
ATOM     10  C   UNL     1     -23.647 -25.442  29.535  1.00  0.00    -0.003 C 
ATOM     11  C   UNL     1     -24.235 -26.697  28.898  1.00  0.00     0.004 C 
ENDBRANCH   9  10
ENDBRANCH   8   9
ENDBRANCH   7   8
ENDBRANCH   1   7
TORSDOF 7
ENDMDL
MODEL 2
REMARK VINA RESULT:    -5.792      3.948      6.525
REMARK INTER + INTRA:          -8.455
REMARK INTER:                  -8.256
REMARK INTRA:                  -0.199
REMARK UNBOUND:                -0.293
REMARK SMILES CCCCCCCCC(=O)[O-]
REMARK SMILES IDX 6 1 7 2 8 3 9 4 10 5 11 6 5 7 4 8 3 9 2 10 1 11
REMARK H PARENT
REMARK Flexibility Score: inf
ROOT
ATOM      1  C   UNL     1     -22.047 -23.276  30.440  1.00  0.00     0.000 C 
ENDROOT
BRANCH   1   2
ATOM      2  C   UNL     1     -23.034 -24.367  30.892  1.00  0.00     0.006 C 
BRANCH   2   3
ATOM      3  C   UNL     1     -23.464 -25.293  29.747  1.00  0.00     0.053 C 
BRANCH   3   4
ATOM      4  C   UNL     1     -24.846 -25.813  29.987  1.00  0.00     0.041 C 
ATOM      5  O   UNL     1     -25.719 -25.729  29.083  1.00  0.00    -0.550 OA
ATOM      6  O   UNL     1     -25.157 -26.436  31.188  1.00  0.00    -0.550 OA
ENDBRANCH   3   4
ENDBRANCH   2   3
ENDBRANCH   1   2
BRANCH   1   7
ATOM      7  C   UNL     1     -22.042 -21.999  31.307  1.00  0.00     0.000 C 
BRANCH   7   8
ATOM      8  C   UNL     1     -21.953 -20.679  30.523  1.00  0.00    -0.000 C 
BRANCH   8   9
ATOM      9  C   UNL     1     -20.920 -19.705  31.108  1.00  0.00    -0.000 C 
BRANCH   9  10
ATOM     10  C   UNL     1     -20.471 -18.684  30.055  1.00  0.00    -0.003 C 
ATOM     11  C   UNL     1     -20.904 -19.109  28.655  1.00  0.00     0.004 C 
ENDBRANCH   9  10
ENDBRANCH   8   9
ENDBRANCH   7   8
ENDBRANCH   1   7
TORSDOF 7
ENDMDL
MODEL 3
REMARK VINA RESULT:    -5.761      3.442      6.156
REMARK INTER + INTRA:          -8.412
REMARK INTER:                  -8.114
REMARK INTRA:                  -0.298
REMARK UNBOUND:                -0.293
REMARK SMILES CCCCCCCCC(=O)[O-]
REMARK SMILES IDX 6 1 7 2 8 3 9 4 10 5 11 6 5 7 4 8 3 9 2 10 1 11
REMARK H PARENT
REMARK Flexibility Score: inf
ROOT
ATOM      1  C   UNL     1     -22.304 -22.245  31.318  1.00  0.00     0.000 C 
ENDROOT
BRANCH   1   2
ATOM      2  C   UNL     1     -22.354 -23.444  30.355  1.00  0.00     0.006 C 
BRANCH   2   3
ATOM      3  C   UNL     1     -23.114 -24.643  30.934  1.00  0.00     0.053 C 
BRANCH   3   4
ATOM      4  C   UNL     1     -23.938 -25.302  29.873  1.00  0.00     0.041 C 
ATOM      5  O   UNL     1     -23.464 -25.473  28.719  1.00  0.00    -0.550 OA
ATOM      6  O   UNL     1     -25.209 -25.774  30.172  1.00  0.00    -0.550 OA
ENDBRANCH   3   4
ENDBRANCH   2   3
ENDBRANCH   1   2
BRANCH   1   7
ATOM      7  C   UNL     1     -22.004 -20.885  30.654  1.00  0.00     0.000 C 
BRANCH   7   8
ATOM      8  C   UNL     1     -22.060 -20.883  29.117  1.00  0.00    -0.000 C 
BRANCH   8   9
ATOM      9  C   UNL     1     -21.341 -19.676  28.494  1.00  0.00    -0.000 C 
BRANCH   9  10
ATOM     10  C   UNL     1     -20.586 -18.876  29.562  1.00  0.00    -0.003 C 
ATOM     11  C   UNL     1     -20.229 -17.482  29.056  1.00  0.00     0.004 C 
ENDBRANCH   9  10
ENDBRANCH   8   9
ENDBRANCH   7   8
ENDBRANCH   1   7
TORSDOF 7
ENDMDL
MODEL 4
REMARK VINA RESULT:    -5.720      1.438      2.667
REMARK INTER + INTRA:          -8.354
REMARK INTER:                  -8.078
REMARK INTRA:                  -0.276
REMARK UNBOUND:                -0.293
REMARK SMILES CCCCCCCCC(=O)[O-]
REMARK SMILES IDX 6 1 7 2 8 3 9 4 10 5 11 6 5 7 4 8 3 9 2 10 1 11
REMARK H PARENT
REMARK Flexibility Score: inf
ROOT
ATOM      1  C   UNL     1     -21.197 -19.669  30.466  1.00  0.00     0.000 C 
ENDROOT
BRANCH   1   2
ATOM      2  C   UNL     1     -20.580 -19.152  29.154  1.00  0.00     0.006 C 
BRANCH   2   3
ATOM      3  C   UNL     1     -20.505 -17.622  29.093  1.00  0.00     0.053 C 
BRANCH   3   4
ATOM      4  C   UNL     1     -19.104 -17.157  29.334  1.00  0.00     0.041 C 
ATOM      5  O   UNL     1     -18.304 -17.032  28.369  1.00  0.00    -0.550 OA
ATOM      6  O   UNL     1     -18.695 -16.811  30.615  1.00  0.00    -0.550 OA
ENDBRANCH   3   4
ENDBRANCH   2   3
ENDBRANCH   1   2
BRANCH   1   7
ATOM      7  C   UNL     1     -22.155 -20.869  30.309  1.00  0.00     0.000 C 
BRANCH   7   8
ATOM      8  C   UNL     1     -21.909 -22.032  31.284  1.00  0.00    -0.000 C 
BRANCH   8   9
ATOM      9  C   UNL     1     -22.397 -23.383  30.739  1.00  0.00    -0.000 C 
BRANCH   9  10
ATOM     10  C   UNL     1     -22.200 -23.465  29.221  1.00  0.00    -0.003 C 
ATOM     11  C   UNL     1     -23.006 -24.613  28.621  1.00  0.00     0.004 C 
ENDBRANCH   9  10
ENDBRANCH   8   9
ENDBRANCH   7   8
ENDBRANCH   1   7
TORSDOF 7
ENDMDL
MODEL 5
REMARK VINA RESULT:    -5.701      0.974      1.723
REMARK INTER + INTRA:          -8.327
REMARK INTER:                  -7.992
REMARK INTRA:                  -0.335
REMARK UNBOUND:                -0.293
REMARK SMILES CCCCCCCCC(=O)[O-]
REMARK SMILES IDX 6 1 7 2 8 3 9 4 10 5 11 6 5 7 4 8 3 9 2 10 1 11
REMARK H PARENT
REMARK Flexibility Score: inf
ROOT
ATOM      1  C   UNL     1     -22.375 -20.869  29.987  1.00  0.00     0.000 C 
ENDROOT
BRANCH   1   2
ATOM      2  C   UNL     1     -21.263 -19.843  29.703  1.00  0.00     0.006 C 
BRANCH   2   3
ATOM      3  C   UNL     1     -20.712 -19.192  30.978  1.00  0.00     0.053 C 
BRANCH   3   4
ATOM      4  C   UNL     1     -19.479 -18.403  30.672  1.00  0.00     0.041 C 
ATOM      5  O   UNL     1     -18.916 -18.518  29.551  1.00  0.00    -0.550 OA
ATOM      6  O   UNL     1     -18.980 -17.502  31.603  1.00  0.00    -0.550 OA
ENDBRANCH   3   4
ENDBRANCH   2   3
ENDBRANCH   1   2
BRANCH   1   7
ATOM      7  C   UNL     1     -22.013 -21.956  31.021  1.00  0.00     0.000 C 
BRANCH   7   8
ATOM      8  C   UNL     1     -22.273 -23.402  30.565  1.00  0.00    -0.000 C 
BRANCH   8   9
ATOM      9  C   UNL     1     -22.269 -23.557  29.037  1.00  0.00    -0.000 C 
BRANCH   9  10
ATOM     10  C   UNL     1     -23.068 -24.794  28.609  1.00  0.00    -0.003 C 
ATOM     11  C   UNL     1     -23.797 -25.418  29.795  1.00  0.00     0.004 C 
ENDBRANCH   9  10
ENDBRANCH   8   9
ENDBRANCH   7   8
ENDBRANCH   1   7
TORSDOF 7
ENDMDL
MODEL 6
REMARK VINA RESULT:    -5.646      4.345      6.841
REMARK INTER + INTRA:          -8.250
REMARK INTER:                  -7.929
REMARK INTRA:                  -0.321
REMARK UNBOUND:                -0.293
REMARK SMILES CCCCCCCCC(=O)[O-]
REMARK SMILES IDX 6 1 7 2 8 3 9 4 10 5 11 6 5 7 4 8 3 9 2 10 1 11
REMARK H PARENT
REMARK Flexibility Score: inf
ROOT
ATOM      1  C   UNL     1     -23.135 -24.750  28.469  1.00  0.00     0.000 C 
ENDROOT
BRANCH   1   2
ATOM      2  C   UNL     1     -23.452 -26.109  29.117  1.00  0.00     0.006 C 
BRANCH   2   3
ATOM      3  C   UNL     1     -24.957 -26.395  29.196  1.00  0.00     0.053 C 
BRANCH   3   4
ATOM      4  C   UNL     1     -25.297 -27.048  30.499  1.00  0.00     0.041 C 
ATOM      5  O   UNL     1     -24.936 -26.521  31.584  1.00  0.00    -0.550 OA
ATOM      6  O   UNL     1     -26.057 -28.210  30.517  1.00  0.00    -0.550 OA
ENDBRANCH   3   4
ENDBRANCH   2   3
ENDBRANCH   1   2
BRANCH   1   7
ATOM      7  C   UNL     1     -22.204 -23.835  29.292  1.00  0.00     0.000 C 
BRANCH   7   8
ATOM      8  C   UNL     1     -22.679 -23.540  30.725  1.00  0.00    -0.000 C 
BRANCH   8   9
ATOM      9  C   UNL     1     -21.992 -22.313  31.342  1.00  0.00    -0.000 C 
BRANCH   9  10
ATOM     10  C   UNL     1     -22.249 -21.059  30.500  1.00  0.00    -0.003 C 
ATOM     11  C   UNL     1     -21.283 -19.937  30.871  1.00  0.00     0.004 C 
ENDBRANCH   9  10
ENDBRANCH   8   9
ENDBRANCH   7   8
ENDBRANCH   1   7
TORSDOF 7
ENDMDL
MODEL 7
REMARK VINA RESULT:    -5.549      1.226      1.933
REMARK INTER + INTRA:          -8.113
REMARK INTER:                  -7.839
REMARK INTRA:                  -0.274
REMARK UNBOUND:                -0.293
REMARK SMILES CCCCCCCCC(=O)[O-]
REMARK SMILES IDX 6 1 7 2 8 3 9 4 10 5 11 6 5 7 4 8 3 9 2 10 1 11
REMARK H PARENT
REMARK Flexibility Score: inf
ROOT
ATOM      1  C   UNL     1     -22.197 -23.357  30.729  1.00  0.00     0.000 C 
ENDROOT
BRANCH   1   2
ATOM      2  C   UNL     1     -21.735 -21.970  31.211  1.00  0.00     0.006 C 
BRANCH   2   3
ATOM      3  C   UNL     1     -22.194 -20.835  30.288  1.00  0.00     0.053 C 
BRANCH   3   4
ATOM      4  C   UNL     1     -21.209 -19.710  30.314  1.00  0.00     0.041 C 
ATOM      5  O   UNL     1     -20.826 -19.229  31.413  1.00  0.00    -0.550 OA
ATOM      6  O   UNL     1     -20.673 -19.225  29.128  1.00  0.00    -0.550 OA
ENDBRANCH   3   4
ENDBRANCH   2   3
ENDBRANCH   1   2
BRANCH   1   7
ATOM      7  C   UNL     1     -23.475 -23.893  31.409  1.00  0.00     0.000 C 
BRANCH   7   8
ATOM      8  C   UNL     1     -23.708 -25.406  31.258  1.00  0.00    -0.000 C 
BRANCH   8   9
ATOM      9  C   UNL     1     -25.148 -25.752  30.851  1.00  0.00    -0.000 C 
BRANCH   9  10
ATOM     10  C   UNL     1     -25.241 -26.028  29.346  1.00  0.00    -0.003 C 
ATOM     11  C   UNL     1     -23.896 -26.476  28.783  1.00  0.00     0.004 C 
ENDBRANCH   9  10
ENDBRANCH   8   9
ENDBRANCH   7   8
ENDBRANCH   1   7
TORSDOF 7
ENDMDL
MODEL 8
REMARK VINA RESULT:    -5.460      4.185      6.402
REMARK INTER + INTRA:          -7.987
REMARK INTER:                  -7.523
REMARK INTRA:                  -0.464
REMARK UNBOUND:                -0.293
REMARK SMILES CCCCCCCCC(=O)[O-]
REMARK SMILES IDX 6 1 7 2 8 3 9 4 10 5 11 6 5 7 4 8 3 9 2 10 1 11
REMARK H PARENT
REMARK Flexibility Score: inf
ROOT
ATOM      1  C   UNL     1     -23.585 -24.905  31.142  1.00  0.00     0.000 C 
ENDROOT
BRANCH   1   2
ATOM      2  C   UNL     1     -23.477 -25.107  29.620  1.00  0.00     0.006 C 
BRANCH   2   3
ATOM      3  C   UNL     1     -23.807 -26.539  29.183  1.00  0.00     0.053 C 
BRANCH   3   4
ATOM      4  C   UNL     1     -25.288 -26.754  29.174  1.00  0.00     0.041 C 
ATOM      5  O   UNL     1     -25.775 -27.820  29.635  1.00  0.00    -0.550 OA
ATOM      6  O   UNL     1     -26.133 -25.758  28.704  1.00  0.00    -0.550 OA
ENDBRANCH   3   4
ENDBRANCH   2   3
ENDBRANCH   1   2
BRANCH   1   7
ATOM      7  C   UNL     1     -23.166 -23.509  31.648  1.00  0.00     0.000 C 
BRANCH   7   8
ATOM      8  C   UNL     1     -22.046 -22.831  30.839  1.00  0.00    -0.000 C 
BRANCH   8   9
ATOM      9  C   UNL     1     -22.171 -21.301  30.812  1.00  0.00    -0.000 C 
BRANCH   9  10
ATOM     10  C   UNL     1     -21.993 -20.761  29.389  1.00  0.00    -0.003 C 
ATOM     11  C   UNL     1     -22.091 -21.881  28.357  1.00  0.00     0.004 C 
ENDBRANCH   9  10
ENDBRANCH   8   9
ENDBRANCH   7   8
ENDBRANCH   1   7
TORSDOF 7
ENDMDL
MODEL 9
REMARK VINA RESULT:    -5.347      2.446      4.129
REMARK INTER + INTRA:          -7.828
REMARK INTER:                  -7.531
REMARK INTRA:                  -0.298
REMARK UNBOUND:                -0.293
REMARK SMILES CCCCCCCCC(=O)[O-]
REMARK SMILES IDX 6 1 7 2 8 3 9 4 10 5 11 6 5 7 4 8 3 9 2 10 1 11
REMARK H PARENT
REMARK Flexibility Score: inf
ROOT
ATOM      1  C   UNL     1     -20.520 -18.651  29.972  1.00  0.00     0.000 C 
ENDROOT
BRANCH   1   2
ATOM      2  C   UNL     1     -19.720 -17.366  29.692  1.00  0.00     0.006 C 
BRANCH   2   3
ATOM      3  C   UNL     1     -18.602 -17.572  28.663  1.00  0.00     0.053 C 
BRANCH   3   4
ATOM      4  C   UNL     1     -18.085 -16.254  28.181  1.00  0.00     0.041 C 
ATOM      5  O   UNL     1     -18.152 -15.957  26.959  1.00  0.00    -0.550 OA
ATOM      6  O   UNL     1     -17.577 -15.332  29.087  1.00  0.00    -0.550 OA
ENDBRANCH   3   4
ENDBRANCH   2   3
ENDBRANCH   1   2
BRANCH   1   7
ATOM      7  C   UNL     1     -21.053 -19.374  28.718  1.00  0.00     0.000 C 
BRANCH   7   8
ATOM      8  C   UNL     1     -21.818 -20.681  28.994  1.00  0.00    -0.000 C 
BRANCH   8   9
ATOM      9  C   UNL     1     -22.261 -20.816  30.458  1.00  0.00    -0.000 C 
BRANCH   9  10
ATOM     10  C   UNL     1     -22.073 -22.253  30.957  1.00  0.00    -0.003 C 
ATOM     11  C   UNL     1     -22.148 -23.252  29.806  1.00  0.00     0.004 C 
ENDBRANCH   9  10
ENDBRANCH   8   9
ENDBRANCH   7   8
ENDBRANCH   1   7
TORSDOF 7
ENDMDL
