MODEL 1
REMARK VINA RESULT:    -5.832      0.000      0.000
REMARK INTER + INTRA:          -6.173
REMARK INTER:                  -6.173
REMARK INTRA:                   0.000
REMARK UNBOUND:                 0.000
REMARK SMILES Cc1cc(O)c(C)c(C)c1O
REMARK SMILES IDX 1 1 2 2 3 3 4 4 6 5 8 6 10 7 9 8 7 9 11 10 5 12
REMARK H PARENT 11 11 5 13
REMARK Flexibility Score: inf
ROOT
ATOM      1  C   UNL     1      61.253 151.669   7.618  1.00  0.00     0.048 C 
ATOM      2  C   UNL     1      62.271 151.060   6.694  1.00  0.00    -0.005 A 
ATOM      3  C   UNL     1      62.327 149.669   6.560  1.00  0.00     0.053 A 
ATOM      4  C   UNL     1      63.263 149.062   5.723  1.00  0.00     0.119 A 
ATOM      5  C   UNL     1      64.193 149.850   5.007  1.00  0.00    -0.003 A 
ATOM      6  C   UNL     1      64.105 151.268   5.085  1.00  0.00    -0.002 A 
ATOM      7  C   UNL     1      63.161 151.866   5.951  1.00  0.00     0.121 A 
ATOM      8  C   UNL     1      65.030 152.148   4.273  1.00  0.00     0.049 C 
ATOM      9  C   UNL     1      65.239 149.166   4.153  1.00  0.00     0.049 C 
ENDROOT
BRANCH   7  10
ATOM     10  O   UNL     1      63.121 153.260   6.059  1.00  0.00    -0.507 OA
ATOM     11  H   UNL     1      63.745 153.794   6.651  1.00  0.00     0.293 HD
ENDBRANCH   7  10
BRANCH   4  12
ATOM     12  O   UNL     1      63.232 147.668   5.623  1.00  0.00    -0.508 OA
ATOM     13  H   UNL     1      64.000 147.114   5.266  1.00  0.00     0.293 HD
ENDBRANCH   4  12
TORSDOF 2
ENDMDL
MODEL 2
REMARK VINA RESULT:    -5.810      0.459      3.196
REMARK INTER + INTRA:          -6.150
REMARK INTER:                  -6.150
REMARK INTRA:                   0.000
REMARK UNBOUND:                 0.000
REMARK SMILES Cc1cc(O)c(C)c(C)c1O
REMARK SMILES IDX 1 1 2 2 3 3 4 4 6 5 8 6 10 7 9 8 7 9 11 10 5 12
REMARK H PARENT 11 11 5 13
REMARK Flexibility Score: inf
ROOT
ATOM      1  C   UNL     1      61.244 148.914   7.304  1.00  0.00     0.048 C 
ATOM      2  C   UNL     1      62.259 149.713   6.532  1.00  0.00    -0.005 A 
ATOM      3  C   UNL     1      62.254 151.108   6.639  1.00  0.00     0.053 A 
ATOM      4  C   UNL     1      63.169 151.888   5.934  1.00  0.00     0.119 A 
ATOM      5  C   UNL     1      64.110 151.277   5.072  1.00  0.00    -0.003 A 
ATOM      6  C   UNL     1      64.166 149.857   5.004  1.00  0.00    -0.002 A 
ATOM      7  C   UNL     1      63.220 149.082   5.714  1.00  0.00     0.121 A 
ATOM      8  C   UNL     1      65.209 149.162   4.156  1.00  0.00     0.049 C 
ATOM      9  C   UNL     1      65.052 152.147   4.269  1.00  0.00     0.049 C 
ENDROOT
BRANCH   7  10
ATOM     10  O   UNL     1      63.253 147.689   5.595  1.00  0.00    -0.507 OA
ATOM     11  H   UNL     1      62.715 147.173   4.910  1.00  0.00     0.293 HD
ENDBRANCH   7  10
BRANCH   4  12
ATOM     12  O   UNL     1      63.118 153.273   6.121  1.00  0.00    -0.508 OA
ATOM     13  H   UNL     1      63.153 153.942   5.363  1.00  0.00     0.293 HD
ENDBRANCH   4  12
TORSDOF 2
ENDMDL
MODEL 3
REMARK VINA RESULT:    -5.275      0.523      2.992
REMARK INTER + INTRA:          -5.583
REMARK INTER:                  -5.583
REMARK INTRA:                   0.000
REMARK UNBOUND:                 0.000
REMARK SMILES Cc1cc(O)c(C)c(C)c1O
REMARK SMILES IDX 1 1 2 2 3 3 4 4 6 5 8 6 10 7 9 8 7 9 11 10 5 12
REMARK H PARENT 11 11 5 13
REMARK Flexibility Score: inf
ROOT
ATOM      1  C   UNL     1      65.371 152.192   4.612  1.00  0.00     0.048 C 
ATOM      2  C   UNL     1      64.300 151.330   5.223  1.00  0.00    -0.005 A 
ATOM      3  C   UNL     1      64.390 149.940   5.102  1.00  0.00     0.053 A 
ATOM      4  C   UNL     1      63.414 149.103   5.643  1.00  0.00     0.119 A 
ATOM      5  C   UNL     1      62.295 149.655   6.308  1.00  0.00    -0.003 A 
ATOM      6  C   UNL     1      62.224 151.064   6.494  1.00  0.00    -0.002 A 
ATOM      7  C   UNL     1      63.215 151.897   5.925  1.00  0.00     0.121 A 
ATOM      8  C   UNL     1      61.085 151.687   7.270  1.00  0.00     0.049 C 
ATOM      9  C   UNL     1      61.217 148.731   6.833  1.00  0.00     0.049 C 
ENDROOT
BRANCH   7  10
ATOM     10  O   UNL     1      63.104 153.284   6.069  1.00  0.00    -0.507 OA
ATOM     11  H   UNL     1      62.735 153.734   6.898  1.00  0.00     0.293 HD
ENDBRANCH   7  10
BRANCH   4  12
ATOM     12  O   UNL     1      63.595 147.724   5.505  1.00  0.00    -0.508 OA
ATOM     13  H   UNL     1      64.258 147.188   6.050  1.00  0.00     0.293 HD
ENDBRANCH   4  12
TORSDOF 2
ENDMDL
MODEL 4
REMARK VINA RESULT:    -5.267      0.484      4.391
REMARK INTER + INTRA:          -5.575
REMARK INTER:                  -5.575
REMARK INTRA:                   0.000
REMARK UNBOUND:                 0.000
REMARK SMILES Cc1cc(O)c(C)c(C)c1O
REMARK SMILES IDX 1 1 2 2 3 3 4 4 6 5 8 6 10 7 9 8 7 9 11 10 5 12
REMARK H PARENT 11 11 5 13
REMARK Flexibility Score: inf
ROOT
ATOM      1  C   UNL     1      65.320 149.182   3.955  1.00  0.00     0.048 C 
ATOM      2  C   UNL     1      64.273 149.814   4.831  1.00  0.00    -0.005 A 
ATOM      3  C   UNL     1      64.244 151.206   4.967  1.00  0.00     0.053 A 
ATOM      4  C   UNL     1      63.299 151.833   5.778  1.00  0.00     0.119 A 
ATOM      5  C   UNL     1      62.359 151.061   6.501  1.00  0.00    -0.003 A 
ATOM      6  C   UNL     1      62.336 149.650   6.322  1.00  0.00    -0.002 A 
ATOM      7  C   UNL     1      63.313 149.031   5.508  1.00  0.00     0.121 A 
ATOM      8  C   UNL     1      61.297 148.797   7.014  1.00  0.00     0.049 C 
ATOM      9  C   UNL     1      61.382 151.759   7.422  1.00  0.00     0.049 C 
ENDROOT
BRANCH   7  10
ATOM     10  O   UNL     1      63.313 147.637   5.384  1.00  0.00    -0.507 OA
ATOM     11  H   UNL     1      63.246 147.154   4.496  1.00  0.00     0.293 HD
ENDBRANCH   7  10
BRANCH   4  12
ATOM     12  O   UNL     1      63.319 153.229   5.834  1.00  0.00    -0.508 OA
ATOM     13  H   UNL     1      63.983 153.758   6.384  1.00  0.00     0.293 HD
ENDBRANCH   4  12
TORSDOF 2
ENDMDL
MODEL 5
REMARK VINA RESULT:    -4.974      5.162      6.546
REMARK INTER + INTRA:          -5.264
REMARK INTER:                  -5.264
REMARK INTRA:                   0.000
REMARK UNBOUND:                 0.000
REMARK SMILES Cc1cc(O)c(C)c(C)c1O
REMARK SMILES IDX 1 1 2 2 3 3 4 4 6 5 8 6 10 7 9 8 7 9 11 10 5 12
REMARK H PARENT 11 11 5 13
REMARK Flexibility Score: inf
ROOT
ATOM      1  C   UNL     1      62.609 151.483   2.774  1.00  0.00     0.048 C 
ATOM      2  C   UNL     1      61.387 152.332   2.550  1.00  0.00    -0.005 A 
ATOM      3  C   UNL     1      61.199 152.941   1.305  1.00  0.00     0.053 A 
ATOM      4  C   UNL     1      60.087 153.745   1.056  1.00  0.00     0.119 A 
ATOM      5  C   UNL     1      59.136 153.978   2.077  1.00  0.00    -0.003 A 
ATOM      6  C   UNL     1      59.283 153.313   3.326  1.00  0.00    -0.002 A 
ATOM      7  C   UNL     1      60.424 152.514   3.565  1.00  0.00     0.121 A 
ATOM      8  C   UNL     1      58.245 153.472   4.415  1.00  0.00     0.049 C 
ATOM      9  C   UNL     1      57.970 154.904   1.804  1.00  0.00     0.049 C 
ENDROOT
BRANCH   7  10
ATOM     10  O   UNL     1      60.584 151.909   4.817  1.00  0.00    -0.507 OA
ATOM     11  H   UNL     1      61.069 151.031   4.957  1.00  0.00     0.293 HD
ENDBRANCH   7  10
BRANCH   4  12
ATOM     12  O   UNL     1      59.957 154.292  -0.224  1.00  0.00    -0.508 OA
ATOM     13  H   UNL     1      60.373 153.885  -1.052  1.00  0.00     0.293 HD
ENDBRANCH   4  12
TORSDOF 2
ENDMDL
MODEL 6
REMARK VINA RESULT:    -4.902      1.672      4.033
REMARK INTER + INTRA:          -5.189
REMARK INTER:                  -5.189
REMARK INTRA:                   0.000
REMARK UNBOUND:                 0.000
REMARK SMILES Cc1cc(O)c(C)c(C)c1O
REMARK SMILES IDX 1 1 2 2 3 3 4 4 6 5 8 6 10 7 9 8 7 9 11 10 5 12
REMARK H PARENT 11 11 5 13
REMARK Flexibility Score: inf
ROOT
ATOM      1  C   UNL     1      65.019 151.385   5.127  1.00  0.00     0.048 C 
ATOM      2  C   UNL     1      63.757 150.649   5.485  1.00  0.00    -0.005 A 
ATOM      3  C   UNL     1      62.685 151.359   6.037  1.00  0.00     0.053 A 
ATOM      4  C   UNL     1      61.501 150.716   6.393  1.00  0.00     0.119 A 
ATOM      5  C   UNL     1      61.372 149.318   6.222  1.00  0.00    -0.003 A 
ATOM      6  C   UNL     1      62.429 148.595   5.603  1.00  0.00    -0.002 A 
ATOM      7  C   UNL     1      63.629 149.262   5.263  1.00  0.00     0.121 A 
ATOM      8  C   UNL     1      62.299 147.113   5.329  1.00  0.00     0.049 C 
ATOM      9  C   UNL     1      60.101 148.632   6.673  1.00  0.00     0.049 C 
ENDROOT
BRANCH   7  10
ATOM     10  O   UNL     1      64.682 148.528   4.704  1.00  0.00    -0.507 OA
ATOM     11  H   UNL     1      65.659 148.748   4.855  1.00  0.00     0.293 HD
ENDBRANCH   7  10
BRANCH   4  12
ATOM     12  O   UNL     1      60.467 151.503   6.910  1.00  0.00    -0.508 OA
ATOM     13  H   UNL     1      59.793 151.991   6.334  1.00  0.00     0.293 HD
ENDBRANCH   4  12
TORSDOF 2
ENDMDL
MODEL 7
REMARK VINA RESULT:    -4.805      1.609      3.143
REMARK INTER + INTRA:          -5.086
REMARK INTER:                  -5.086
REMARK INTRA:                   0.000
REMARK UNBOUND:                 0.000
REMARK SMILES Cc1cc(O)c(C)c(C)c1O
REMARK SMILES IDX 1 1 2 2 3 3 4 4 6 5 8 6 10 7 9 8 7 9 11 10 5 12
REMARK H PARENT 11 11 5 13
REMARK Flexibility Score: inf
ROOT
ATOM      1  C   UNL     1      59.989 151.706   6.671  1.00  0.00     0.048 C 
ATOM      2  C   UNL     1      61.260 151.015   6.256  1.00  0.00    -0.005 A 
ATOM      3  C   UNL     1      62.440 151.759   6.153  1.00  0.00     0.053 A 
ATOM      4  C   UNL     1      63.637 151.162   5.761  1.00  0.00     0.119 A 
ATOM      5  C   UNL     1      63.672 149.787   5.435  1.00  0.00    -0.003 A 
ATOM      6  C   UNL     1      62.494 149.006   5.596  1.00  0.00    -0.002 A 
ATOM      7  C   UNL     1      61.285 149.631   5.980  1.00  0.00     0.121 A 
ATOM      8  C   UNL     1      62.509 147.516   5.335  1.00  0.00     0.049 C 
ATOM      9  C   UNL     1      64.969 149.174   4.952  1.00  0.00     0.049 C 
ENDROOT
BRANCH   7  10
ATOM     10  O   UNL     1      60.121 148.861   6.082  1.00  0.00    -0.507 OA
ATOM     11  H   UNL     1      59.367 148.895   5.408  1.00  0.00     0.293 HD
ENDBRANCH   7  10
BRANCH   4  12
ATOM     12  O   UNL     1      64.777 151.970   5.714  1.00  0.00    -0.508 OA
ATOM     13  H   UNL     1      64.848 152.807   5.150  1.00  0.00     0.293 HD
ENDBRANCH   4  12
TORSDOF 2
ENDMDL
MODEL 8
REMARK VINA RESULT:    -4.751     19.160     20.400
REMARK INTER + INTRA:          -5.029
REMARK INTER:                  -5.029
REMARK INTRA:                   0.000
REMARK UNBOUND:                 0.000
REMARK SMILES Cc1cc(O)c(C)c(C)c1O
REMARK SMILES IDX 1 1 2 2 3 3 4 4 6 5 8 6 10 7 9 8 7 9 11 10 5 12
REMARK H PARENT 11 11 5 13
REMARK Flexibility Score: inf
ROOT
ATOM      1  C   UNL     1      69.195 140.314 -10.507  1.00  0.00     0.048 C 
ATOM      2  C   UNL     1      70.039 139.500  -9.565  1.00  0.00    -0.005 A 
ATOM      3  C   UNL     1      69.500 139.097  -8.339  1.00  0.00     0.053 A 
ATOM      4  C   UNL     1      70.250 138.351  -7.431  1.00  0.00     0.119 A 
ATOM      5  C   UNL     1      71.589 138.007  -7.729  1.00  0.00    -0.003 A 
ATOM      6  C   UNL     1      72.128 138.355  -8.998  1.00  0.00    -0.002 A 
ATOM      7  C   UNL     1      71.358 139.125  -9.900  1.00  0.00     0.121 A 
ATOM      8  C   UNL     1      73.529 137.936  -9.387  1.00  0.00     0.049 C 
ATOM      9  C   UNL     1      72.404 137.250  -6.702  1.00  0.00     0.049 C 
ENDROOT
BRANCH   7  10
ATOM     10  O   UNL     1      71.920 139.507 -11.123  1.00  0.00    -0.507 OA
ATOM     11  H   UNL     1      71.681 139.076 -12.008  1.00  0.00     0.293 HD
ENDBRANCH   7  10
BRANCH   4  12
ATOM     12  O   UNL     1      69.626 137.962  -6.242  1.00  0.00    -0.508 OA
ATOM     13  H   UNL     1      68.685 137.595  -6.197  1.00  0.00     0.293 HD
ENDBRANCH   4  12
TORSDOF 2
ENDMDL
