MODEL 1
REMARK VINA RESULT:    -4.116      0.000      0.000
REMARK INTER + INTRA:          -6.683
REMARK INTER:                  -6.281
REMARK INTRA:                  -0.402
REMARK UNBOUND:                -0.402
REMARK SMILES CCCCCCCCCC=CC(=O)[O-]
REMARK SMILES IDX 7 1 8 2 9 3 10 4 11 5 12 6 13 7 14 8 6 9 5 10 4 11 3 12 2 13
REMARK SMILES IDX 1 14
REMARK H PARENT
REMARK Flexibility Score: inf
ROOT
ATOM      1  C   UNL     1     409.389 -85.725 114.976  1.00  0.00     0.000 C 
ENDROOT
BRANCH   1   2
ATOM      2  C   UNL     1     410.467 -85.386 113.936  1.00  0.00     0.004 C 
BRANCH   2   3
ATOM      3  C   UNL     1     411.588 -84.519 114.524  1.00  0.00     0.027 C 
BRANCH   3   4
ATOM      4  C   UNL     1     412.562 -85.343 115.319  1.00  0.00    -0.025 C 
ATOM      5  C   UNL     1     412.864 -85.042 116.586  1.00  0.00     0.020 C 
BRANCH   5   6
ATOM      6  C   UNL     1     413.789 -85.857 117.390  1.00  0.00     0.064 C 
ATOM      7  O   UNL     1     414.093 -87.030 117.045  1.00  0.00    -0.545 OA
ATOM      8  O   UNL     1     414.335 -85.324 118.550  1.00  0.00    -0.545 OA
ENDBRANCH   5   6
ENDBRANCH   3   4
ENDBRANCH   2   3
ENDBRANCH   1   2
BRANCH   1   9
ATOM      9  C   UNL     1     408.033 -85.125 114.581  1.00  0.00     0.000 C 
BRANCH   9  10
ATOM     10  C   UNL     1     406.961 -85.451 115.632  1.00  0.00     0.000 C 
BRANCH  10  11
ATOM     11  C   UNL     1     405.532 -85.347 115.075  1.00  0.00    -0.000 C 
BRANCH  11  12
ATOM     12  C   UNL     1     405.490 -85.434 113.539  1.00  0.00    -0.000 C 
BRANCH  12  13
ATOM     13  C   UNL     1     404.451 -86.449 113.037  1.00  0.00    -0.003 C 
ATOM     14  C   UNL     1     404.285 -86.425 111.517  1.00  0.00     0.004 C 
ENDBRANCH  12  13
ENDBRANCH  11  12
ENDBRANCH  10  11
ENDBRANCH   9  10
ENDBRANCH   1   9
TORSDOF 9
ENDMDL
MODEL 2
REMARK VINA RESULT:    -3.982      4.404      7.893
REMARK INTER + INTRA:          -6.478
REMARK INTER:                  -5.924
REMARK INTRA:                  -0.554
REMARK UNBOUND:                -0.402
REMARK SMILES CCCCCCCCCC=CC(=O)[O-]
REMARK SMILES IDX 7 1 8 2 9 3 10 4 11 5 12 6 13 7 14 8 6 9 5 10 4 11 3 12 2 13
REMARK SMILES IDX 1 14
REMARK H PARENT
REMARK Flexibility Score: inf
ROOT
ATOM      1  C   UNL     1     408.862 -84.507 114.236  1.00  0.00     0.000 C 
ENDROOT
BRANCH   1   2
ATOM      2  C   UNL     1     408.499 -85.837 114.913  1.00  0.00     0.004 C 
BRANCH   2   3
ATOM      3  C   UNL     1     407.121 -85.788 115.586  1.00  0.00     0.027 C 
BRANCH   3   4
ATOM      4  C   UNL     1     406.046 -85.390 114.613  1.00  0.00    -0.025 C 
ATOM      5  C   UNL     1     405.693 -86.183 113.596  1.00  0.00     0.020 C 
BRANCH   5   6
ATOM      6  C   UNL     1     404.620 -85.825 112.655  1.00  0.00     0.064 C 
ATOM      7  O   UNL     1     404.167 -84.651 112.597  1.00  0.00    -0.545 OA
ATOM      8  O   UNL     1     404.094 -86.800 111.817  1.00  0.00    -0.545 OA
ENDBRANCH   5   6
ENDBRANCH   3   4
ENDBRANCH   2   3
ENDBRANCH   1   2
BRANCH   1   9
ATOM      9  C   UNL     1     410.382 -84.366 114.079  1.00  0.00     0.000 C 
BRANCH   9  10
ATOM     10  C   UNL     1     411.084 -85.714 114.303  1.00  0.00     0.000 C 
BRANCH  10  11
ATOM     11  C   UNL     1     412.468 -85.562 114.956  1.00  0.00    -0.000 C 
BRANCH  11  12
ATOM     12  C   UNL     1     412.397 -84.879 116.333  1.00  0.00    -0.000 C 
BRANCH  12  13
ATOM     13  C   UNL     1     413.527 -85.332 117.272  1.00  0.00    -0.003 C 
ATOM     14  C   UNL     1     413.964 -86.776 117.020  1.00  0.00     0.004 C 
ENDBRANCH  12  13
ENDBRANCH  11  12
ENDBRANCH  10  11
ENDBRANCH   9  10
ENDBRANCH   1   9
TORSDOF 9
ENDMDL
MODEL 3
REMARK VINA RESULT:    -3.769      1.474      2.240
REMARK INTER + INTRA:          -6.154
REMARK INTER:                  -5.656
REMARK INTRA:                  -0.497
REMARK UNBOUND:                -0.402
REMARK SMILES CCCCCCCCCC=CC(=O)[O-]
REMARK SMILES IDX 7 1 8 2 9 3 10 4 11 5 12 6 13 7 14 8 6 9 5 10 4 11 3 12 2 13
REMARK SMILES IDX 1 14
REMARK H PARENT
REMARK Flexibility Score: inf
ROOT
ATOM      1  C   UNL     1     409.292 -84.842 114.827  1.00  0.00     0.000 C 
ENDROOT
BRANCH   1   2
ATOM      2  C   UNL     1     410.450 -85.463 114.032  1.00  0.00     0.004 C 
BRANCH   2   3
ATOM      3  C   UNL     1     411.777 -84.733 114.273  1.00  0.00     0.027 C 
BRANCH   3   4
ATOM      4  C   UNL     1     412.663 -85.498 115.218  1.00  0.00    -0.025 C 
ATOM      5  C   UNL     1     412.952 -85.034 116.438  1.00  0.00     0.020 C 
BRANCH   5   6
ATOM      6  C   UNL     1     413.788 -85.785 117.388  1.00  0.00     0.064 C 
ATOM      7  O   UNL     1     414.099 -85.300 118.508  1.00  0.00    -0.545 OA
ATOM      8  O   UNL     1     414.244 -87.051 117.043  1.00  0.00    -0.545 OA
ENDBRANCH   5   6
ENDBRANCH   3   4
ENDBRANCH   2   3
ENDBRANCH   1   2
BRANCH   1   9
ATOM      9  C   UNL     1     408.290 -85.915 115.270  1.00  0.00     0.000 C 
BRANCH   9  10
ATOM     10  C   UNL     1     407.098 -85.986 114.303  1.00  0.00     0.000 C 
BRANCH  10  11
ATOM     11  C   UNL     1     406.629 -84.598 113.835  1.00  0.00    -0.000 C 
BRANCH  11  12
ATOM     12  C   UNL     1     405.684 -83.924 114.845  1.00  0.00    -0.000 C 
BRANCH  12  13
ATOM     13  C   UNL     1     405.072 -84.927 115.837  1.00  0.00    -0.003 C 
ATOM     14  C   UNL     1     405.534 -84.695 117.275  1.00  0.00     0.004 C 
ENDBRANCH  12  13
ENDBRANCH  11  12
ENDBRANCH  10  11
ENDBRANCH   9  10
ENDBRANCH   1   9
TORSDOF 9
ENDMDL
MODEL 4
REMARK VINA RESULT:    -3.556      2.927      5.190
REMARK INTER + INTRA:          -5.828
REMARK INTER:                  -5.428
REMARK INTRA:                  -0.400
REMARK UNBOUND:                -0.402
REMARK SMILES CCCCCCCCCC=CC(=O)[O-]
REMARK SMILES IDX 7 1 8 2 9 3 10 4 11 5 12 6 13 7 14 8 6 9 5 10 4 11 3 12 2 13
REMARK SMILES IDX 1 14
REMARK H PARENT
REMARK Flexibility Score: inf
ROOT
ATOM      1  C   UNL     1     413.774 -85.916 117.029  1.00  0.00     0.000 C 
ENDROOT
BRANCH   1   2
ATOM      2  C   UNL     1     414.085 -85.277 118.391  1.00  0.00     0.004 C 
BRANCH   2   3
ATOM      3  C   UNL     1     414.981 -84.039 118.260  1.00  0.00     0.027 C 
BRANCH   3   4
ATOM      4  C   UNL     1     416.321 -84.387 117.677  1.00  0.00    -0.025 C 
ATOM      5  C   UNL     1     417.462 -84.039 118.282  1.00  0.00     0.020 C 
BRANCH   5   6
ATOM      6  C   UNL     1     418.782 -84.401 117.743  1.00  0.00     0.064 C 
ATOM      7  O   UNL     1     419.797 -84.457 118.487  1.00  0.00    -0.545 OA
ATOM      8  O   UNL     1     418.912 -84.685 116.390  1.00  0.00    -0.545 OA
ENDBRANCH   5   6
ENDBRANCH   3   4
ENDBRANCH   2   3
ENDBRANCH   1   2
BRANCH   1   9
ATOM      9  C   UNL     1     412.682 -85.132 116.290  1.00  0.00     0.000 C 
BRANCH   9  10
ATOM     10  C   UNL     1     412.509 -85.653 114.855  1.00  0.00     0.000 C 
BRANCH  10  11
ATOM     11  C   UNL     1     411.144 -85.285 114.250  1.00  0.00    -0.000 C 
BRANCH  11  12
ATOM     12  C   UNL     1     409.969 -85.677 115.163  1.00  0.00    -0.000 C 
BRANCH  12  13
ATOM     13  C   UNL     1     408.648 -85.020 114.735  1.00  0.00    -0.003 C 
ATOM     14  C   UNL     1     407.447 -85.957 114.876  1.00  0.00     0.004 C 
ENDBRANCH  12  13
ENDBRANCH  11  12
ENDBRANCH  10  11
ENDBRANCH   9  10
ENDBRANCH   1   9
TORSDOF 9
ENDMDL
MODEL 5
REMARK VINA RESULT:    -3.442     13.318     14.900
REMARK INTER + INTRA:          -5.654
REMARK INTER:                  -4.208
REMARK INTRA:                  -1.446
REMARK UNBOUND:                -0.402
REMARK SMILES CCCCCCCCCC=CC(=O)[O-]
REMARK SMILES IDX 7 1 8 2 9 3 10 4 11 5 12 6 13 7 14 8 6 9 5 10 4 11 3 12 2 13
REMARK SMILES IDX 1 14
REMARK H PARENT
REMARK Flexibility Score: inf
ROOT
ATOM      1  C   UNL     1     422.012 -86.958 120.000  1.00  0.00     0.000 C 
ENDROOT
BRANCH   1   2
ATOM      2  C   UNL     1     420.529 -87.270 120.248  1.00  0.00     0.004 C 
BRANCH   2   3
ATOM      3  C   UNL     1     420.316 -88.695 120.773  1.00  0.00     0.027 C 
BRANCH   3   4
ATOM      4  C   UNL     1     421.624 -89.403 120.993  1.00  0.00    -0.025 C 
ATOM      5  C   UNL     1     421.766 -90.708 120.737  1.00  0.00     0.020 C 
BRANCH   5   6
ATOM      6  C   UNL     1     423.047 -91.410 120.913  1.00  0.00     0.064 C 
ATOM      7  O   UNL     1     423.364 -91.921 122.020  1.00  0.00    -0.545 OA
ATOM      8  O   UNL     1     423.923 -91.509 119.840  1.00  0.00    -0.545 OA
ENDBRANCH   5   6
ENDBRANCH   3   4
ENDBRANCH   2   3
ENDBRANCH   1   2
BRANCH   1   9
ATOM      9  C   UNL     1     422.448 -85.704 120.769  1.00  0.00     0.000 C 
BRANCH   9  10
ATOM     10  C   UNL     1     423.033 -86.078 122.140  1.00  0.00     0.000 C 
BRANCH  10  11
ATOM     11  C   UNL     1     422.073 -85.768 123.300  1.00  0.00    -0.000 C 
BRANCH  11  12
ATOM     12  C   UNL     1     421.503 -87.041 123.949  1.00  0.00    -0.000 C 
BRANCH  12  13
ATOM     13  C   UNL     1     419.969 -87.015 124.045  1.00  0.00    -0.003 C 
ATOM     14  C   UNL     1     419.363 -85.720 123.502  1.00  0.00     0.004 C 
ENDBRANCH  12  13
ENDBRANCH  11  12
ENDBRANCH  10  11
ENDBRANCH   9  10
ENDBRANCH   1   9
TORSDOF 9
ENDMDL
MODEL 6
REMARK VINA RESULT:    -3.416      4.001      7.841
REMARK INTER + INTRA:          -5.615
REMARK INTER:                  -5.102
REMARK INTRA:                  -0.513
REMARK UNBOUND:                -0.402
REMARK SMILES CCCCCCCCCC=CC(=O)[O-]
REMARK SMILES IDX 7 1 8 2 9 3 10 4 11 5 12 6 13 7 14 8 6 9 5 10 4 11 3 12 2 13
REMARK SMILES IDX 1 14
REMARK H PARENT
REMARK Flexibility Score: inf
ROOT
ATOM      1  C   UNL     1     410.386 -85.446 115.421  1.00  0.00     0.000 C 
ENDROOT
BRANCH   1   2
ATOM      2  C   UNL     1     409.913 -85.032 114.020  1.00  0.00     0.004 C 
BRANCH   2   3
ATOM      3  C   UNL     1     408.907 -83.876 114.065  1.00  0.00     0.027 C 
BRANCH   3   4
ATOM      4  C   UNL     1     407.503 -84.357 113.827  1.00  0.00    -0.025 C 
ATOM      5  C   UNL     1     406.870 -85.136 114.710  1.00  0.00     0.020 C 
BRANCH   5   6
ATOM      6  C   UNL     1     405.484 -85.588 114.510  1.00  0.00     0.064 C 
ATOM      7  O   UNL     1     404.552 -85.185 115.257  1.00  0.00    -0.545 OA
ATOM      8  O   UNL     1     405.197 -86.475 113.481  1.00  0.00    -0.545 OA
ENDBRANCH   5   6
ENDBRANCH   3   4
ENDBRANCH   2   3
ENDBRANCH   1   2
BRANCH   1   9
ATOM      9  C   UNL     1     411.115 -84.292 116.120  1.00  0.00     0.000 C 
BRANCH   9  10
ATOM     10  C   UNL     1     412.629 -84.548 116.167  1.00  0.00     0.000 C 
BRANCH  10  11
ATOM     11  C   UNL     1     412.975 -86.032 116.372  1.00  0.00    -0.000 C 
BRANCH  11  12
ATOM     12  C   UNL     1     414.212 -86.231 117.265  1.00  0.00    -0.000 C 
BRANCH  12  13
ATOM     13  C   UNL     1     414.307 -85.177 118.379  1.00  0.00    -0.003 C 
ATOM     14  C   UNL     1     415.533 -84.273 118.237  1.00  0.00     0.004 C 
ENDBRANCH  12  13
ENDBRANCH  11  12
ENDBRANCH  10  11
ENDBRANCH   9  10
ENDBRANCH   1   9
TORSDOF 9
ENDMDL
MODEL 7
REMARK VINA RESULT:    -3.277     13.156     15.033
REMARK INTER + INTRA:          -5.403
REMARK INTER:                  -4.078
REMARK INTRA:                  -1.326
REMARK UNBOUND:                -0.402
REMARK SMILES CCCCCCCCCC=CC(=O)[O-]
REMARK SMILES IDX 7 1 8 2 9 3 10 4 11 5 12 6 13 7 14 8 6 9 5 10 4 11 3 12 2 13
REMARK SMILES IDX 1 14
REMARK H PARENT
REMARK Flexibility Score: inf
ROOT
ATOM      1  C   UNL     1     420.464 -86.938 120.849  1.00  0.00     0.000 C 
ENDROOT
BRANCH   1   2
ATOM      2  C   UNL     1     421.669 -86.772 119.912  1.00  0.00     0.004 C 
BRANCH   2   3
ATOM      3  C   UNL     1     422.927 -87.461 120.457  1.00  0.00     0.027 C 
BRANCH   3   4
ATOM      4  C   UNL     1     422.856 -88.953 120.287  1.00  0.00    -0.025 C 
ATOM      5  C   UNL     1     422.827 -89.778 121.339  1.00  0.00     0.020 C 
BRANCH   5   6
ATOM      6  C   UNL     1     422.723 -91.238 121.191  1.00  0.00     0.064 C 
ATOM      7  O   UNL     1     422.062 -91.754 120.251  1.00  0.00    -0.545 OA
ATOM      8  O   UNL     1     423.364 -92.064 122.106  1.00  0.00    -0.545 OA
ENDBRANCH   5   6
ENDBRANCH   3   4
ENDBRANCH   2   3
ENDBRANCH   1   2
BRANCH   1   9
ATOM      9  C   UNL     1     420.021 -85.585 121.422  1.00  0.00     0.000 C 
BRANCH   9  10
ATOM     10  C   UNL     1     419.682 -85.706 122.915  1.00  0.00     0.000 C 
BRANCH  10  11
ATOM     11  C   UNL     1     420.049 -87.080 123.499  1.00  0.00    -0.000 C 
BRANCH  11  12
ATOM     12  C   UNL     1     421.092 -86.982 124.626  1.00  0.00    -0.000 C 
BRANCH  12  13
ATOM     13  C   UNL     1     422.524 -87.232 124.124  1.00  0.00    -0.003 C 
ATOM     14  C   UNL     1     423.289 -85.938 123.846  1.00  0.00     0.004 C 
ENDBRANCH  12  13
ENDBRANCH  11  12
ENDBRANCH  10  11
ENDBRANCH   9  10
ENDBRANCH   1   9
TORSDOF 9
ENDMDL
MODEL 8
REMARK VINA RESULT:    -3.245     12.970     14.344
REMARK INTER + INTRA:          -5.354
REMARK INTER:                  -4.309
REMARK INTRA:                  -1.045
REMARK UNBOUND:                -0.402
REMARK SMILES CCCCCCCCCC=CC(=O)[O-]
REMARK SMILES IDX 7 1 8 2 9 3 10 4 11 5 12 6 13 7 14 8 6 9 5 10 4 11 3 12 2 13
REMARK SMILES IDX 1 14
REMARK H PARENT
REMARK Flexibility Score: inf
ROOT
ATOM      1  C   UNL     1     420.356 -86.489 119.848  1.00  0.00     0.000 C 
ENDROOT
BRANCH   1   2
ATOM      2  C   UNL     1     421.216 -87.536 120.572  1.00  0.00     0.004 C 
BRANCH   2   3
ATOM      3  C   UNL     1     420.384 -88.720 121.081  1.00  0.00     0.027 C 
BRANCH   3   4
ATOM      4  C   UNL     1     421.147 -90.011 120.989  1.00  0.00    -0.025 C 
ATOM      5  C   UNL     1     422.482 -90.044 121.069  1.00  0.00     0.020 C 
BRANCH   5   6
ATOM      6  C   UNL     1     423.243 -91.302 121.016  1.00  0.00     0.064 C 
ATOM      7  O   UNL     1     423.802 -91.682 119.953  1.00  0.00    -0.545 OA
ATOM      8  O   UNL     1     423.347 -92.085 122.159  1.00  0.00    -0.545 OA
ENDBRANCH   5   6
ENDBRANCH   3   4
ENDBRANCH   2   3
ENDBRANCH   1   2
BRANCH   1   9
ATOM      9  C   UNL     1     420.023 -85.314 120.776  1.00  0.00     0.000 C 
BRANCH   9  10
ATOM     10  C   UNL     1     421.210 -84.987 121.695  1.00  0.00     0.000 C 
BRANCH  10  11
ATOM     11  C   UNL     1     420.824 -84.975 123.184  1.00  0.00    -0.000 C 
BRANCH  11  12
ATOM     12  C   UNL     1     419.310 -85.146 123.401  1.00  0.00    -0.000 C 
BRANCH  12  13
ATOM     13  C   UNL     1     418.981 -86.317 124.341  1.00  0.00    -0.003 C 
ATOM     14  C   UNL     1     420.165 -87.261 124.550  1.00  0.00     0.004 C 
ENDBRANCH  12  13
ENDBRANCH  11  12
ENDBRANCH  10  11
ENDBRANCH   9  10
ENDBRANCH   1   9
TORSDOF 9
ENDMDL
MODEL 9
REMARK VINA RESULT:    -3.228     13.604     15.717
REMARK INTER + INTRA:          -5.328
REMARK INTER:                  -4.117
REMARK INTRA:                  -1.210
REMARK UNBOUND:                -0.402
REMARK SMILES CCCCCCCCCC=CC(=O)[O-]
REMARK SMILES IDX 7 1 8 2 9 3 10 4 11 5 12 6 13 7 14 8 6 9 5 10 4 11 3 12 2 13
REMARK SMILES IDX 1 14
REMARK H PARENT
REMARK Flexibility Score: inf
ROOT
ATOM      1  C   UNL     1     420.276 -87.618 122.840  1.00  0.00     0.000 C 
ENDROOT
BRANCH   1   2
ATOM      2  C   UNL     1     420.348 -87.529 121.309  1.00  0.00     0.004 C 
BRANCH   2   3
ATOM      3  C   UNL     1     420.381 -88.912 120.648  1.00  0.00     0.027 C 
BRANCH   3   4
ATOM      4  C   UNL     1     421.740 -89.546 120.762  1.00  0.00    -0.025 C 
ATOM      5  C   UNL     1     421.886 -90.858 120.973  1.00  0.00     0.020 C 
BRANCH   5   6
ATOM      6  C   UNL     1     423.208 -91.500 121.052  1.00  0.00     0.064 C 
ATOM      7  O   UNL     1     423.966 -91.559 120.048  1.00  0.00    -0.545 OA
ATOM      8  O   UNL     1     423.627 -92.052 122.256  1.00  0.00    -0.545 OA
ENDBRANCH   5   6
ENDBRANCH   3   4
ENDBRANCH   2   3
ENDBRANCH   1   2
BRANCH   1   9
ATOM      9  C   UNL     1     420.142 -86.225 123.468  1.00  0.00     0.000 C 
BRANCH   9  10
ATOM     10  C   UNL     1     421.363 -85.895 124.340  1.00  0.00     0.000 C 
BRANCH  10  11
ATOM     11  C   UNL     1     422.198 -87.138 124.687  1.00  0.00    -0.000 C 
BRANCH  11  12
ATOM     12  C   UNL     1     423.677 -86.984 124.290  1.00  0.00    -0.000 C 
BRANCH  12  13
ATOM     13  C   UNL     1     424.018 -87.735 122.993  1.00  0.00    -0.003 C 
ATOM     14  C   UNL     1     424.033 -86.823 121.766  1.00  0.00     0.004 C 
ENDBRANCH  12  13
ENDBRANCH  11  12
ENDBRANCH  10  11
ENDBRANCH   9  10
ENDBRANCH   1   9
TORSDOF 9
ENDMDL
