MODEL 1
REMARK VINA RESULT:     5.324      0.000      0.000
REMARK INTER + INTRA:           7.055
REMARK INTER:                   7.192
REMARK INTRA:                  -0.137
REMARK UNBOUND:                -0.137
REMARK SMILES CC[C@H](CC[C@H](C)[C@@H]1CC[C@@H]2[C@H]3CC(=O)C4=CC(=O)CC[C@@]4(C)[C@@H]3CC[C@@]21C)C(C)C
REMARK SMILES IDX 4 1 3 2 2 3 1 4 29 5 30 6 31 7 5 8 6 9 7 10 8 11 9 12 27 13
REMARK SMILES IDX 10 14 11 15 26 16 28 17 12 18 25 19 24 20 13 21 22 22 14 23
REMARK SMILES IDX 16 24 21 25 23 26 15 27 17 28 20 29 18 30 19 31
REMARK H PARENT
REMARK Flexibility Score: inf
ROOT
ATOM      1  C   UNL     1      -8.052 -10.057  34.507  1.00  0.00     0.004 C 
ENDROOT
BRANCH   1   2
ATOM      2  C   UNL     1      -8.690  -9.875  35.914  1.00  0.00    -0.009 C 
BRANCH   2   3
ATOM      3  C   UNL     1     -10.227 -10.100  35.842  1.00  0.00     0.000 C 
ATOM      4  C   UNL     1     -10.656 -10.901  34.609  1.00  0.00     0.004 C 
ENDBRANCH   2   3
BRANCH   2   5
ATOM      5  C   UNL     1      -8.006 -10.768  37.005  1.00  0.00    -0.014 C 
ATOM      6  C   UNL     1      -8.965 -11.775  37.664  1.00  0.00     0.007 C 
ATOM      7  C   UNL     1      -7.297  -9.928  38.081  1.00  0.00     0.007 C 
ENDBRANCH   2   5
ENDBRANCH   1   2
BRANCH   1   8
ATOM      8  C   UNL     1      -6.519  -9.875  34.494  1.00  0.00     0.004 C 
BRANCH   8   9
ATOM      9  C   UNL     1      -5.737 -11.217  34.550  1.00  0.00    -0.011 C 
ATOM     10  C   UNL     1      -5.473 -11.634  36.011  1.00  0.00     0.008 C 
BRANCH   9  11
ATOM     11  C   UNL     1      -4.380 -11.220  33.735  1.00  0.00    -0.002 C 
ATOM     12  C   UNL     1      -3.839  -9.878  33.220  1.00  0.00     0.005 C 
ATOM     13  C   UNL     1      -4.338 -12.154  32.495  1.00  0.00    -0.026 C 
ATOM     14  C   UNL     1      -2.873 -10.226  32.086  1.00  0.00     0.005 C 
ATOM     15  C   UNL     1      -2.988 -11.745  31.845  1.00  0.00    -0.001 C 
ATOM     16  C   UNL     1      -5.568 -11.904  31.544  1.00  0.00     0.007 C 
ATOM     17  C   UNL     1      -4.293 -13.633  32.960  1.00  0.00     0.012 C 
ATOM     18  C   UNL     1      -2.775 -12.148  30.343  1.00  0.00     0.004 C 
ATOM     19  C   UNL     1      -5.228 -11.718  30.055  1.00  0.00     0.005 C 
ATOM     20  C   UNL     1      -4.068 -12.636  29.635  1.00  0.00     0.003 C 
ATOM     21  C   UNL     1      -1.680 -13.211  30.194  1.00  0.00     0.085 C 
ATOM     22  C   UNL     1      -3.878 -12.803  28.078  1.00  0.00    -0.000 C 
ATOM     23  C   UNL     1      -1.458 -13.553  28.752  1.00  0.00     0.159 C 
ATOM     24  C   UNL     1      -2.602 -13.617  27.802  1.00  0.00     0.005 C 
ATOM     25  C   UNL     1      -5.103 -13.575  27.487  1.00  0.00     0.020 C 
ATOM     26  C   UNL     1      -3.749 -11.429  27.368  1.00  0.00     0.017 C 
ATOM     27  O   UNL     1      -0.295 -13.857  28.372  1.00  0.00    -0.295 OA
ATOM     28  C   UNL     1      -2.477 -14.354  26.683  1.00  0.00     0.055 C 
ATOM     29  C   UNL     1      -4.935 -13.936  26.005  1.00  0.00     0.081 C 
ATOM     30  C   UNL     1      -3.589 -14.532  25.736  1.00  0.00     0.156 C 
ATOM     31  O   UNL     1      -3.399 -15.181  24.674  1.00  0.00    -0.295 OA
ENDBRANCH   9  11
ENDBRANCH   8   9
ENDBRANCH   1   8
TORSDOF 6
ENDMDL
MODEL 2
REMARK VINA RESULT:     7.524      3.251      8.419
REMARK INTER + INTRA:          10.026
REMARK INTER:                   9.483
REMARK INTRA:                   0.543
REMARK UNBOUND:                -0.137
REMARK SMILES CC[C@H](CC[C@H](C)[C@@H]1CC[C@@H]2[C@H]3CC(=O)C4=CC(=O)CC[C@@]4(C)[C@@H]3CC[C@@]21C)C(C)C
REMARK SMILES IDX 4 1 3 2 2 3 1 4 29 5 30 6 31 7 5 8 6 9 7 10 8 11 9 12 27 13
REMARK SMILES IDX 10 14 11 15 26 16 28 17 12 18 25 19 24 20 13 21 22 22 14 23
REMARK SMILES IDX 16 24 21 25 23 26 15 27 17 28 20 29 18 30 19 31
REMARK H PARENT
REMARK Flexibility Score: inf
ROOT
ATOM      1  C   UNL     1      -2.104 -11.121  28.968  1.00  0.00     0.004 C 
ENDROOT
BRANCH   1   2
ATOM      2  C   UNL     1      -3.254 -11.235  27.927  1.00  0.00    -0.009 C 
BRANCH   2   3
ATOM      3  C   UNL     1      -4.203 -10.007  28.036  1.00  0.00     0.000 C 
ATOM      4  C   UNL     1      -5.095 -10.050  29.279  1.00  0.00     0.004 C 
ENDBRANCH   2   3
BRANCH   2   5
ATOM      5  C   UNL     1      -2.727 -11.455  26.468  1.00  0.00    -0.014 C 
ATOM      6  C   UNL     1      -3.236 -10.405  25.466  1.00  0.00     0.007 C 
ATOM      7  C   UNL     1      -3.027 -12.872  25.951  1.00  0.00     0.007 C 
ENDBRANCH   2   5
ENDBRANCH   1   2
BRANCH   1   8
ATOM      8  C   UNL     1      -0.985 -12.166  28.770  1.00  0.00     0.004 C 
BRANCH   8   9
ATOM      9  C   UNL     1      -1.039 -13.333  29.795  1.00  0.00    -0.011 C 
ATOM     10  C   UNL     1      -0.196 -14.528  29.306  1.00  0.00     0.008 C 
BRANCH   9  11
ATOM     11  C   UNL     1      -2.500 -13.818  30.160  1.00  0.00    -0.002 C 
ATOM     12  C   UNL     1      -3.657 -13.392  29.245  1.00  0.00     0.005 C 
ATOM     13  C   UNL     1      -2.992 -13.467  31.591  1.00  0.00    -0.026 C 
ATOM     14  C   UNL     1      -4.929 -13.541  30.083  1.00  0.00     0.005 C 
ATOM     15  C   UNL     1      -4.485 -13.890  31.518  1.00  0.00    -0.001 C 
ATOM     16  C   UNL     1      -2.811 -11.934  31.902  1.00  0.00     0.007 C 
ATOM     17  C   UNL     1      -2.231 -14.333  32.629  1.00  0.00     0.012 C 
ATOM     18  C   UNL     1      -5.440 -13.305  32.618  1.00  0.00     0.004 C 
ATOM     19  C   UNL     1      -4.047 -11.225  32.482  1.00  0.00     0.005 C 
ATOM     20  C   UNL     1      -4.812 -12.150  33.443  1.00  0.00     0.003 C 
ATOM     21  C   UNL     1      -5.941 -14.399  33.569  1.00  0.00     0.085 C 
ATOM     22  C   UNL     1      -5.867 -11.427  34.368  1.00  0.00    -0.000 C 
ATOM     23  C   UNL     1      -6.886 -13.832  34.586  1.00  0.00     0.159 C 
ATOM     24  C   UNL     1      -6.659 -12.480  35.163  1.00  0.00     0.005 C 
ATOM     25  C   UNL     1      -5.117 -10.496  35.377  1.00  0.00     0.020 C 
ATOM     26  C   UNL     1      -6.868 -10.579  33.539  1.00  0.00     0.017 C 
ATOM     27  O   UNL     1      -7.837 -14.551  34.997  1.00  0.00    -0.295 OA
ATOM     28  C   UNL     1      -7.199 -12.185  36.360  1.00  0.00     0.055 C 
ATOM     29  C   UNL     1      -6.043  -9.875  36.433  1.00  0.00     0.081 C 
ATOM     30  C   UNL     1      -6.953 -10.901  37.033  1.00  0.00     0.156 C 
ATOM     31  O   UNL     1      -7.533 -10.652  38.123  1.00  0.00    -0.295 OA
ENDBRANCH   9  11
ENDBRANCH   8   9
ENDBRANCH   1   8
TORSDOF 6
ENDMDL
MODEL 3
REMARK VINA RESULT:     7.939      1.711      2.762
REMARK INTER + INTRA:          10.586
REMARK INTER:                   8.684
REMARK INTRA:                   1.902
REMARK UNBOUND:                -0.137
REMARK SMILES CC[C@H](CC[C@H](C)[C@@H]1CC[C@@H]2[C@H]3CC(=O)C4=CC(=O)CC[C@@]4(C)[C@@H]3CC[C@@]21C)C(C)C
REMARK SMILES IDX 4 1 3 2 2 3 1 4 29 5 30 6 31 7 5 8 6 9 7 10 8 11 9 12 27 13
REMARK SMILES IDX 10 14 11 15 26 16 28 17 12 18 25 19 24 20 13 21 22 22 14 23
REMARK SMILES IDX 16 24 21 25 23 26 15 27 17 28 20 29 18 30 19 31
REMARK H PARENT
REMARK Flexibility Score: inf
ROOT
ATOM      1  C   UNL     1      -7.352  -9.956  35.841  1.00  0.00     0.004 C 
ENDROOT
BRANCH   1   2
ATOM      2  C   UNL     1      -8.858 -10.265  36.083  1.00  0.00    -0.009 C 
BRANCH   2   3
ATOM      3  C   UNL     1      -9.681  -9.978  34.795  1.00  0.00     0.000 C 
ATOM      4  C   UNL     1     -10.967 -10.803  34.711  1.00  0.00     0.004 C 
ENDBRANCH   2   3
BRANCH   2   5
ATOM      5  C   UNL     1      -9.094 -11.714  36.632  1.00  0.00    -0.014 C 
ATOM      6  C   UNL     1      -8.758 -11.868  38.125  1.00  0.00     0.007 C 
ATOM      7  C   UNL     1      -8.347 -12.775  35.807  1.00  0.00     0.007 C 
ENDBRANCH   2   5
ENDBRANCH   1   2
BRANCH   1   8
ATOM      8  C   UNL     1      -6.415 -11.131  36.192  1.00  0.00     0.004 C 
BRANCH   8   9
ATOM      9  C   UNL     1      -5.164 -11.220  35.274  1.00  0.00    -0.011 C 
ATOM     10  C   UNL     1      -4.911  -9.875  34.564  1.00  0.00     0.008 C 
BRANCH   9  11
ATOM     11  C   UNL     1      -5.212 -12.390  34.210  1.00  0.00    -0.002 C 
ATOM     12  C   UNL     1      -4.168 -13.511  34.316  1.00  0.00     0.005 C 
ATOM     13  C   UNL     1      -5.158 -11.953  32.721  1.00  0.00    -0.026 C 
ATOM     14  C   UNL     1      -4.120 -14.168  32.935  1.00  0.00     0.005 C 
ATOM     15  C   UNL     1      -5.009 -13.321  32.001  1.00  0.00    -0.001 C 
ATOM     16  C   UNL     1      -3.943 -10.989  32.447  1.00  0.00     0.007 C 
ATOM     17  C   UNL     1      -6.497 -11.275  32.330  1.00  0.00     0.012 C 
ATOM     18  C   UNL     1      -4.491 -13.288  30.520  1.00  0.00     0.004 C 
ATOM     19  C   UNL     1      -3.065 -11.356  31.238  1.00  0.00     0.005 C 
ATOM     20  C   UNL     1      -3.917 -11.912  30.086  1.00  0.00     0.003 C 
ATOM     21  C   UNL     1      -5.581 -13.721  29.532  1.00  0.00     0.085 C 
ATOM     22  C   UNL     1      -3.191 -11.975  28.687  1.00  0.00    -0.000 C 
ATOM     23  C   UNL     1      -5.058 -13.727  28.127  1.00  0.00     0.159 C 
ATOM     24  C   UNL     1      -4.100 -12.685  27.669  1.00  0.00     0.005 C 
ATOM     25  C   UNL     1      -2.914 -10.520  28.183  1.00  0.00     0.020 C 
ATOM     26  C   UNL     1      -1.849 -12.749  28.775  1.00  0.00     0.017 C 
ATOM     27  O   UNL     1      -5.501 -14.587  27.318  1.00  0.00    -0.295 OA
ATOM     28  C   UNL     1      -4.010 -12.418  26.353  1.00  0.00     0.055 C 
ATOM     29  C   UNL     1      -2.360 -10.469  26.752  1.00  0.00     0.081 C 
ATOM     30  C   UNL     1      -3.147 -11.347  25.830  1.00  0.00     0.156 C 
ATOM     31  O   UNL     1      -3.053 -11.180  24.585  1.00  0.00    -0.295 OA
ENDBRANCH   9  11
ENDBRANCH   8   9
ENDBRANCH   1   8
TORSDOF 6
ENDMDL
