MODEL 1
REMARK VINA RESULT:    -7.358      0.000      0.000
REMARK INTER + INTRA:         -13.810
REMARK INTER:                 -11.229
REMARK INTRA:                  -2.580
REMARK UNBOUND:                -2.580
REMARK SMILES CC(=O)CCC=C(C)CCC=C(C)CCC=C(C)C
REMARK SMILES IDX 10 1 11 2 12 3 13 4 14 5 15 6 16 7 18 8 17 9 19 10 9 11 7 12
REMARK SMILES IDX 6 13 8 14 5 15 4 16 2 17 3 18 1 19
REMARK H PARENT
REMARK Flexibility Score: inf
ROOT
ATOM      1  C   UNL     1       1.351  12.174  19.577  1.00  0.00     0.032 C 
ENDROOT
BRANCH   1   2
ATOM      2  C   UNL     1       1.852  10.749  19.533  1.00  0.00    -0.028 C 
ATOM      3  C   UNL     1       2.559  10.126  20.505  1.00  0.00    -0.077 C 
ATOM      4  C   UNL     1       3.032   8.719  20.246  1.00  0.00     0.039 C 
BRANCH   3   5
ATOM      5  C   UNL     1       2.883  10.756  21.848  1.00  0.00     0.034 C 
BRANCH   5   6
ATOM      6  C   UNL     1       2.310   9.943  23.017  1.00  0.00     0.032 C 
BRANCH   6   7
ATOM      7  C   UNL     1       0.850  10.254  23.247  1.00  0.00    -0.028 C 
ATOM      8  C   UNL     1       0.038   8.114  22.231  1.00  0.00     0.039 C 
ATOM      9  C   UNL     1      -0.178   9.463  22.872  1.00  0.00    -0.080 C 
ATOM     10  C   UNL     1      -1.583   9.954  23.110  1.00  0.00     0.039 C 
ENDBRANCH   6   7
ENDBRANCH   5   6
ENDBRANCH   3   5
ENDBRANCH   1   2
BRANCH   1  11
ATOM     11  C   UNL     1      -0.030  12.264  20.237  1.00  0.00     0.034 C 
BRANCH  11  12
ATOM     12  C   UNL     1      -0.049  13.260  21.377  1.00  0.00    -0.077 C 
ATOM     13  C   UNL     1      -1.215  13.513  22.014  1.00  0.00    -0.028 C 
ATOM     14  C   UNL     1       1.230  13.980  21.735  1.00  0.00     0.039 C 
BRANCH  13  15
ATOM     15  C   UNL     1      -1.375  14.481  23.162  1.00  0.00     0.035 C 
BRANCH  15  16
ATOM     16  C   UNL     1      -2.330  15.628  22.810  1.00  0.00     0.079 C 
BRANCH  16  17
ATOM     17  C   UNL     1      -1.884  16.359  21.568  1.00  0.00     0.130 C 
ATOM     18  O   UNL     1      -0.843  16.998  21.587  1.00  0.00    -0.300 OA
ATOM     19  C   UNL     1      -2.694  16.316  20.307  1.00  0.00     0.087 C 
ENDBRANCH  16  17
ENDBRANCH  15  16
ENDBRANCH  13  15
ENDBRANCH  11  12
ENDBRANCH   1  11
TORSDOF 9
ENDMDL
MODEL 2
REMARK VINA RESULT:    -7.351      2.516      6.505
REMARK INTER + INTRA:         -13.799
REMARK INTER:                 -11.214
REMARK INTRA:                  -2.585
REMARK UNBOUND:                -2.580
REMARK SMILES CC(=O)CCC=C(C)CCC=C(C)CCC=C(C)C
REMARK SMILES IDX 10 1 11 2 12 3 13 4 14 5 15 6 16 7 18 8 17 9 19 10 9 11 7 12
REMARK SMILES IDX 6 13 8 14 5 15 4 16 2 17 3 18 1 19
REMARK H PARENT
REMARK Flexibility Score: inf
ROOT
ATOM      1  C   UNL     1      -1.389  12.897  19.597  1.00  0.00     0.032 C 
ENDROOT
BRANCH   1   2
ATOM      2  C   UNL     1      -1.853  14.334  19.540  1.00  0.00    -0.028 C 
ATOM      3  C   UNL     1      -2.550  14.980  20.504  1.00  0.00    -0.077 C 
ATOM      4  C   UNL     1      -2.987  16.397  20.233  1.00  0.00     0.039 C 
BRANCH   3   5
ATOM      5  C   UNL     1      -2.898  14.367  21.849  1.00  0.00     0.034 C 
BRANCH   5   6
ATOM      6  C   UNL     1      -2.289  15.155  23.015  1.00  0.00     0.032 C 
BRANCH   6   7
ATOM      7  C   UNL     1      -0.829  14.822  23.208  1.00  0.00    -0.028 C 
ATOM      8  C   UNL     1      -0.010  16.974  22.224  1.00  0.00     0.039 C 
ATOM      9  C   UNL     1       0.202  15.609  22.831  1.00  0.00    -0.080 C 
ATOM     10  C   UNL     1       1.605  15.095  23.029  1.00  0.00     0.039 C 
ENDBRANCH   6   7
ENDBRANCH   5   6
ENDBRANCH   3   5
ENDBRANCH   1   2
BRANCH   1  11
ATOM     11  C   UNL     1       0.018  12.784  20.197  1.00  0.00     0.034 C 
BRANCH  11  12
ATOM     12  C   UNL     1       0.061  11.812  21.358  1.00  0.00    -0.077 C 
ATOM     13  C   UNL     1       1.245  11.553  21.958  1.00  0.00    -0.028 C 
ATOM     14  C   UNL     1      -1.216  11.123  21.777  1.00  0.00     0.039 C 
BRANCH  13  15
ATOM     15  C   UNL     1       1.431  10.608  23.121  1.00  0.00     0.035 C 
BRANCH  15  16
ATOM     16  C   UNL     1       2.411   9.477  22.784  1.00  0.00     0.079 C 
BRANCH  16  17
ATOM     17  C   UNL     1       1.988   8.727  21.546  1.00  0.00     0.130 C 
ATOM     18  O   UNL     1       0.955   8.075  21.560  1.00  0.00    -0.300 OA
ATOM     19  C   UNL     1       2.811   8.767  20.293  1.00  0.00     0.087 C 
ENDBRANCH  16  17
ENDBRANCH  15  16
ENDBRANCH  13  15
ENDBRANCH  11  12
ENDBRANCH   1  11
TORSDOF 9
ENDMDL
MODEL 3
REMARK VINA RESULT:    -7.128      2.557      6.390
REMARK INTER + INTRA:         -13.458
REMARK INTER:                 -11.248
REMARK INTRA:                  -2.210
REMARK UNBOUND:                -2.580
REMARK SMILES CC(=O)CCC=C(C)CCC=C(C)CCC=C(C)C
REMARK SMILES IDX 10 1 11 2 12 3 13 4 14 5 15 6 16 7 18 8 17 9 19 10 9 11 7 12
REMARK SMILES IDX 6 13 8 14 5 15 4 16 2 17 3 18 1 19
REMARK H PARENT
REMARK Flexibility Score: inf
ROOT
ATOM      1  C   UNL     1      -0.421  12.728  20.325  1.00  0.00     0.032 C 
ENDROOT
BRANCH   1   2
ATOM      2  C   UNL     1      -1.274  13.895  19.882  1.00  0.00    -0.028 C 
ATOM      3  C   UNL     1      -2.292  14.444  20.585  1.00  0.00    -0.077 C 
ATOM      4  C   UNL     1      -3.074  15.561  19.943  1.00  0.00     0.039 C 
BRANCH   3   5
ATOM      5  C   UNL     1      -2.676  14.014  21.990  1.00  0.00     0.034 C 
BRANCH   5   6
ATOM      6  C   UNL     1      -2.339  15.088  23.032  1.00  0.00     0.032 C 
BRANCH   6   7
ATOM      7  C   UNL     1      -0.891  15.018  23.454  1.00  0.00    -0.028 C 
ATOM      8  C   UNL     1      -0.195  16.990  22.076  1.00  0.00     0.039 C 
ATOM      9  C   UNL     1       0.086  15.839  23.011  1.00  0.00    -0.080 C 
ATOM     10  C   UNL     1       1.497  15.588  23.476  1.00  0.00     0.039 C 
ENDBRANCH   6   7
ENDBRANCH   5   6
ENDBRANCH   3   5
ENDBRANCH   1   2
BRANCH   1  11
ATOM     11  C   UNL     1       1.005  13.173  20.670  1.00  0.00     0.034 C 
BRANCH  11  12
ATOM     12  C   UNL     1       1.651  12.260  21.690  1.00  0.00    -0.077 C 
ATOM     13  C   UNL     1       0.914  11.278  22.257  1.00  0.00    -0.028 C 
ATOM     14  C   UNL     1       3.089  12.508  22.081  1.00  0.00     0.039 C 
BRANCH  13  15
ATOM     15  C   UNL     1       1.430  10.300  23.286  1.00  0.00     0.035 C 
BRANCH  15  16
ATOM     16  C   UNL     1       2.422   9.303  22.674  1.00  0.00     0.079 C 
BRANCH  16  17
ATOM     17  C   UNL     1       1.879   8.683  21.412  1.00  0.00     0.130 C 
ATOM     18  O   UNL     1       0.863   8.007  21.461  1.00  0.00    -0.300 OA
ATOM     19  C   UNL     1       2.562   8.881  20.091  1.00  0.00     0.087 C 
ENDBRANCH  16  17
ENDBRANCH  15  16
ENDBRANCH  13  15
ENDBRANCH  11  12
ENDBRANCH   1  11
TORSDOF 9
ENDMDL
MODEL 4
REMARK VINA RESULT:    -7.049      1.464      2.079
REMARK INTER + INTRA:         -13.338
REMARK INTER:                 -11.241
REMARK INTRA:                  -2.098
REMARK UNBOUND:                -2.580
REMARK SMILES CC(=O)CCC=C(C)CCC=C(C)CCC=C(C)C
REMARK SMILES IDX 10 1 11 2 12 3 13 4 14 5 15 6 16 7 18 8 17 9 19 10 9 11 7 12
REMARK SMILES IDX 6 13 8 14 5 15 4 16 2 17 3 18 1 19
REMARK H PARENT
REMARK Flexibility Score: inf
ROOT
ATOM      1  C   UNL     1       0.449  11.893  19.620  1.00  0.00     0.032 C 
ENDROOT
BRANCH   1   2
ATOM      2  C   UNL     1       1.760  12.152  20.324  1.00  0.00    -0.028 C 
ATOM      3  C   UNL     1       2.766  11.259  20.481  1.00  0.00    -0.077 C 
ATOM      4  C   UNL     1       3.972  11.684  21.278  1.00  0.00     0.039 C 
BRANCH   3   5
ATOM      5  C   UNL     1       2.757   9.864  19.883  1.00  0.00     0.034 C 
BRANCH   5   6
ATOM      6  C   UNL     1       2.676   8.776  20.963  1.00  0.00     0.032 C 
BRANCH   6   7
ATOM      7  C   UNL     1       1.256   8.556  21.424  1.00  0.00    -0.028 C 
ATOM      8  C   UNL     1       1.560   9.791  23.580  1.00  0.00     0.039 C 
ATOM      9  C   UNL     1       0.750   8.974  22.604  1.00  0.00    -0.080 C 
ATOM     10  C   UNL     1      -0.672   8.606  22.945  1.00  0.00     0.039 C 
ENDBRANCH   6   7
ENDBRANCH   5   6
ENDBRANCH   3   5
ENDBRANCH   1   2
BRANCH   1  11
ATOM     11  C   UNL     1      -0.699  11.707  20.619  1.00  0.00     0.034 C 
BRANCH  11  12
ATOM     12  C   UNL     1      -1.445  13.000  20.871  1.00  0.00    -0.077 C 
ATOM     13  C   UNL     1      -1.896  13.269  22.118  1.00  0.00    -0.028 C 
ATOM     14  C   UNL     1      -1.705  13.928  19.708  1.00  0.00     0.039 C 
BRANCH  13  15
ATOM     15  C   UNL     1      -2.652  14.518  22.507  1.00  0.00     0.035 C 
BRANCH  15  16
ATOM     16  C   UNL     1      -1.889  15.341  23.552  1.00  0.00     0.079 C 
BRANCH  16  17
ATOM     17  C   UNL     1      -0.567  15.829  23.017  1.00  0.00     0.130 C 
ATOM     18  O   UNL     1       0.472  15.398  23.493  1.00  0.00    -0.300 OA
ATOM     19  C   UNL     1      -0.500  16.835  21.906  1.00  0.00     0.087 C 
ENDBRANCH  16  17
ENDBRANCH  15  16
ENDBRANCH  13  15
ENDBRANCH  11  12
ENDBRANCH   1  11
TORSDOF 9
ENDMDL
MODEL 5
REMARK VINA RESULT:    -7.043      2.286      6.372
REMARK INTER + INTRA:         -13.328
REMARK INTER:                 -11.231
REMARK INTRA:                  -2.098
REMARK UNBOUND:                -2.580
REMARK SMILES CC(=O)CCC=C(C)CCC=C(C)CCC=C(C)C
REMARK SMILES IDX 10 1 11 2 12 3 13 4 14 5 15 6 16 7 18 8 17 9 19 10 9 11 7 12
REMARK SMILES IDX 6 13 8 14 5 15 4 16 2 17 3 18 1 19
REMARK H PARENT
REMARK Flexibility Score: inf
ROOT
ATOM      1  C   UNL     1      -0.401  13.130  19.610  1.00  0.00     0.032 C 
ENDROOT
BRANCH   1   2
ATOM      2  C   UNL     1      -1.727  12.882  20.292  1.00  0.00    -0.028 C 
ATOM      3  C   UNL     1      -2.736  13.775  20.413  1.00  0.00    -0.077 C 
ATOM      4  C   UNL     1      -3.958  13.363  21.192  1.00  0.00     0.039 C 
BRANCH   3   5
ATOM      5  C   UNL     1      -2.716  15.160  19.790  1.00  0.00     0.034 C 
BRANCH   5   6
ATOM      6  C   UNL     1      -2.685  16.267  20.852  1.00  0.00     0.032 C 
BRANCH   6   7
ATOM      7  C   UNL     1      -1.279  16.539  21.329  1.00  0.00    -0.028 C 
ATOM      8  C   UNL     1      -1.577  15.327  23.500  1.00  0.00     0.039 C 
ATOM      9  C   UNL     1      -0.778  16.155  22.523  1.00  0.00    -0.080 C 
ATOM     10  C   UNL     1       0.626  16.571  22.878  1.00  0.00     0.039 C 
ENDBRANCH   6   7
ENDBRANCH   5   6
ENDBRANCH   3   5
ENDBRANCH   1   2
BRANCH   1  11
ATOM     11  C   UNL     1       0.723  13.349  20.630  1.00  0.00     0.034 C 
BRANCH  11  12
ATOM     12  C   UNL     1       1.491  12.074  20.907  1.00  0.00    -0.077 C 
ATOM     13  C   UNL     1       1.854  11.786  22.178  1.00  0.00    -0.028 C 
ATOM     14  C   UNL     1       1.870  11.186  19.746  1.00  0.00     0.039 C 
BRANCH  13  15
ATOM     15  C   UNL     1       2.621  10.553  22.595  1.00  0.00     0.035 C 
BRANCH  15  16
ATOM     16  C   UNL     1       1.820   9.693  23.580  1.00  0.00     0.079 C 
BRANCH  16  17
ATOM     17  C   UNL     1       0.567   9.144  22.946  1.00  0.00     0.130 C 
ATOM     18  O   UNL     1      -0.524   9.458  23.397  1.00  0.00    -0.300 OA
ATOM     19  C   UNL     1       0.632   8.217  21.769  1.00  0.00     0.087 C 
ENDBRANCH  16  17
ENDBRANCH  15  16
ENDBRANCH  13  15
ENDBRANCH  11  12
ENDBRANCH   1  11
TORSDOF 9
ENDMDL
MODEL 6
REMARK VINA RESULT:    -7.022      1.883      6.062
REMARK INTER + INTRA:         -13.297
REMARK INTER:                 -11.337
REMARK INTRA:                  -1.960
REMARK UNBOUND:                -2.580
REMARK SMILES CC(=O)CCC=C(C)CCC=C(C)CCC=C(C)C
REMARK SMILES IDX 10 1 11 2 12 3 13 4 14 5 15 6 16 7 18 8 17 9 19 10 9 11 7 12
REMARK SMILES IDX 6 13 8 14 5 15 4 16 2 17 3 18 1 19
REMARK H PARENT
REMARK Flexibility Score: inf
ROOT
ATOM      1  C   UNL     1      -1.142   9.679  23.454  1.00  0.00     0.032 C 
ENDROOT
BRANCH   1   2
ATOM      2  C   UNL     1      -2.193  10.370  22.616  1.00  0.00    -0.028 C 
ATOM      3  C   UNL     1      -1.983  11.423  21.792  1.00  0.00    -0.077 C 
ATOM      4  C   UNL     1      -3.175  12.023  21.091  1.00  0.00     0.039 C 
BRANCH   3   5
ATOM      5  C   UNL     1      -0.614  12.020  21.517  1.00  0.00     0.034 C 
BRANCH   5   6
ATOM      6  C   UNL     1      -0.248  13.110  22.532  1.00  0.00     0.032 C 
BRANCH   6   7
ATOM      7  C   UNL     1      -0.316  14.487  21.918  1.00  0.00    -0.028 C 
ATOM      8  C   UNL     1      -2.277  15.215  23.294  1.00  0.00     0.039 C 
ATOM      9  C   UNL     1      -1.236  15.428  22.223  1.00  0.00    -0.080 C 
ATOM     10  C   UNL     1      -1.210  16.729  21.462  1.00  0.00     0.039 C 
ENDBRANCH   6   7
ENDBRANCH   5   6
ENDBRANCH   3   5
ENDBRANCH   1   2
BRANCH   1  11
ATOM     11  C   UNL     1      -0.433   8.572  22.665  1.00  0.00     0.034 C 
BRANCH  11  12
ATOM     12  C   UNL     1       1.006   8.929  22.358  1.00  0.00    -0.077 C 
ATOM     13  C   UNL     1       1.529   8.586  21.158  1.00  0.00    -0.028 C 
ATOM     14  C   UNL     1       1.828   9.615  23.423  1.00  0.00     0.039 C 
BRANCH  13  15
ATOM     15  C   UNL     1       2.945   8.879  20.723  1.00  0.00     0.035 C 
BRANCH  15  16
ATOM     16  C   UNL     1       2.992   9.942  19.618  1.00  0.00     0.079 C 
BRANCH  16  17
ATOM     17  C   UNL     1       3.024  11.336  20.191  1.00  0.00     0.130 C 
ATOM     18  O   UNL     1       2.343  12.213  19.681  1.00  0.00    -0.300 OA
ATOM     19  C   UNL     1       3.877  11.671  21.378  1.00  0.00     0.087 C 
ENDBRANCH  16  17
ENDBRANCH  15  16
ENDBRANCH  13  15
ENDBRANCH  11  12
ENDBRANCH   1  11
TORSDOF 9
ENDMDL
MODEL 7
REMARK VINA RESULT:    -7.012      1.932      3.575
REMARK INTER + INTRA:         -13.281
REMARK INTER:                 -11.241
REMARK INTRA:                  -2.040
REMARK UNBOUND:                -2.580
REMARK SMILES CC(=O)CCC=C(C)CCC=C(C)CCC=C(C)C
REMARK SMILES IDX 10 1 11 2 12 3 13 4 14 5 15 6 16 7 18 8 17 9 19 10 9 11 7 12
REMARK SMILES IDX 6 13 8 14 5 15 4 16 2 17 3 18 1 19
REMARK H PARENT
REMARK Flexibility Score: inf
ROOT
ATOM      1  C   UNL     1       1.550  15.278  23.524  1.00  0.00     0.032 C 
ENDROOT
BRANCH   1   2
ATOM      2  C   UNL     1       2.482  14.547  22.586  1.00  0.00    -0.028 C 
ATOM      3  C   UNL     1       2.129  13.569  21.719  1.00  0.00    -0.077 C 
ATOM      4  C   UNL     1       3.218  12.908  20.915  1.00  0.00     0.039 C 
BRANCH   3   5
ATOM      5  C   UNL     1       0.697  13.116  21.497  1.00  0.00     0.034 C 
BRANCH   5   6
ATOM      6  C   UNL     1       0.264  12.057  22.520  1.00  0.00     0.032 C 
BRANCH   6   7
ATOM      7  C   UNL     1       0.304  10.667  21.931  1.00  0.00    -0.028 C 
ATOM      8  C   UNL     1       2.320   9.963  23.238  1.00  0.00     0.039 C 
ATOM      9  C   UNL     1       1.234   9.731  22.216  1.00  0.00    -0.080 C 
ATOM     10  C   UNL     1       1.173   8.415  21.485  1.00  0.00     0.039 C 
ENDBRANCH   6   7
ENDBRANCH   5   6
ENDBRANCH   3   5
ENDBRANCH   1   2
BRANCH   1  11
ATOM     11  C   UNL     1       0.847  16.446  22.821  1.00  0.00     0.034 C 
BRANCH  11  12
ATOM     12  C   UNL     1      -0.619  16.158  22.574  1.00  0.00    -0.077 C 
ATOM     13  C   UNL     1      -1.189  16.580  21.422  1.00  0.00    -0.028 C 
ATOM     14  C   UNL     1      -1.412  15.450  23.647  1.00  0.00     0.039 C 
BRANCH  13  15
ATOM     15  C   UNL     1      -2.636  16.361  21.049  1.00  0.00     0.035 C 
BRANCH  15  16
ATOM     16  C   UNL     1      -2.779  15.385  19.875  1.00  0.00     0.079 C 
BRANCH  16  17
ATOM     17  C   UNL     1      -2.905  13.960  20.350  1.00  0.00     0.130 C 
ATOM     18  O   UNL     1      -2.357  13.065  19.725  1.00  0.00    -0.300 OA
ATOM     19  C   UNL     1      -3.692  13.617  21.581  1.00  0.00     0.087 C 
ENDBRANCH  16  17
ENDBRANCH  15  16
ENDBRANCH  13  15
ENDBRANCH  11  12
ENDBRANCH   1  11
TORSDOF 9
ENDMDL
MODEL 8
REMARK VINA RESULT:    -6.794      2.009      6.203
REMARK INTER + INTRA:         -12.949
REMARK INTER:                 -11.327
REMARK INTRA:                  -1.622
REMARK UNBOUND:                -2.580
REMARK SMILES CC(=O)CCC=C(C)CCC=C(C)CCC=C(C)C
REMARK SMILES IDX 10 1 11 2 12 3 13 4 14 5 15 6 16 7 18 8 17 9 19 10 9 11 7 12
REMARK SMILES IDX 6 13 8 14 5 15 4 16 2 17 3 18 1 19
REMARK H PARENT
REMARK Flexibility Score: inf
ROOT
ATOM      1  C   UNL     1      -1.395  10.243  22.858  1.00  0.00     0.032 C 
ENDROOT
BRANCH   1   2
ATOM      2  C   UNL     1      -0.962  11.131  21.715  1.00  0.00    -0.028 C 
ATOM      3  C   UNL     1      -1.772  11.928  20.979  1.00  0.00    -0.077 C 
ATOM      4  C   UNL     1      -1.163  12.689  19.830  1.00  0.00     0.039 C 
BRANCH   3   5
ATOM      5  C   UNL     1      -3.253  12.115  21.258  1.00  0.00     0.034 C 
BRANCH   5   6
ATOM      6  C   UNL     1      -3.599  13.576  21.571  1.00  0.00     0.032 C 
BRANCH   6   7
ATOM      7  C   UNL     1      -2.785  14.105  22.728  1.00  0.00    -0.028 C 
ATOM      8  C   UNL     1      -2.062  16.177  21.522  1.00  0.00     0.039 C 
ATOM      9  C   UNL     1      -2.066  15.248  22.711  1.00  0.00    -0.080 C 
ATOM     10  C   UNL     1      -1.247  15.597  23.927  1.00  0.00     0.039 C 
ENDBRANCH   6   7
ENDBRANCH   5   6
ENDBRANCH   3   5
ENDBRANCH   1   2
BRANCH   1  11
ATOM     11  C   UNL     1      -0.687   8.884  22.813  1.00  0.00     0.034 C 
BRANCH  11  12
ATOM     12  C   UNL     1       0.796   9.027  22.546  1.00  0.00    -0.077 C 
ATOM     13  C   UNL     1       1.308   8.545  21.390  1.00  0.00    -0.028 C 
ATOM     14  C   UNL     1       1.668   9.662  23.604  1.00  0.00     0.039 C 
BRANCH  13  15
ATOM     15  C   UNL     1       2.764   8.621  20.997  1.00  0.00     0.035 C 
BRANCH  15  16
ATOM     16  C   UNL     1       2.988   9.583  19.825  1.00  0.00     0.079 C 
BRANCH  16  17
ATOM     17  C   UNL     1       2.955  11.022  20.274  1.00  0.00     0.130 C 
ATOM     18  O   UNL     1       2.163  11.797  19.759  1.00  0.00    -0.300 OA
ATOM     19  C   UNL     1       3.878  11.524  21.345  1.00  0.00     0.087 C 
ENDBRANCH  16  17
ENDBRANCH  15  16
ENDBRANCH  13  15
ENDBRANCH  11  12
ENDBRANCH   1  11
TORSDOF 9
ENDMDL
MODEL 9
REMARK VINA RESULT:    -6.737      2.432      6.045
REMARK INTER + INTRA:         -12.862
REMARK INTER:                 -10.712
REMARK INTRA:                  -2.150
REMARK UNBOUND:                -2.580
REMARK SMILES CC(=O)CCC=C(C)CCC=C(C)CCC=C(C)C
REMARK SMILES IDX 10 1 11 2 12 3 13 4 14 5 15 6 16 7 18 8 17 9 19 10 9 11 7 12
REMARK SMILES IDX 6 13 8 14 5 15 4 16 2 17 3 18 1 19
REMARK H PARENT
REMARK Flexibility Score: inf
ROOT
ATOM      1  C   UNL     1       0.337  16.165  22.896  1.00  0.00     0.032 C 
ENDROOT
BRANCH   1   2
ATOM      2  C   UNL     1      -0.597  16.475  21.749  1.00  0.00    -0.028 C 
ATOM      3  C   UNL     1      -1.872  16.036  21.624  1.00  0.00    -0.077 C 
ATOM      4  C   UNL     1      -2.624  16.394  20.369  1.00  0.00     0.039 C 
BRANCH   3   5
ATOM      5  C   UNL     1      -2.592  15.223  22.685  1.00  0.00     0.034 C 
BRANCH   5   6
ATOM      6  C   UNL     1      -3.278  13.985  22.093  1.00  0.00     0.032 C 
BRANCH   6   7
ATOM      7  C   UNL     1      -2.462  12.735  22.319  1.00  0.00    -0.028 C 
ATOM      8  C   UNL     1      -1.405  12.783  20.050  1.00  0.00     0.039 C 
ATOM      9  C   UNL     1      -1.646  12.166  21.406  1.00  0.00    -0.080 C 
ATOM     10  C   UNL     1      -0.957  10.876  21.767  1.00  0.00     0.039 C 
ENDBRANCH   6   7
ENDBRANCH   5   6
ENDBRANCH   3   5
ENDBRANCH   1   2
BRANCH   1  11
ATOM     11  C   UNL     1       0.577  14.657  23.034  1.00  0.00     0.034 C 
BRANCH  11  12
ATOM     12  C   UNL     1       1.896  14.235  22.422  1.00  0.00    -0.077 C 
ATOM     13  C   UNL     1       1.920  13.192  21.561  1.00  0.00    -0.028 C 
ATOM     14  C   UNL     1       3.154  14.964  22.831  1.00  0.00     0.039 C 
BRANCH  13  15
ATOM     15  C   UNL     1       3.162  12.667  20.880  1.00  0.00     0.035 C 
BRANCH  15  16
ATOM     16  C   UNL     1       3.793  11.510  21.663  1.00  0.00     0.079 C 
BRANCH  16  17
ATOM     17  C   UNL     1       2.813  10.385  21.877  1.00  0.00     0.130 C 
ATOM     18  O   UNL     1       2.380   9.772  20.913  1.00  0.00    -0.300 OA
ATOM     19  C   UNL     1       2.358  10.000  23.253  1.00  0.00     0.087 C 
ENDBRANCH  16  17
ENDBRANCH  15  16
ENDBRANCH  13  15
ENDBRANCH  11  12
ENDBRANCH   1  11
TORSDOF 9
ENDMDL
