MODEL 1
REMARK VINA RESULT:    -5.472      0.000      0.000
REMARK INTER + INTRA:          -6.080
REMARK INTER:                  -5.952
REMARK INTRA:                  -0.128
REMARK UNBOUND:                -0.128
REMARK SMILES Cc1ccc(C(C)C)cc1O
REMARK SMILES IDX 1 1 2 2 10 3 9 4 5 5 4 6 3 7 11 8 6 10 7 11 8 12
REMARK H PARENT 11 9
REMARK Flexibility Score: inf
ROOT
ATOM      1  C   UNL     1      -8.126  -9.571  14.085  1.00  0.00     0.048 C 
ATOM      2  C   UNL     1      -7.434  -8.267  13.805  1.00  0.00    -0.009 A 
ATOM      3  C   UNL     1      -8.003  -7.056  14.238  1.00  0.00     0.118 A 
ATOM      4  C   UNL     1      -7.353  -5.842  13.973  1.00  0.00     0.050 A 
ATOM      5  C   UNL     1      -6.130  -5.820  13.276  1.00  0.00    -0.042 A 
ATOM      6  C   UNL     1      -5.571  -7.035  12.848  1.00  0.00     0.004 A 
ATOM      7  C   UNL     1      -6.216  -8.247  13.110  1.00  0.00     0.007 A 
ENDROOT
BRANCH   3   8
ATOM      8  O   UNL     1      -9.214  -7.062  14.930  1.00  0.00    -0.508 OA
ATOM      9  H   UNL     1      -9.257  -6.888  15.927  1.00  0.00     0.293 HD
ENDBRANCH   3   8
BRANCH   5  10
ATOM     10  C   UNL     1      -5.418  -4.512  12.984  1.00  0.00     0.013 C 
ATOM     11  C   UNL     1      -4.707  -4.561  11.626  1.00  0.00     0.012 C 
ATOM     12  C   UNL     1      -4.439  -4.154  14.107  1.00  0.00     0.012 C 
ENDBRANCH   5  10
TORSDOF 2
ENDMDL
MODEL 2
REMARK VINA RESULT:    -5.205      2.861      3.976
REMARK INTER + INTRA:          -5.789
REMARK INTER:                  -5.691
REMARK INTRA:                  -0.098
REMARK UNBOUND:                -0.128
REMARK SMILES Cc1ccc(C(C)C)cc1O
REMARK SMILES IDX 1 1 2 2 10 3 9 4 5 5 4 6 3 7 11 8 6 10 7 11 8 12
REMARK H PARENT 11 9
REMARK Flexibility Score: inf
ROOT
ATOM      1  C   UNL     1      -5.550  -6.804  11.289  1.00  0.00     0.048 C 
ATOM      2  C   UNL     1      -5.455  -6.050  12.586  1.00  0.00    -0.009 A 
ATOM      3  C   UNL     1      -4.202  -5.647  13.080  1.00  0.00     0.118 A 
ATOM      4  C   UNL     1      -4.120  -4.945  14.291  1.00  0.00     0.050 A 
ATOM      5  C   UNL     1      -5.283  -4.635  15.022  1.00  0.00    -0.042 A 
ATOM      6  C   UNL     1      -6.529  -5.042  14.518  1.00  0.00     0.004 A 
ATOM      7  C   UNL     1      -6.615  -5.742  13.312  1.00  0.00     0.007 A 
ENDROOT
BRANCH   3   8
ATOM      8  O   UNL     1      -3.041  -5.947  12.368  1.00  0.00    -0.508 OA
ATOM      9  H   UNL     1      -2.386  -6.649  12.691  1.00  0.00     0.293 HD
ENDBRANCH   3   8
BRANCH   5  10
ATOM     10  C   UNL     1      -5.206  -3.875  16.333  1.00  0.00     0.013 C 
ATOM     11  C   UNL     1      -4.689  -2.447  16.115  1.00  0.00     0.012 C 
ATOM     12  C   UNL     1      -4.344  -4.623  17.355  1.00  0.00     0.012 C 
ENDBRANCH   5  10
TORSDOF 2
ENDMDL
MODEL 3
REMARK VINA RESULT:    -5.094      9.639     11.122
REMARK INTER + INTRA:          -5.668
REMARK INTER:                  -5.543
REMARK INTRA:                  -0.125
REMARK UNBOUND:                -0.128
REMARK SMILES Cc1ccc(C(C)C)cc1O
REMARK SMILES IDX 1 1 2 2 10 3 9 4 5 5 4 6 3 7 11 8 6 10 7 11 8 12
REMARK H PARENT 11 9
REMARK Flexibility Score: inf
ROOT
ATOM      1  C   UNL     1      -4.004  -9.077   4.974  1.00  0.00     0.048 C 
ATOM      2  C   UNL     1      -3.617  -7.865   4.175  1.00  0.00    -0.009 A 
ATOM      3  C   UNL     1      -4.604  -7.094   3.534  1.00  0.00     0.118 A 
ATOM      4  C   UNL     1      -4.236  -5.964   2.789  1.00  0.00     0.050 A 
ATOM      5  C   UNL     1      -2.884  -5.589   2.675  1.00  0.00    -0.042 A 
ATOM      6  C   UNL     1      -1.907  -6.365   3.319  1.00  0.00     0.004 A 
ATOM      7  C   UNL     1      -2.269  -7.491   4.062  1.00  0.00     0.007 A 
ENDROOT
BRANCH   3   8
ATOM      8  O   UNL     1      -5.947  -7.454   3.639  1.00  0.00    -0.508 OA
ATOM      9  H   UNL     1      -6.600  -7.294   2.881  1.00  0.00     0.293 HD
ENDBRANCH   3   8
BRANCH   5  10
ATOM     10  C   UNL     1      -2.475  -4.368   1.872  1.00  0.00     0.013 C 
ATOM     11  C   UNL     1      -3.571  -3.970   0.875  1.00  0.00     0.012 C 
ATOM     12  C   UNL     1      -1.138  -4.598   1.160  1.00  0.00     0.012 C 
ENDBRANCH   5  10
TORSDOF 2
ENDMDL
MODEL 4
REMARK VINA RESULT:    -4.957     15.982     18.144
REMARK INTER + INTRA:          -5.519
REMARK INTER:                  -5.395
REMARK INTRA:                  -0.124
REMARK UNBOUND:                -0.128
REMARK SMILES Cc1ccc(C(C)C)cc1O
REMARK SMILES IDX 1 1 2 2 10 3 9 4 5 5 4 6 3 7 11 8 6 10 7 11 8 12
REMARK H PARENT 11 9
REMARK Flexibility Score: inf
ROOT
ATOM      1  C   UNL     1       0.501   8.544   3.869  1.00  0.00     0.048 C 
ATOM      2  C   UNL     1      -0.185   7.368   3.234  1.00  0.00    -0.009 A 
ATOM      3  C   UNL     1       0.527   6.514   2.372  1.00  0.00     0.118 A 
ATOM      4  C   UNL     1      -0.119   5.418   1.782  1.00  0.00     0.050 A 
ATOM      5  C   UNL     1      -1.478   5.159   2.044  1.00  0.00    -0.042 A 
ATOM      6  C   UNL     1      -2.179   6.017   2.907  1.00  0.00     0.004 A 
ATOM      7  C   UNL     1      -1.538   7.111   3.497  1.00  0.00     0.007 A 
ENDROOT
BRANCH   3   8
ATOM      8  O   UNL     1       1.873   6.759   2.103  1.00  0.00    -0.508 OA
ATOM      9  H   UNL     1       2.328   7.613   2.402  1.00  0.00     0.293 HD
ENDBRANCH   3   8
BRANCH   5  10
ATOM     10  C   UNL     1      -2.186   3.976   1.411  1.00  0.00     0.013 C 
ATOM     11  C   UNL     1      -3.164   3.325   2.398  1.00  0.00     0.012 C 
ATOM     12  C   UNL     1      -1.180   2.952   0.875  1.00  0.00     0.012 C 
ENDBRANCH   5  10
TORSDOF 2
ENDMDL
MODEL 5
REMARK VINA RESULT:    -4.937      2.039      3.437
REMARK INTER + INTRA:          -5.497
REMARK INTER:                  -5.397
REMARK INTRA:                  -0.100
REMARK UNBOUND:                -0.128
REMARK SMILES Cc1ccc(C(C)C)cc1O
REMARK SMILES IDX 1 1 2 2 10 3 9 4 5 5 4 6 3 7 11 8 6 10 7 11 8 12
REMARK H PARENT 11 9
REMARK Flexibility Score: inf
ROOT
ATOM      1  C   UNL     1      -5.810  -6.686  11.391  1.00  0.00     0.048 C 
ATOM      2  C   UNL     1      -5.419  -5.895  12.608  1.00  0.00    -0.009 A 
ATOM      3  C   UNL     1      -6.215  -5.936  13.766  1.00  0.00     0.118 A 
ATOM      4  C   UNL     1      -5.844  -5.195  14.897  1.00  0.00     0.050 A 
ATOM      5  C   UNL     1      -4.678  -4.407  14.889  1.00  0.00    -0.042 A 
ATOM      6  C   UNL     1      -3.890  -4.373  13.727  1.00  0.00     0.004 A 
ATOM      7  C   UNL     1      -4.256  -5.110  12.598  1.00  0.00     0.007 A 
ENDROOT
BRANCH   3   8
ATOM      8  O   UNL     1      -7.373  -6.713  13.789  1.00  0.00    -0.508 OA
ATOM      9  H   UNL     1      -7.929  -6.812  14.630  1.00  0.00     0.293 HD
ENDBRANCH   3   8
BRANCH   5  10
ATOM     10  C   UNL     1      -4.268  -3.602  16.108  1.00  0.00     0.013 C 
ATOM     11  C   UNL     1      -4.408  -4.430  17.391  1.00  0.00     0.012 C 
ATOM     12  C   UNL     1      -5.067  -2.298  16.203  1.00  0.00     0.012 C 
ENDBRANCH   5  10
TORSDOF 2
ENDMDL
MODEL 6
REMARK VINA RESULT:    -4.818      8.086      9.462
REMARK INTER + INTRA:          -5.368
REMARK INTER:                  -5.270
REMARK INTRA:                  -0.098
REMARK UNBOUND:                -0.128
REMARK SMILES Cc1ccc(C(C)C)cc1O
REMARK SMILES IDX 1 1 2 2 10 3 9 4 5 5 4 6 3 7 11 8 6 10 7 11 8 12
REMARK H PARENT 11 9
REMARK Flexibility Score: inf
ROOT
ATOM      1  C   UNL     1       1.288  -6.743  12.102  1.00  0.00     0.048 C 
ATOM      2  C   UNL     1       1.342  -6.446  10.630  1.00  0.00    -0.009 A 
ATOM      3  C   UNL     1       0.423  -5.552  10.054  1.00  0.00     0.118 A 
ATOM      4  C   UNL     1       0.479  -5.281   8.679  1.00  0.00     0.050 A 
ATOM      5  C   UNL     1       1.450  -5.893   7.865  1.00  0.00    -0.042 A 
ATOM      6  C   UNL     1       2.364  -6.784   8.452  1.00  0.00     0.004 A 
ATOM      7  C   UNL     1       2.311  -7.058   9.821  1.00  0.00     0.007 A 
ENDROOT
BRANCH   3   8
ATOM      8  O   UNL     1      -0.545  -4.938  10.848  1.00  0.00    -0.508 OA
ATOM      9  H   UNL     1      -1.050  -5.450  11.562  1.00  0.00     0.293 HD
ENDBRANCH   3   8
BRANCH   5  10
ATOM     10  C   UNL     1       1.520  -5.605   6.376  1.00  0.00     0.013 C 
ATOM     11  C   UNL     1       1.901  -4.144   6.114  1.00  0.00     0.012 C 
ATOM     12  C   UNL     1       0.202  -5.967   5.682  1.00  0.00     0.012 C 
ENDBRANCH   5  10
TORSDOF 2
ENDMDL
MODEL 7
REMARK VINA RESULT:    -4.817      2.208      4.781
REMARK INTER + INTRA:          -5.367
REMARK INTER:                  -5.242
REMARK INTRA:                  -0.125
REMARK UNBOUND:                -0.128
REMARK SMILES Cc1ccc(C(C)C)cc1O
REMARK SMILES IDX 1 1 2 2 10 3 9 4 5 5 4 6 3 7 11 8 6 10 7 11 8 12
REMARK H PARENT 11 9
REMARK Flexibility Score: inf
ROOT
ATOM      1  C   UNL     1      -2.992  -2.338  15.723  1.00  0.00     0.048 C 
ATOM      2  C   UNL     1      -3.882  -3.355  15.064  1.00  0.00    -0.009 A 
ATOM      3  C   UNL     1      -4.996  -3.871  15.750  1.00  0.00     0.118 A 
ATOM      4  C   UNL     1      -5.821  -4.820  15.129  1.00  0.00     0.050 A 
ATOM      5  C   UNL     1      -5.548  -5.264  13.822  1.00  0.00    -0.042 A 
ATOM      6  C   UNL     1      -4.433  -4.742  13.147  1.00  0.00     0.004 A 
ATOM      7  C   UNL     1      -3.608  -3.796  13.761  1.00  0.00     0.007 A 
ENDROOT
BRANCH   3   8
ATOM      8  O   UNL     1      -5.279  -3.440  17.045  1.00  0.00    -0.508 OA
ATOM      9  H   UNL     1      -4.911  -3.922  17.857  1.00  0.00     0.293 HD
ENDBRANCH   3   8
BRANCH   5  10
ATOM     10  C   UNL     1      -6.435  -6.291  13.141  1.00  0.00     0.013 C 
ATOM     11  C   UNL     1      -7.272  -7.064  14.167  1.00  0.00     0.012 C 
ATOM     12  C   UNL     1      -5.609  -7.244  12.271  1.00  0.00     0.012 C 
ENDBRANCH   5  10
TORSDOF 2
ENDMDL
MODEL 8
REMARK VINA RESULT:    -4.813      2.794      5.221
REMARK INTER + INTRA:          -5.362
REMARK INTER:                  -5.236
REMARK INTRA:                  -0.126
REMARK UNBOUND:                -0.128
REMARK SMILES Cc1ccc(C(C)C)cc1O
REMARK SMILES IDX 1 1 2 2 10 3 9 4 5 5 4 6 3 7 11 8 6 10 7 11 8 12
REMARK H PARENT 11 9
REMARK Flexibility Score: inf
ROOT
ATOM      1  C   UNL     1      -3.064  -2.381  16.017  1.00  0.00     0.048 C 
ATOM      2  C   UNL     1      -3.915  -3.362  15.262  1.00  0.00    -0.009 A 
ATOM      3  C   UNL     1      -3.537  -3.784  13.975  1.00  0.00     0.118 A 
ATOM      4  C   UNL     1      -4.336  -4.700  13.275  1.00  0.00     0.050 A 
ATOM      5  C   UNL     1      -5.518  -5.206  13.848  1.00  0.00    -0.042 A 
ATOM      6  C   UNL     1      -5.886  -4.778  15.135  1.00  0.00     0.004 A 
ATOM      7  C   UNL     1      -5.092  -3.866  15.835  1.00  0.00     0.007 A 
ENDROOT
BRANCH   3   8
ATOM      8  O   UNL     1      -2.368  -3.291  13.394  1.00  0.00    -0.508 OA
ATOM      9  H   UNL     1      -1.808  -3.856  12.768  1.00  0.00     0.293 HD
ENDBRANCH   3   8
BRANCH   5  10
ATOM     10  C   UNL     1      -6.389  -6.198  13.100  1.00  0.00     0.013 C 
ATOM     11  C   UNL     1      -7.191  -7.072  14.072  1.00  0.00     0.012 C 
ATOM     12  C   UNL     1      -5.554  -7.057  12.145  1.00  0.00     0.012 C 
ENDBRANCH   5  10
TORSDOF 2
ENDMDL
MODEL 9
REMARK VINA RESULT:    -4.785     14.797     16.424
REMARK INTER + INTRA:          -5.332
REMARK INTER:                  -5.207
REMARK INTRA:                  -0.125
REMARK UNBOUND:                -0.128
REMARK SMILES Cc1ccc(C(C)C)cc1O
REMARK SMILES IDX 1 1 2 2 10 3 9 4 5 5 4 6 3 7 11 8 6 10 7 11 8 12
REMARK H PARENT 11 9
REMARK Flexibility Score: inf
ROOT
ATOM      1  C   UNL     1       0.870   9.129  17.406  1.00  0.00     0.048 C 
ATOM      2  C   UNL     1       1.048   7.877  18.218  1.00  0.00    -0.009 A 
ATOM      3  C   UNL     1       0.037   7.455  19.100  1.00  0.00     0.118 A 
ATOM      4  C   UNL     1       0.210   6.286  19.855  1.00  0.00     0.050 A 
ATOM      5  C   UNL     1       1.388   5.524  19.740  1.00  0.00    -0.042 A 
ATOM      6  C   UNL     1       2.391   5.954  18.856  1.00  0.00     0.004 A 
ATOM      7  C   UNL     1       2.222   7.119  18.102  1.00  0.00     0.007 A 
ENDROOT
BRANCH   3   8
ATOM      8  O   UNL     1      -1.135   8.200  19.225  1.00  0.00    -0.508 OA
ATOM      9  H   UNL     1      -1.283   9.050  18.694  1.00  0.00     0.293 HD
ENDBRANCH   3   8
BRANCH   5  10
ATOM     10  C   UNL     1       1.585   4.258  20.552  1.00  0.00     0.013 C 
ATOM     11  C   UNL     1       2.421   3.230  19.780  1.00  0.00     0.012 C 
ATOM     12  C   UNL     1       0.239   3.663  20.983  1.00  0.00     0.012 C 
ENDBRANCH   5  10
TORSDOF 2
ENDMDL
