MODEL 1
REMARK VINA RESULT:    -5.639      0.000      0.000
REMARK INTER + INTRA:          -6.414
REMARK INTER:                  -6.628
REMARK INTRA:                   0.214
REMARK UNBOUND:                 0.214
REMARK SMILES C=C(C)[C@@H]1CC[C@]2(CO)CC[C@@]3(C)[C@H](CC[C@@H]4[C@@]5(C)CC[C@H](O)C(C)(C)[C@@H]5CC[C@]43C)[C@H]12
REMARK SMILES IDX 4 1 5 2 6 3 7 4 32 5 14 6 15 7 16 8 17 9 18 10 20 11 21 12
REMARK SMILES IDX 22 13 24 14 27 15 28 16 29 17 30 18 12 19 11 20 10 21 13 22
REMARK SMILES IDX 31 23 25 24 26 25 19 26 2 27 3 28 1 29 8 30 9 31 23 33
REMARK H PARENT 9 32 23 34
REMARK Flexibility Score: inf
ROOT
ATOM      1  C   UNL     1      -1.698  -0.667  19.306  1.00  0.00     0.018 C 
ATOM      2  C   UNL     1      -1.068   0.729  19.491  1.00  0.00     0.009 C 
ATOM      3  C   UNL     1      -2.171   1.650  20.047  1.00  0.00     0.010 C 
ATOM      4  C   UNL     1      -3.465   0.812  20.116  1.00  0.00    -0.003 C 
ATOM      5  C   UNL     1      -2.940  -0.656  20.235  1.00  0.00     0.008 C 
ATOM      6  C   UNL     1      -2.687  -1.176  21.716  1.00  0.00    -0.000 C 
ATOM      7  C   UNL     1      -1.305  -0.791  22.338  1.00  0.00     0.005 C 
ATOM      8  C   UNL     1      -1.081  -1.335  23.761  1.00  0.00     0.005 C 
ATOM      9  C   UNL     1      -2.214  -0.835  24.671  1.00  0.00     0.002 C 
ATOM     10  C   UNL     1      -1.974  -0.783  26.238  1.00  0.00    -0.026 C 
ATOM     11  C   UNL     1      -0.541  -0.246  26.563  1.00  0.00     0.010 C 
ATOM     12  C   UNL     1      -0.333   0.135  28.041  1.00  0.00     0.033 C 
ATOM     13  C   UNL     1      -1.386   1.141  28.547  1.00  0.00     0.120 C 
ATOM     14  C   UNL     1      -2.866   0.693  28.295  1.00  0.00    -0.006 C 
ATOM     15  C   UNL     1      -3.004   0.282  26.778  1.00  0.00     0.003 C 
ATOM     16  C   UNL     1      -4.462   0.116  26.247  1.00  0.00     0.005 C 
ATOM     17  C   UNL     1      -4.736  -1.008  25.225  1.00  0.00     0.008 C 
ATOM     18  C   UNL     1      -3.611  -1.396  24.182  1.00  0.00    -0.024 C 
ATOM     19  C   UNL     1      -3.900  -0.853  22.679  1.00  0.00    -0.024 C 
ATOM     20  C   UNL     1      -4.113   0.696  22.659  1.00  0.00     0.008 C 
ATOM     21  C   UNL     1      -4.406   1.274  21.275  1.00  0.00     0.010 C 
ATOM     22  C   UNL     1      -5.179  -1.551  22.089  1.00  0.00     0.012 C 
ATOM     23  C   UNL     1      -3.618  -2.972  24.135  1.00  0.00     0.012 C 
ATOM     24  C   UNL     1      -3.770   1.926  28.578  1.00  0.00     0.014 C 
ATOM     25  C   UNL     1      -3.298  -0.435  29.270  1.00  0.00     0.014 C 
ATOM     26  C   UNL     1      -2.113  -2.187  26.875  1.00  0.00     0.012 C 
ENDROOT
BRANCH   1  27
ATOM     27  C   UNL     1      -0.768  -1.881  19.378  1.00  0.00    -0.077 C 
ATOM     28  C   UNL     1      -0.894  -2.989  18.361  1.00  0.00     0.039 C 
ATOM     29  C   UNL     1       0.298  -1.910  20.198  1.00  0.00     0.008 C 
ENDBRANCH   1  27
BRANCH   4  30
ATOM     30  C   UNL     1      -4.305   1.018  18.802  1.00  0.00     0.163 C 
BRANCH  30  31
ATOM     31  O   UNL     1      -5.257   0.010  18.576  1.00  0.00    -0.396 OA
ATOM     32  H   UNL     1      -6.147   0.445  18.518  1.00  0.00     0.210 HD
ENDBRANCH  30  31
ENDBRANCH   4  30
BRANCH  13  33
ATOM     33  O   UNL     1      -1.157   1.468  29.898  1.00  0.00    -0.393 OA
ATOM     34  H   UNL     1      -1.838   2.133  30.176  1.00  0.00     0.210 HD
ENDBRANCH  13  33
TORSDOF 4
ENDMDL
MODEL 2
REMARK VINA RESULT:    -5.261      1.450      7.933
REMARK INTER + INTRA:          -5.970
REMARK INTER:                  -5.456
REMARK INTRA:                  -0.514
REMARK UNBOUND:                 0.214
REMARK SMILES C=C(C)[C@@H]1CC[C@]2(CO)CC[C@@]3(C)[C@H](CC[C@@H]4[C@@]5(C)CC[C@H](O)C(C)(C)[C@@H]5CC[C@]43C)[C@H]12
REMARK SMILES IDX 4 1 5 2 6 3 7 4 32 5 14 6 15 7 16 8 17 9 18 10 20 11 21 12
REMARK SMILES IDX 22 13 24 14 27 15 28 16 29 17 30 18 12 19 11 20 10 21 13 22
REMARK SMILES IDX 31 23 25 24 26 25 19 26 2 27 3 28 1 29 8 30 9 31 23 33
REMARK H PARENT 9 32 23 34
REMARK Flexibility Score: inf
ROOT
ATOM      1  C   UNL     1      -3.024   0.480  29.635  1.00  0.00     0.018 C 
ATOM      2  C   UNL     1      -2.710   1.943  29.259  1.00  0.00     0.009 C 
ATOM      3  C   UNL     1      -1.416   1.925  28.425  1.00  0.00     0.010 C 
ATOM      4  C   UNL     1      -0.931   0.461  28.376  1.00  0.00    -0.003 C 
ATOM      5  C   UNL     1      -2.243  -0.362  28.593  1.00  0.00     0.008 C 
ATOM      6  C   UNL     1      -3.049  -0.729  27.272  1.00  0.00    -0.000 C 
ATOM      7  C   UNL     1      -4.011   0.383  26.740  1.00  0.00     0.005 C 
ATOM      8  C   UNL     1      -4.798  -0.016  25.478  1.00  0.00     0.005 C 
ATOM      9  C   UNL     1      -3.804  -0.408  24.374  1.00  0.00     0.002 C 
ATOM     10  C   UNL     1      -4.273  -0.345  22.860  1.00  0.00    -0.026 C 
ATOM     11  C   UNL     1      -5.124   0.940  22.596  1.00  0.00     0.010 C 
ATOM     12  C   UNL     1      -5.354   1.246  21.103  1.00  0.00     0.033 C 
ATOM     13  C   UNL     1      -4.036   1.330  20.307  1.00  0.00     0.120 C 
ATOM     14  C   UNL     1      -3.110   0.078  20.478  1.00  0.00    -0.006 C 
ATOM     15  C   UNL     1      -2.945  -0.204  22.022  1.00  0.00     0.003 C 
ATOM     16  C   UNL     1      -1.809  -1.200  22.415  1.00  0.00     0.005 C 
ATOM     17  C   UNL     1      -2.066  -2.161  23.595  1.00  0.00     0.008 C 
ATOM     18  C   UNL     1      -2.960  -1.676  24.807  1.00  0.00    -0.024 C 
ATOM     19  C   UNL     1      -2.109  -1.313  26.141  1.00  0.00    -0.024 C 
ATOM     20  C   UNL     1      -1.009  -0.240  25.846  1.00  0.00     0.008 C 
ATOM     21  C   UNL     1      -0.158   0.138  27.057  1.00  0.00     0.010 C 
ATOM     22  C   UNL     1      -1.420  -2.605  26.711  1.00  0.00     0.012 C 
ATOM     23  C   UNL     1      -3.892  -2.901  25.148  1.00  0.00     0.012 C 
ATOM     24  C   UNL     1      -1.726   0.449  19.873  1.00  0.00     0.014 C 
ATOM     25  C   UNL     1      -3.648  -1.148  19.693  1.00  0.00     0.014 C 
ATOM     26  C   UNL     1      -5.136  -1.574  22.487  1.00  0.00     0.012 C 
ENDROOT
BRANCH   1  27
ATOM     27  C   UNL     1      -4.487   0.111  29.893  1.00  0.00    -0.077 C 
ATOM     28  C   UNL     1      -4.834  -1.240  30.471  1.00  0.00     0.039 C 
ATOM     29  C   UNL     1      -5.473   1.022  29.811  1.00  0.00     0.008 C 
ENDBRANCH   1  27
BRANCH   4  30
ATOM     30  C   UNL     1       0.107   0.203  29.530  1.00  0.00     0.163 C 
BRANCH  30  31
ATOM     31  O   UNL     1       0.106  -1.118  30.006  1.00  0.00    -0.396 OA
ATOM     32  H   UNL     1      -0.698  -1.570  29.639  1.00  0.00     0.210 HD
ENDBRANCH  30  31
ENDBRANCH   4  30
BRANCH  13  33
ATOM     33  O   UNL     1      -4.288   1.617  18.951  1.00  0.00    -0.393 OA
ATOM     34  H   UNL     1      -3.855   0.916  18.400  1.00  0.00     0.210 HD
ENDBRANCH  13  33
TORSDOF 4
ENDMDL
MODEL 3
REMARK VINA RESULT:    -5.118      1.214      1.385
REMARK INTER + INTRA:          -5.802
REMARK INTER:                  -5.531
REMARK INTRA:                  -0.270
REMARK UNBOUND:                 0.214
REMARK SMILES C=C(C)[C@@H]1CC[C@]2(CO)CC[C@@]3(C)[C@H](CC[C@@H]4[C@@]5(C)CC[C@H](O)C(C)(C)[C@@H]5CC[C@]43C)[C@H]12
REMARK SMILES IDX 4 1 5 2 6 3 7 4 32 5 14 6 15 7 16 8 17 9 18 10 20 11 21 12
REMARK SMILES IDX 22 13 24 14 27 15 28 16 29 17 30 18 12 19 11 20 10 21 13 22
REMARK SMILES IDX 31 23 25 24 26 25 19 26 2 27 3 28 1 29 8 30 9 31 23 33
REMARK H PARENT 9 32 23 34
REMARK Flexibility Score: inf
ROOT
ATOM      1  C   UNL     1      -2.669  -0.338  19.869  1.00  0.00     0.018 C 
ATOM      2  C   UNL     1      -2.578   1.180  20.127  1.00  0.00     0.009 C 
ATOM      3  C   UNL     1      -3.775   1.557  21.020  1.00  0.00     0.010 C 
ATOM      4  C   UNL     1      -4.608   0.275  21.222  1.00  0.00    -0.003 C 
ATOM      5  C   UNL     1      -3.564  -0.872  21.018  1.00  0.00     0.008 C 
ATOM      6  C   UNL     1      -2.787  -1.333  22.327  1.00  0.00    -0.000 C 
ATOM      7  C   UNL     1      -1.542  -0.470  22.710  1.00  0.00     0.005 C 
ATOM      8  C   UNL     1      -0.796  -0.962  23.965  1.00  0.00     0.005 C 
ATOM      9  C   UNL     1      -1.779  -1.003  25.145  1.00  0.00     0.002 C 
ATOM     10  C   UNL     1      -1.206  -0.950  26.624  1.00  0.00    -0.026 C 
ATOM     11  C   UNL     1      -0.043   0.090  26.731  1.00  0.00     0.010 C 
ATOM     12  C   UNL     1       0.358   0.437  28.178  1.00  0.00     0.033 C 
ATOM     13  C   UNL     1      -0.838   0.915  29.025  1.00  0.00     0.120 C 
ATOM     14  C   UNL     1      -2.059  -0.067  29.011  1.00  0.00    -0.006 C 
ATOM     15  C   UNL     1      -2.395  -0.411  27.508  1.00  0.00     0.003 C 
ATOM     16  C   UNL     1      -3.769  -1.108  27.260  1.00  0.00     0.005 C 
ATOM     17  C   UNL     1      -3.844  -2.189  26.160  1.00  0.00     0.008 C 
ATOM     18  C   UNL     1      -2.942  -2.041  24.868  1.00  0.00    -0.024 C 
ATOM     19  C   UNL     1      -3.764  -1.571  23.549  1.00  0.00    -0.024 C 
ATOM     20  C   UNL     1      -4.535  -0.234  23.798  1.00  0.00     0.008 C 
ATOM     21  C   UNL     1      -5.344   0.260  22.600  1.00  0.00     0.010 C 
ATOM     22  C   UNL     1      -4.794  -2.682  23.130  1.00  0.00     0.012 C 
ATOM     23  C   UNL     1      -2.374  -3.486  24.594  1.00  0.00     0.012 C 
ATOM     24  C   UNL     1      -3.261   0.691  29.645  1.00  0.00     0.014 C 
ATOM     25  C   UNL     1      -1.794  -1.327  29.876  1.00  0.00     0.014 C 
ATOM     26  C   UNL     1      -0.656  -2.328  27.064  1.00  0.00     0.012 C 
ENDROOT
BRANCH   1  27
ATOM     27  C   UNL     1      -1.367  -1.088  19.576  1.00  0.00    -0.077 C 
ATOM     28  C   UNL     1      -1.396  -2.364  18.770  1.00  0.00     0.039 C 
ATOM     29  C   UNL     1      -0.163  -0.549  19.840  1.00  0.00     0.008 C 
ENDBRANCH   1  27
BRANCH   4  30
ATOM     30  C   UNL     1      -5.754   0.206  20.147  1.00  0.00     0.163 C 
BRANCH  30  31
ATOM     31  O   UNL     1      -6.628  -0.879  20.319  1.00  0.00    -0.396 OA
ATOM     32  H   UNL     1      -6.439  -1.279  21.208  1.00  0.00     0.210 HD
ENDBRANCH  30  31
ENDBRANCH   4  30
BRANCH  13  33
ATOM     33  O   UNL     1      -0.430   1.228  30.336  1.00  0.00    -0.393 OA
ATOM     34  H   UNL     1      -1.088   0.839  30.967  1.00  0.00     0.210 HD
ENDBRANCH  13  33
TORSDOF 4
ENDMDL
MODEL 4
REMARK VINA RESULT:    -4.969      2.454      7.326
REMARK INTER + INTRA:          -5.626
REMARK INTER:                  -5.079
REMARK INTRA:                  -0.547
REMARK UNBOUND:                 0.214
REMARK SMILES C=C(C)[C@@H]1CC[C@]2(CO)CC[C@@]3(C)[C@H](CC[C@@H]4[C@@]5(C)CC[C@H](O)C(C)(C)[C@@H]5CC[C@]43C)[C@H]12
REMARK SMILES IDX 4 1 5 2 6 3 7 4 32 5 14 6 15 7 16 8 17 9 18 10 20 11 21 12
REMARK SMILES IDX 22 13 24 14 27 15 28 16 29 17 30 18 12 19 11 20 10 21 13 22
REMARK SMILES IDX 31 23 25 24 26 25 19 26 2 27 3 28 1 29 8 30 9 31 23 33
REMARK H PARENT 9 32 23 34
REMARK Flexibility Score: inf
ROOT
ATOM      1  C   UNL     1       0.765  -0.319  27.814  1.00  0.00     0.018 C 
ATOM      2  C   UNL     1       1.686   0.117  26.655  1.00  0.00     0.009 C 
ATOM      3  C   UNL     1       1.672  -1.021  25.617  1.00  0.00     0.010 C 
ATOM      4  C   UNL     1       0.804  -2.154  26.201  1.00  0.00    -0.003 C 
ATOM      5  C   UNL     1      -0.149  -1.406  27.191  1.00  0.00     0.008 C 
ATOM      6  C   UNL     1      -1.510  -0.874  26.562  1.00  0.00    -0.000 C 
ATOM      7  C   UNL     1      -1.420   0.509  25.838  1.00  0.00     0.005 C 
ATOM      8  C   UNL     1      -2.761   1.009  25.268  1.00  0.00     0.005 C 
ATOM      9  C   UNL     1      -3.315  -0.046  24.298  1.00  0.00     0.002 C 
ATOM     10  C   UNL     1      -4.360   0.401  23.191  1.00  0.00    -0.026 C 
ATOM     11  C   UNL     1      -3.946   1.770  22.558  1.00  0.00     0.010 C 
ATOM     12  C   UNL     1      -4.715   2.125  21.271  1.00  0.00     0.033 C 
ATOM     13  C   UNL     1      -4.626   1.016  20.203  1.00  0.00     0.120 C 
ATOM     14  C   UNL     1      -5.044  -0.402  20.723  1.00  0.00    -0.006 C 
ATOM     15  C   UNL     1      -4.252  -0.689  22.057  1.00  0.00     0.003 C 
ATOM     16  C   UNL     1      -4.276  -2.166  22.559  1.00  0.00     0.005 C 
ATOM     17  C   UNL     1      -4.341  -2.412  24.082  1.00  0.00     0.008 C 
ATOM     18  C   UNL     1      -3.619  -1.400  25.060  1.00  0.00    -0.024 C 
ATOM     19  C   UNL     1      -2.235  -1.974  25.687  1.00  0.00    -0.024 C 
ATOM     20  C   UNL     1      -1.237  -2.415  24.567  1.00  0.00     0.008 C 
ATOM     21  C   UNL     1       0.084  -2.981  25.088  1.00  0.00     0.010 C 
ATOM     22  C   UNL     1      -2.533  -3.205  26.617  1.00  0.00     0.012 C 
ATOM     23  C   UNL     1      -4.632  -1.179  26.248  1.00  0.00     0.012 C 
ATOM     24  C   UNL     1      -4.613  -1.430  19.638  1.00  0.00     0.014 C 
ATOM     25  C   UNL     1      -6.582  -0.521  20.894  1.00  0.00     0.014 C 
ATOM     26  C   UNL     1      -5.778   0.562  23.790  1.00  0.00     0.012 C 
ENDROOT
BRANCH   1  27
ATOM     27  C   UNL     1       0.097   0.781  28.642  1.00  0.00    -0.077 C 
ATOM     28  C   UNL     1      -0.733   0.418  29.849  1.00  0.00     0.039 C 
ATOM     29  C   UNL     1       0.383   2.082  28.456  1.00  0.00     0.008 C 
ENDBRANCH   1  27
BRANCH   4  30
ATOM     30  C   UNL     1       1.715  -3.192  26.955  1.00  0.00     0.163 C 
BRANCH  30  31
ATOM     31  O   UNL     1       0.995  -4.166  27.665  1.00  0.00    -0.396 OA
ATOM     32  H   UNL     1       1.278  -5.055  27.325  1.00  0.00     0.210 HD
ENDBRANCH  30  31
ENDBRANCH   4  30
BRANCH  13  33
ATOM     33  O   UNL     1      -5.335   1.381  19.042  1.00  0.00    -0.393 OA
ATOM     34  H   UNL     1      -4.757   1.975  18.499  1.00  0.00     0.210 HD
ENDBRANCH  13  33
TORSDOF 4
ENDMDL
MODEL 5
REMARK VINA RESULT:    -4.632      3.408      5.780
REMARK INTER + INTRA:          -5.231
REMARK INTER:                  -5.216
REMARK INTRA:                  -0.015
REMARK UNBOUND:                 0.214
REMARK SMILES C=C(C)[C@@H]1CC[C@]2(CO)CC[C@@]3(C)[C@H](CC[C@@H]4[C@@]5(C)CC[C@H](O)C(C)(C)[C@@H]5CC[C@]43C)[C@H]12
REMARK SMILES IDX 4 1 5 2 6 3 7 4 32 5 14 6 15 7 16 8 17 9 18 10 20 11 21 12
REMARK SMILES IDX 22 13 24 14 27 15 28 16 29 17 30 18 12 19 11 20 10 21 13 22
REMARK SMILES IDX 31 23 25 24 26 25 19 26 2 27 3 28 1 29 8 30 9 31 23 33
REMARK H PARENT 9 32 23 34
REMARK Flexibility Score: inf
ROOT
ATOM      1  C   UNL     1       1.301  -2.845  22.988  1.00  0.00     0.018 C 
ATOM      2  C   UNL     1       0.406  -4.079  23.222  1.00  0.00     0.009 C 
ATOM      3  C   UNL     1       0.626  -4.525  24.680  1.00  0.00     0.010 C 
ATOM      4  C   UNL     1       1.705  -3.598  25.276  1.00  0.00    -0.003 C 
ATOM      5  C   UNL     1       1.586  -2.300  24.412  1.00  0.00     0.008 C 
ATOM      6  C   UNL     1       0.554  -1.214  24.944  1.00  0.00    -0.000 C 
ATOM      7  C   UNL     1      -0.937  -1.444  24.535  1.00  0.00     0.005 C 
ATOM      8  C   UNL     1      -1.905  -0.359  25.041  1.00  0.00     0.005 C 
ATOM      9  C   UNL     1      -1.799  -0.270  26.572  1.00  0.00     0.002 C 
ATOM     10  C   UNL     1      -3.009   0.346  27.391  1.00  0.00    -0.026 C 
ATOM     11  C   UNL     1      -4.376  -0.157  26.824  1.00  0.00     0.010 C 
ATOM     12  C   UNL     1      -5.582   0.132  27.740  1.00  0.00     0.033 C 
ATOM     13  C   UNL     1      -5.384  -0.418  29.167  1.00  0.00     0.120 C 
ATOM     14  C   UNL     1      -4.050   0.043  29.847  1.00  0.00    -0.006 C 
ATOM     15  C   UNL     1      -2.864  -0.243  28.847  1.00  0.00     0.003 C 
ATOM     16  C   UNL     1      -1.428  -0.160  29.451  1.00  0.00     0.005 C 
ATOM     17  C   UNL     1      -0.303   0.422  28.568  1.00  0.00     0.008 C 
ATOM     18  C   UNL     1      -0.343   0.176  27.005  1.00  0.00    -0.024 C 
ATOM     19  C   UNL     1       0.724  -0.935  26.493  1.00  0.00    -0.024 C 
ATOM     20  C   UNL     1       0.536  -2.298  27.237  1.00  0.00     0.008 C 
ATOM     21  C   UNL     1       1.519  -3.388  26.813  1.00  0.00     0.010 C 
ATOM     22  C   UNL     1       2.192  -0.425  26.729  1.00  0.00     0.012 C 
ATOM     23  C   UNL     1       0.054   1.559  26.360  1.00  0.00     0.012 C 
ATOM     24  C   UNL     1      -3.866  -0.824  31.125  1.00  0.00     0.014 C 
ATOM     25  C   UNL     1      -4.117   1.527  30.297  1.00  0.00     0.014 C 
ATOM     26  C   UNL     1      -3.004   1.892  27.325  1.00  0.00     0.012 C 
ENDROOT
BRANCH   1  27
ATOM     27  C   UNL     1       0.862  -1.841  21.919  1.00  0.00    -0.077 C 
ATOM     28  C   UNL     1      -0.586  -1.775  21.497  1.00  0.00     0.039 C 
ATOM     29  C   UNL     1       1.682  -0.871  21.477  1.00  0.00     0.008 C 
ENDBRANCH   1  27
BRANCH   4  30
ATOM     30  C   UNL     1       3.124  -4.261  25.124  1.00  0.00     0.163 C 
BRANCH  30  31
ATOM     31  O   UNL     1       3.124  -5.423  24.336  1.00  0.00    -0.396 OA
ATOM     32  H   UNL     1       4.067  -5.714  24.229  1.00  0.00     0.210 HD
ENDBRANCH  30  31
ENDBRANCH   4  30
BRANCH  13  33
ATOM     33  O   UNL     1      -6.507  -0.141  29.970  1.00  0.00    -0.393 OA
ATOM     34  H   UNL     1      -6.255  -0.286  30.918  1.00  0.00     0.210 HD
ENDBRANCH  13  33
TORSDOF 4
ENDMDL
MODEL 6
REMARK VINA RESULT:    -3.754      3.699      7.625
REMARK INTER + INTRA:          -4.199
REMARK INTER:                  -3.805
REMARK INTRA:                  -0.394
REMARK UNBOUND:                 0.214
REMARK SMILES C=C(C)[C@@H]1CC[C@]2(CO)CC[C@@]3(C)[C@H](CC[C@@H]4[C@@]5(C)CC[C@H](O)C(C)(C)[C@@H]5CC[C@]43C)[C@H]12
REMARK SMILES IDX 4 1 5 2 6 3 7 4 32 5 14 6 15 7 16 8 17 9 18 10 20 11 21 12
REMARK SMILES IDX 22 13 24 14 27 15 28 16 29 17 30 18 12 19 11 20 10 21 13 22
REMARK SMILES IDX 31 23 25 24 26 25 19 26 2 27 3 28 1 29 8 30 9 31 23 33
REMARK H PARENT 9 32 23 34
REMARK Flexibility Score: inf
ROOT
ATOM      1  C   UNL     1      -4.283  -0.019  29.176  1.00  0.00     0.018 C 
ATOM      2  C   UNL     1      -5.205  -0.934  28.344  1.00  0.00     0.009 C 
ATOM      3  C   UNL     1      -5.153  -0.423  26.892  1.00  0.00     0.010 C 
ATOM      4  C   UNL     1      -4.262   0.837  26.889  1.00  0.00    -0.003 C 
ATOM      5  C   UNL     1      -3.336   0.628  28.132  1.00  0.00     0.008 C 
ATOM      6  C   UNL     1      -1.985  -0.163  27.856  1.00  0.00    -0.000 C 
ATOM      7  C   UNL     1      -2.102  -1.722  27.869  1.00  0.00     0.005 C 
ATOM      8  C   UNL     1      -0.770  -2.456  27.628  1.00  0.00     0.005 C 
ATOM      9  C   UNL     1      -0.182  -1.995  26.286  1.00  0.00     0.002 C 
ATOM     10  C   UNL     1       0.861  -2.931  25.542  1.00  0.00    -0.026 C 
ATOM     11  C   UNL     1       0.418  -4.428  25.622  1.00  0.00     0.010 C 
ATOM     12  C   UNL     1       1.189  -5.364  24.670  1.00  0.00     0.033 C 
ATOM     13  C   UNL     1       1.137  -4.889  23.204  1.00  0.00     0.120 C 
ATOM     14  C   UNL     1       1.586  -3.402  23.001  1.00  0.00    -0.006 C 
ATOM     15  C   UNL     1       0.790  -2.504  24.026  1.00  0.00     0.003 C 
ATOM     16  C   UNL     1       0.847  -0.965  23.771  1.00  0.00     0.005 C 
ATOM     17  C   UNL     1       0.906  -0.031  24.998  1.00  0.00     0.008 C 
ATOM     18  C   UNL     1       0.150  -0.447  26.324  1.00  0.00    -0.024 C 
ATOM     19  C   UNL     1      -1.224   0.380  26.579  1.00  0.00    -0.024 C 
ATOM     20  C   UNL     1      -2.202   0.257  25.365  1.00  0.00     0.008 C 
ATOM     21  C   UNL     1      -3.512   1.026  25.531  1.00  0.00     0.010 C 
ATOM     22  C   UNL     1      -0.903   1.899  26.823  1.00  0.00     0.012 C 
ATOM     23  C   UNL     1       1.147  -0.099  27.495  1.00  0.00     0.012 C 
ATOM     24  C   UNL     1       1.190  -3.000  21.551  1.00  0.00     0.014 C 
ATOM     25  C   UNL     1       3.125  -3.244  23.125  1.00  0.00     0.014 C 
ATOM     26  C   UNL     1       2.270  -2.816  26.173  1.00  0.00     0.012 C 
ENDROOT
BRANCH   1  27
ATOM     27  C   UNL     1      -3.650  -0.609  30.439  1.00  0.00    -0.077 C 
ATOM     28  C   UNL     1      -2.493   0.097  31.104  1.00  0.00     0.039 C 
ATOM     29  C   UNL     1      -4.213  -1.635  31.102  1.00  0.00     0.008 C 
ENDBRANCH   1  27
BRANCH   4  30
ATOM     30  C   UNL     1      -5.153   2.124  27.045  1.00  0.00     0.163 C 
BRANCH  30  31
ATOM     31  O   UNL     1      -6.521   1.895  26.827  1.00  0.00    -0.396 OA
ATOM     32  H   UNL     1      -6.606   1.329  26.016  1.00  0.00     0.210 HD
ENDBRANCH  30  31
ENDBRANCH   4  30
BRANCH  13  33
ATOM     33  O   UNL     1       1.847  -5.772  22.367  1.00  0.00    -0.393 OA
ATOM     34  H   UNL     1       1.776  -5.440  21.435  1.00  0.00     0.210 HD
ENDBRANCH  13  33
TORSDOF 4
ENDMDL
MODEL 7
REMARK VINA RESULT:    -2.804      1.756      7.713
REMARK INTER + INTRA:          -3.082
REMARK INTER:                  -2.820
REMARK INTRA:                  -0.262
REMARK UNBOUND:                 0.214
REMARK SMILES C=C(C)[C@@H]1CC[C@]2(CO)CC[C@@]3(C)[C@H](CC[C@@H]4[C@@]5(C)CC[C@H](O)C(C)(C)[C@@H]5CC[C@]43C)[C@H]12
REMARK SMILES IDX 4 1 5 2 6 3 7 4 32 5 14 6 15 7 16 8 17 9 18 10 20 11 21 12
REMARK SMILES IDX 22 13 24 14 27 15 28 16 29 17 30 18 12 19 11 20 10 21 13 22
REMARK SMILES IDX 31 23 25 24 26 25 19 26 2 27 3 28 1 29 8 30 9 31 23 33
REMARK H PARENT 9 32 23 34
REMARK Flexibility Score: inf
ROOT
ATOM      1  C   UNL     1      -5.243   0.843  28.474  1.00  0.00     0.018 C 
ATOM      2  C   UNL     1      -4.389   2.123  28.364  1.00  0.00     0.009 C 
ATOM      3  C   UNL     1      -2.914   1.679  28.342  1.00  0.00     0.010 C 
ATOM      4  C   UNL     1      -2.902   0.146  28.515  1.00  0.00    -0.003 C 
ATOM      5  C   UNL     1      -4.306  -0.289  27.979  1.00  0.00     0.008 C 
ATOM      6  C   UNL     1      -4.378  -0.602  26.422  1.00  0.00    -0.000 C 
ATOM      7  C   UNL     1      -4.576   0.641  25.494  1.00  0.00     0.005 C 
ATOM      8  C   UNL     1      -4.673   0.300  23.995  1.00  0.00     0.005 C 
ATOM      9  C   UNL     1      -3.406  -0.462  23.574  1.00  0.00     0.002 C 
ATOM     10  C   UNL     1      -2.987  -0.470  22.045  1.00  0.00    -0.026 C 
ATOM     11  C   UNL     1      -3.185   0.945  21.408  1.00  0.00     0.010 C 
ATOM     12  C   UNL     1      -2.515   1.113  20.030  1.00  0.00     0.033 C 
ATOM     13  C   UNL     1      -1.013   0.766  20.056  1.00  0.00     0.120 C 
ATOM     14  C   UNL     1      -0.698  -0.648  20.654  1.00  0.00    -0.006 C 
ATOM     15  C   UNL     1      -1.439  -0.770  22.042  1.00  0.00     0.003 C 
ATOM     16  C   UNL     1      -0.998  -1.962  22.947  1.00  0.00     0.005 C 
ATOM     17  C   UNL     1      -2.082  -2.676  23.783  1.00  0.00     0.008 C 
ATOM     18  C   UNL     1      -3.298  -1.837  24.351  1.00  0.00    -0.024 C 
ATOM     19  C   UNL     1      -3.195  -1.537  25.943  1.00  0.00    -0.024 C 
ATOM     20  C   UNL     1      -1.855  -0.819  26.307  1.00  0.00     0.008 C 
ATOM     21  C   UNL     1      -1.685  -0.520  27.796  1.00  0.00     0.010 C 
ATOM     22  C   UNL     1      -3.289  -2.881  26.753  1.00  0.00     0.012 C 
ATOM     23  C   UNL     1      -4.569  -2.738  24.110  1.00  0.00     0.012 C 
ATOM     24  C   UNL     1       0.839  -0.712  20.885  1.00  0.00     0.014 C 
ATOM     25  C   UNL     1      -1.069  -1.786  19.667  1.00  0.00     0.014 C 
ATOM     26  C   UNL     1      -3.836  -1.480  21.235  1.00  0.00     0.012 C 
ENDROOT
BRANCH   1  27
ATOM     27  C   UNL     1      -6.664   0.887  27.906  1.00  0.00    -0.077 C 
ATOM     28  C   UNL     1      -7.063   1.992  26.958  1.00  0.00     0.039 C 
ATOM     29  C   UNL     1      -7.522  -0.137  28.061  1.00  0.00     0.008 C 
ENDBRANCH   1  27
BRANCH   4  30
ATOM     30  C   UNL     1      -2.728  -0.220  30.035  1.00  0.00     0.163 C 
BRANCH  30  31
ATOM     31  O   UNL     1      -1.828  -1.273  30.264  1.00  0.00    -0.396 OA
ATOM     32  H   UNL     1      -2.284  -1.937  30.845  1.00  0.00     0.210 HD
ENDBRANCH  30  31
ENDBRANCH   4  30
BRANCH  13  33
ATOM     33  O   UNL     1      -0.438   0.937  18.781  1.00  0.00    -0.393 OA
ATOM     34  H   UNL     1      -0.286   1.907  18.638  1.00  0.00     0.210 HD
ENDBRANCH  13  33
TORSDOF 4
ENDMDL
