MODEL 1
REMARK VINA RESULT:     4.129      0.000      0.000
REMARK INTER + INTRA:           6.023
REMARK INTER:                   7.508
REMARK INTRA:                  -1.485
REMARK UNBOUND:                -1.485
REMARK SMILES CCCCCC=CCC=CCCCCCCCC(=O)[O-]
REMARK SMILES IDX 11 1 12 2 13 3 14 4 15 5 16 6 17 7 18 8 19 9 20 10 10 11
REMARK SMILES IDX 9 12 8 13 7 14 6 15 5 16 4 17 3 18 2 19 1 20
REMARK H PARENT
REMARK Flexibility Score: inf
ROOT
ATOM      1  C   UNL     1      11.465  21.017  35.105  1.00  0.00     0.027 C 
ENDROOT
BRANCH   1   2
ATOM      2  C   UNL     1      12.069  19.615  35.252  1.00  0.00     0.004 C 
BRANCH   2   3
ATOM      3  C   UNL     1      11.648  18.711  34.084  1.00  0.00     0.000 C 
BRANCH   3   4
ATOM      4  C   UNL     1      12.845  18.191  33.268  1.00  0.00     0.000 C 
BRANCH   4   5
ATOM      5  C   UNL     1      13.559  19.255  32.410  1.00  0.00     0.000 C 
BRANCH   5   6
ATOM      6  C   UNL     1      14.978  19.631  32.880  1.00  0.00     0.006 C 
BRANCH   6   7
ATOM      7  C   UNL     1      16.039  19.621  31.768  1.00  0.00     0.053 C 
BRANCH   7   8
ATOM      8  C   UNL     1      17.430  19.661  32.322  1.00  0.00     0.041 C 
ATOM      9  O   UNL     1      17.702  20.410  33.296  1.00  0.00    -0.550 OA
ATOM     10  O   UNL     1      18.417  18.842  31.787  1.00  0.00    -0.550 OA
ENDBRANCH   7   8
ENDBRANCH   6   7
ENDBRANCH   5   6
ENDBRANCH   4   5
ENDBRANCH   3   4
ENDBRANCH   2   3
ENDBRANCH   1   2
BRANCH   1  11
ATOM     11  C   UNL     1      12.518  22.027  34.725  1.00  0.00    -0.031 C 
ATOM     12  C   UNL     1      12.491  22.790  33.615  1.00  0.00    -0.027 C 
BRANCH  12  13
ATOM     13  C   UNL     1      11.412  22.750  32.560  1.00  0.00     0.054 C 
BRANCH  13  14
ATOM     14  C   UNL     1      11.501  21.467  31.786  1.00  0.00    -0.027 C 
ATOM     15  C   UNL     1      10.788  21.279  30.665  1.00  0.00    -0.031 C 
BRANCH  15  16
ATOM     16  C   UNL     1      10.816  19.970  29.924  1.00  0.00     0.027 C 
BRANCH  16  17
ATOM     17  C   UNL     1       9.514  19.733  29.147  1.00  0.00     0.004 C 
BRANCH  17  18
ATOM     18  C   UNL     1       8.648  21.003  29.062  1.00  0.00     0.000 C 
BRANCH  18  19
ATOM     19  C   UNL     1       7.240  20.722  28.515  1.00  0.00    -0.003 C 
ATOM     20  C   UNL     1       6.156  20.843  29.585  1.00  0.00     0.004 C 
ENDBRANCH  18  19
ENDBRANCH  17  18
ENDBRANCH  16  17
ENDBRANCH  15  16
ENDBRANCH  13  14
ENDBRANCH  12  13
ENDBRANCH   1  11
TORSDOF 14
ENDMDL
MODEL 2
REMARK VINA RESULT:     4.784      5.888      9.875
REMARK INTER + INTRA:           7.215
REMARK INTER:                   8.220
REMARK INTRA:                  -1.005
REMARK UNBOUND:                -1.485
REMARK SMILES CCCCCC=CCC=CCCCCCCCC(=O)[O-]
REMARK SMILES IDX 11 1 12 2 13 3 14 4 15 5 16 6 17 7 18 8 19 9 20 10 10 11
REMARK SMILES IDX 9 12 8 13 7 14 6 15 5 16 4 17 3 18 2 19 1 20
REMARK H PARENT
REMARK Flexibility Score: inf
ROOT
ATOM      1  C   UNL     1       7.950  21.094  29.040  1.00  0.00     0.027 C 
ENDROOT
BRANCH   1   2
ATOM      2  C   UNL     1       6.984  21.101  27.848  1.00  0.00     0.004 C 
BRANCH   2   3
ATOM      3  C   UNL     1       7.484  22.040  26.741  1.00  0.00     0.000 C 
BRANCH   3   4
ATOM      4  C   UNL     1       6.345  22.805  26.044  1.00  0.00     0.000 C 
BRANCH   4   5
ATOM      5  C   UNL     1       6.511  24.338  26.017  1.00  0.00     0.000 C 
BRANCH   5   6
ATOM      6  C   UNL     1       5.194  25.138  25.990  1.00  0.00     0.006 C 
BRANCH   6   7
ATOM      7  C   UNL     1       4.853  25.844  27.312  1.00  0.00     0.053 C 
BRANCH   7   8
ATOM      8  C   UNL     1       3.463  25.527  27.773  1.00  0.00     0.041 C 
ATOM      9  O   UNL     1       3.083  25.874  28.921  1.00  0.00    -0.550 OA
ATOM     10  O   UNL     1       2.576  24.882  26.919  1.00  0.00    -0.550 OA
ENDBRANCH   7   8
ENDBRANCH   6   7
ENDBRANCH   5   6
ENDBRANCH   4   5
ENDBRANCH   3   4
ENDBRANCH   2   3
ENDBRANCH   1   2
BRANCH   1  11
ATOM     11  C   UNL     1       8.928  19.952  28.942  1.00  0.00    -0.031 C 
ATOM     12  C   UNL     1      10.144  19.924  29.522  1.00  0.00    -0.027 C 
BRANCH  12  13
ATOM     13  C   UNL     1      10.736  21.037  30.351  1.00  0.00     0.054 C 
BRANCH  13  14
ATOM     14  C   UNL     1      11.802  20.491  31.256  1.00  0.00    -0.027 C 
ATOM     15  C   UNL     1      11.804  19.204  31.634  1.00  0.00    -0.031 C 
BRANCH  15  16
ATOM     16  C   UNL     1      12.827  18.667  32.597  1.00  0.00     0.027 C 
BRANCH  16  17
ATOM     17  C   UNL     1      13.149  19.682  33.703  1.00  0.00     0.004 C 
BRANCH  17  18
ATOM     18  C   UNL     1      12.084  19.688  34.814  1.00  0.00     0.000 C 
BRANCH  18  19
ATOM     19  C   UNL     1      11.882  21.081  35.429  1.00  0.00    -0.003 C 
ATOM     20  C   UNL     1      12.227  22.211  34.459  1.00  0.00     0.004 C 
ENDBRANCH  18  19
ENDBRANCH  17  18
ENDBRANCH  16  17
ENDBRANCH  15  16
ENDBRANCH  13  14
ENDBRANCH  12  13
ENDBRANCH   1  11
TORSDOF 14
ENDMDL
MODEL 3
REMARK VINA RESULT:     5.046      3.918      7.188
REMARK INTER + INTRA:           7.692
REMARK INTER:                   7.570
REMARK INTRA:                   0.122
REMARK UNBOUND:                -1.485
REMARK SMILES CCCCCC=CCC=CCCCCCCCC(=O)[O-]
REMARK SMILES IDX 11 1 12 2 13 3 14 4 15 5 16 6 17 7 18 8 19 9 20 10 10 11
REMARK SMILES IDX 9 12 8 13 7 14 6 15 5 16 4 17 3 18 2 19 1 20
REMARK H PARENT
REMARK Flexibility Score: inf
ROOT
ATOM      1  C   UNL     1      12.049  22.011  33.005  1.00  0.00     0.027 C 
ENDROOT
BRANCH   1   2
ATOM      2  C   UNL     1      11.290  22.975  32.085  1.00  0.00     0.004 C 
BRANCH   2   3
ATOM      3  C   UNL     1      10.586  22.214  30.952  1.00  0.00     0.000 C 
BRANCH   3   4
ATOM      4  C   UNL     1      11.343  20.944  30.524  1.00  0.00     0.000 C 
BRANCH   4   5
ATOM      5  C   UNL     1      10.454  19.706  30.287  1.00  0.00     0.000 C 
BRANCH   5   6
ATOM      6  C   UNL     1       9.488  19.812  29.091  1.00  0.00     0.006 C 
BRANCH   6   7
ATOM      7  C   UNL     1       8.678  21.117  29.043  1.00  0.00     0.053 C 
BRANCH   7   8
ATOM      8  C   UNL     1       7.232  20.866  28.742  1.00  0.00     0.041 C 
ATOM      9  O   UNL     1       6.826  20.854  27.551  1.00  0.00    -0.550 OA
ATOM     10  O   UNL     1       6.340  20.610  29.777  1.00  0.00    -0.550 OA
ENDBRANCH   7   8
ENDBRANCH   6   7
ENDBRANCH   5   6
ENDBRANCH   4   5
ENDBRANCH   3   4
ENDBRANCH   2   3
ENDBRANCH   1   2
BRANCH   1  11
ATOM     11  C   UNL     1      12.009  22.479  34.437  1.00  0.00    -0.031 C 
ATOM     12  C   UNL     1      11.857  21.677  35.509  1.00  0.00    -0.027 C 
BRANCH  12  13
ATOM     13  C   UNL     1      11.685  20.178  35.453  1.00  0.00     0.054 C 
BRANCH  13  14
ATOM     14  C   UNL     1      12.686  19.582  34.507  1.00  0.00    -0.027 C 
ATOM     15  C   UNL     1      12.301  18.994  33.364  1.00  0.00    -0.031 C 
BRANCH  15  16
ATOM     16  C   UNL     1      13.293  18.330  32.447  1.00  0.00     0.027 C 
BRANCH  16  17
ATOM     17  C   UNL     1      14.378  19.311  31.984  1.00  0.00     0.004 C 
BRANCH  17  18
ATOM     18  C   UNL     1      15.638  19.244  32.866  1.00  0.00     0.000 C 
BRANCH  18  19
ATOM     19  C   UNL     1      16.833  19.983  32.246  1.00  0.00    -0.003 C 
ATOM     20  C   UNL     1      18.076  19.101  32.128  1.00  0.00     0.004 C 
ENDBRANCH  18  19
ENDBRANCH  17  18
ENDBRANCH  16  17
ENDBRANCH  15  16
ENDBRANCH  13  14
ENDBRANCH  12  13
ENDBRANCH   1  11
TORSDOF 14
ENDMDL
MODEL 4
REMARK VINA RESULT:     5.182      3.355      5.521
REMARK INTER + INTRA:           7.938
REMARK INTER:                   8.738
REMARK INTRA:                  -0.800
REMARK UNBOUND:                -1.485
REMARK SMILES CCCCCC=CCC=CCCCCCCCC(=O)[O-]
REMARK SMILES IDX 11 1 12 2 13 3 14 4 15 5 16 6 17 7 18 8 19 9 20 10 10 11
REMARK SMILES IDX 9 12 8 13 7 14 6 15 5 16 4 17 3 18 2 19 1 20
REMARK H PARENT
REMARK Flexibility Score: inf
ROOT
ATOM      1  C   UNL     1      10.636  21.185  30.252  1.00  0.00     0.027 C 
ENDROOT
BRANCH   1   2
ATOM      2  C   UNL     1      11.766  20.882  31.245  1.00  0.00     0.004 C 
BRANCH   2   3
ATOM      3  C   UNL     1      11.705  19.422  31.717  1.00  0.00     0.000 C 
BRANCH   3   4
ATOM      4  C   UNL     1      13.056  18.908  32.246  1.00  0.00     0.000 C 
BRANCH   4   5
ATOM      5  C   UNL     1      13.180  18.865  33.782  1.00  0.00     0.000 C 
BRANCH   5   6
ATOM      6  C   UNL     1      11.925  19.318  34.553  1.00  0.00     0.006 C 
BRANCH   6   7
ATOM      7  C   UNL     1      12.202  20.313  35.690  1.00  0.00     0.053 C 
BRANCH   7   8
ATOM      8  C   UNL     1      11.898  21.724  35.286  1.00  0.00     0.041 C 
ATOM      9  O   UNL     1      12.117  22.105  34.106  1.00  0.00    -0.550 OA
ATOM     10  O   UNL     1      11.339  22.605  36.202  1.00  0.00    -0.550 OA
ENDBRANCH   7   8
ENDBRANCH   6   7
ENDBRANCH   5   6
ENDBRANCH   4   5
ENDBRANCH   3   4
ENDBRANCH   2   3
ENDBRANCH   1   2
BRANCH   1  11
ATOM     11  C   UNL     1      10.210  19.940  29.516  1.00  0.00    -0.031 C 
ATOM     12  C   UNL     1       9.022  19.775  28.901  1.00  0.00    -0.027 C 
BRANCH  12  13
ATOM     13  C   UNL     1       7.916  20.801  28.861  1.00  0.00     0.054 C 
BRANCH  13  14
ATOM     14  C   UNL     1       7.900  21.486  27.525  1.00  0.00    -0.027 C 
ATOM     15  C   UNL     1       6.782  22.050  27.044  1.00  0.00    -0.031 C 
BRANCH  15  16
ATOM     16  C   UNL     1       6.741  22.673  25.675  1.00  0.00     0.027 C 
BRANCH  16  17
ATOM     17  C   UNL     1       6.199  24.108  25.725  1.00  0.00     0.004 C 
BRANCH  17  18
ATOM     18  C   UNL     1       5.018  24.250  26.702  1.00  0.00     0.000 C 
BRANCH  18  19
ATOM     19  C   UNL     1       4.643  25.716  26.965  1.00  0.00    -0.003 C 
ATOM     20  C   UNL     1       3.493  25.862  27.962  1.00  0.00     0.004 C 
ENDBRANCH  18  19
ENDBRANCH  17  18
ENDBRANCH  16  17
ENDBRANCH  15  16
ENDBRANCH  13  14
ENDBRANCH  12  13
ENDBRANCH   1  11
TORSDOF 14
ENDMDL
MODEL 5
REMARK VINA RESULT:     6.313      5.513      9.528
REMARK INTER + INTRA:           9.995
REMARK INTER:                   9.952
REMARK INTRA:                   0.043
REMARK UNBOUND:                -1.485
REMARK SMILES CCCCCC=CCC=CCCCCCCCC(=O)[O-]
REMARK SMILES IDX 11 1 12 2 13 3 14 4 15 5 16 6 17 7 18 8 19 9 20 10 10 11
REMARK SMILES IDX 9 12 8 13 7 14 6 15 5 16 4 17 3 18 2 19 1 20
REMARK H PARENT
REMARK Flexibility Score: inf
ROOT
ATOM      1  C   UNL     1       8.582  21.165  28.770  1.00  0.00     0.027 C 
ENDROOT
BRANCH   1   2
ATOM      2  C   UNL     1       7.101  20.768  28.700  1.00  0.00     0.004 C 
BRANCH   2   3
ATOM      3  C   UNL     1       6.499  21.129  27.335  1.00  0.00     0.000 C 
BRANCH   3   4
ATOM      4  C   UNL     1       7.247  22.279  26.636  1.00  0.00     0.000 C 
BRANCH   4   5
ATOM      5  C   UNL     1       6.406  23.081  25.623  1.00  0.00     0.000 C 
BRANCH   5   6
ATOM      6  C   UNL     1       5.904  24.449  26.126  1.00  0.00     0.006 C 
BRANCH   6   7
ATOM      7  C   UNL     1       4.526  24.410  26.804  1.00  0.00     0.053 C 
BRANCH   7   8
ATOM      8  C   UNL     1       4.188  25.714  27.459  1.00  0.00     0.041 C 
ATOM      9  O   UNL     1       3.132  25.828  28.134  1.00  0.00    -0.550 OA
ATOM     10  O   UNL     1       5.058  26.792  27.355  1.00  0.00    -0.550 OA
ENDBRANCH   7   8
ENDBRANCH   6   7
ENDBRANCH   5   6
ENDBRANCH   4   5
ENDBRANCH   3   4
ENDBRANCH   2   3
ENDBRANCH   1   2
BRANCH   1  11
ATOM     11  C   UNL     1       9.437  20.006  29.215  1.00  0.00    -0.031 C 
ATOM     12  C   UNL     1      10.499  20.102  30.037  1.00  0.00    -0.027 C 
BRANCH  12  13
ATOM     13  C   UNL     1      11.020  21.385  30.637  1.00  0.00     0.054 C 
BRANCH  13  14
ATOM     14  C   UNL     1      11.750  21.094  31.916  1.00  0.00    -0.027 C 
ATOM     15  C   UNL     1      11.773  21.979  32.923  1.00  0.00    -0.031 C 
BRANCH  15  16
ATOM     16  C   UNL     1      12.563  21.725  34.179  1.00  0.00     0.027 C 
BRANCH  16  17
ATOM     17  C   UNL     1      11.825  20.770  35.126  1.00  0.00     0.004 C 
BRANCH  17  18
ATOM     18  C   UNL     1      12.014  19.295  34.730  1.00  0.00     0.000 C 
BRANCH  18  19
ATOM     19  C   UNL     1      13.236  19.080  33.823  1.00  0.00    -0.003 C 
ATOM     20  C   UNL     1      12.882  18.373  32.515  1.00  0.00     0.004 C 
ENDBRANCH  18  19
ENDBRANCH  17  18
ENDBRANCH  16  17
ENDBRANCH  15  16
ENDBRANCH  13  14
ENDBRANCH  12  13
ENDBRANCH   1  11
TORSDOF 14
ENDMDL
MODEL 6
REMARK VINA RESULT:     6.386      2.941      5.155
REMARK INTER + INTRA:          10.129
REMARK INTER:                  10.774
REMARK INTRA:                  -0.645
REMARK UNBOUND:                -1.485
REMARK SMILES CCCCCC=CCC=CCCCCCCCC(=O)[O-]
REMARK SMILES IDX 11 1 12 2 13 3 14 4 15 5 16 6 17 7 18 8 19 9 20 10 10 11
REMARK SMILES IDX 9 12 8 13 7 14 6 15 5 16 4 17 3 18 2 19 1 20
REMARK H PARENT
REMARK Flexibility Score: inf
ROOT
ATOM      1  C   UNL     1      10.560  21.514  30.538  1.00  0.00     0.027 C 
ENDROOT
BRANCH   1   2
ATOM      2  C   UNL     1      11.700  21.403  31.560  1.00  0.00     0.004 C 
BRANCH   2   3
ATOM      3  C   UNL     1      11.443  22.313  32.769  1.00  0.00     0.000 C 
BRANCH   3   4
ATOM      4  C   UNL     1      12.417  22.052  33.932  1.00  0.00     0.000 C 
BRANCH   4   5
ATOM      5  C   UNL     1      11.837  21.217  35.092  1.00  0.00     0.000 C 
BRANCH   5   6
ATOM      6  C   UNL     1      12.318  19.754  35.150  1.00  0.00     0.006 C 
BRANCH   6   7
ATOM      7  C   UNL     1      11.811  18.873  33.997  1.00  0.00     0.053 C 
BRANCH   7   8
ATOM      8  C   UNL     1      12.882  18.608  32.983  1.00  0.00     0.041 C 
ATOM      9  O   UNL     1      12.715  17.724  32.103  1.00  0.00    -0.550 OA
ATOM     10  O   UNL     1      14.048  19.363  32.989  1.00  0.00    -0.550 OA
ENDBRANCH   7   8
ENDBRANCH   6   7
ENDBRANCH   5   6
ENDBRANCH   4   5
ENDBRANCH   3   4
ENDBRANCH   2   3
ENDBRANCH   1   2
BRANCH   1  11
ATOM     11  C   UNL     1      10.425  20.248  29.731  1.00  0.00    -0.031 C 
ATOM     12  C   UNL     1       9.329  19.889  29.035  1.00  0.00    -0.027 C 
BRANCH  12  13
ATOM     13  C   UNL     1       8.049  20.684  28.961  1.00  0.00     0.054 C 
BRANCH  13  14
ATOM     14  C   UNL     1       7.958  21.385  27.636  1.00  0.00    -0.027 C 
ATOM     15  C   UNL     1       6.795  21.884  27.191  1.00  0.00    -0.031 C 
BRANCH  15  16
ATOM     16  C   UNL     1       6.681  22.523  25.833  1.00  0.00     0.027 C 
BRANCH  16  17
ATOM     17  C   UNL     1       6.313  24.009  25.937  1.00  0.00     0.004 C 
BRANCH  17  18
ATOM     18  C   UNL     1       4.951  24.225  26.621  1.00  0.00     0.000 C 
BRANCH  18  19
ATOM     19  C   UNL     1       4.707  25.693  27.000  1.00  0.00    -0.003 C 
ATOM     20  C   UNL     1       3.515  25.870  27.941  1.00  0.00     0.004 C 
ENDBRANCH  18  19
ENDBRANCH  17  18
ENDBRANCH  16  17
ENDBRANCH  15  16
ENDBRANCH  13  14
ENDBRANCH  12  13
ENDBRANCH   1  11
TORSDOF 14
ENDMDL
MODEL 7
REMARK VINA RESULT:     6.404      4.485      7.827
REMARK INTER + INTRA:          10.160
REMARK INTER:                  10.617
REMARK INTRA:                  -0.457
REMARK UNBOUND:                -1.485
REMARK SMILES CCCCCC=CCC=CCCCCCCCC(=O)[O-]
REMARK SMILES IDX 11 1 12 2 13 3 14 4 15 5 16 6 17 7 18 8 19 9 20 10 10 11
REMARK SMILES IDX 9 12 8 13 7 14 6 15 5 16 4 17 3 18 2 19 1 20
REMARK H PARENT
REMARK Flexibility Score: inf
ROOT
ATOM      1  C   UNL     1      12.067  19.254  31.719  1.00  0.00     0.027 C 
ENDROOT
BRANCH   1   2
ATOM      2  C   UNL     1      11.992  20.733  31.317  1.00  0.00     0.004 C 
BRANCH   2   3
ATOM      3  C   UNL     1      10.932  20.952  30.228  1.00  0.00     0.000 C 
BRANCH   3   4
ATOM      4  C   UNL     1      10.220  19.652  29.814  1.00  0.00     0.000 C 
BRANCH   4   5
ATOM      5  C   UNL     1       9.082  19.830  28.789  1.00  0.00     0.000 C 
BRANCH   5   6
ATOM      6  C   UNL     1       8.157  21.037  29.040  1.00  0.00     0.006 C 
BRANCH   6   7
ATOM      7  C   UNL     1       6.718  20.850  28.537  1.00  0.00     0.053 C 
BRANCH   7   8
ATOM      8  C   UNL     1       5.735  20.776  29.666  1.00  0.00     0.041 C 
ATOM      9  O   UNL     1       5.530  21.783  30.393  1.00  0.00    -0.550 OA
ATOM     10  O   UNL     1       5.019  19.607  29.891  1.00  0.00    -0.550 OA
ENDBRANCH   7   8
ENDBRANCH   6   7
ENDBRANCH   5   6
ENDBRANCH   4   5
ENDBRANCH   3   4
ENDBRANCH   2   3
ENDBRANCH   1   2
BRANCH   1  11
ATOM     11  C   UNL     1      13.315  18.969  32.514  1.00  0.00    -0.031 C 
ATOM     12  C   UNL     1      13.348  18.722  33.838  1.00  0.00    -0.027 C 
BRANCH  12  13
ATOM     13  C   UNL     1      12.144  18.707  34.748  1.00  0.00     0.054 C 
BRANCH  13  14
ATOM     14  C   UNL     1      11.760  20.112  35.113  1.00  0.00    -0.027 C 
ATOM     15  C   UNL     1      12.397  21.168  34.584  1.00  0.00    -0.031 C 
BRANCH  15  16
ATOM     16  C   UNL     1      12.067  22.576  35.000  1.00  0.00     0.027 C 
BRANCH  16  17
ATOM     17  C   UNL     1      11.296  22.607  36.327  1.00  0.00     0.004 C 
BRANCH  17  18
ATOM     18  C   UNL     1      11.355  23.989  37.002  1.00  0.00     0.000 C 
BRANCH  18  19
ATOM     19  C   UNL     1      10.424  24.091  38.219  1.00  0.00    -0.003 C 
ATOM     20  C   UNL     1       9.077  24.730  37.880  1.00  0.00     0.004 C 
ENDBRANCH  18  19
ENDBRANCH  17  18
ENDBRANCH  16  17
ENDBRANCH  15  16
ENDBRANCH  13  14
ENDBRANCH  12  13
ENDBRANCH   1  11
TORSDOF 14
ENDMDL
MODEL 8
REMARK VINA RESULT:     6.406      2.683      4.541
REMARK INTER + INTRA:          10.164
REMARK INTER:                   9.999
REMARK INTRA:                   0.165
REMARK UNBOUND:                -1.485
REMARK SMILES CCCCCC=CCC=CCCCCCCCC(=O)[O-]
REMARK SMILES IDX 11 1 12 2 13 3 14 4 15 5 16 6 17 7 18 8 19 9 20 10 10 11
REMARK SMILES IDX 9 12 8 13 7 14 6 15 5 16 4 17 3 18 2 19 1 20
REMARK H PARENT
REMARK Flexibility Score: inf
ROOT
ATOM      1  C   UNL     1      12.010  20.735  32.003  1.00  0.00     0.027 C 
ENDROOT
BRANCH   1   2
ATOM      2  C   UNL     1      11.798  19.298  31.508  1.00  0.00     0.004 C 
BRANCH   2   3
ATOM      3  C   UNL     1      12.839  18.348  32.118  1.00  0.00     0.000 C 
BRANCH   3   4
ATOM      4  C   UNL     1      13.404  18.857  33.455  1.00  0.00     0.000 C 
BRANCH   4   5
ATOM      5  C   UNL     1      12.475  18.663  34.671  1.00  0.00     0.000 C 
BRANCH   5   6
ATOM      6  C   UNL     1      12.468  19.827  35.682  1.00  0.00     0.006 C 
BRANCH   6   7
ATOM      7  C   UNL     1      11.275  20.784  35.540  1.00  0.00     0.053 C 
BRANCH   7   8
ATOM      8  C   UNL     1      11.712  22.214  35.450  1.00  0.00     0.041 C 
ATOM      9  O   UNL     1      11.382  23.034  36.346  1.00  0.00    -0.550 OA
ATOM     10  O   UNL     1      12.517  22.631  34.398  1.00  0.00    -0.550 OA
ENDBRANCH   7   8
ENDBRANCH   6   7
ENDBRANCH   5   6
ENDBRANCH   4   5
ENDBRANCH   3   4
ENDBRANCH   2   3
ENDBRANCH   1   2
BRANCH   1  11
ATOM     11  C   UNL     1      11.388  21.733  31.060  1.00  0.00    -0.031 C 
ATOM     12  C   UNL     1      10.655  21.418  29.975  1.00  0.00    -0.027 C 
BRANCH  12  13
ATOM     13  C   UNL     1      10.348  20.015  29.512  1.00  0.00     0.054 C 
BRANCH  13  14
ATOM     14  C   UNL     1       8.914  19.919  29.081  1.00  0.00    -0.027 C 
ATOM     15  C   UNL     1       8.070  20.951  29.234  1.00  0.00    -0.031 C 
BRANCH  15  16
ATOM     16  C   UNL     1       6.614  20.839  28.872  1.00  0.00     0.027 C 
BRANCH  16  17
ATOM     17  C   UNL     1       6.406  20.878  27.352  1.00  0.00     0.004 C 
BRANCH  17  18
ATOM     18  C   UNL     1       7.195  22.019  26.685  1.00  0.00     0.000 C 
BRANCH  18  19
ATOM     19  C   UNL     1       6.375  22.760  25.619  1.00  0.00    -0.003 C 
ATOM     20  C   UNL     1       6.804  24.218  25.453  1.00  0.00     0.004 C 
ENDBRANCH  18  19
ENDBRANCH  17  18
ENDBRANCH  16  17
ENDBRANCH  15  16
ENDBRANCH  13  14
ENDBRANCH  12  13
ENDBRANCH   1  11
TORSDOF 14
ENDMDL
MODEL 9
REMARK VINA RESULT:     7.100      3.335      5.493
REMARK INTER + INTRA:          11.426
REMARK INTER:                  12.166
REMARK INTRA:                  -0.740
REMARK UNBOUND:                -1.485
REMARK SMILES CCCCCC=CCC=CCCCCCCCC(=O)[O-]
REMARK SMILES IDX 11 1 12 2 13 3 14 4 15 5 16 6 17 7 18 8 19 9 20 10 10 11
REMARK SMILES IDX 9 12 8 13 7 14 6 15 5 16 4 17 3 18 2 19 1 20
REMARK H PARENT
REMARK Flexibility Score: inf
ROOT
ATOM      1  C   UNL     1      10.795  21.068  30.595  1.00  0.00     0.027 C 
ENDROOT
BRANCH   1   2
ATOM      2  C   UNL     1      12.020  20.481  31.310  1.00  0.00     0.004 C 
BRANCH   2   3
ATOM      3  C   UNL     1      11.925  18.951  31.395  1.00  0.00     0.000 C 
BRANCH   3   4
ATOM      4  C   UNL     1      12.881  18.349  32.440  1.00  0.00     0.000 C 
BRANCH   4   5
ATOM      5  C   UNL     1      13.154  19.245  33.665  1.00  0.00     0.000 C 
BRANCH   5   6
ATOM      6  C   UNL     1      11.936  19.498  34.576  1.00  0.00     0.006 C 
BRANCH   6   7
ATOM      7  C   UNL     1      12.197  20.484  35.725  1.00  0.00     0.053 C 
BRANCH   7   8
ATOM      8  C   UNL     1      11.893  21.897  35.331  1.00  0.00     0.041 C 
ATOM      9  O   UNL     1      12.125  22.290  34.158  1.00  0.00    -0.550 OA
ATOM     10  O   UNL     1      11.318  22.768  36.248  1.00  0.00    -0.550 OA
ENDBRANCH   7   8
ENDBRANCH   6   7
ENDBRANCH   5   6
ENDBRANCH   4   5
ENDBRANCH   3   4
ENDBRANCH   2   3
ENDBRANCH   1   2
BRANCH   1  11
ATOM     11  C   UNL     1      10.370  20.198  29.440  1.00  0.00    -0.031 C 
ATOM     12  C   UNL     1       9.103  20.057  29.004  1.00  0.00    -0.027 C 
BRANCH  12  13
ATOM     13  C   UNL     1       7.897  20.733  29.610  1.00  0.00     0.054 C 
BRANCH  13  14
ATOM     14  C   UNL     1       6.855  20.963  28.554  1.00  0.00    -0.027 C 
ATOM     15  C   UNL     1       7.182  21.451  27.347  1.00  0.00    -0.031 C 
BRANCH  15  16
ATOM     16  C   UNL     1       6.134  21.753  26.310  1.00  0.00     0.027 C 
BRANCH  16  17
ATOM     17  C   UNL     1       6.462  23.035  25.532  1.00  0.00     0.004 C 
BRANCH  17  18
ATOM     18  C   UNL     1       7.155  22.739  24.190  1.00  0.00     0.000 C 
BRANCH  18  19
ATOM     19  C   UNL     1       6.279  21.903  23.245  1.00  0.00    -0.003 C 
ATOM     20  C   UNL     1       7.001  21.521  21.953  1.00  0.00     0.004 C 
ENDBRANCH  18  19
ENDBRANCH  17  18
ENDBRANCH  16  17
ENDBRANCH  15  16
ENDBRANCH  13  14
ENDBRANCH  12  13
ENDBRANCH   1  11
TORSDOF 14
ENDMDL
