MODEL 1
REMARK VINA RESULT:    -4.079      0.000      0.000
REMARK INTER + INTRA:          -6.430
REMARK INTER:                  -5.987
REMARK INTRA:                  -0.443
REMARK UNBOUND:                -0.443
REMARK SMILES O=C([O-])CCCCCCCC(=O)[O-]
REMARK SMILES IDX 7 1 6 2 5 3 4 4 2 5 1 6 3 7 8 8 9 9 10 10 11 11 12 12 13 13
REMARK H PARENT
REMARK Flexibility Score: inf
ROOT
ATOM      1  C   UNL     1      12.493 -22.367  41.060  1.00  0.00     0.000 C 
ENDROOT
BRANCH   1   2
ATOM      2  C   UNL     1      12.865 -21.255  40.065  1.00  0.00     0.000 C 
BRANCH   2   3
ATOM      3  C   UNL     1      13.382 -21.807  38.727  1.00  0.00     0.006 C 
BRANCH   3   4
ATOM      4  C   UNL     1      13.752 -20.700  37.732  1.00  0.00     0.053 C 
BRANCH   4   5
ATOM      5  C   UNL     1      14.319 -21.292  36.481  1.00  0.00     0.041 C 
ATOM      6  O   UNL     1      15.406 -21.926  36.515  1.00  0.00    -0.550 OA
ATOM      7  O   UNL     1      13.622 -21.185  35.283  1.00  0.00    -0.550 OA
ENDBRANCH   4   5
ENDBRANCH   3   4
ENDBRANCH   2   3
ENDBRANCH   1   2
BRANCH   1   8
ATOM      8  C   UNL     1      11.107 -22.157  41.690  1.00  0.00     0.000 C 
BRANCH   8   9
ATOM      9  C   UNL     1       9.965 -22.673  40.800  1.00  0.00     0.006 C 
BRANCH   9  10
ATOM     10  C   UNL     1       9.992 -24.202  40.708  1.00  0.00     0.053 C 
BRANCH  10  11
ATOM     11  C   UNL     1      10.131 -24.639  39.284  1.00  0.00     0.041 C 
ATOM     12  O   UNL     1       9.111 -24.759  38.556  1.00  0.00    -0.550 OA
ATOM     13  O   UNL     1      11.383 -24.961  38.776  1.00  0.00    -0.550 OA
ENDBRANCH  10  11
ENDBRANCH   9  10
ENDBRANCH   8   9
ENDBRANCH   1   8
TORSDOF 8
ENDMDL
MODEL 2
REMARK VINA RESULT:    -3.918      1.088      1.763
REMARK INTER + INTRA:          -6.193
REMARK INTER:                  -5.633
REMARK INTRA:                  -0.560
REMARK UNBOUND:                -0.443
REMARK SMILES O=C([O-])CCCCCCCC(=O)[O-]
REMARK SMILES IDX 7 1 6 2 5 3 4 4 2 5 1 6 3 7 8 8 9 9 10 10 11 11 12 12 13 13
REMARK H PARENT
REMARK Flexibility Score: inf
ROOT
ATOM      1  C   UNL     1      11.221 -22.129  41.528  1.00  0.00     0.000 C 
ENDROOT
BRANCH   1   2
ATOM      2  C   UNL     1      12.521 -21.696  40.829  1.00  0.00     0.000 C 
BRANCH   2   3
ATOM      3  C   UNL     1      12.799 -22.502  39.549  1.00  0.00     0.006 C 
BRANCH   3   4
ATOM      4  C   UNL     1      13.463 -21.660  38.452  1.00  0.00     0.053 C 
BRANCH   4   5
ATOM      5  C   UNL     1      13.879 -22.530  37.308  1.00  0.00     0.041 C 
ATOM      6  O   UNL     1      13.933 -22.061  36.141  1.00  0.00    -0.550 OA
ATOM      7  O   UNL     1      14.257 -23.848  37.538  1.00  0.00    -0.550 OA
ENDBRANCH   4   5
ENDBRANCH   3   4
ENDBRANCH   2   3
ENDBRANCH   1   2
BRANCH   1   8
ATOM      8  C   UNL     1      10.145 -22.598  40.536  1.00  0.00     0.000 C 
BRANCH   8   9
ATOM      9  C   UNL     1       9.483 -23.919  40.959  1.00  0.00     0.006 C 
BRANCH   9  10
ATOM     10  C   UNL     1      10.392 -25.112  40.644  1.00  0.00     0.053 C 
BRANCH  10  11
ATOM     11  C   UNL     1      10.368 -25.417  39.180  1.00  0.00     0.041 C 
ATOM     12  O   UNL     1      11.412 -25.814  38.599  1.00  0.00    -0.550 OA
ATOM     13  O   UNL     1       9.204 -25.218  38.448  1.00  0.00    -0.550 OA
ENDBRANCH  10  11
ENDBRANCH   9  10
ENDBRANCH   8   9
ENDBRANCH   1   8
TORSDOF 8
ENDMDL
MODEL 3
REMARK VINA RESULT:    -3.831      1.387      4.768
REMARK INTER + INTRA:          -6.066
REMARK INTER:                  -5.335
REMARK INTRA:                  -0.731
REMARK UNBOUND:                -0.443
REMARK SMILES O=C([O-])CCCCCCCC(=O)[O-]
REMARK SMILES IDX 7 1 6 2 5 3 4 4 2 5 1 6 3 7 8 8 9 9 10 10 11 11 12 12 13 13
REMARK H PARENT
REMARK Flexibility Score: inf
ROOT
ATOM      1  C   UNL     1      11.050 -22.453  41.641  1.00  0.00     0.000 C 
ENDROOT
BRANCH   1   2
ATOM      2  C   UNL     1       9.907 -22.773  40.663  1.00  0.00     0.000 C 
BRANCH   2   3
ATOM      3  C   UNL     1       9.490 -24.252  40.706  1.00  0.00     0.006 C 
BRANCH   3   4
ATOM      4  C   UNL     1      10.646 -25.183  41.095  1.00  0.00     0.053 C 
BRANCH   4   5
ATOM      5  C   UNL     1      11.406 -25.606  39.878  1.00  0.00     0.041 C 
ATOM      6  O   UNL     1      10.825 -25.683  38.763  1.00  0.00    -0.550 OA
ATOM      7  O   UNL     1      12.767 -25.870  39.965  1.00  0.00    -0.550 OA
ENDBRANCH   4   5
ENDBRANCH   3   4
ENDBRANCH   2   3
ENDBRANCH   1   2
BRANCH   1   8
ATOM      8  C   UNL     1      12.259 -21.809  40.944  1.00  0.00     0.000 C 
BRANCH   8   9
ATOM      9  C   UNL     1      12.327 -22.140  39.445  1.00  0.00     0.006 C 
BRANCH   9  10
ATOM     10  C   UNL     1      13.767 -22.439  39.015  1.00  0.00     0.053 C 
BRANCH  10  11
ATOM     11  C   UNL     1      13.802 -22.933  37.604  1.00  0.00     0.041 C 
ATOM     12  O   UNL     1      13.703 -24.165  37.361  1.00  0.00    -0.550 OA
ATOM     13  O   UNL     1      13.992 -22.038  36.558  1.00  0.00    -0.550 OA
ENDBRANCH  10  11
ENDBRANCH   9  10
ENDBRANCH   8   9
ENDBRANCH   1   8
TORSDOF 8
ENDMDL
MODEL 4
REMARK VINA RESULT:    -3.790      1.939      5.483
REMARK INTER + INTRA:          -6.005
REMARK INTER:                  -5.305
REMARK INTRA:                  -0.700
REMARK UNBOUND:                -0.443
REMARK SMILES O=C([O-])CCCCCCCC(=O)[O-]
REMARK SMILES IDX 7 1 6 2 5 3 4 4 2 5 1 6 3 7 8 8 9 9 10 10 11 11 12 12 13 13
REMARK H PARENT
REMARK Flexibility Score: inf
ROOT
ATOM      1  C   UNL     1      11.057 -22.488  41.784  1.00  0.00     0.000 C 
ENDROOT
BRANCH   1   2
ATOM      2  C   UNL     1       9.856 -22.617  40.832  1.00  0.00     0.000 C 
BRANCH   2   3
ATOM      3  C   UNL     1       9.753 -24.012  40.195  1.00  0.00     0.006 C 
BRANCH   3   4
ATOM      4  C   UNL     1      10.481 -25.090  41.010  1.00  0.00     0.053 C 
BRANCH   4   5
ATOM      5  C   UNL     1       9.521 -26.153  41.441  1.00  0.00     0.041 C 
ATOM      6  O   UNL     1       9.941 -27.190  42.018  1.00  0.00    -0.550 OA
ATOM      7  O   UNL     1       8.155 -25.976  41.251  1.00  0.00    -0.550 OA
ENDBRANCH   4   5
ENDBRANCH   3   4
ENDBRANCH   2   3
ENDBRANCH   1   2
BRANCH   1   8
ATOM      8  C   UNL     1      12.188 -21.629  41.194  1.00  0.00     0.000 C 
BRANCH   8   9
ATOM      9  C   UNL     1      13.245 -22.463  40.456  1.00  0.00     0.006 C 
BRANCH   9  10
ATOM     10  C   UNL     1      13.081 -22.336  38.938  1.00  0.00     0.053 C 
BRANCH  10  11
ATOM     11  C   UNL     1      13.459 -23.614  38.260  1.00  0.00     0.041 C 
ATOM     12  O   UNL     1      12.638 -24.568  38.204  1.00  0.00    -0.550 OA
ATOM     13  O   UNL     1      14.735 -23.771  37.733  1.00  0.00    -0.550 OA
ENDBRANCH  10  11
ENDBRANCH   9  10
ENDBRANCH   8   9
ENDBRANCH   1   8
TORSDOF 8
ENDMDL
MODEL 5
REMARK VINA RESULT:    -3.745      0.976      5.396
REMARK INTER + INTRA:          -5.939
REMARK INTER:                  -5.463
REMARK INTRA:                  -0.476
REMARK UNBOUND:                -0.443
REMARK SMILES O=C([O-])CCCCCCCC(=O)[O-]
REMARK SMILES IDX 7 1 6 2 5 3 4 4 2 5 1 6 3 7 8 8 9 9 10 10 11 11 12 12 13 13
REMARK H PARENT
REMARK Flexibility Score: inf
ROOT
ATOM      1  C   UNL     1      13.233 -23.065  40.882  1.00  0.00     0.000 C 
ENDROOT
BRANCH   1   2
ATOM      2  C   UNL     1      12.306 -22.023  41.529  1.00  0.00     0.000 C 
BRANCH   2   3
ATOM      3  C   UNL     1      10.878 -22.552  41.740  1.00  0.00     0.006 C 
BRANCH   3   4
ATOM      4  C   UNL     1      10.106 -22.716  40.424  1.00  0.00     0.053 C 
BRANCH   4   5
ATOM      5  C   UNL     1       9.880 -24.165  40.130  1.00  0.00     0.041 C 
ATOM      6  O   UNL     1       9.757 -24.992  41.071  1.00  0.00    -0.550 OA
ATOM      7  O   UNL     1       9.756 -24.596  38.815  1.00  0.00    -0.550 OA
ENDBRANCH   4   5
ENDBRANCH   3   4
ENDBRANCH   2   3
ENDBRANCH   1   2
BRANCH   1   8
ATOM      8  C   UNL     1      14.143 -22.456  39.803  1.00  0.00     0.000 C 
BRANCH   8   9
ATOM      9  C   UNL     1      13.449 -22.339  38.437  1.00  0.00     0.006 C 
BRANCH   9  10
ATOM     10  C   UNL     1      13.816 -21.021  37.747  1.00  0.00     0.053 C 
BRANCH  10  11
ATOM     11  C   UNL     1      14.398 -21.281  36.395  1.00  0.00     0.041 C 
ATOM     12  O   UNL     1      15.626 -21.533  36.272  1.00  0.00    -0.550 OA
ATOM     13  O   UNL     1      13.595 -21.198  35.264  1.00  0.00    -0.550 OA
ENDBRANCH  10  11
ENDBRANCH   9  10
ENDBRANCH   8   9
ENDBRANCH   1   8
TORSDOF 8
ENDMDL
MODEL 6
REMARK VINA RESULT:    -3.639      3.018      4.084
REMARK INTER + INTRA:          -5.785
REMARK INTER:                  -5.054
REMARK INTRA:                  -0.731
REMARK UNBOUND:                -0.443
REMARK SMILES O=C([O-])CCCCCCCC(=O)[O-]
REMARK SMILES IDX 7 1 6 2 5 3 4 4 2 5 1 6 3 7 8 8 9 9 10 10 11 11 12 12 13 13
REMARK H PARENT
REMARK Flexibility Score: inf
ROOT
ATOM      1  C   UNL     1      10.606 -24.779  39.515  1.00  0.00     0.000 C 
ENDROOT
BRANCH   1   2
ATOM      2  C   UNL     1      11.692 -25.675  40.134  1.00  0.00     0.000 C 
BRANCH   2   3
ATOM      3  C   UNL     1      13.109 -25.118  39.921  1.00  0.00     0.006 C 
BRANCH   3   4
ATOM      4  C   UNL     1      13.334 -24.601  38.494  1.00  0.00     0.053 C 
BRANCH   4   5
ATOM      5  C   UNL     1      13.858 -25.696  37.620  1.00  0.00     0.041 C 
ATOM      6  O   UNL     1      14.510 -26.649  38.120  1.00  0.00    -0.550 OA
ATOM      7  O   UNL     1      13.584 -25.690  36.257  1.00  0.00    -0.550 OA
ENDBRANCH   4   5
ENDBRANCH   3   4
ENDBRANCH   2   3
ENDBRANCH   1   2
BRANCH   1   8
ATOM      8  C   UNL     1       9.702 -24.129  40.575  1.00  0.00     0.000 C 
BRANCH   8   9
ATOM      9  C   UNL     1      10.040 -22.650  40.818  1.00  0.00     0.006 C 
BRANCH   9  10
ATOM     10  C   UNL     1      11.069 -22.501  41.943  1.00  0.00     0.053 C 
BRANCH  10  11
ATOM     11  C   UNL     1      12.236 -21.686  41.482  1.00  0.00     0.041 C 
ATOM     12  O   UNL     1      12.962 -21.089  42.320  1.00  0.00    -0.550 OA
ATOM     13  O   UNL     1      12.493 -21.546  40.124  1.00  0.00    -0.550 OA
ENDBRANCH  10  11
ENDBRANCH   9  10
ENDBRANCH   8   9
ENDBRANCH   1   8
TORSDOF 8
ENDMDL
MODEL 7
REMARK VINA RESULT:    -3.552      2.905      4.528
REMARK INTER + INTRA:          -5.656
REMARK INTER:                  -4.934
REMARK INTRA:                  -0.722
REMARK UNBOUND:                -0.443
REMARK SMILES O=C([O-])CCCCCCCC(=O)[O-]
REMARK SMILES IDX 7 1 6 2 5 3 4 4 2 5 1 6 3 7 8 8 9 9 10 10 11 11 12 12 13 13
REMARK H PARENT
REMARK Flexibility Score: inf
ROOT
ATOM      1  C   UNL     1       9.916 -24.143  40.825  1.00  0.00     0.000 C 
ENDROOT
BRANCH   1   2
ATOM      2  C   UNL     1       9.883 -24.839  39.454  1.00  0.00     0.000 C 
BRANCH   2   3
ATOM      3  C   UNL     1      11.082 -25.777  39.239  1.00  0.00     0.006 C 
BRANCH   3   4
ATOM      4  C   UNL     1      12.322 -25.345  40.032  1.00  0.00     0.053 C 
BRANCH   4   5
ATOM      5  C   UNL     1      13.175 -24.432  39.210  1.00  0.00     0.041 C 
ATOM      6  O   UNL     1      13.934 -23.598  39.770  1.00  0.00    -0.550 OA
ATOM      7  O   UNL     1      13.170 -24.536  37.824  1.00  0.00    -0.550 OA
ENDBRANCH   4   5
ENDBRANCH   3   4
ENDBRANCH   2   3
ENDBRANCH   1   2
BRANCH   1   8
ATOM      8  C   UNL     1       9.942 -22.610  40.709  1.00  0.00     0.000 C 
BRANCH   8   9
ATOM      9  C   UNL     1      11.184 -21.986  41.363  1.00  0.00     0.006 C 
BRANCH   9  10
ATOM     10  C   UNL     1      11.520 -22.689  42.682  1.00  0.00     0.053 C 
BRANCH  10  11
ATOM     11  C   UNL     1      12.795 -22.155  43.252  1.00  0.00     0.041 C 
ATOM     12  O   UNL     1      13.650 -21.619  42.498  1.00  0.00    -0.550 OA
ATOM     13  O   UNL     1      13.063 -22.292  44.608  1.00  0.00    -0.550 OA
ENDBRANCH  10  11
ENDBRANCH   9  10
ENDBRANCH   8   9
ENDBRANCH   1   8
TORSDOF 8
ENDMDL
MODEL 8
REMARK VINA RESULT:    -3.521      2.961      4.682
REMARK INTER + INTRA:          -5.611
REMARK INTER:                  -4.858
REMARK INTRA:                  -0.753
REMARK UNBOUND:                -0.443
REMARK SMILES O=C([O-])CCCCCCCC(=O)[O-]
REMARK SMILES IDX 7 1 6 2 5 3 4 4 2 5 1 6 3 7 8 8 9 9 10 10 11 11 12 12 13 13
REMARK H PARENT
REMARK Flexibility Score: inf
ROOT
ATOM      1  C   UNL     1       9.533 -24.152  40.281  1.00  0.00     0.000 C 
ENDROOT
BRANCH   1   2
ATOM      2  C   UNL     1       9.784 -22.723  40.790  1.00  0.00     0.000 C 
BRANCH   2   3
ATOM      3  C   UNL     1      10.930 -22.652  41.811  1.00  0.00     0.006 C 
BRANCH   3   4
ATOM      4  C   UNL     1      12.031 -21.666  41.399  1.00  0.00     0.053 C 
BRANCH   4   5
ATOM      5  C   UNL     1      12.947 -21.396  42.550  1.00  0.00     0.041 C 
ATOM      6  O   UNL     1      13.722 -20.404  42.525  1.00  0.00    -0.550 OA
ATOM      7  O   UNL     1      12.912 -22.214  43.673  1.00  0.00    -0.550 OA
ENDBRANCH   4   5
ENDBRANCH   3   4
ENDBRANCH   2   3
ENDBRANCH   1   2
BRANCH   1   8
ATOM      8  C   UNL     1      10.387 -25.199  41.016  1.00  0.00     0.000 C 
BRANCH   8   9
ATOM      9  C   UNL     1      11.275 -26.015  40.065  1.00  0.00     0.006 C 
BRANCH   9  10
ATOM     10  C   UNL     1      12.759 -25.751  40.341  1.00  0.00     0.053 C 
BRANCH  10  11
ATOM     11  C   UNL     1      13.252 -24.608  39.512  1.00  0.00     0.041 C 
ATOM     12  O   UNL     1      14.285 -23.975  39.856  1.00  0.00    -0.550 OA
ATOM     13  O   UNL     1      12.542 -24.208  38.387  1.00  0.00    -0.550 OA
ENDBRANCH  10  11
ENDBRANCH   9  10
ENDBRANCH   8   9
ENDBRANCH   1   8
TORSDOF 8
ENDMDL
MODEL 9
REMARK VINA RESULT:    -3.508      2.509      4.645
REMARK INTER + INTRA:          -5.591
REMARK INTER:                  -4.650
REMARK INTRA:                  -0.941
REMARK UNBOUND:                -0.443
REMARK SMILES O=C([O-])CCCCCCCC(=O)[O-]
REMARK SMILES IDX 7 1 6 2 5 3 4 4 2 5 1 6 3 7 8 8 9 9 10 10 11 11 12 12 13 13
REMARK H PARENT
REMARK Flexibility Score: inf
ROOT
ATOM      1  C   UNL     1       9.361 -24.322  40.429  1.00  0.00     0.000 C 
ENDROOT
BRANCH   1   2
ATOM      2  C   UNL     1      10.223 -25.156  41.392  1.00  0.00     0.000 C 
BRANCH   2   3
ATOM      3  C   UNL     1      10.882 -26.361  40.703  1.00  0.00     0.006 C 
BRANCH   3   4
ATOM      4  C   UNL     1      10.684 -26.354  39.181  1.00  0.00     0.053 C 
BRANCH   4   5
ATOM      5  C   UNL     1      11.909 -26.868  38.494  1.00  0.00     0.041 C 
ATOM      6  O   UNL     1      12.894 -27.269  39.169  1.00  0.00    -0.550 OA
ATOM      7  O   UNL     1      11.946 -26.951  37.107  1.00  0.00    -0.550 OA
ENDBRANCH   4   5
ENDBRANCH   3   4
ENDBRANCH   2   3
ENDBRANCH   1   2
BRANCH   1   8
ATOM      8  C   UNL     1       9.690 -22.822  40.490  1.00  0.00     0.000 C 
BRANCH   8   9
ATOM      9  C   UNL     1      11.033 -22.536  41.179  1.00  0.00     0.006 C 
BRANCH   9  10
ATOM     10  C   UNL     1      12.079 -22.063  40.165  1.00  0.00     0.053 C 
BRANCH  10  11
ATOM     11  C   UNL     1      12.791 -23.233  39.562  1.00  0.00     0.041 C 
ATOM     12  O   UNL     1      12.657 -23.494  38.338  1.00  0.00    -0.550 OA
ATOM     13  O   UNL     1      13.564 -24.063  40.364  1.00  0.00    -0.550 OA
ENDBRANCH  10  11
ENDBRANCH   9  10
ENDBRANCH   8   9
ENDBRANCH   1   8
TORSDOF 8
ENDMDL
