MODEL 1
REMARK VINA RESULT:    -2.735      0.000      0.000
REMARK INTER + INTRA:          -4.787
REMARK INTER:                  -3.694
REMARK INTRA:                  -1.093
REMARK UNBOUND:                -1.093
REMARK SMILES CC(=O)CCC=C(C)CCC=C(C)C
REMARK SMILES IDX 7 1 6 2 8 3 9 4 10 5 11 6 13 7 12 8 14 9 5 10 4 11 2 12 3 13
REMARK SMILES IDX 1 14
REMARK H PARENT
REMARK Flexibility Score: inf
ROOT
ATOM      1  C   UNL     1     -10.765 -22.695  20.809  1.00  0.00    -0.077 C 
ATOM      2  C   UNL     1     -10.942 -22.671  22.150  1.00  0.00    -0.028 C 
ATOM      3  C   UNL     1     -10.368 -21.460  20.034  1.00  0.00     0.039 C 
ENDROOT
BRANCH   1   4
ATOM      4  C   UNL     1     -10.953 -23.999  20.066  1.00  0.00     0.034 C 
BRANCH   4   5
ATOM      5  C   UNL     1     -10.155 -25.125  20.732  1.00  0.00     0.032 C 
BRANCH   5   6
ATOM      6  C   UNL     1      -8.700 -25.058  20.338  1.00  0.00    -0.028 C 
ATOM      7  C   UNL     1      -7.912 -24.738  22.694  1.00  0.00     0.039 C 
ATOM      8  C   UNL     1      -7.685 -24.851  21.207  1.00  0.00    -0.080 C 
ATOM      9  C   UNL     1      -6.268 -24.773  20.699  1.00  0.00     0.039 C 
ENDBRANCH   5   6
ENDBRANCH   4   5
ENDBRANCH   1   4
BRANCH   2  10
ATOM     10  C   UNL     1     -10.822 -21.434  23.004  1.00  0.00     0.035 C 
BRANCH  10  11
ATOM     11  C   UNL     1     -11.125 -21.756  24.471  1.00  0.00     0.079 C 
BRANCH  11  12
ATOM     12  C   UNL     1      -9.939 -22.403  25.131  1.00  0.00     0.130 C 
ATOM     13  O   UNL     1     -10.099 -23.383  25.842  1.00  0.00    -0.300 OA
ATOM     14  C   UNL     1      -8.562 -21.840  24.938  1.00  0.00     0.087 C 
ENDBRANCH  11  12
ENDBRANCH  10  11
ENDBRANCH   2  10
TORSDOF 6
ENDMDL
MODEL 2
REMARK VINA RESULT:    -2.556      2.306      5.125
REMARK INTER + INTRA:          -4.545
REMARK INTER:                  -3.899
REMARK INTRA:                  -0.646
REMARK UNBOUND:                -1.093
REMARK SMILES CC(=O)CCC=C(C)CCC=C(C)C
REMARK SMILES IDX 7 1 6 2 8 3 9 4 10 5 11 6 13 7 12 8 14 9 5 10 4 11 2 12 3 13
REMARK SMILES IDX 1 14
REMARK H PARENT
REMARK Flexibility Score: inf
ROOT
ATOM      1  C   UNL     1      -9.732 -22.993  21.266  1.00  0.00    -0.077 C 
ATOM      2  C   UNL     1      -9.546 -24.323  21.110  1.00  0.00    -0.028 C 
ATOM      3  C   UNL     1      -8.727 -21.982  20.765  1.00  0.00     0.039 C 
ENDROOT
BRANCH   1   4
ATOM      4  C   UNL     1     -10.991 -22.501  21.945  1.00  0.00     0.034 C 
BRANCH   4   5
ATOM      5  C   UNL     1     -10.669 -21.396  22.956  1.00  0.00     0.032 C 
BRANCH   5   6
ATOM      6  C   UNL     1     -10.952 -21.857  24.364  1.00  0.00    -0.028 C 
ATOM      7  C   UNL     1      -8.527 -22.097  24.944  1.00  0.00     0.039 C 
ATOM      8  C   UNL     1      -9.998 -22.207  25.257  1.00  0.00    -0.080 C 
ATOM      9  C   UNL     1     -10.396 -22.682  26.631  1.00  0.00     0.039 C 
ENDBRANCH   5   6
ENDBRANCH   4   5
ENDBRANCH   1   4
BRANCH   2  10
ATOM     10  C   UNL     1      -8.323 -24.946  20.486  1.00  0.00     0.035 C 
BRANCH  10  11
ATOM     11  C   UNL     1      -7.144 -24.925  21.463  1.00  0.00     0.079 C 
BRANCH  11  12
ATOM     12  C   UNL     1      -5.838 -25.017  20.724  1.00  0.00     0.130 C 
ATOM     13  O   UNL     1      -5.829 -25.022  19.502  1.00  0.00    -0.300 OA
ATOM     14  C   UNL     1      -4.545 -25.125  21.476  1.00  0.00     0.087 C 
ENDBRANCH  11  12
ENDBRANCH  10  11
ENDBRANCH   2  10
TORSDOF 6
ENDMDL
MODEL 3
REMARK VINA RESULT:    -2.071      2.501      4.966
REMARK INTER + INTRA:          -3.890
REMARK INTER:                  -3.793
REMARK INTRA:                  -0.097
REMARK UNBOUND:                -1.093
REMARK SMILES CC(=O)CCC=C(C)CCC=C(C)C
REMARK SMILES IDX 7 1 6 2 8 3 9 4 10 5 11 6 13 7 12 8 14 9 5 10 4 11 2 12 3 13
REMARK SMILES IDX 1 14
REMARK H PARENT
REMARK Flexibility Score: inf
ROOT
ATOM      1  C   UNL     1      -9.585 -23.769  20.877  1.00  0.00    -0.077 C 
ATOM      2  C   UNL     1      -8.265 -23.865  21.156  1.00  0.00    -0.028 C 
ATOM      3  C   UNL     1     -10.313 -24.832  20.089  1.00  0.00     0.039 C 
ENDROOT
BRANCH   1   4
ATOM      4  C   UNL     1     -10.358 -22.572  21.384  1.00  0.00     0.034 C 
BRANCH   4   5
ATOM      5  C   UNL     1     -10.634 -22.698  22.886  1.00  0.00     0.032 C 
BRANCH   5   6
ATOM      6  C   UNL     1      -9.777 -23.776  23.501  1.00  0.00    -0.028 C 
ATOM      7  C   UNL     1      -8.841 -22.254  25.256  1.00  0.00     0.039 C 
ATOM      8  C   UNL     1      -8.941 -23.581  24.546  1.00  0.00    -0.080 C 
ATOM      9  C   UNL     1      -8.109 -24.726  25.063  1.00  0.00     0.039 C 
ENDBRANCH   5   6
ENDBRANCH   4   5
ENDBRANCH   1   4
BRANCH   2  10
ATOM     10  C   UNL     1      -7.372 -24.984  20.682  1.00  0.00     0.035 C 
BRANCH  10  11
ATOM     11  C   UNL     1      -6.148 -25.125  21.594  1.00  0.00     0.079 C 
BRANCH  11  12
ATOM     12  C   UNL     1      -4.877 -25.053  20.794  1.00  0.00     0.130 C 
ATOM     13  O   UNL     1      -3.806 -24.916  21.366  1.00  0.00    -0.300 OA
ATOM     14  C   UNL     1      -4.917 -25.125  19.297  1.00  0.00     0.087 C 
ENDBRANCH  11  12
ENDBRANCH  10  11
ENDBRANCH   2  10
TORSDOF 6
ENDMDL
MODEL 4
REMARK VINA RESULT:    -1.823      2.426      5.285
REMARK INTER + INTRA:          -3.555
REMARK INTER:                  -2.907
REMARK INTRA:                  -0.648
REMARK UNBOUND:                -1.093
REMARK SMILES CC(=O)CCC=C(C)CCC=C(C)C
REMARK SMILES IDX 7 1 6 2 8 3 9 4 10 5 11 6 13 7 12 8 14 9 5 10 4 11 2 12 3 13
REMARK SMILES IDX 1 14
REMARK H PARENT
REMARK Flexibility Score: inf
ROOT
ATOM      1  C   UNL     1      -8.870 -24.191  23.691  1.00  0.00    -0.077 C 
ATOM      2  C   UNL     1      -8.486 -24.710  22.503  1.00  0.00    -0.028 C 
ATOM      3  C   UNL     1      -7.883 -23.923  24.803  1.00  0.00     0.039 C 
ENDROOT
BRANCH   1   4
ATOM      4  C   UNL     1     -10.329 -23.852  23.908  1.00  0.00     0.034 C 
BRANCH   4   5
ATOM      5  C   UNL     1     -11.124 -24.011  22.608  1.00  0.00     0.032 C 
BRANCH   5   6
ATOM      6  C   UNL     1     -11.051 -22.755  21.776  1.00  0.00    -0.028 C 
ATOM      7  C   UNL     1     -10.779 -24.006  19.623  1.00  0.00     0.039 C 
ATOM      8  C   UNL     1     -10.863 -22.739  20.436  1.00  0.00    -0.080 C 
ATOM      9  C   UNL     1     -10.777 -21.422  19.708  1.00  0.00     0.039 C 
ENDBRANCH   5   6
ENDBRANCH   4   5
ENDBRANCH   1   4
BRANCH   2  10
ATOM     10  C   UNL     1      -7.075 -25.125  22.170  1.00  0.00     0.035 C 
BRANCH  10  11
ATOM     11  C   UNL     1      -6.617 -24.487  20.855  1.00  0.00     0.079 C 
BRANCH  11  12
ATOM     12  C   UNL     1      -5.202 -24.881  20.535  1.00  0.00     0.130 C 
ATOM     13  O   UNL     1      -4.415 -25.110  21.440  1.00  0.00    -0.300 OA
ATOM     14  C   UNL     1      -4.744 -24.975  19.110  1.00  0.00     0.087 C 
ENDBRANCH  11  12
ENDBRANCH  10  11
ENDBRANCH   2  10
TORSDOF 6
ENDMDL
MODEL 5
REMARK VINA RESULT:    -1.784     16.246     17.681
REMARK INTER + INTRA:          -3.503
REMARK INTER:                  -3.014
REMARK INTRA:                  -0.488
REMARK UNBOUND:                -1.093
REMARK SMILES CC(=O)CCC=C(C)CCC=C(C)C
REMARK SMILES IDX 7 1 6 2 8 3 9 4 10 5 11 6 13 7 12 8 14 9 5 10 4 11 2 12 3 13
REMARK SMILES IDX 1 14
REMARK H PARENT
REMARK Flexibility Score: inf
ROOT
ATOM      1  C   UNL     1     -10.103  -5.024  23.195  1.00  0.00    -0.077 C 
ATOM      2  C   UNL     1     -11.081  -5.257  24.099  1.00  0.00    -0.028 C 
ATOM      3  C   UNL     1      -8.651  -4.919  23.598  1.00  0.00     0.039 C 
ENDROOT
BRANCH   1   4
ATOM      4  C   UNL     1     -10.470  -4.883  21.734  1.00  0.00     0.034 C 
BRANCH   4   5
ATOM      5  C   UNL     1      -9.336  -5.387  20.835  1.00  0.00     0.032 C 
BRANCH   5   6
ATOM      6  C   UNL     1      -9.505  -4.881  19.424  1.00  0.00    -0.028 C 
ATOM      7  C   UNL     1      -9.249  -7.158  18.409  1.00  0.00     0.039 C 
ATOM      8  C   UNL     1      -9.434  -5.663  18.322  1.00  0.00    -0.080 C 
ATOM      9  C   UNL     1      -9.589  -5.047  16.956  1.00  0.00     0.039 C 
ENDBRANCH   5   6
ENDBRANCH   4   5
ENDBRANCH   1   4
BRANCH   2  10
ATOM     10  C   UNL     1     -10.857  -5.381  25.585  1.00  0.00     0.035 C 
BRANCH  10  11
ATOM     11  C   UNL     1     -11.003  -6.838  26.036  1.00  0.00     0.079 C 
BRANCH  11  12
ATOM     12  C   UNL     1      -9.667  -7.417  26.409  1.00  0.00     0.130 C 
ATOM     13  O   UNL     1      -9.551  -8.622  26.576  1.00  0.00    -0.300 OA
ATOM     14  C   UNL     1      -8.479  -6.522  26.601  1.00  0.00     0.087 C 
ENDBRANCH  11  12
ENDBRANCH  10  11
ENDBRANCH   2  10
TORSDOF 6
ENDMDL
MODEL 6
REMARK VINA RESULT:    -1.743      1.312      2.474
REMARK INTER + INTRA:          -3.447
REMARK INTER:                  -3.025
REMARK INTRA:                  -0.423
REMARK UNBOUND:                -1.093
REMARK SMILES CC(=O)CCC=C(C)CCC=C(C)C
REMARK SMILES IDX 7 1 6 2 8 3 9 4 10 5 11 6 13 7 12 8 14 9 5 10 4 11 2 12 3 13
REMARK SMILES IDX 1 14
REMARK H PARENT
REMARK Flexibility Score: inf
ROOT
ATOM      1  C   UNL     1     -10.901 -22.249  22.923  1.00  0.00    -0.077 C 
ATOM      2  C   UNL     1     -10.713 -21.577  24.081  1.00  0.00    -0.028 C 
ATOM      3  C   UNL     1     -11.125 -23.743  22.893  1.00  0.00     0.039 C 
ENDROOT
BRANCH   1   4
ATOM      4  C   UNL     1     -10.907 -21.479  21.620  1.00  0.00     0.034 C 
BRANCH   4   5
ATOM      5  C   UNL     1     -10.233 -22.287  20.507  1.00  0.00     0.032 C 
BRANCH   5   6
ATOM      6  C   UNL     1      -8.844 -22.712  20.917  1.00  0.00    -0.028 C 
ATOM      7  C   UNL     1      -9.236 -25.117  20.335  1.00  0.00     0.039 C 
ATOM      8  C   UNL     1      -8.395 -23.987  20.876  1.00  0.00    -0.080 C 
ATOM      9  C   UNL     1      -6.996 -24.303  21.338  1.00  0.00     0.039 C 
ENDBRANCH   5   6
ENDBRANCH   4   5
ENDBRANCH   1   4
BRANCH   2  10
ATOM     10  C   UNL     1     -10.648 -22.225  25.442  1.00  0.00     0.035 C 
BRANCH  10  11
ATOM     11  C   UNL     1      -9.244 -22.773  25.716  1.00  0.00     0.079 C 
BRANCH  11  12
ATOM     12  C   UNL     1      -9.224 -24.271  25.598  1.00  0.00     0.130 C 
ATOM     13  O   UNL     1     -10.083 -24.937  26.156  1.00  0.00    -0.300 OA
ATOM     14  C   UNL     1      -8.144 -24.957  24.816  1.00  0.00     0.087 C 
ENDBRANCH  11  12
ENDBRANCH  10  11
ENDBRANCH   2  10
TORSDOF 6
ENDMDL
MODEL 7
REMARK VINA RESULT:    -1.700     19.506     21.341
REMARK INTER + INTRA:          -3.389
REMARK INTER:                  -2.410
REMARK INTRA:                  -0.979
REMARK UNBOUND:                -1.093
REMARK SMILES CC(=O)CCC=C(C)CCC=C(C)C
REMARK SMILES IDX 7 1 6 2 8 3 9 4 10 5 11 6 13 7 12 8 14 9 5 10 4 11 2 12 3 13
REMARK SMILES IDX 1 14
REMARK H PARENT
REMARK Flexibility Score: inf
ROOT
ATOM      1  C   UNL     1       7.687 -23.668   7.780  1.00  0.00    -0.077 C 
ATOM      2  C   UNL     1       6.960 -24.792   7.590  1.00  0.00    -0.028 C 
ATOM      3  C   UNL     1       7.163 -22.303   7.401  1.00  0.00     0.039 C 
ENDROOT
BRANCH   1   4
ATOM      4  C   UNL     1       9.059 -23.779   8.408  1.00  0.00     0.034 C 
BRANCH   4   5
ATOM      5  C   UNL     1       9.096 -24.910   9.441  1.00  0.00     0.032 C 
BRANCH   5   6
ATOM      6  C   UNL     1       9.120 -24.355  10.843  1.00  0.00    -0.028 C 
ATOM      7  C   UNL     1       6.742 -24.992  11.306  1.00  0.00     0.039 C 
ATOM      8  C   UNL     1       8.058 -24.357  11.681  1.00  0.00    -0.080 C 
ATOM      9  C   UNL     1       8.186 -23.749  13.053  1.00  0.00     0.039 C 
ENDBRANCH   5   6
ENDBRANCH   4   5
ENDBRANCH   1   4
BRANCH   2  10
ATOM     10  C   UNL     1       5.597 -24.826   6.944  1.00  0.00     0.035 C 
BRANCH  10  11
ATOM     11  C   UNL     1       4.511 -25.124   7.982  1.00  0.00     0.079 C 
BRANCH  11  12
ATOM     12  C   UNL     1       3.459 -24.051   7.975  1.00  0.00     0.130 C 
ATOM     13  O   UNL     1       3.420 -23.230   8.879  1.00  0.00    -0.300 OA
ATOM     14  C   UNL     1       2.441 -23.993   6.875  1.00  0.00     0.087 C 
ENDBRANCH  11  12
ENDBRANCH  10  11
ENDBRANCH   2  10
TORSDOF 6
ENDMDL
MODEL 8
REMARK VINA RESULT:    -1.644      3.013      5.698
REMARK INTER + INTRA:          -3.314
REMARK INTER:                  -3.460
REMARK INTRA:                   0.146
REMARK UNBOUND:                -1.093
REMARK SMILES CC(=O)CCC=C(C)CCC=C(C)C
REMARK SMILES IDX 7 1 6 2 8 3 9 4 10 5 11 6 13 7 12 8 14 9 5 10 4 11 2 12 3 13
REMARK SMILES IDX 1 14
REMARK H PARENT
REMARK Flexibility Score: inf
ROOT
ATOM      1  C   UNL     1      -9.036 -24.757  22.417  1.00  0.00    -0.077 C 
ATOM      2  C   UNL     1      -8.261 -24.738  21.308  1.00  0.00    -0.028 C 
ATOM      3  C   UNL     1      -8.480 -25.125  23.773  1.00  0.00     0.039 C 
ENDROOT
BRANCH   1   4
ATOM      4  C   UNL     1     -10.496 -24.380  22.299  1.00  0.00     0.034 C 
BRANCH   4   5
ATOM      5  C   UNL     1     -10.830 -23.200  23.219  1.00  0.00     0.032 C 
BRANCH   5   6
ATOM      6  C   UNL     1      -9.574 -22.491  23.660  1.00  0.00    -0.028 C 
ATOM      7  C   UNL     1     -10.435 -22.069  25.974  1.00  0.00     0.039 C 
ATOM      8  C   UNL     1      -9.397 -21.948  24.886  1.00  0.00    -0.080 C 
ATOM      9  C   UNL     1      -8.110 -21.235  25.211  1.00  0.00     0.039 C 
ENDBRANCH   5   6
ENDBRANCH   4   5
ENDBRANCH   1   4
BRANCH   2  10
ATOM     10  C   UNL     1      -6.804 -25.125  21.279  1.00  0.00     0.035 C 
BRANCH  10  11
ATOM     11  C   UNL     1      -6.249 -25.044  19.853  1.00  0.00     0.079 C 
BRANCH  11  12
ATOM     12  C   UNL     1      -4.747 -24.994  19.868  1.00  0.00     0.130 C 
ATOM     13  O   UNL     1      -4.125 -25.070  18.819  1.00  0.00    -0.300 OA
ATOM     14  C   UNL     1      -4.004 -24.872  21.165  1.00  0.00     0.087 C 
ENDBRANCH  11  12
ENDBRANCH  10  11
ENDBRANCH   2  10
TORSDOF 6
ENDMDL
MODEL 9
REMARK VINA RESULT:    -1.325      1.330      3.402
REMARK INTER + INTRA:          -2.883
REMARK INTER:                  -1.960
REMARK INTRA:                  -0.923
REMARK UNBOUND:                -1.093
REMARK SMILES CC(=O)CCC=C(C)CCC=C(C)C
REMARK SMILES IDX 7 1 6 2 8 3 9 4 10 5 11 6 13 7 12 8 14 9 5 10 4 11 2 12 3 13
REMARK SMILES IDX 1 14
REMARK H PARENT
REMARK Flexibility Score: inf
ROOT
ATOM      1  C   UNL     1      -8.674 -24.395  22.102  1.00  0.00    -0.077 C 
ATOM      2  C   UNL     1      -8.844 -25.091  23.249  1.00  0.00    -0.028 C 
ATOM      3  C   UNL     1      -7.997 -23.045  22.080  1.00  0.00     0.039 C 
ENDROOT
BRANCH   1   4
ATOM      4  C   UNL     1      -9.157 -24.995  20.800  1.00  0.00     0.034 C 
BRANCH   4   5
ATOM      5  C   UNL     1     -10.626 -24.640  20.549  1.00  0.00     0.032 C 
BRANCH   5   6
ATOM      6  C   UNL     1     -10.741 -23.413  19.679  1.00  0.00    -0.028 C 
ATOM      7  C   UNL     1     -11.125 -21.878  21.622  1.00  0.00     0.039 C 
ATOM      8  C   UNL     1     -10.998 -22.170  20.147  1.00  0.00    -0.080 C 
ATOM      9  C   UNL     1     -11.120 -21.017  19.184  1.00  0.00     0.039 C 
ENDBRANCH   5   6
ENDBRANCH   4   5
ENDBRANCH   1   4
BRANCH   2  10
ATOM     10  C   UNL     1      -8.442 -24.595  24.615  1.00  0.00     0.035 C 
BRANCH  10  11
ATOM     11  C   UNL     1      -9.671 -24.148  25.414  1.00  0.00     0.079 C 
BRANCH  11  12
ATOM     12  C   UNL     1      -9.768 -22.649  25.450  1.00  0.00     0.130 C 
ATOM     13  O   UNL     1      -8.750 -21.974  25.470  1.00  0.00    -0.300 OA
ATOM     14  C   UNL     1     -11.107 -21.975  25.482  1.00  0.00     0.087 C 
ENDBRANCH  11  12
ENDBRANCH  10  11
ENDBRANCH   2  10
TORSDOF 6
ENDMDL
