MODEL 1
REMARK VINA RESULT:    -4.723      0.000      0.000
REMARK INTER + INTRA:          -9.347
REMARK INTER:                  -8.312
REMARK INTRA:                  -1.035
REMARK UNBOUND:                -1.035
REMARK SMILES CCCCCCCCCCCCCCC(=O)[O-]
REMARK SMILES IDX 9 1 10 2 11 3 12 4 13 5 14 6 15 7 16 8 17 9 8 10 7 11 6 12
REMARK SMILES IDX 5 13 4 14 3 15 2 16 1 17
REMARK H PARENT
REMARK Flexibility Score: inf
ROOT
ATOM      1  C   UNL     1      10.835   4.795  27.084  1.00  0.00     0.000 C 
ENDROOT
BRANCH   1   2
ATOM      2  C   UNL     1       9.899   4.093  28.079  1.00  0.00     0.000 C 
BRANCH   2   3
ATOM      3  C   UNL     1      10.437   4.207  29.513  1.00  0.00     0.000 C 
BRANCH   3   4
ATOM      4  C   UNL     1       9.434   4.865  30.473  1.00  0.00     0.000 C 
BRANCH   4   5
ATOM      5  C   UNL     1       9.906   6.239  30.974  1.00  0.00     0.006 C 
BRANCH   5   6
ATOM      6  C   UNL     1       8.922   7.338  30.563  1.00  0.00     0.053 C 
BRANCH   6   7
ATOM      7  C   UNL     1       9.212   7.807  29.172  1.00  0.00     0.041 C 
ATOM      8  O   UNL     1      10.018   8.755  28.978  1.00  0.00    -0.550 OA
ATOM      9  O   UNL     1       8.554   7.231  28.093  1.00  0.00    -0.550 OA
ENDBRANCH   6   7
ENDBRANCH   5   6
ENDBRANCH   4   5
ENDBRANCH   3   4
ENDBRANCH   2   3
ENDBRANCH   1   2
BRANCH   1  10
ATOM     10  C   UNL     1      11.934   5.613  27.781  1.00  0.00     0.000 C 
BRANCH  10  11
ATOM     11  C   UNL     1      13.269   5.581  27.020  1.00  0.00    -0.000 C 
BRANCH  11  12
ATOM     12  C   UNL     1      13.704   6.997  26.616  1.00  0.00    -0.000 C 
BRANCH  12  13
ATOM     13  C   UNL     1      13.950   7.138  25.103  1.00  0.00    -0.000 C 
BRANCH  13  14
ATOM     14  C   UNL     1      14.466   8.521  24.651  1.00  0.00    -0.000 C 
BRANCH  14  15
ATOM     15  C   UNL     1      15.881   8.880  25.140  1.00  0.00    -0.000 C 
BRANCH  15  16
ATOM     16  C   UNL     1      16.965   7.972  24.543  1.00  0.00    -0.003 C 
ATOM     17  C   UNL     1      18.338   8.305  25.118  1.00  0.00     0.004 C 
ENDBRANCH  15  16
ENDBRANCH  14  15
ENDBRANCH  13  14
ENDBRANCH  12  13
ENDBRANCH  11  12
ENDBRANCH  10  11
ENDBRANCH   1  10
TORSDOF 13
ENDMDL
MODEL 2
REMARK VINA RESULT:    -4.716      1.868      2.758
REMARK INTER + INTRA:          -9.335
REMARK INTER:                  -7.935
REMARK INTRA:                  -1.400
REMARK UNBOUND:                -1.035
REMARK SMILES CCCCCCCCCCCCCCC(=O)[O-]
REMARK SMILES IDX 9 1 10 2 11 3 12 4 13 5 14 6 15 7 16 8 17 9 8 10 7 11 6 12
REMARK SMILES IDX 5 13 4 14 3 15 2 16 1 17
REMARK H PARENT
REMARK Flexibility Score: inf
ROOT
ATOM      1  C   UNL     1      10.109   7.211  26.977  1.00  0.00     0.000 C 
ENDROOT
BRANCH   1   2
ATOM      2  C   UNL     1      10.614   8.331  27.900  1.00  0.00     0.000 C 
BRANCH   2   3
ATOM      3  C   UNL     1       9.671   8.523  29.096  1.00  0.00     0.000 C 
BRANCH   3   4
ATOM      4  C   UNL     1       8.972   7.220  29.516  1.00  0.00     0.000 C 
BRANCH   4   5
ATOM      5  C   UNL     1       9.645   6.547  30.722  1.00  0.00     0.006 C 
BRANCH   5   6
ATOM      6  C   UNL     1       9.532   5.023  30.631  1.00  0.00     0.053 C 
BRANCH   6   7
ATOM      7  C   UNL     1      10.601   4.470  29.744  1.00  0.00     0.041 C 
ATOM      8  O   UNL     1      10.295   3.896  28.665  1.00  0.00    -0.550 OA
ATOM      9  O   UNL     1      11.933   4.543  30.131  1.00  0.00    -0.550 OA
ENDBRANCH   6   7
ENDBRANCH   5   6
ENDBRANCH   4   5
ENDBRANCH   3   4
ENDBRANCH   2   3
ENDBRANCH   1   2
BRANCH   1  10
ATOM     10  C   UNL     1      11.253   6.426  26.316  1.00  0.00     0.000 C 
BRANCH  10  11
ATOM     11  C   UNL     1      12.528   6.400  27.174  1.00  0.00    -0.000 C 
BRANCH  11  12
ATOM     12  C   UNL     1      13.750   6.832  26.351  1.00  0.00    -0.000 C 
BRANCH  12  13
ATOM     13  C   UNL     1      13.434   7.966  25.358  1.00  0.00    -0.000 C 
BRANCH  13  14
ATOM     14  C   UNL     1      14.381   8.053  24.143  1.00  0.00    -0.000 C 
BRANCH  14  15
ATOM     15  C   UNL     1      15.301   9.287  24.121  1.00  0.00    -0.000 C 
BRANCH  15  16
ATOM     16  C   UNL     1      16.733   8.969  24.573  1.00  0.00    -0.003 C 
ATOM     17  C   UNL     1      16.864   9.065  26.090  1.00  0.00     0.004 C 
ENDBRANCH  15  16
ENDBRANCH  14  15
ENDBRANCH  13  14
ENDBRANCH  12  13
ENDBRANCH  11  12
ENDBRANCH  10  11
ENDBRANCH   1  10
TORSDOF 13
ENDMDL
MODEL 3
REMARK VINA RESULT:    -4.691     12.990     14.163
REMARK INTER + INTRA:          -9.290
REMARK INTER:                  -7.896
REMARK INTRA:                  -1.394
REMARK UNBOUND:                -1.035
REMARK SMILES CCCCCCCCCCCCCCC(=O)[O-]
REMARK SMILES IDX 9 1 10 2 11 3 12 4 13 5 14 6 15 7 16 8 17 9 8 10 7 11 6 12
REMARK SMILES IDX 5 13 4 14 3 15 2 16 1 17
REMARK H PARENT
REMARK Flexibility Score: inf
ROOT
ATOM      1  C   UNL     1       4.990   6.654  14.713  1.00  0.00     0.000 C 
ENDROOT
BRANCH   1   2
ATOM      2  C   UNL     1       3.712   6.758  15.559  1.00  0.00     0.000 C 
BRANCH   2   3
ATOM      3  C   UNL     1       3.059   8.139  15.399  1.00  0.00     0.000 C 
BRANCH   3   4
ATOM      4  C   UNL     1       2.938   8.895  16.731  1.00  0.00     0.000 C 
BRANCH   4   5
ATOM      5  C   UNL     1       2.802   7.954  17.938  1.00  0.00     0.006 C 
BRANCH   5   6
ATOM      6  C   UNL     1       2.379   8.726  19.190  1.00  0.00     0.053 C 
BRANCH   6   7
ATOM      7  C   UNL     1       3.496   8.764  20.185  1.00  0.00     0.041 C 
ATOM      8  O   UNL     1       3.289   9.181  21.355  1.00  0.00    -0.550 OA
ATOM      9  O   UNL     1       4.778   8.384  19.806  1.00  0.00    -0.550 OA
ENDBRANCH   6   7
ENDBRANCH   5   6
ENDBRANCH   4   5
ENDBRANCH   3   4
ENDBRANCH   2   3
ENDBRANCH   1   2
BRANCH   1  10
ATOM     10  C   UNL     1       6.265   6.598  15.570  1.00  0.00     0.000 C 
BRANCH  10  11
ATOM     11  C   UNL     1       7.105   7.881  15.469  1.00  0.00    -0.000 C 
BRANCH  11  12
ATOM     12  C   UNL     1       8.314   7.674  14.545  1.00  0.00    -0.000 C 
BRANCH  12  13
ATOM     13  C   UNL     1       8.246   8.532  13.269  1.00  0.00    -0.000 C 
BRANCH  13  14
ATOM     14  C   UNL     1       7.735   7.796  12.012  1.00  0.00    -0.000 C 
BRANCH  14  15
ATOM     15  C   UNL     1       7.856   6.263  12.061  1.00  0.00    -0.000 C 
BRANCH  15  16
ATOM     16  C   UNL     1       6.577   5.551  11.598  1.00  0.00    -0.003 C 
ATOM     17  C   UNL     1       5.535   6.553  11.113  1.00  0.00     0.004 C 
ENDBRANCH  15  16
ENDBRANCH  14  15
ENDBRANCH  13  14
ENDBRANCH  12  13
ENDBRANCH  11  12
ENDBRANCH  10  11
ENDBRANCH   1  10
TORSDOF 13
ENDMDL
MODEL 4
REMARK VINA RESULT:    -4.678      3.372      7.396
REMARK INTER + INTRA:          -9.267
REMARK INTER:                  -7.892
REMARK INTRA:                  -1.375
REMARK UNBOUND:                -1.035
REMARK SMILES CCCCCCCCCCCCCCC(=O)[O-]
REMARK SMILES IDX 9 1 10 2 11 3 12 4 13 5 14 6 15 7 16 8 17 9 8 10 7 11 6 12
REMARK SMILES IDX 5 13 4 14 3 15 2 16 1 17
REMARK H PARENT
REMARK Flexibility Score: inf
ROOT
ATOM      1  C   UNL     1      11.148   6.523  26.463  1.00  0.00     0.000 C 
ENDROOT
BRANCH   1   2
ATOM      2  C   UNL     1      12.460   5.847  26.889  1.00  0.00     0.000 C 
BRANCH   2   3
ATOM      3  C   UNL     1      13.563   6.085  25.847  1.00  0.00     0.000 C 
BRANCH   3   4
ATOM      4  C   UNL     1      14.582   7.144  26.294  1.00  0.00     0.000 C 
BRANCH   4   5
ATOM      5  C   UNL     1      14.818   8.228  25.231  1.00  0.00     0.006 C 
BRANCH   5   6
ATOM      6  C   UNL     1      15.959   7.833  24.289  1.00  0.00     0.053 C 
BRANCH   6   7
ATOM      7  C   UNL     1      17.226   8.524  24.683  1.00  0.00     0.041 C 
ATOM      8  O   UNL     1      17.449   9.704  24.302  1.00  0.00    -0.550 OA
ATOM      9  O   UNL     1      18.184   7.849  25.429  1.00  0.00    -0.550 OA
ENDBRANCH   6   7
ENDBRANCH   5   6
ENDBRANCH   4   5
ENDBRANCH   3   4
ENDBRANCH   2   3
ENDBRANCH   1   2
BRANCH   1  10
ATOM     10  C   UNL     1      11.154   8.040  26.714  1.00  0.00     0.000 C 
BRANCH  10  11
ATOM     11  C   UNL     1      10.444   8.428  28.019  1.00  0.00    -0.000 C 
BRANCH  11  12
ATOM     12  C   UNL     1       9.341   7.417  28.366  1.00  0.00    -0.000 C 
BRANCH  12  13
ATOM     13  C   UNL     1       8.982   7.412  29.862  1.00  0.00    -0.000 C 
BRANCH  13  14
ATOM     14  C   UNL     1       9.308   6.101  30.608  1.00  0.00    -0.000 C 
BRANCH  14  15
ATOM     15  C   UNL     1      10.478   5.291  30.022  1.00  0.00    -0.000 C 
BRANCH  15  16
ATOM     16  C   UNL     1      10.085   3.852  29.663  1.00  0.00    -0.003 C 
ATOM     17  C   UNL     1       9.554   3.767  28.235  1.00  0.00     0.004 C 
ENDBRANCH  15  16
ENDBRANCH  14  15
ENDBRANCH  13  14
ENDBRANCH  12  13
ENDBRANCH  11  12
ENDBRANCH  10  11
ENDBRANCH   1  10
TORSDOF 13
ENDMDL
MODEL 5
REMARK VINA RESULT:    -4.660     13.654     15.710
REMARK INTER + INTRA:          -9.236
REMARK INTER:                  -7.094
REMARK INTRA:                  -2.142
REMARK UNBOUND:                -1.035
REMARK SMILES CCCCCCCCCCCCCCC(=O)[O-]
REMARK SMILES IDX 9 1 10 2 11 3 12 4 13 5 14 6 15 7 16 8 17 9 8 10 7 11 6 12
REMARK SMILES IDX 5 13 4 14 3 15 2 16 1 17
REMARK H PARENT
REMARK Flexibility Score: inf
ROOT
ATOM      1  C   UNL     1       6.216   6.536  15.297  1.00  0.00     0.000 C 
ENDROOT
BRANCH   1   2
ATOM      2  C   UNL     1       7.491   7.340  15.004  1.00  0.00     0.000 C 
BRANCH   2   3
ATOM      3  C   UNL     1       7.151   8.691  14.357  1.00  0.00     0.000 C 
BRANCH   3   4
ATOM      4  C   UNL     1       8.026   8.997  13.131  1.00  0.00     0.000 C 
BRANCH   4   5
ATOM      5  C   UNL     1       8.236   7.771  12.230  1.00  0.00     0.006 C 
BRANCH   5   6
ATOM      6  C   UNL     1       7.080   7.617  11.237  1.00  0.00     0.053 C 
BRANCH   6   7
ATOM      7  C   UNL     1       6.430   6.279  11.393  1.00  0.00     0.041 C 
ATOM      8  O   UNL     1       5.263   6.087  10.960  1.00  0.00    -0.550 OA
ATOM      9  O   UNL     1       7.093   5.257  12.062  1.00  0.00    -0.550 OA
ENDBRANCH   6   7
ENDBRANCH   5   6
ENDBRANCH   4   5
ENDBRANCH   3   4
ENDBRANCH   2   3
ENDBRANCH   1   2
BRANCH   1  10
ATOM     10  C   UNL     1       4.994   7.059  14.525  1.00  0.00     0.000 C 
BRANCH  10  11
ATOM     11  C   UNL     1       3.682   6.891  15.306  1.00  0.00    -0.000 C 
BRANCH  11  12
ATOM     12  C   UNL     1       3.052   8.255  15.620  1.00  0.00    -0.000 C 
BRANCH  12  13
ATOM     13  C   UNL     1       2.729   8.436  17.114  1.00  0.00    -0.000 C 
BRANCH  13  14
ATOM     14  C   UNL     1       3.648   9.421  17.867  1.00  0.00    -0.000 C 
BRANCH  14  15
ATOM     15  C   UNL     1       4.977   9.743  17.161  1.00  0.00    -0.000 C 
BRANCH  15  16
ATOM     16  C   UNL     1       6.203   9.284  17.962  1.00  0.00    -0.003 C 
ATOM     17  C   UNL     1       5.941   7.948  18.650  1.00  0.00     0.004 C 
ENDBRANCH  15  16
ENDBRANCH  14  15
ENDBRANCH  13  14
ENDBRANCH  12  13
ENDBRANCH  11  12
ENDBRANCH  10  11
ENDBRANCH   1  10
TORSDOF 13
ENDMDL
MODEL 6
REMARK VINA RESULT:    -4.640      2.599      3.720
REMARK INTER + INTRA:          -9.201
REMARK INTER:                  -7.565
REMARK INTRA:                  -1.636
REMARK UNBOUND:                -1.035
REMARK SMILES CCCCCCCCCCCCCCC(=O)[O-]
REMARK SMILES IDX 9 1 10 2 11 3 12 4 13 5 14 6 15 7 16 8 17 9 8 10 7 11 6 12
REMARK SMILES IDX 5 13 4 14 3 15 2 16 1 17
REMARK H PARENT
REMARK Flexibility Score: inf
ROOT
ATOM      1  C   UNL     1      11.738   6.992  25.376  1.00  0.00     0.000 C 
ENDROOT
BRANCH   1   2
ATOM      2  C   UNL     1      11.621   6.787  26.894  1.00  0.00     0.000 C 
BRANCH   2   3
ATOM      3  C   UNL     1      10.312   7.385  27.430  1.00  0.00     0.000 C 
BRANCH   3   4
ATOM      4  C   UNL     1       9.247   6.315  27.720  1.00  0.00     0.000 C 
BRANCH   4   5
ATOM      5  C   UNL     1       9.748   4.889  27.445  1.00  0.00     0.006 C 
BRANCH   5   6
ATOM      6  C   UNL     1       9.545   3.992  28.669  1.00  0.00     0.053 C 
BRANCH   6   7
ATOM      7  C   UNL     1      10.272   4.548  29.852  1.00  0.00     0.041 C 
ATOM      8  O   UNL     1       9.632   4.927  30.869  1.00  0.00    -0.550 OA
ATOM      9  O   UNL     1      11.653   4.695  29.814  1.00  0.00    -0.550 OA
ENDBRANCH   6   7
ENDBRANCH   5   6
ENDBRANCH   4   5
ENDBRANCH   3   4
ENDBRANCH   2   3
ENDBRANCH   1   2
BRANCH   1  10
ATOM     10  C   UNL     1      10.893   8.173  24.871  1.00  0.00     0.000 C 
BRANCH  10  11
ATOM     11  C   UNL     1      10.792   8.217  23.339  1.00  0.00    -0.000 C 
BRANCH  11  12
ATOM     12  C   UNL     1      11.644   7.111  22.701  1.00  0.00    -0.000 C 
BRANCH  12  13
ATOM     13  C   UNL     1      12.459   7.604  21.491  1.00  0.00    -0.000 C 
BRANCH  13  14
ATOM     14  C   UNL     1      13.568   8.624  21.823  1.00  0.00    -0.000 C 
BRANCH  14  15
ATOM     15  C   UNL     1      14.514   8.211  22.964  1.00  0.00    -0.000 C 
BRANCH  15  16
ATOM     16  C   UNL     1      14.502   9.202  24.136  1.00  0.00    -0.003 C 
ATOM     17  C   UNL     1      15.127   8.585  25.384  1.00  0.00     0.004 C 
ENDBRANCH  15  16
ENDBRANCH  14  15
ENDBRANCH  13  14
ENDBRANCH  12  13
ENDBRANCH  11  12
ENDBRANCH  10  11
ENDBRANCH   1  10
TORSDOF 13
ENDMDL
MODEL 7
REMARK VINA RESULT:    -4.629      3.477      7.712
REMARK INTER + INTRA:          -9.182
REMARK INTER:                  -8.107
REMARK INTRA:                  -1.076
REMARK UNBOUND:                -1.035
REMARK SMILES CCCCCCCCCCCCCCC(=O)[O-]
REMARK SMILES IDX 9 1 10 2 11 3 12 4 13 5 14 6 15 7 16 8 17 9 8 10 7 11 6 12
REMARK SMILES IDX 5 13 4 14 3 15 2 16 1 17
REMARK H PARENT
REMARK Flexibility Score: inf
ROOT
ATOM      1  C   UNL     1      13.289   6.430  25.625  1.00  0.00     0.000 C 
ENDROOT
BRANCH   1   2
ATOM      2  C   UNL     1      12.835   7.877  25.874  1.00  0.00     0.000 C 
BRANCH   2   3
ATOM      3  C   UNL     1      13.256   8.791  24.715  1.00  0.00     0.000 C 
BRANCH   3   4
ATOM      4  C   UNL     1      14.457   8.239  23.931  1.00  0.00     0.000 C 
BRANCH   4   5
ATOM      5  C   UNL     1      15.686   9.157  24.004  1.00  0.00     0.006 C 
BRANCH   5   6
ATOM      6  C   UNL     1      16.478   8.910  25.291  1.00  0.00     0.053 C 
BRANCH   6   7
ATOM      7  C   UNL     1      17.757   8.196  24.991  1.00  0.00     0.041 C 
ATOM      8  O   UNL     1      18.839   8.591  25.501  1.00  0.00    -0.550 OA
ATOM      9  O   UNL     1      17.765   7.123  24.108  1.00  0.00    -0.550 OA
ENDBRANCH   6   7
ENDBRANCH   5   6
ENDBRANCH   4   5
ENDBRANCH   3   4
ENDBRANCH   2   3
ENDBRANCH   1   2
BRANCH   1  10
ATOM     10  C   UNL     1      12.917   5.485  26.779  1.00  0.00     0.000 C 
BRANCH  10  11
ATOM     11  C   UNL     1      11.605   5.882  27.472  1.00  0.00    -0.000 C 
BRANCH  11  12
ATOM     12  C   UNL     1      10.463   4.941  27.063  1.00  0.00    -0.000 C 
BRANCH  12  13
ATOM     13  C   UNL     1       9.565   4.538  28.246  1.00  0.00    -0.000 C 
BRANCH  13  14
ATOM     14  C   UNL     1       9.327   5.648  29.293  1.00  0.00    -0.000 C 
BRANCH  14  15
ATOM     15  C   UNL     1       9.641   5.251  30.746  1.00  0.00    -0.000 C 
BRANCH  15  16
ATOM     16  C   UNL     1      10.562   4.027  30.843  1.00  0.00    -0.003 C 
ATOM     17  C   UNL     1      12.014   4.447  31.048  1.00  0.00     0.004 C 
ENDBRANCH  15  16
ENDBRANCH  14  15
ENDBRANCH  13  14
ENDBRANCH  12  13
ENDBRANCH  11  12
ENDBRANCH  10  11
ENDBRANCH   1  10
TORSDOF 13
ENDMDL
MODEL 8
REMARK VINA RESULT:    -4.608      2.219      3.592
REMARK INTER + INTRA:          -9.145
REMARK INTER:                  -7.608
REMARK INTRA:                  -1.537
REMARK UNBOUND:                -1.035
REMARK SMILES CCCCCCCCCCCCCCC(=O)[O-]
REMARK SMILES IDX 9 1 10 2 11 3 12 4 13 5 14 6 15 7 16 8 17 9 8 10 7 11 6 12
REMARK SMILES IDX 5 13 4 14 3 15 2 16 1 17
REMARK H PARENT
REMARK Flexibility Score: inf
ROOT
ATOM      1  C   UNL     1      12.245   7.055  26.958  1.00  0.00     0.000 C 
ENDROOT
BRANCH   1   2
ATOM      2  C   UNL     1      10.720   7.199  26.852  1.00  0.00     0.000 C 
BRANCH   2   3
ATOM      3  C   UNL     1      10.141   7.850  28.116  1.00  0.00     0.000 C 
BRANCH   3   4
ATOM      4  C   UNL     1       9.028   7.007  28.761  1.00  0.00     0.000 C 
BRANCH   4   5
ATOM      5  C   UNL     1       9.372   6.565  30.191  1.00  0.00     0.006 C 
BRANCH   5   6
ATOM      6  C   UNL     1       9.404   5.038  30.299  1.00  0.00     0.053 C 
BRANCH   6   7
ATOM      7  C   UNL     1      10.457   4.471  29.400  1.00  0.00     0.041 C 
ATOM      8  O   UNL     1      11.674   4.721  29.613  1.00  0.00    -0.550 OA
ATOM      9  O   UNL     1      10.094   3.708  28.298  1.00  0.00    -0.550 OA
ENDBRANCH   6   7
ENDBRANCH   5   6
ENDBRANCH   4   5
ENDBRANCH   3   4
ENDBRANCH   2   3
ENDBRANCH   1   2
BRANCH   1  10
ATOM     10  C   UNL     1      12.834   6.153  25.861  1.00  0.00     0.000 C 
BRANCH  10  11
ATOM     11  C   UNL     1      14.111   6.735  25.236  1.00  0.00    -0.000 C 
BRANCH  11  12
ATOM     12  C   UNL     1      14.211   8.245  25.499  1.00  0.00    -0.000 C 
BRANCH  12  13
ATOM     13  C   UNL     1      14.226   9.079  24.206  1.00  0.00    -0.000 C 
BRANCH  13  14
ATOM     14  C   UNL     1      14.515   8.281  22.917  1.00  0.00    -0.000 C 
BRANCH  14  15
ATOM     15  C   UNL     1      13.390   8.307  21.867  1.00  0.00    -0.000 C 
BRANCH  15  16
ATOM     16  C   UNL     1      11.989   8.297  22.496  1.00  0.00    -0.003 C 
ATOM     17  C   UNL     1      11.410   6.886  22.527  1.00  0.00     0.004 C 
ENDBRANCH  15  16
ENDBRANCH  14  15
ENDBRANCH  13  14
ENDBRANCH  12  13
ENDBRANCH  11  12
ENDBRANCH  10  11
ENDBRANCH   1  10
TORSDOF 13
ENDMDL
MODEL 9
REMARK VINA RESULT:    -4.577      1.858      3.297
REMARK INTER + INTRA:          -9.091
REMARK INTER:                  -7.827
REMARK INTRA:                  -1.263
REMARK UNBOUND:                -1.035
REMARK SMILES CCCCCCCCCCCCCCC(=O)[O-]
REMARK SMILES IDX 9 1 10 2 11 3 12 4 13 5 14 6 15 7 16 8 17 9 8 10 7 11 6 12
REMARK SMILES IDX 5 13 4 14 3 15 2 16 1 17
REMARK H PARENT
REMARK Flexibility Score: inf
ROOT
ATOM      1  C   UNL     1      13.257   6.490  25.555  1.00  0.00     0.000 C 
ENDROOT
BRANCH   1   2
ATOM      2  C   UNL     1      12.400   6.140  26.781  1.00  0.00     0.000 C 
BRANCH   2   3
ATOM      3  C   UNL     1      11.090   6.941  26.782  1.00  0.00     0.000 C 
BRANCH   3   4
ATOM      4  C   UNL     1       9.892   6.118  27.282  1.00  0.00     0.000 C 
BRANCH   4   5
ATOM      5  C   UNL     1      10.148   4.605  27.229  1.00  0.00     0.006 C 
BRANCH   5   6
ATOM      6  C   UNL     1       9.658   3.921  28.509  1.00  0.00     0.053 C 
BRANCH   6   7
ATOM      7  C   UNL     1      10.284   4.553  29.712  1.00  0.00     0.041 C 
ATOM      8  O   UNL     1      11.523   4.447  29.912  1.00  0.00    -0.550 OA
ATOM      9  O   UNL     1       9.492   5.217  30.640  1.00  0.00    -0.550 OA
ENDBRANCH   6   7
ENDBRANCH   5   6
ENDBRANCH   4   5
ENDBRANCH   3   4
ENDBRANCH   2   3
ENDBRANCH   1   2
BRANCH   1  10
ATOM     10  C   UNL     1      12.410   6.835  24.319  1.00  0.00     0.000 C 
BRANCH  10  11
ATOM     11  C   UNL     1      12.805   8.178  23.686  1.00  0.00    -0.000 C 
BRANCH  11  12
ATOM     12  C   UNL     1      13.407   9.124  24.735  1.00  0.00    -0.000 C 
BRANCH  12  13
ATOM     13  C   UNL     1      14.684   9.829  24.245  1.00  0.00    -0.000 C 
BRANCH  13  14
ATOM     14  C   UNL     1      15.984   9.391  24.951  1.00  0.00    -0.000 C 
BRANCH  14  15
ATOM     15  C   UNL     1      16.633   8.114  24.389  1.00  0.00    -0.000 C 
BRANCH  15  16
ATOM     16  C   UNL     1      18.072   7.910  24.883  1.00  0.00    -0.003 C 
ATOM     17  C   UNL     1      18.912   9.165  24.661  1.00  0.00     0.004 C 
ENDBRANCH  15  16
ENDBRANCH  14  15
ENDBRANCH  13  14
ENDBRANCH  12  13
ENDBRANCH  11  12
ENDBRANCH  10  11
ENDBRANCH   1  10
TORSDOF 13
ENDMDL
