MODEL 1
REMARK VINA RESULT:    -4.930      0.000      0.000
REMARK INTER + INTRA:          -7.778
REMARK INTER:                  -6.948
REMARK INTRA:                  -0.831
REMARK UNBOUND:                -0.831
REMARK SMILES CCCCCCCCC(=O)[O-]
REMARK SMILES IDX 6 1 7 2 8 3 9 4 10 5 11 6 5 7 4 8 3 9 2 10 1 11
REMARK H PARENT
REMARK Flexibility Score: inf
ROOT
ATOM      1  C   UNL     1      -2.885  35.261  98.074  1.00  0.00     0.000 C 
ENDROOT
BRANCH   1   2
ATOM      2  C   UNL     1      -3.223  36.699  97.657  1.00  0.00     0.006 C 
BRANCH   2   3
ATOM      3  C   UNL     1      -4.555  36.753  96.904  1.00  0.00     0.053 C 
BRANCH   3   4
ATOM      4  C   UNL     1      -5.422  37.843  97.448  1.00  0.00     0.041 C 
ATOM      5  O   UNL     1      -4.959  38.665  98.281  1.00  0.00    -0.550 OA
ATOM      6  O   UNL     1      -6.758  37.922  97.072  1.00  0.00    -0.550 OA
ENDBRANCH   3   4
ENDBRANCH   2   3
ENDBRANCH   1   2
BRANCH   1   7
ATOM      7  C   UNL     1      -4.086  34.525  98.690  1.00  0.00     0.000 C 
BRANCH   7   8
ATOM      8  C   UNL     1      -4.145  34.663 100.219  1.00  0.00    -0.000 C 
BRANCH   8   9
ATOM      9  C   UNL     1      -5.226  35.667 100.638  1.00  0.00    -0.000 C 
BRANCH   9  10
ATOM     10  C   UNL     1      -4.605  36.895 101.313  1.00  0.00    -0.003 C 
ATOM     11  C   UNL     1      -3.103  36.711 101.517  1.00  0.00     0.004 C 
ENDBRANCH   9  10
ENDBRANCH   8   9
ENDBRANCH   7   8
ENDBRANCH   1   7
TORSDOF 7
ENDMDL
MODEL 2
REMARK VINA RESULT:    -4.896      3.015      4.530
REMARK INTER + INTRA:          -7.730
REMARK INTER:                  -7.087
REMARK INTRA:                  -0.643
REMARK UNBOUND:                -0.831
REMARK SMILES CCCCCCCCC(=O)[O-]
REMARK SMILES IDX 6 1 7 2 8 3 9 4 10 5 11 6 5 7 4 8 3 9 2 10 1 11
REMARK H PARENT
REMARK Flexibility Score: inf
ROOT
ATOM      1  C   UNL     1      -4.960  36.853 100.934  1.00  0.00     0.000 C 
ENDROOT
BRANCH   1   2
ATOM      2  C   UNL     1      -3.609  36.932 101.660  1.00  0.00     0.006 C 
BRANCH   2   3
ATOM      3  C   UNL     1      -2.827  38.177 101.229  1.00  0.00     0.053 C 
BRANCH   3   4
ATOM      4  C   UNL     1      -2.422  38.981 102.423  1.00  0.00     0.041 C 
ATOM      5  O   UNL     1      -2.873  38.695 103.563  1.00  0.00    -0.550 OA
ATOM      6  O   UNL     1      -1.584  40.079 102.269  1.00  0.00    -0.550 OA
ENDBRANCH   3   4
ENDBRANCH   2   3
ENDBRANCH   1   2
BRANCH   1   7
ATOM      7  C   UNL     1      -5.371  35.410 100.603  1.00  0.00     0.000 C 
BRANCH   7   8
ATOM      8  C   UNL     1      -5.394  35.132  99.092  1.00  0.00    -0.000 C 
BRANCH   8   9
ATOM      9  C   UNL     1      -4.203  34.258  98.677  1.00  0.00    -0.000 C 
BRANCH   9  10
ATOM     10  C   UNL     1      -2.939  35.103  98.488  1.00  0.00    -0.003 C 
ATOM     11  C   UNL     1      -3.229  36.350  97.656  1.00  0.00     0.004 C 
ENDBRANCH   9  10
ENDBRANCH   8   9
ENDBRANCH   7   8
ENDBRANCH   1   7
TORSDOF 7
ENDMDL
MODEL 3
REMARK VINA RESULT:    -4.824      1.598      2.955
REMARK INTER + INTRA:          -7.629
REMARK INTER:                  -6.849
REMARK INTRA:                  -0.781
REMARK UNBOUND:                -0.831
REMARK SMILES CCCCCCCCC(=O)[O-]
REMARK SMILES IDX 6 1 7 2 8 3 9 4 10 5 11 6 5 7 4 8 3 9 2 10 1 11
REMARK H PARENT
REMARK Flexibility Score: inf
ROOT
ATOM      1  C   UNL     1      -3.284  38.632  99.805  1.00  0.00     0.000 C 
ENDROOT
BRANCH   1   2
ATOM      2  C   UNL     1      -4.240  38.970  98.652  1.00  0.00     0.006 C 
BRANCH   2   3
ATOM      3  C   UNL     1      -5.109  37.762  98.288  1.00  0.00     0.053 C 
BRANCH   3   4
ATOM      4  C   UNL     1      -4.699  37.202  96.963  1.00  0.00     0.041 C 
ATOM      5  O   UNL     1      -5.543  37.085  96.036  1.00  0.00    -0.550 OA
ATOM      6  O   UNL     1      -3.396  36.760  96.768  1.00  0.00    -0.550 OA
ENDBRANCH   3   4
ENDBRANCH   2   3
ENDBRANCH   1   2
BRANCH   1   7
ATOM      7  C   UNL     1      -3.793  37.472 100.675  1.00  0.00     0.000 C 
BRANCH   7   8
ATOM      8  C   UNL     1      -2.707  36.424 100.960  1.00  0.00    -0.000 C 
BRANCH   8   9
ATOM      9  C   UNL     1      -2.808  35.248  99.980  1.00  0.00    -0.000 C 
BRANCH   9  10
ATOM     10  C   UNL     1      -4.191  34.590 100.051  1.00  0.00    -0.003 C 
ATOM     11  C   UNL     1      -4.619  34.060  98.685  1.00  0.00     0.004 C 
ENDBRANCH   9  10
ENDBRANCH   8   9
ENDBRANCH   7   8
ENDBRANCH   1   7
TORSDOF 7
ENDMDL
MODEL 4
REMARK VINA RESULT:    -4.816      1.709      4.117
REMARK INTER + INTRA:          -7.617
REMARK INTER:                  -6.909
REMARK INTRA:                  -0.708
REMARK UNBOUND:                -0.831
REMARK SMILES CCCCCCCCC(=O)[O-]
REMARK SMILES IDX 6 1 7 2 8 3 9 4 10 5 11 6 5 7 4 8 3 9 2 10 1 11
REMARK H PARENT
REMARK Flexibility Score: inf
ROOT
ATOM      1  C   UNL     1      -5.175  35.874 100.657  1.00  0.00     0.000 C 
ENDROOT
BRANCH   1   2
ATOM      2  C   UNL     1      -4.505  36.753 101.723  1.00  0.00     0.006 C 
BRANCH   2   3
ATOM      3  C   UNL     1      -2.995  36.848 101.483  1.00  0.00     0.053 C 
BRANCH   3   4
ATOM      4  C   UNL     1      -2.623  38.218 101.012  1.00  0.00     0.041 C 
ATOM      5  O   UNL     1      -3.184  38.713  99.999  1.00  0.00    -0.550 OA
ATOM      6  O   UNL     1      -1.622  38.930 101.661  1.00  0.00    -0.550 OA
ENDBRANCH   3   4
ENDBRANCH   2   3
ENDBRANCH   1   2
BRANCH   1   7
ATOM      7  C   UNL     1      -4.275  34.720 100.189  1.00  0.00     0.000 C 
BRANCH   7   8
ATOM      8  C   UNL     1      -4.112  34.677  98.661  1.00  0.00    -0.000 C 
BRANCH   8   9
ATOM      9  C   UNL     1      -2.868  35.459  98.220  1.00  0.00    -0.000 C 
BRANCH   9  10
ATOM     10  C   UNL     1      -3.242  36.582  97.246  1.00  0.00    -0.003 C 
ATOM     11  C   UNL     1      -4.754  36.669  97.059  1.00  0.00     0.004 C 
ENDBRANCH   9  10
ENDBRANCH   8   9
ENDBRANCH   7   8
ENDBRANCH   1   7
TORSDOF 7
ENDMDL
MODEL 5
REMARK VINA RESULT:    -4.681      2.448      4.154
REMARK INTER + INTRA:          -7.427
REMARK INTER:                  -6.667
REMARK INTRA:                  -0.760
REMARK UNBOUND:                -0.831
REMARK SMILES CCCCCCCCC(=O)[O-]
REMARK SMILES IDX 6 1 7 2 8 3 9 4 10 5 11 6 5 7 4 8 3 9 2 10 1 11
REMARK H PARENT
REMARK Flexibility Score: inf
ROOT
ATOM      1  C   UNL     1      -3.303  34.980  99.946  1.00  0.00     0.000 C 
ENDROOT
BRANCH   1   2
ATOM      2  C   UNL     1      -2.702  36.137 100.757  1.00  0.00     0.006 C 
BRANCH   2   3
ATOM      3  C   UNL     1      -3.780  36.842 101.586  1.00  0.00     0.053 C 
BRANCH   3   4
ATOM      4  C   UNL     1      -3.187  37.970 102.368  1.00  0.00     0.041 C 
ATOM      5  O   UNL     1      -2.743  38.988 101.775  1.00  0.00    -0.550 OA
ATOM      6  O   UNL     1      -3.079  37.877 103.751  1.00  0.00    -0.550 OA
ENDBRANCH   3   4
ENDBRANCH   2   3
ENDBRANCH   1   2
BRANCH   1   7
ATOM      7  C   UNL     1      -2.920  35.038  98.459  1.00  0.00     0.000 C 
BRANCH   7   8
ATOM      8  C   UNL     1      -3.186  36.415  97.831  1.00  0.00    -0.000 C 
BRANCH   8   9
ATOM      9  C   UNL     1      -4.656  36.554  97.415  1.00  0.00    -0.000 C 
BRANCH   9  10
ATOM     10  C   UNL     1      -5.335  37.703  98.168  1.00  0.00    -0.003 C 
ATOM     11  C   UNL     1      -4.332  38.798  98.523  1.00  0.00     0.004 C 
ENDBRANCH   9  10
ENDBRANCH   8   9
ENDBRANCH   7   8
ENDBRANCH   1   7
TORSDOF 7
ENDMDL
MODEL 6
REMARK VINA RESULT:    -4.566      3.222      4.949
REMARK INTER + INTRA:          -7.265
REMARK INTER:                  -6.730
REMARK INTRA:                  -0.535
REMARK UNBOUND:                -0.831
REMARK SMILES CCCCCCCCC(=O)[O-]
REMARK SMILES IDX 6 1 7 2 8 3 9 4 10 5 11 6 5 7 4 8 3 9 2 10 1 11
REMARK H PARENT
REMARK Flexibility Score: inf
ROOT
ATOM      1  C   UNL     1      -3.237  38.878 100.234  1.00  0.00     0.000 C 
ENDROOT
BRANCH   1   2
ATOM      2  C   UNL     1      -2.585  38.031 101.336  1.00  0.00     0.006 C 
BRANCH   2   3
ATOM      3  C   UNL     1      -2.787  38.673 102.712  1.00  0.00     0.053 C 
BRANCH   3   4
ATOM      4  C   UNL     1      -2.180  40.039 102.747  1.00  0.00     0.041 C 
ATOM      5  O   UNL     1      -0.936  40.184 102.616  1.00  0.00    -0.550 OA
ATOM      6  O   UNL     1      -2.983  41.151 102.974  1.00  0.00    -0.550 OA
ENDBRANCH   3   4
ENDBRANCH   2   3
ENDBRANCH   1   2
BRANCH   1   7
ATOM      7  C   UNL     1      -4.127  38.047  99.296  1.00  0.00     0.000 C 
BRANCH   7   8
ATOM      8  C   UNL     1      -3.351  37.463  98.105  1.00  0.00    -0.000 C 
BRANCH   8   9
ATOM      9  C   UNL     1      -3.630  35.962  97.950  1.00  0.00    -0.000 C 
BRANCH   9  10
ATOM     10  C   UNL     1      -2.820  35.145  98.962  1.00  0.00    -0.003 C 
ATOM     11  C   UNL     1      -3.731  34.482  99.992  1.00  0.00     0.004 C 
ENDBRANCH   9  10
ENDBRANCH   8   9
ENDBRANCH   7   8
ENDBRANCH   1   7
TORSDOF 7
ENDMDL
MODEL 7
REMARK VINA RESULT:    -4.482      2.522      3.728
REMARK INTER + INTRA:          -7.147
REMARK INTER:                  -6.789
REMARK INTRA:                  -0.358
REMARK UNBOUND:                -0.831
REMARK SMILES CCCCCCCCC(=O)[O-]
REMARK SMILES IDX 6 1 7 2 8 3 9 4 10 5 11 6 5 7 4 8 3 9 2 10 1 11
REMARK H PARENT
REMARK Flexibility Score: inf
ROOT
ATOM      1  C   UNL     1      -5.030  36.677 100.449  1.00  0.00     0.000 C 
ENDROOT
BRANCH   1   2
ATOM      2  C   UNL     1      -5.259  35.242  99.953  1.00  0.00     0.006 C 
BRANCH   2   3
ATOM      3  C   UNL     1      -4.884  35.106  98.474  1.00  0.00     0.053 C 
BRANCH   3   4
ATOM      4  C   UNL     1      -3.488  35.588  98.240  1.00  0.00     0.041 C 
ATOM      5  O   UNL     1      -2.516  35.003  98.786  1.00  0.00    -0.550 OA
ATOM      6  O   UNL     1      -3.262  36.715  97.459  1.00  0.00    -0.550 OA
ENDBRANCH   3   4
ENDBRANCH   2   3
ENDBRANCH   1   2
BRANCH   1   7
ATOM      7  C   UNL     1      -4.162  36.736 101.715  1.00  0.00     0.000 C 
BRANCH   7   8
ATOM      8  C   UNL     1      -2.887  37.571 101.521  1.00  0.00    -0.000 C 
BRANCH   8   9
ATOM      9  C   UNL     1      -2.765  38.648 102.607  1.00  0.00    -0.000 C 
BRANCH   9  10
ATOM     10  C   UNL     1      -2.647  40.044 101.986  1.00  0.00    -0.003 C 
ATOM     11  C   UNL     1      -2.660  41.128 103.061  1.00  0.00     0.004 C 
ENDBRANCH   9  10
ENDBRANCH   8   9
ENDBRANCH   7   8
ENDBRANCH   1   7
TORSDOF 7
ENDMDL
MODEL 8
REMARK VINA RESULT:    -4.463      3.782      5.677
REMARK INTER + INTRA:          -7.120
REMARK INTER:                  -6.890
REMARK INTRA:                  -0.230
REMARK UNBOUND:                -0.831
REMARK SMILES CCCCCCCCC(=O)[O-]
REMARK SMILES IDX 6 1 7 2 8 3 9 4 10 5 11 6 5 7 4 8 3 9 2 10 1 11
REMARK H PARENT
REMARK Flexibility Score: inf
ROOT
ATOM      1  C   UNL     1      -2.926  38.275 102.870  1.00  0.00     0.000 C 
ENDROOT
BRANCH   1   2
ATOM      2  C   UNL     1      -2.548  39.504 102.030  1.00  0.00     0.006 C 
BRANCH   2   3
ATOM      3  C   UNL     1      -1.403  40.284 102.684  1.00  0.00     0.053 C 
BRANCH   3   4
ATOM      4  C   UNL     1      -1.885  41.614 103.170  1.00  0.00     0.041 C 
ATOM      5  O   UNL     1      -1.071  42.445 103.650  1.00  0.00    -0.550 OA
ATOM      6  O   UNL     1      -3.241  41.917 103.138  1.00  0.00    -0.550 OA
ENDBRANCH   3   4
ENDBRANCH   2   3
ENDBRANCH   1   2
BRANCH   1   7
ATOM      7  C   UNL     1      -3.555  37.154 102.028  1.00  0.00     0.000 C 
BRANCH   7   8
ATOM      8  C   UNL     1      -2.563  36.529 101.035  1.00  0.00    -0.000 C 
BRANCH   8   9
ATOM      9  C   UNL     1      -3.045  35.149 100.572  1.00  0.00    -0.000 C 
BRANCH   9  10
ATOM     10  C   UNL     1      -3.168  35.092  99.046  1.00  0.00    -0.003 C 
ATOM     11  C   UNL     1      -4.420  34.329  98.621  1.00  0.00     0.004 C 
ENDBRANCH   9  10
ENDBRANCH   8   9
ENDBRANCH   7   8
ENDBRANCH   1   7
TORSDOF 7
ENDMDL
MODEL 9
REMARK VINA RESULT:    -4.214      2.731      3.700
REMARK INTER + INTRA:          -6.768
REMARK INTER:                  -6.333
REMARK INTRA:                  -0.436
REMARK UNBOUND:                -0.831
REMARK SMILES CCCCCCCCC(=O)[O-]
REMARK SMILES IDX 6 1 7 2 8 3 9 4 10 5 11 6 5 7 4 8 3 9 2 10 1 11
REMARK H PARENT
REMARK Flexibility Score: inf
ROOT
ATOM      1  C   UNL     1      -4.415  38.654  98.575  1.00  0.00     0.000 C 
ENDROOT
BRANCH   1   2
ATOM      2  C   UNL     1      -5.092  37.293  98.361  1.00  0.00     0.006 C 
BRANCH   2   3
ATOM      3  C   UNL     1      -4.217  36.376  97.501  1.00  0.00     0.053 C 
BRANCH   3   4
ATOM      4  C   UNL     1      -3.803  35.167  98.277  1.00  0.00     0.041 C 
ATOM      5  O   UNL     1      -4.659  34.313  98.626  1.00  0.00    -0.550 OA
ATOM      6  O   UNL     1      -2.476  35.007  98.660  1.00  0.00    -0.550 OA
ENDBRANCH   3   4
ENDBRANCH   2   3
ENDBRANCH   1   2
BRANCH   1   7
ATOM      7  C   UNL     1      -3.256  38.588  99.583  1.00  0.00     0.000 C 
BRANCH   7   8
ATOM      8  C   UNL     1      -3.637  37.850 100.875  1.00  0.00    -0.000 C 
BRANCH   8   9
ATOM      9  C   UNL     1      -2.626  38.141 101.992  1.00  0.00    -0.000 C 
BRANCH   9  10
ATOM     10  C   UNL     1      -2.640  39.625 102.374  1.00  0.00    -0.003 C 
ATOM     11  C   UNL     1      -1.231  40.131 102.671  1.00  0.00     0.004 C 
ENDBRANCH   9  10
ENDBRANCH   8   9
ENDBRANCH   7   8
ENDBRANCH   1   7
TORSDOF 7
ENDMDL
