MODEL 1
REMARK VINA RESULT:    -5.623      0.000      0.000
REMARK INTER + INTRA:          -8.411
REMARK INTER:                  -7.596
REMARK INTRA:                  -0.816
REMARK UNBOUND:                -0.816
REMARK SMILES CC(=O)CCC=C(C)CCC=C(C)C
REMARK SMILES IDX 7 1 6 2 8 3 9 4 10 5 11 6 13 7 12 8 14 9 5 10 4 11 2 12 3 13
REMARK SMILES IDX 1 14
REMARK H PARENT
REMARK Flexibility Score: inf
ROOT
ATOM      1  C   UNL     1      21.577  28.145 -16.223  1.00  0.00    -0.077 C 
ATOM      2  C   UNL     1      21.692  29.400 -16.710  1.00  0.00    -0.028 C 
ATOM      3  C   UNL     1      22.784  27.372 -15.746  1.00  0.00     0.039 C 
ENDROOT
BRANCH   1   4
ATOM      4  C   UNL     1      20.211  27.499 -16.158  1.00  0.00     0.034 C 
BRANCH   4   5
ATOM      5  C   UNL     1      19.174  28.473 -15.589  1.00  0.00     0.032 C 
BRANCH   5   6
ATOM      6  C   UNL     1      18.182  27.746 -14.715  1.00  0.00    -0.028 C 
ATOM      7  C   UNL     1      19.438  28.237 -12.604  1.00  0.00     0.039 C 
ATOM      8  C   UNL     1      18.300  27.610 -13.376  1.00  0.00    -0.080 C 
ATOM      9  C   UNL     1      17.249  26.821 -12.637  1.00  0.00     0.039 C 
ENDBRANCH   5   6
ENDBRANCH   4   5
ENDBRANCH   1   4
BRANCH   2  10
ATOM     10  C   UNL     1      23.013  30.128 -16.813  1.00  0.00     0.035 C 
BRANCH  10  11
ATOM     11  C   UNL     1      23.426  30.370 -18.270  1.00  0.00     0.079 C 
BRANCH  11  12
ATOM     12  C   UNL     1      24.530  29.437 -18.699  1.00  0.00     0.130 C 
ATOM     13  O   UNL     1      25.685  29.834 -18.710  1.00  0.00    -0.300 OA
ATOM     14  C   UNL     1      24.240  28.028 -19.127  1.00  0.00     0.087 C 
ENDBRANCH  11  12
ENDBRANCH  10  11
ENDBRANCH   2  10
TORSDOF 6
ENDMDL
MODEL 2
REMARK VINA RESULT:    -5.282      3.058      6.518
REMARK INTER + INTRA:          -7.950
REMARK INTER:                  -7.146
REMARK INTRA:                  -0.804
REMARK UNBOUND:                -0.816
REMARK SMILES CC(=O)CCC=C(C)CCC=C(C)C
REMARK SMILES IDX 7 1 6 2 8 3 9 4 10 5 11 6 13 7 12 8 14 9 5 10 4 11 2 12 3 13
REMARK SMILES IDX 1 14
REMARK H PARENT
REMARK Flexibility Score: inf
ROOT
ATOM      1  C   UNL     1      21.491  28.955 -13.286  1.00  0.00    -0.077 C 
ATOM      2  C   UNL     1      20.410  28.456 -13.924  1.00  0.00    -0.028 C 
ATOM      3  C   UNL     1      21.348  29.855 -12.082  1.00  0.00     0.039 C 
ENDROOT
BRANCH   1   4
ATOM      4  C   UNL     1      22.874  28.608 -13.791  1.00  0.00     0.034 C 
BRANCH   4   5
ATOM      5  C   UNL     1      22.817  28.124 -15.244  1.00  0.00     0.032 C 
BRANCH   5   6
ATOM      6  C   UNL     1      23.159  29.245 -16.194  1.00  0.00    -0.028 C 
ATOM      7  C   UNL     1      21.108  28.902 -17.590  1.00  0.00     0.039 C 
ATOM      8  C   UNL     1      22.414  29.590 -17.267  1.00  0.00    -0.080 C 
ATOM      9  C   UNL     1      22.902  30.709 -18.152  1.00  0.00     0.039 C 
ENDBRANCH   5   6
ENDBRANCH   4   5
ENDBRANCH   1   4
BRANCH   2  10
ATOM     10  C   UNL     1      18.990  28.745 -13.494  1.00  0.00     0.035 C 
BRANCH  10  11
ATOM     11  C   UNL     1      17.962  28.187 -14.486  1.00  0.00     0.079 C 
BRANCH  11  12
ATOM     12  C   UNL     1      17.403  26.865 -14.026  1.00  0.00     0.130 C 
ATOM     13  O   UNL     1      17.285  25.949 -14.825  1.00  0.00    -0.300 OA
ATOM     14  C   UNL     1      16.973  26.652 -12.604  1.00  0.00     0.087 C 
ENDBRANCH  11  12
ENDBRANCH  10  11
ENDBRANCH   2  10
TORSDOF 6
ENDMDL
MODEL 3
REMARK VINA RESULT:    -5.246      1.584      2.460
REMARK INTER + INTRA:          -7.902
REMARK INTER:                  -7.112
REMARK INTRA:                  -0.789
REMARK UNBOUND:                -0.816
REMARK SMILES CC(=O)CCC=C(C)CCC=C(C)C
REMARK SMILES IDX 7 1 6 2 8 3 9 4 10 5 11 6 13 7 12 8 14 9 5 10 4 11 2 12 3 13
REMARK SMILES IDX 1 14
REMARK H PARENT
REMARK Flexibility Score: inf
ROOT
ATOM      1  C   UNL     1      21.944  28.859 -13.839  1.00  0.00    -0.077 C 
ATOM      2  C   UNL     1      21.672  28.136 -14.947  1.00  0.00    -0.028 C 
ATOM      3  C   UNL     1      23.074  29.860 -13.809  1.00  0.00     0.039 C 
ENDROOT
BRANCH   1   4
ATOM      4  C   UNL     1      21.099  28.658 -12.600  1.00  0.00     0.034 C 
BRANCH   4   5
ATOM      5  C   UNL     1      19.641  29.047 -12.865  1.00  0.00     0.032 C 
BRANCH   5   6
ATOM      6  C   UNL     1      18.726  27.867 -12.652  1.00  0.00    -0.028 C 
ATOM      7  C   UNL     1      17.767  27.988 -14.963  1.00  0.00     0.039 C 
ATOM      8  C   UNL     1      17.860  27.395 -13.575  1.00  0.00    -0.080 C 
ATOM      9  C   UNL     1      16.978  26.230 -13.206  1.00  0.00     0.039 C 
ENDBRANCH   5   6
ENDBRANCH   4   5
ENDBRANCH   1   4
BRANCH   2  10
ATOM     10  C   UNL     1      22.459  28.268 -16.232  1.00  0.00     0.035 C 
BRANCH  10  11
ATOM     11  C   UNL     1      21.954  29.427 -17.101  1.00  0.00     0.079 C 
BRANCH  11  12
ATOM     12  C   UNL     1      23.089  30.148 -17.782  1.00  0.00     0.130 C 
ATOM     13  O   UNL     1      22.848  31.095 -18.515  1.00  0.00    -0.300 OA
ATOM     14  C   UNL     1      24.514  29.719 -17.590  1.00  0.00     0.087 C 
ENDBRANCH  11  12
ENDBRANCH  10  11
ENDBRANCH   2  10
TORSDOF 6
ENDMDL
MODEL 4
REMARK VINA RESULT:    -5.161      2.956      5.329
REMARK INTER + INTRA:          -7.787
REMARK INTER:                  -6.952
REMARK INTRA:                  -0.835
REMARK UNBOUND:                -0.816
REMARK SMILES CC(=O)CCC=C(C)CCC=C(C)C
REMARK SMILES IDX 7 1 6 2 8 3 9 4 10 5 11 6 13 7 12 8 14 9 5 10 4 11 2 12 3 13
REMARK SMILES IDX 1 14
REMARK H PARENT
REMARK Flexibility Score: inf
ROOT
ATOM      1  C   UNL     1      18.415  27.477 -12.497  1.00  0.00    -0.077 C 
ATOM      2  C   UNL     1      18.970  28.259 -13.448  1.00  0.00    -0.028 C 
ATOM      3  C   UNL     1      17.095  26.779 -12.723  1.00  0.00     0.039 C 
ENDROOT
BRANCH   1   4
ATOM      4  C   UNL     1      19.130  27.301 -11.175  1.00  0.00     0.034 C 
BRANCH   4   5
ATOM      5  C   UNL     1      19.539  28.658 -10.592  1.00  0.00     0.032 C 
BRANCH   5   6
ATOM      6  C   UNL     1      20.996  28.654 -10.200  1.00  0.00    -0.028 C 
ATOM      7  C   UNL     1      21.649  30.274 -11.995  1.00  0.00     0.039 C 
ATOM      8  C   UNL     1      21.960  29.354 -10.836  1.00  0.00    -0.080 C 
ATOM      9  C   UNL     1      23.382  29.221 -10.356  1.00  0.00     0.039 C 
ENDBRANCH   5   6
ENDBRANCH   4   5
ENDBRANCH   1   4
BRANCH   2  10
ATOM     10  C   UNL     1      18.333  28.495 -14.799  1.00  0.00     0.035 C 
BRANCH  10  11
ATOM     11  C   UNL     1      19.379  28.710 -15.900  1.00  0.00     0.079 C 
BRANCH  11  12
ATOM     12  C   UNL     1      20.296  27.520 -16.038  1.00  0.00     0.130 C 
ATOM     13  O   UNL     1      19.836  26.443 -16.384  1.00  0.00    -0.300 OA
ATOM     14  C   UNL     1      21.763  27.628 -15.747  1.00  0.00     0.087 C 
ENDBRANCH  11  12
ENDBRANCH  10  11
ENDBRANCH   2  10
TORSDOF 6
ENDMDL
MODEL 5
REMARK VINA RESULT:    -5.161      2.035      3.213
REMARK INTER + INTRA:          -7.786
REMARK INTER:                  -7.108
REMARK INTRA:                  -0.678
REMARK UNBOUND:                -0.816
REMARK SMILES CC(=O)CCC=C(C)CCC=C(C)C
REMARK SMILES IDX 7 1 6 2 8 3 9 4 10 5 11 6 13 7 12 8 14 9 5 10 4 11 2 12 3 13
REMARK SMILES IDX 1 14
REMARK H PARENT
REMARK Flexibility Score: inf
ROOT
ATOM      1  C   UNL     1      20.493  28.487 -14.504  1.00  0.00    -0.077 C 
ATOM      2  C   UNL     1      21.832  28.588 -14.362  1.00  0.00    -0.028 C 
ATOM      3  C   UNL     1      19.852  28.363 -15.866  1.00  0.00     0.039 C 
ENDROOT
BRANCH   1   4
ATOM      4  C   UNL     1      19.615  28.505 -13.272  1.00  0.00     0.034 C 
BRANCH   4   5
ATOM      5  C   UNL     1      20.211  29.414 -12.192  1.00  0.00     0.032 C 
BRANCH   5   6
ATOM      6  C   UNL     1      19.928  28.865 -10.815  1.00  0.00    -0.028 C 
ATOM      7  C   UNL     1      22.326  28.284 -10.380  1.00  0.00     0.039 C 
ATOM      8  C   UNL     1      20.863  28.331  -9.999  1.00  0.00    -0.080 C 
ATOM      9  C   UNL     1      20.426  27.784  -8.665  1.00  0.00     0.039 C 
ENDBRANCH   5   6
ENDBRANCH   4   5
ENDBRANCH   1   4
BRANCH   2  10
ATOM     10  C   UNL     1      22.790  28.580 -15.533  1.00  0.00     0.035 C 
BRANCH  10  11
ATOM     11  C   UNL     1      23.235  29.995 -15.923  1.00  0.00     0.079 C 
BRANCH  11  12
ATOM     12  C   UNL     1      23.742  30.048 -17.342  1.00  0.00     0.130 C 
ATOM     13  O   UNL     1      24.880  29.677 -17.590  1.00  0.00    -0.300 OA
ATOM     14  C   UNL     1      22.883  30.560 -18.460  1.00  0.00     0.087 C 
ENDBRANCH  11  12
ENDBRANCH  10  11
ENDBRANCH   2  10
TORSDOF 6
ENDMDL
MODEL 6
REMARK VINA RESULT:    -5.159      2.919      6.424
REMARK INTER + INTRA:          -7.784
REMARK INTER:                  -6.784
REMARK INTRA:                  -1.000
REMARK UNBOUND:                -0.816
REMARK SMILES CC(=O)CCC=C(C)CCC=C(C)C
REMARK SMILES IDX 7 1 6 2 8 3 9 4 10 5 11 6 13 7 12 8 14 9 5 10 4 11 2 12 3 13
REMARK SMILES IDX 1 14
REMARK H PARENT
REMARK Flexibility Score: inf
ROOT
ATOM      1  C   UNL     1      22.269  28.917 -16.293  1.00  0.00    -0.077 C 
ATOM      2  C   UNL     1      20.932  29.033 -16.450  1.00  0.00    -0.028 C 
ATOM      3  C   UNL     1      22.890  27.657 -15.739  1.00  0.00     0.039 C 
ENDROOT
BRANCH   1   4
ATOM      4  C   UNL     1      23.162  30.076 -16.678  1.00  0.00     0.034 C 
BRANCH   4   5
ATOM      5  C   UNL     1      23.732  29.880 -18.087  1.00  0.00     0.032 C 
BRANCH   5   6
ATOM      6  C   UNL     1      22.859  30.556 -19.115  1.00  0.00    -0.028 C 
ATOM      7  C   UNL     1      22.005  28.393 -20.046  1.00  0.00     0.039 C 
ATOM      8  C   UNL     1      22.097  29.901 -20.018  1.00  0.00    -0.080 C 
ATOM      9  C   UNL     1      21.305  30.711 -21.013  1.00  0.00     0.039 C 
ENDBRANCH   5   6
ENDBRANCH   4   5
ENDBRANCH   1   4
BRANCH   2  10
ATOM     10  C   UNL     1      19.960  27.930 -16.095  1.00  0.00     0.035 C 
BRANCH  10  11
ATOM     11  C   UNL     1      18.794  28.443 -15.241  1.00  0.00     0.079 C 
BRANCH  11  12
ATOM     12  C   UNL     1      18.965  28.081 -13.787  1.00  0.00     0.130 C 
ATOM     13  O   UNL     1      18.282  27.191 -13.304  1.00  0.00    -0.300 OA
ATOM     14  C   UNL     1      19.951  28.800 -12.915  1.00  0.00     0.087 C 
ENDBRANCH  11  12
ENDBRANCH  10  11
ENDBRANCH   2  10
TORSDOF 6
ENDMDL
MODEL 7
REMARK VINA RESULT:    -5.129      3.180      6.637
REMARK INTER + INTRA:          -7.744
REMARK INTER:                  -6.982
REMARK INTRA:                  -0.761
REMARK UNBOUND:                -0.816
REMARK SMILES CC(=O)CCC=C(C)CCC=C(C)C
REMARK SMILES IDX 7 1 6 2 8 3 9 4 10 5 11 6 13 7 12 8 14 9 5 10 4 11 2 12 3 13
REMARK SMILES IDX 1 14
REMARK H PARENT
REMARK Flexibility Score: inf
ROOT
ATOM      1  C   UNL     1      19.668  28.147 -14.716  1.00  0.00    -0.077 C 
ATOM      2  C   UNL     1      20.538  28.544 -13.762  1.00  0.00    -0.028 C 
ATOM      3  C   UNL     1      18.185  28.398 -14.584  1.00  0.00     0.039 C 
ENDROOT
BRANCH   1   4
ATOM      4  C   UNL     1      20.192  27.432 -15.943  1.00  0.00     0.034 C 
BRANCH   4   5
ATOM      5  C   UNL     1      21.706  27.622 -16.079  1.00  0.00     0.032 C 
BRANCH   5   6
ATOM      6  C   UNL     1      22.024  28.579 -17.202  1.00  0.00    -0.028 C 
ATOM      7  C   UNL     1      23.263  30.166 -15.712  1.00  0.00     0.039 C 
ATOM      8  C   UNL     1      22.701  29.738 -17.048  1.00  0.00    -0.080 C 
ATOM      9  C   UNL     1      22.911  30.614 -18.256  1.00  0.00     0.039 C 
ENDBRANCH   5   6
ENDBRANCH   4   5
ENDBRANCH   1   4
BRANCH   2  10
ATOM     10  C   UNL     1      20.110  29.265 -12.503  1.00  0.00     0.035 C 
BRANCH  10  11
ATOM     11  C   UNL     1      20.929  28.828 -11.282  1.00  0.00     0.079 C 
BRANCH  11  12
ATOM     12  C   UNL     1      20.151  27.887 -10.397  1.00  0.00     0.130 C 
ATOM     13  O   UNL     1      19.384  27.081 -10.901  1.00  0.00    -0.300 OA
ATOM     14  C   UNL     1      20.290  27.927  -8.904  1.00  0.00     0.087 C 
ENDBRANCH  11  12
ENDBRANCH  10  11
ENDBRANCH   2  10
TORSDOF 6
ENDMDL
MODEL 8
REMARK VINA RESULT:    -5.116      3.549      6.021
REMARK INTER + INTRA:          -7.726
REMARK INTER:                  -6.823
REMARK INTRA:                  -0.903
REMARK UNBOUND:                -0.816
REMARK SMILES CC(=O)CCC=C(C)CCC=C(C)C
REMARK SMILES IDX 7 1 6 2 8 3 9 4 10 5 11 6 13 7 12 8 14 9 5 10 4 11 2 12 3 13
REMARK SMILES IDX 1 14
REMARK H PARENT
REMARK Flexibility Score: inf
ROOT
ATOM      1  C   UNL     1      21.372  28.472 -15.601  1.00  0.00    -0.077 C 
ATOM      2  C   UNL     1      20.375  28.097 -14.771  1.00  0.00    -0.028 C 
ATOM      3  C   UNL     1      21.097  28.879 -17.029  1.00  0.00     0.039 C 
ENDROOT
BRANCH   1   4
ATOM      4  C   UNL     1      22.796  28.480 -15.090  1.00  0.00     0.034 C 
BRANCH   4   5
ATOM      5  C   UNL     1      22.825  28.488 -13.558  1.00  0.00     0.032 C 
BRANCH   5   6
ATOM      6  C   UNL     1      23.029  29.888 -13.034  1.00  0.00    -0.028 C 
ATOM      7  C   UNL     1      20.952  29.841 -11.636  1.00  0.00     0.039 C 
ATOM      8  C   UNL     1      22.184  30.519 -12.190  1.00  0.00    -0.080 C 
ATOM      9  C   UNL     1      22.499  31.936 -11.782  1.00  0.00     0.039 C 
ENDBRANCH   5   6
ENDBRANCH   4   5
ENDBRANCH   1   4
BRANCH   2  10
ATOM     10  C   UNL     1      18.923  28.057 -15.190  1.00  0.00     0.035 C 
BRANCH  10  11
ATOM     11  C   UNL     1      17.979  28.399 -14.030  1.00  0.00     0.079 C 
BRANCH  11  12
ATOM     12  C   UNL     1      17.805  27.232 -13.091  1.00  0.00     0.130 C 
ATOM     13  O   UNL     1      18.340  27.258 -11.992  1.00  0.00    -0.300 OA
ATOM     14  C   UNL     1      16.998  26.029 -13.481  1.00  0.00     0.087 C 
ENDBRANCH  11  12
ENDBRANCH  10  11
ENDBRANCH   2  10
TORSDOF 6
ENDMDL
MODEL 9
REMARK VINA RESULT:    -5.085      3.622      6.106
REMARK INTER + INTRA:          -7.684
REMARK INTER:                  -6.832
REMARK INTRA:                  -0.853
REMARK UNBOUND:                -0.816
REMARK SMILES CC(=O)CCC=C(C)CCC=C(C)C
REMARK SMILES IDX 7 1 6 2 8 3 9 4 10 5 11 6 13 7 12 8 14 9 5 10 4 11 2 12 3 13
REMARK SMILES IDX 1 14
REMARK H PARENT
REMARK Flexibility Score: inf
ROOT
ATOM      1  C   UNL     1      21.390  28.499 -14.137  1.00  0.00    -0.077 C 
ATOM      2  C   UNL     1      20.055  28.461 -13.931  1.00  0.00    -0.028 C 
ATOM      3  C   UNL     1      21.986  28.226 -15.497  1.00  0.00     0.039 C 
ENDROOT
BRANCH   1   4
ATOM      4  C   UNL     1      22.308  28.817 -12.977  1.00  0.00     0.034 C 
BRANCH   4   5
ATOM      5  C   UNL     1      21.584  29.666 -11.926  1.00  0.00     0.032 C 
BRANCH   5   6
ATOM      6  C   UNL     1      21.961  29.227 -10.533  1.00  0.00    -0.028 C 
ATOM      7  C   UNL     1      19.921  27.800 -10.257  1.00  0.00     0.039 C 
ATOM      8  C   UNL     1      21.212  28.410  -9.761  1.00  0.00    -0.080 C 
ATOM      9  C   UNL     1      21.697  28.089  -8.370  1.00  0.00     0.039 C 
ENDBRANCH   5   6
ENDBRANCH   4   5
ENDBRANCH   1   4
BRANCH   2  10
ATOM     10  C   UNL     1      19.060  28.153 -15.027  1.00  0.00     0.035 C 
BRANCH  10  11
ATOM     11  C   UNL     1      17.614  28.185 -14.517  1.00  0.00     0.079 C 
BRANCH  11  12
ATOM     12  C   UNL     1      17.261  26.927 -13.764  1.00  0.00     0.130 C 
ATOM     13  O   UNL     1      17.244  25.856 -14.352  1.00  0.00    -0.300 OA
ATOM     14  C   UNL     1      16.917  26.962 -12.304  1.00  0.00     0.087 C 
ENDBRANCH  11  12
ENDBRANCH  10  11
ENDBRANCH   2  10
TORSDOF 6
ENDMDL
