MODEL 1
REMARK VINA RESULT:    -3.997      0.000      0.000
REMARK INTER + INTRA:          -4.932
REMARK INTER:                  -5.633
REMARK INTRA:                   0.701
REMARK UNBOUND:                 0.701
REMARK SMILES CC1=CCC(=C(C)C)C(=O)CC(C)=CCC1
REMARK SMILES IDX 12 1 14 2 13 3 15 4 16 5 2 6 1 7 3 8 11 10 9 11 10 12 5 13
REMARK SMILES IDX 6 14 7 15 8 16 4 17
REMARK H PARENT
REMARK Flexibility Score: 60.00
ROOT
ATOM      1  C   UNL     1      -2.480  28.842  54.387  1.00  0.00    -0.070 C 
ATOM      2  C   UNL     1      -2.727  30.035  53.803  1.00  0.00    -0.027 C 
ATOM      3  C   UNL     1      -2.190  28.827  55.867  1.00  0.00     0.039 C 
ENDROOT
BRANCH   2   4
ATOM      4  C   UNL     1      -2.941  30.266  52.323  1.00  0.00     0.032 C 
BRANCH   4   5
ATOM      5  C   UNL     1      -1.941  31.243  51.670  1.00  0.00     0.034 C 
BRANCH   5   6
ATOM      6  C   UNL     1      -0.974  30.562  50.719  1.00  0.00    -0.077 C 
ATOM      7  C   UNL     1      -1.212  30.728  49.239  1.00  0.00     0.039 C 
ATOM      8  C   UNL     1       0.046  29.759  51.109  1.00  0.00    -0.023 CG0
ATOM      9  G   UNL     1       0.482  29.463  52.531  1.00  0.00     0.000 G0
ENDBRANCH   5   6
ENDBRANCH   4   5
ENDBRANCH   2   4
BRANCH   1  10
ATOM     10  C   UNL     1      -2.390  27.541  53.616  1.00  0.00     0.111 C 
BRANCH  10  11
ATOM     11  C   UNL     1      -1.267  27.568  52.612  1.00  0.00     0.163 C 
ATOM     12  O   UNL     1      -1.496  27.127  51.453  1.00  0.00    -0.294 OA
BRANCH  11  13
ATOM     13  C   UNL     1       0.107  28.039  52.958  1.00  0.00    -0.002 C 
ATOM     14  C   UNL     1       0.946  27.259  53.703  1.00  0.00    -0.069 C 
ATOM     15  C   UNL     1       2.279  27.771  54.204  1.00  0.00     0.039 C 
ATOM     16  C   UNL     1       0.579  25.839  54.070  1.00  0.00     0.039 C 
BRANCH  13  17
ATOM     17  C   UNL     1       0.487  29.447  52.529  1.00  0.00     0.066 CG0
ATOM     18  G   UNL     1       0.041  29.760  51.114  1.00  0.00     0.000 G0
ENDBRANCH  13  17
ENDBRANCH  11  13
ENDBRANCH  10  11
ENDBRANCH   1  10
TORSDOF 0
ENDMDL
MODEL 2
REMARK VINA RESULT:    -3.945      1.460      1.955
REMARK INTER + INTRA:          -4.859
REMARK INTER:                  -5.359
REMARK INTRA:                   0.500
REMARK UNBOUND:                 0.701
REMARK SMILES CC1=CCC(=C(C)C)C(=O)CC(C)=CCC1
REMARK SMILES IDX 12 1 14 2 13 3 15 4 16 5 2 6 1 7 3 8 11 10 9 11 10 12 5 13
REMARK SMILES IDX 6 14 7 15 8 16 4 17
REMARK H PARENT
REMARK Flexibility Score: 60.00
ROOT
ATOM      1  C   UNL     1      -2.287  27.638  52.369  1.00  0.00    -0.070 C 
ATOM      2  C   UNL     1      -2.538  28.344  51.244  1.00  0.00    -0.027 C 
ATOM      3  C   UNL     1      -1.817  26.213  52.219  1.00  0.00     0.039 C 
ENDROOT
BRANCH   2   4
ATOM      4  C   UNL     1      -3.106  29.745  51.189  1.00  0.00     0.032 C 
BRANCH   4   5
ATOM      5  C   UNL     1      -2.059  30.872  51.298  1.00  0.00     0.034 C 
BRANCH   5   6
ATOM      6  C   UNL     1      -0.671  30.445  50.854  1.00  0.00    -0.077 C 
ATOM      7  C   UNL     1      -0.401  30.372  49.373  1.00  0.00     0.039 C 
ATOM      8  C   UNL     1       0.317  30.059  51.698  1.00  0.00    -0.023 CG0
ATOM      9  G   UNL     1       0.279  30.067  53.214  1.00  0.00     0.000 G0
ENDBRANCH   5   6
ENDBRANCH   4   5
ENDBRANCH   2   4
BRANCH   1  10
ATOM     10  C   UNL     1      -2.543  28.176  53.762  1.00  0.00     0.111 C 
BRANCH  10  11
ATOM     11  C   UNL     1      -1.256  28.445  54.499  1.00  0.00     0.163 C 
ATOM     12  O   UNL     1      -1.300  28.532  55.756  1.00  0.00    -0.294 OA
BRANCH  11  13
ATOM     13  C   UNL     1       0.040  28.669  53.793  1.00  0.00    -0.002 C 
ATOM     14  C   UNL     1       0.989  27.687  53.746  1.00  0.00    -0.069 C 
ATOM     15  C   UNL     1       2.370  27.935  53.179  1.00  0.00     0.039 C 
ATOM     16  C   UNL     1       0.704  26.295  54.264  1.00  0.00     0.039 C 
BRANCH  13  17
ATOM     17  C   UNL     1       0.289  30.056  53.221  1.00  0.00     0.066 CG0
ATOM     18  G   UNL     1       0.331  30.055  51.705  1.00  0.00     0.000 G0
ENDBRANCH  13  17
ENDBRANCH  11  13
ENDBRANCH  10  11
ENDBRANCH   1  10
TORSDOF 0
ENDMDL
MODEL 3
REMARK VINA RESULT:    -3.473      7.995     10.292
REMARK INTER + INTRA:          -4.193
REMARK INTER:                  -4.580
REMARK INTRA:                   0.387
REMARK UNBOUND:                 0.701
REMARK SMILES CC1=CCC(=C(C)C)C(=O)CC(C)=CCC1
REMARK SMILES IDX 12 1 14 2 13 3 15 4 16 5 2 6 1 7 3 8 11 10 9 11 10 12 5 13
REMARK SMILES IDX 6 14 7 15 8 16 4 17
REMARK H PARENT
REMARK Flexibility Score: 60.00
ROOT
ATOM      1  C   UNL     1      -0.338  33.421  62.174  1.00  0.00    -0.070 C 
ATOM      2  C   UNL     1      -0.654  32.172  61.766  1.00  0.00    -0.027 C 
ATOM      3  C   UNL     1       0.122  33.603  63.599  1.00  0.00     0.039 C 
ENDROOT
BRANCH   2   4
ATOM      4  C   UNL     1      -1.225  31.802  60.415  1.00  0.00     0.032 C 
BRANCH   4   5
ATOM      5  C   UNL     1      -2.704  31.364  60.436  1.00  0.00     0.034 C 
BRANCH   5   6
ATOM      6  C   UNL     1      -3.506  31.912  59.269  1.00  0.00    -0.077 C 
ATOM      7  C   UNL     1      -3.647  31.042  58.046  1.00  0.00     0.039 C 
ATOM      8  C   UNL     1      -4.044  33.155  59.227  1.00  0.00    -0.023 CG0
ATOM      9  G   UNL     1      -4.044  34.189  60.337  1.00  0.00     0.000 G0
ENDBRANCH   5   6
ENDBRANCH   4   5
ENDBRANCH   2   4
BRANCH   1  10
ATOM     10  C   UNL     1      -0.515  34.648  61.304  1.00  0.00     0.111 C 
BRANCH  10  11
ATOM     11  C   UNL     1      -1.916  35.196  61.393  1.00  0.00     0.163 C 
ATOM     12  O   UNL     1      -2.308  35.645  62.504  1.00  0.00    -0.294 OA
BRANCH  11  13
ATOM     13  C   UNL     1      -2.862  35.168  60.239  1.00  0.00    -0.002 C 
ATOM     14  C   UNL     1      -2.710  36.030  59.189  1.00  0.00    -0.069 C 
ATOM     15  C   UNL     1      -3.739  36.135  58.084  1.00  0.00     0.039 C 
ATOM     16  C   UNL     1      -1.499  36.929  59.081  1.00  0.00     0.039 C 
BRANCH  13  17
ATOM     17  C   UNL     1      -4.042  34.214  60.330  1.00  0.00     0.066 CG0
ATOM     18  G   UNL     1      -4.032  33.175  59.225  1.00  0.00     0.000 G0
ENDBRANCH  13  17
ENDBRANCH  11  13
ENDBRANCH  10  11
ENDBRANCH   1  10
TORSDOF 0
ENDMDL
MODEL 4
REMARK VINA RESULT:    -3.325      8.923     11.361
REMARK INTER + INTRA:          -3.985
REMARK INTER:                  -4.395
REMARK INTRA:                   0.410
REMARK UNBOUND:                 0.701
REMARK SMILES CC1=CCC(=C(C)C)C(=O)CC(C)=CCC1
REMARK SMILES IDX 12 1 14 2 13 3 15 4 16 5 2 6 1 7 3 8 11 10 9 11 10 12 5 13
REMARK SMILES IDX 6 14 7 15 8 16 4 17
REMARK H PARENT
REMARK Flexibility Score: 60.00
ROOT
ATOM      1  C   UNL     1      -0.883  34.617  61.390  1.00  0.00    -0.070 C 
ATOM      2  C   UNL     1      -1.492  34.135  60.284  1.00  0.00    -0.027 C 
ATOM      3  C   UNL     1       0.595  34.908  61.311  1.00  0.00     0.039 C 
ENDROOT
BRANCH   2   4
ATOM      4  C   UNL     1      -2.936  33.693  60.193  1.00  0.00     0.032 C 
BRANCH   4   5
ATOM      5  C   UNL     1      -3.136  32.215  59.794  1.00  0.00     0.034 C 
BRANCH   5   6
ATOM      6  C   UNL     1      -2.397  31.246  60.700  1.00  0.00    -0.077 C 
ATOM      7  C   UNL     1      -1.454  30.264  60.054  1.00  0.00     0.039 C 
ATOM      8  C   UNL     1      -2.582  31.159  62.039  1.00  0.00    -0.023 CG0
ATOM      9  G   UNL     1      -3.459  32.047  62.901  1.00  0.00     0.000 G0
ENDBRANCH   5   6
ENDBRANCH   4   5
ENDBRANCH   2   4
BRANCH   1  10
ATOM     10  C   UNL     1      -1.588  34.788  62.719  1.00  0.00     0.111 C 
BRANCH  10  11
ATOM     11  C   UNL     1      -1.487  33.546  63.566  1.00  0.00     0.163 C 
ATOM     12  O   UNL     1      -0.337  33.126  63.868  1.00  0.00    -0.294 OA
BRANCH  11  13
ATOM     13  C   UNL     1      -2.687  32.774  64.003  1.00  0.00    -0.002 C 
ATOM     14  C   UNL     1      -3.012  32.676  65.327  1.00  0.00    -0.069 C 
ATOM     15  C   UNL     1      -4.125  31.773  65.813  1.00  0.00     0.039 C 
ATOM     16  C   UNL     1      -2.267  33.468  66.378  1.00  0.00     0.039 C 
BRANCH  13  17
ATOM     17  C   UNL     1      -3.465  32.031  62.928  1.00  0.00     0.066 CG0
ATOM     18  G   UNL     1      -2.570  31.164  62.063  1.00  0.00     0.000 G0
ENDBRANCH  13  17
ENDBRANCH  11  13
ENDBRANCH  10  11
ENDBRANCH   1  10
TORSDOF 0
ENDMDL
MODEL 5
REMARK VINA RESULT:    -3.280      8.530     11.037
REMARK INTER + INTRA:          -3.922
REMARK INTER:                  -4.523
REMARK INTRA:                   0.601
REMARK UNBOUND:                 0.701
REMARK SMILES CC1=CCC(=C(C)C)C(=O)CC(C)=CCC1
REMARK SMILES IDX 12 1 14 2 13 3 15 4 16 5 2 6 1 7 3 8 11 10 9 11 10 12 5 13
REMARK SMILES IDX 6 14 7 15 8 16 4 17
REMARK H PARENT
REMARK Flexibility Score: 60.00
ROOT
ATOM      1  C   UNL     1      -0.467  33.637  62.540  1.00  0.00    -0.070 C 
ATOM      2  C   UNL     1       0.013  32.598  61.822  1.00  0.00    -0.027 C 
ATOM      3  C   UNL     1      -0.032  33.762  63.979  1.00  0.00     0.039 C 
ENDROOT
BRANCH   2   4
ATOM      4  C   UNL     1      -0.380  32.248  60.404  1.00  0.00     0.032 C 
BRANCH   4   5
ATOM      5  C   UNL     1      -1.187  30.941  60.259  1.00  0.00     0.034 C 
BRANCH   5   6
ATOM      6  C   UNL     1      -2.676  31.175  60.079  1.00  0.00    -0.077 C 
ATOM      7  C   UNL     1      -3.228  31.125  58.676  1.00  0.00     0.039 C 
ATOM      8  C   UNL     1      -3.528  31.493  61.083  1.00  0.00    -0.023 CG0
ATOM      9  G   UNL     1      -3.205  31.581  62.562  1.00  0.00     0.000 G0
ENDBRANCH   5   6
ENDBRANCH   4   5
ENDBRANCH   2   4
BRANCH   1  10
ATOM     10  C   UNL     1      -1.485  34.621  62.000  1.00  0.00     0.111 C 
BRANCH  10  11
ATOM     11  C   UNL     1      -2.891  34.101  62.148  1.00  0.00     0.163 C 
ATOM     12  O   UNL     1      -3.804  34.659  61.479  1.00  0.00    -0.294 OA
BRANCH  11  13
ATOM     13  C   UNL     1      -3.244  33.001  63.093  1.00  0.00    -0.002 C 
ATOM     14  C   UNL     1      -3.520  33.267  64.405  1.00  0.00    -0.069 C 
ATOM     15  C   UNL     1      -3.724  32.164  65.420  1.00  0.00     0.039 C 
ATOM     16  C   UNL     1      -3.632  34.688  64.910  1.00  0.00     0.039 C 
BRANCH  13  17
ATOM     17  C   UNL     1      -3.189  31.579  62.556  1.00  0.00     0.066 CG0
ATOM     18  G   UNL     1      -3.543  31.505  61.084  1.00  0.00     0.000 G0
ENDBRANCH  13  17
ENDBRANCH  11  13
ENDBRANCH  10  11
ENDBRANCH   1  10
TORSDOF 0
ENDMDL
MODEL 6
REMARK VINA RESULT:    -3.084      8.397     10.393
REMARK INTER + INTRA:          -3.645
REMARK INTER:                  -4.111
REMARK INTRA:                   0.466
REMARK UNBOUND:                 0.701
REMARK SMILES CC1=CCC(=C(C)C)C(=O)CC(C)=CCC1
REMARK SMILES IDX 12 1 14 2 13 3 15 4 16 5 2 6 1 7 3 8 11 10 9 11 10 12 5 13
REMARK SMILES IDX 6 14 7 15 8 16 4 17
REMARK H PARENT
REMARK Flexibility Score: 60.00
ROOT
ATOM      1  C   UNL     1      -3.887  34.809  59.230  1.00  0.00    -0.070 C 
ATOM      2  C   UNL     1      -4.021  33.525  58.830  1.00  0.00    -0.027 C 
ATOM      3  C   UNL     1      -4.071  35.893  58.198  1.00  0.00     0.039 C 
ENDROOT
BRANCH   2   4
ATOM      4  C   UNL     1      -3.779  32.303  59.688  1.00  0.00     0.032 C 
BRANCH   4   5
ATOM      5  C   UNL     1      -2.393  31.650  59.509  1.00  0.00     0.034 C 
BRANCH   5   6
ATOM      6  C   UNL     1      -1.854  31.030  60.786  1.00  0.00    -0.077 C 
ATOM      7  C   UNL     1      -2.297  29.629  61.126  1.00  0.00     0.039 C 
ATOM      8  C   UNL     1      -1.059  31.675  61.674  1.00  0.00    -0.023 CG0
ATOM      9  G   UNL     1      -0.478  33.069  61.536  1.00  0.00     0.000 G0
ENDBRANCH   5   6
ENDBRANCH   4   5
ENDBRANCH   2   4
BRANCH   1  10
ATOM     10  C   UNL     1      -3.472  35.203  60.633  1.00  0.00     0.111 C 
BRANCH  10  11
ATOM     11  C   UNL     1      -1.991  35.024  60.845  1.00  0.00     0.163 C 
ATOM     12  O   UNL     1      -1.203  35.575  60.028  1.00  0.00    -0.294 OA
BRANCH  11  13
ATOM     13  C   UNL     1      -1.434  34.179  61.942  1.00  0.00    -0.002 C 
ATOM     14  C   UNL     1      -1.728  34.447  63.249  1.00  0.00    -0.069 C 
ATOM     15  C   UNL     1      -1.056  33.711  64.388  1.00  0.00     0.039 C 
ATOM     16  C   UNL     1      -2.744  35.503  63.625  1.00  0.00     0.039 C 
BRANCH  13  17
ATOM     17  C   UNL     1      -0.462  33.079  61.546  1.00  0.00     0.066 CG0
ATOM     18  G   UNL     1      -1.065  31.695  61.691  1.00  0.00     0.000 G0
ENDBRANCH  13  17
ENDBRANCH  11  13
ENDBRANCH  10  11
ENDBRANCH   1  10
TORSDOF 0
ENDMDL
MODEL 7
REMARK VINA RESULT:    -3.059      9.617     11.776
REMARK INTER + INTRA:          -3.610
REMARK INTER:                  -4.077
REMARK INTRA:                   0.467
REMARK UNBOUND:                 0.701
REMARK SMILES CC1=CCC(=C(C)C)C(=O)CC(C)=CCC1
REMARK SMILES IDX 12 1 14 2 13 3 15 4 16 5 2 6 1 7 3 8 11 10 9 11 10 12 5 13
REMARK SMILES IDX 6 14 7 15 8 16 4 17
REMARK H PARENT
REMARK Flexibility Score: 60.00
ROOT
ATOM      1  C   UNL     1      -0.869  32.480  61.492  1.00  0.00    -0.070 C 
ATOM      2  C   UNL     1      -0.774  33.307  60.428  1.00  0.00    -0.027 C 
ATOM      3  C   UNL     1      -1.149  31.021  61.230  1.00  0.00     0.039 C 
ENDROOT
BRANCH   2   4
ATOM      4  C   UNL     1      -0.596  34.808  60.489  1.00  0.00     0.032 C 
BRANCH   4   5
ATOM      5  C   UNL     1      -1.789  35.623  59.949  1.00  0.00     0.034 C 
BRANCH   5   6
ATOM      6  C   UNL     1      -3.132  35.120  60.447  1.00  0.00    -0.077 C 
ATOM      7  C   UNL     1      -4.074  34.517  59.435  1.00  0.00     0.039 C 
ATOM      8  C   UNL     1      -3.568  35.239  61.724  1.00  0.00    -0.023 CG0
ATOM      9  G   UNL     1      -2.794  35.791  62.906  1.00  0.00     0.000 G0
ENDBRANCH   5   6
ENDBRANCH   4   5
ENDBRANCH   2   4
BRANCH   1  10
ATOM     10  C   UNL     1      -0.801  32.961  62.927  1.00  0.00     0.111 C 
BRANCH  10  11
ATOM     11  C   UNL     1      -2.160  33.356  63.444  1.00  0.00     0.163 C 
ATOM     12  O   UNL     1      -3.084  32.499  63.402  1.00  0.00    -0.294 OA
BRANCH  11  13
ATOM     13  C   UNL     1      -2.459  34.731  63.944  1.00  0.00    -0.002 C 
ATOM     14  C   UNL     1      -2.521  34.989  65.284  1.00  0.00    -0.069 C 
ATOM     15  C   UNL     1      -2.976  36.329  65.821  1.00  0.00     0.039 C 
ATOM     16  C   UNL     1      -2.138  33.940  66.305  1.00  0.00     0.039 C 
BRANCH  13  17
ATOM     17  C   UNL     1      -2.781  35.793  62.905  1.00  0.00     0.066 CG0
ATOM     18  G   UNL     1      -3.579  35.237  61.741  1.00  0.00     0.000 G0
ENDBRANCH  13  17
ENDBRANCH  11  13
ENDBRANCH  10  11
ENDBRANCH   1  10
TORSDOF 0
ENDMDL
MODEL 8
REMARK VINA RESULT:    -2.867      7.832      9.833
REMARK INTER + INTRA:          -3.339
REMARK INTER:                  -3.871
REMARK INTRA:                   0.532
REMARK UNBOUND:                 0.701
REMARK SMILES CC1=CCC(=C(C)C)C(=O)CC(C)=CCC1
REMARK SMILES IDX 12 1 14 2 13 3 15 4 16 5 2 6 1 7 3 8 11 10 9 11 10 12 5 13
REMARK SMILES IDX 6 14 7 15 8 16 4 17
REMARK H PARENT
REMARK Flexibility Score: 60.00
ROOT
ATOM      1  C   UNL     1      -1.610  33.662  63.128  1.00  0.00    -0.070 C 
ATOM      2  C   UNL     1      -2.334  34.802  63.079  1.00  0.00    -0.027 C 
ATOM      3  C   UNL     1      -0.227  33.728  63.728  1.00  0.00     0.039 C 
ENDROOT
BRANCH   2   4
ATOM      4  C   UNL     1      -3.692  34.958  62.431  1.00  0.00     0.032 C 
BRANCH   4   5
ATOM      5  C   UNL     1      -3.772  36.061  61.355  1.00  0.00     0.034 C 
BRANCH   5   6
ATOM      6  C   UNL     1      -2.896  35.783  60.147  1.00  0.00    -0.077 C 
ATOM      7  C   UNL     1      -2.026  36.904  59.639  1.00  0.00     0.039 C 
ATOM      8  C   UNL     1      -2.897  34.618  59.454  1.00  0.00    -0.023 CG0
ATOM      9  G   UNL     1      -3.671  33.357  59.787  1.00  0.00     0.000 G0
ENDBRANCH   5   6
ENDBRANCH   4   5
ENDBRANCH   2   4
BRANCH   1  10
ATOM     10  C   UNL     1      -2.080  32.353  62.528  1.00  0.00     0.111 C 
BRANCH  10  11
ATOM     11  C   UNL     1      -1.722  32.250  61.068  1.00  0.00     0.163 C 
ATOM     12  O   UNL     1      -0.503  32.311  60.750  1.00  0.00    -0.294 OA
BRANCH  11  13
ATOM     13  C   UNL     1      -2.754  32.141  59.995  1.00  0.00    -0.002 C 
ATOM     14  C   UNL     1      -2.809  31.041  59.187  1.00  0.00    -0.069 C 
ATOM     15  C   UNL     1      -3.736  30.970  57.993  1.00  0.00     0.039 C 
ATOM     16  C   UNL     1      -1.938  29.832  59.446  1.00  0.00     0.039 C 
BRANCH  13  17
ATOM     17  C   UNL     1      -3.666  33.339  59.784  1.00  0.00     0.066 CG0
ATOM     18  G   UNL     1      -2.893  34.603  59.459  1.00  0.00     0.000 G0
ENDBRANCH  13  17
ENDBRANCH  11  13
ENDBRANCH  10  11
ENDBRANCH   1  10
TORSDOF 0
ENDMDL
MODEL 9
REMARK VINA RESULT:    -2.815      9.805     12.072
REMARK INTER + INTRA:          -3.266
REMARK INTER:                  -3.850
REMARK INTRA:                   0.584
REMARK UNBOUND:                 0.701
REMARK SMILES CC1=CCC(=C(C)C)C(=O)CC(C)=CCC1
REMARK SMILES IDX 12 1 14 2 13 3 15 4 16 5 2 6 1 7 3 8 11 10 9 11 10 12 5 13
REMARK SMILES IDX 6 14 7 15 8 16 4 17
REMARK H PARENT
REMARK Flexibility Score: 60.00
ROOT
ATOM      1  C   UNL     1      -0.586  34.368  60.833  1.00  0.00    -0.070 C 
ATOM      2  C   UNL     1      -0.016  34.226  62.050  1.00  0.00    -0.027 C 
ATOM      3  C   UNL     1      -0.146  35.531  59.979  1.00  0.00     0.039 C 
ENDROOT
BRANCH   2   4
ATOM      4  C   UNL     1      -0.392  33.189  63.085  1.00  0.00     0.032 C 
BRANCH   4   5
ATOM      5  C   UNL     1      -1.018  33.760  64.374  1.00  0.00     0.034 C 
BRANCH   5   6
ATOM      6  C   UNL     1      -2.533  33.656  64.401  1.00  0.00    -0.077 C 
ATOM      7  C   UNL     1      -3.145  32.564  65.241  1.00  0.00     0.039 C 
ATOM      8  C   UNL     1      -3.365  34.433  63.667  1.00  0.00    -0.023 CG0
ATOM      9  G   UNL     1      -2.980  35.594  62.771  1.00  0.00     0.000 G0
ENDBRANCH   5   6
ENDBRANCH   4   5
ENDBRANCH   2   4
BRANCH   1  10
ATOM     10  C   UNL     1      -1.705  33.479  60.330  1.00  0.00     0.111 C 
BRANCH  10  11
ATOM     11  C   UNL     1      -3.052  33.958  60.807  1.00  0.00     0.163 C 
ATOM     12  O   UNL     1      -4.026  33.161  60.730  1.00  0.00    -0.294 OA
BRANCH  11  13
ATOM     13  C   UNL     1      -3.279  35.346  61.306  1.00  0.00    -0.002 C 
ATOM     14  C   UNL     1      -3.636  36.348  60.448  1.00  0.00    -0.069 C 
ATOM     15  C   UNL     1      -3.718  37.792  60.892  1.00  0.00     0.039 C 
ATOM     16  C   UNL     1      -3.967  36.060  59.000  1.00  0.00     0.039 C 
BRANCH  13  17
ATOM     17  C   UNL     1      -3.003  35.610  62.778  1.00  0.00     0.066 CG0
ATOM     18  G   UNL     1      -3.365  34.426  63.654  1.00  0.00     0.000 G0
ENDBRANCH  13  17
ENDBRANCH  11  13
ENDBRANCH  10  11
ENDBRANCH   1  10
TORSDOF 0
ENDMDL
