MODEL 1
REMARK VINA RESULT:    -4.263      0.000      0.000
REMARK INTER + INTRA:          -5.239
REMARK INTER:                  -5.136
REMARK INTRA:                  -0.103
REMARK UNBOUND:                -0.103
REMARK SMILES CC[C@H](C)[C@H]([NH3+])C(=O)[O-]
REMARK SMILES IDX 3 1 4 2 5 3 6 4 7 8 8 9 9 10 2 11 1 12
REMARK H PARENT 6 5 6 6 6 7
REMARK Flexibility Score: inf
ROOT
ATOM      1  C   UNL     1     -46.281  -9.372   7.368  1.00  0.00     0.050 C 
ATOM      2  C   UNL     1     -45.078  -9.975   6.613  1.00  0.00     0.014 C 
ENDROOT
BRANCH   1   3
ATOM      3  C   UNL     1     -47.643  -9.648   6.659  1.00  0.00     0.230 C 
BRANCH   3   4
ATOM      4  N   UNL     1     -48.748  -8.902   7.281  1.00  0.00    -0.350 N 
ATOM      5  H   UNL     1     -48.679  -7.888   7.038  1.00  0.00     0.345 HD
ATOM      6  H   UNL     1     -48.748  -9.008   8.320  1.00  0.00     0.345 HD
ATOM      7  H   UNL     1     -49.660  -9.261   6.914  1.00  0.00     0.345 HD
ENDBRANCH   3   4
BRANCH   3   8
ATOM      8  C   UNL     1     -47.970 -11.121   6.584  1.00  0.00     0.099 C 
ATOM      9  O   UNL     1     -48.411 -11.613   5.512  1.00  0.00    -0.544 OA
ATOM     10  O   UNL     1     -47.756 -11.951   7.678  1.00  0.00    -0.544 OA
ENDBRANCH   3   8
ENDBRANCH   1   3
BRANCH   1  11
ATOM     11  C   UNL     1     -46.086  -7.852   7.604  1.00  0.00     0.006 C 
ATOM     12  C   UNL     1     -45.686  -7.515   9.041  1.00  0.00     0.004 C 
ENDBRANCH   1  11
TORSDOF 4
ENDMDL
MODEL 2
REMARK VINA RESULT:    -4.105     15.066     16.144
REMARK INTER + INTRA:          -5.049
REMARK INTER:                  -4.964
REMARK INTRA:                  -0.085
REMARK UNBOUND:                -0.103
REMARK SMILES CC[C@H](C)[C@H]([NH3+])C(=O)[O-]
REMARK SMILES IDX 3 1 4 2 5 3 6 4 7 8 8 9 9 10 2 11 1 12
REMARK H PARENT 6 5 6 6 6 7
REMARK Flexibility Score: inf
ROOT
ATOM      1  C   UNL     1     -30.940  -9.294   5.812  1.00  0.00     0.050 C 
ATOM      2  C   UNL     1     -30.197  -9.331   4.460  1.00  0.00     0.014 C 
ENDROOT
BRANCH   1   3
ATOM      3  C   UNL     1     -30.393 -10.340   6.833  1.00  0.00     0.230 C 
BRANCH   3   4
ATOM      4  N   UNL     1     -30.475 -11.713   6.313  1.00  0.00    -0.350 N 
ATOM      5  H   UNL     1     -31.242 -11.784   5.606  1.00  0.00     0.345 HD
ATOM      6  H   UNL     1     -30.644 -12.405   7.076  1.00  0.00     0.345 HD
ATOM      7  H   UNL     1     -29.575 -11.959   5.839  1.00  0.00     0.345 HD
ENDBRANCH   3   4
BRANCH   3   8
ATOM      8  C   UNL     1     -31.067 -10.239   8.181  1.00  0.00     0.099 C 
ATOM      9  O   UNL     1     -30.844  -9.247   8.924  1.00  0.00    -0.544 OA
ATOM     10  O   UNL     1     -31.961 -11.217   8.602  1.00  0.00    -0.544 OA
ENDBRANCH   3   8
ENDBRANCH   1   3
BRANCH   1  11
ATOM     11  C   UNL     1     -32.468  -9.473   5.614  1.00  0.00     0.006 C 
ATOM     12  C   UNL     1     -33.019  -8.659   4.442  1.00  0.00     0.004 C 
ENDBRANCH   1  11
TORSDOF 4
ENDMDL
MODEL 3
REMARK VINA RESULT:    -4.100     15.101     16.117
REMARK INTER + INTRA:          -5.042
REMARK INTER:                  -4.936
REMARK INTRA:                  -0.106
REMARK UNBOUND:                -0.103
REMARK SMILES CC[C@H](C)[C@H]([NH3+])C(=O)[O-]
REMARK SMILES IDX 3 1 4 2 5 3 6 4 7 8 8 9 9 10 2 11 1 12
REMARK H PARENT 6 5 6 6 6 7
REMARK Flexibility Score: inf
ROOT
ATOM      1  C   UNL     1     -31.514  -9.832   7.371  1.00  0.00     0.050 C 
ATOM      2  C   UNL     1     -32.891  -9.168   7.573  1.00  0.00     0.014 C 
ENDROOT
BRANCH   1   3
ATOM      3  C   UNL     1     -31.217 -10.172   5.877  1.00  0.00     0.230 C 
BRANCH   3   4
ATOM      4  N   UNL     1     -30.097 -11.116   5.740  1.00  0.00    -0.350 N 
ATOM      5  H   UNL     1     -29.199 -10.649   6.003  1.00  0.00     0.345 HD
ATOM      6  H   UNL     1     -30.020 -11.485   4.766  1.00  0.00     0.345 HD
ATOM      7  H   UNL     1     -30.243 -11.925   6.387  1.00  0.00     0.345 HD
ENDBRANCH   3   4
BRANCH   3   8
ATOM      8  C   UNL     1     -30.981  -8.939   5.038  1.00  0.00     0.099 C 
ATOM      9  O   UNL     1     -29.886  -8.321   5.122  1.00  0.00    -0.544 OA
ATOM     10  O   UNL     1     -31.948  -8.493   4.145  1.00  0.00    -0.544 OA
ENDBRANCH   3   8
ENDBRANCH   1   3
BRANCH   1  11
ATOM     11  C   UNL     1     -31.370 -11.096   8.257  1.00  0.00     0.006 C 
ATOM     12  C   UNL     1     -32.603 -12.000   8.219  1.00  0.00     0.004 C 
ENDBRANCH   1  11
TORSDOF 4
ENDMDL
MODEL 4
REMARK VINA RESULT:    -4.088      1.542      2.257
REMARK INTER + INTRA:          -5.028
REMARK INTER:                  -5.292
REMARK INTRA:                   0.264
REMARK UNBOUND:                -0.103
REMARK SMILES CC[C@H](C)[C@H]([NH3+])C(=O)[O-]
REMARK SMILES IDX 3 1 4 2 5 3 6 4 7 8 8 9 9 10 2 11 1 12
REMARK H PARENT 6 5 6 6 6 7
REMARK Flexibility Score: inf
ROOT
ATOM      1  C   UNL     1     -47.331  -9.546   6.253  1.00  0.00     0.050 C 
ATOM      2  C   UNL     1     -48.520  -9.049   7.100  1.00  0.00     0.014 C 
ENDROOT
BRANCH   1   3
ATOM      3  C   UNL     1     -47.517 -11.010   5.745  1.00  0.00     0.230 C 
BRANCH   3   4
ATOM      4  N   UNL     1     -48.897 -11.271   5.310  1.00  0.00    -0.350 N 
ATOM      5  H   UNL     1     -48.932 -12.134   4.720  1.00  0.00     0.345 HD
ATOM      6  H   UNL     1     -49.289 -10.468   4.769  1.00  0.00     0.345 HD
ATOM      7  H   UNL     1     -49.503 -11.428   6.149  1.00  0.00     0.345 HD
ENDBRANCH   3   4
BRANCH   3   8
ATOM      8  C   UNL     1     -47.076 -12.036   6.762  1.00  0.00     0.099 C 
ATOM      9  O   UNL     1     -47.454 -11.938   7.960  1.00  0.00    -0.544 OA
ATOM     10  O   UNL     1     -46.282 -13.113   6.385  1.00  0.00    -0.544 OA
ENDBRANCH   3   8
ENDBRANCH   1   3
BRANCH   1  11
ATOM     11  C   UNL     1     -45.996  -9.403   7.028  1.00  0.00     0.006 C 
ATOM     12  C   UNL     1     -45.977  -8.200   7.973  1.00  0.00     0.004 C 
ENDBRANCH   1  11
TORSDOF 4
ENDMDL
MODEL 5
REMARK VINA RESULT:    -4.023     22.458     23.364
REMARK INTER + INTRA:          -4.949
REMARK INTER:                  -4.908
REMARK INTRA:                  -0.041
REMARK UNBOUND:                -0.103
REMARK SMILES CC[C@H](C)[C@H]([NH3+])C(=O)[O-]
REMARK SMILES IDX 3 1 4 2 5 3 6 4 7 8 8 9 9 10 2 11 1 12
REMARK H PARENT 6 5 6 6 6 7
REMARK Flexibility Score: inf
ROOT
ATOM      1  C   UNL     1     -30.832  -2.397  -7.241  1.00  0.00     0.050 C 
ATOM      2  C   UNL     1     -30.745  -3.135  -8.592  1.00  0.00     0.014 C 
ENDROOT
BRANCH   1   3
ATOM      3  C   UNL     1     -30.413  -0.896  -7.340  1.00  0.00     0.230 C 
BRANCH   3   4
ATOM      4  N   UNL     1     -29.952  -0.368  -6.048  1.00  0.00    -0.350 N 
ATOM      5  H   UNL     1     -29.118   0.248  -6.188  1.00  0.00     0.345 HD
ATOM      6  H   UNL     1     -29.706  -1.134  -5.382  1.00  0.00     0.345 HD
ATOM      7  H   UNL     1     -30.711   0.210  -5.617  1.00  0.00     0.345 HD
ENDBRANCH   3   4
BRANCH   3   8
ATOM      8  C   UNL     1     -31.508  -0.026  -7.911  1.00  0.00     0.099 C 
ATOM      9  O   UNL     1     -31.226   1.101  -8.397  1.00  0.00    -0.544 OA
ATOM     10  O   UNL     1     -32.825  -0.471  -7.940  1.00  0.00    -0.544 OA
ENDBRANCH   3   8
ENDBRANCH   1   3
BRANCH   1  11
ATOM     11  C   UNL     1     -30.000  -3.124  -6.153  1.00  0.00     0.006 C 
ATOM     12  C   UNL     1     -30.843  -3.584  -4.962  1.00  0.00     0.004 C 
ENDBRANCH   1  11
TORSDOF 4
ENDMDL
MODEL 6
REMARK VINA RESULT:    -4.003     15.056     15.795
REMARK INTER + INTRA:          -4.925
REMARK INTER:                  -4.815
REMARK INTRA:                  -0.111
REMARK UNBOUND:                -0.103
REMARK SMILES CC[C@H](C)[C@H]([NH3+])C(=O)[O-]
REMARK SMILES IDX 3 1 4 2 5 3 6 4 7 8 8 9 9 10 2 11 1 12
REMARK H PARENT 6 5 6 6 6 7
REMARK Flexibility Score: inf
ROOT
ATOM      1  C   UNL     1     -31.976 -10.417   7.693  1.00  0.00     0.050 C 
ATOM      2  C   UNL     1     -32.598 -11.735   8.199  1.00  0.00     0.014 C 
ENDROOT
BRANCH   1   3
ATOM      3  C   UNL     1     -31.377 -10.541   6.257  1.00  0.00     0.230 C 
BRANCH   3   4
ATOM      4  N   UNL     1     -29.912 -10.662   6.281  1.00  0.00    -0.350 N 
ATOM      5  H   UNL     1     -29.473  -9.715   6.337  1.00  0.00     0.345 HD
ATOM      6  H   UNL     1     -29.552 -11.159   5.436  1.00  0.00     0.345 HD
ATOM      7  H   UNL     1     -29.621 -11.203   7.129  1.00  0.00     0.345 HD
ENDBRANCH   3   4
BRANCH   3   8
ATOM      8  C   UNL     1     -31.803  -9.408   5.353  1.00  0.00     0.099 C 
ATOM      9  O   UNL     1     -30.937  -8.746   4.724  1.00  0.00    -0.544 OA
ATOM     10  O   UNL     1     -33.149  -9.108   5.179  1.00  0.00    -0.544 OA
ENDBRANCH   3   8
ENDBRANCH   1   3
BRANCH   1  11
ATOM     11  C   UNL     1     -30.909  -9.887   8.686  1.00  0.00     0.006 C 
ATOM     12  C   UNL     1     -31.215  -8.479   9.199  1.00  0.00     0.004 C 
ENDBRANCH   1  11
TORSDOF 4
ENDMDL
MODEL 7
REMARK VINA RESULT:    -3.986     15.094     16.152
REMARK INTER + INTRA:          -4.905
REMARK INTER:                  -4.829
REMARK INTRA:                  -0.076
REMARK UNBOUND:                -0.103
REMARK SMILES CC[C@H](C)[C@H]([NH3+])C(=O)[O-]
REMARK SMILES IDX 3 1 4 2 5 3 6 4 7 8 8 9 9 10 2 11 1 12
REMARK H PARENT 6 5 6 6 6 7
REMARK Flexibility Score: inf
ROOT
ATOM      1  C   UNL     1     -31.309  -9.997   6.005  1.00  0.00     0.050 C 
ATOM      2  C   UNL     1     -32.664  -9.384   5.597  1.00  0.00     0.014 C 
ENDROOT
BRANCH   1   3
ATOM      3  C   UNL     1     -31.242 -10.369   7.519  1.00  0.00     0.230 C 
BRANCH   3   4
ATOM      4  N   UNL     1     -29.902 -10.142   8.082  1.00  0.00    -0.350 N 
ATOM      5  H   UNL     1     -29.297 -10.980   7.920  1.00  0.00     0.345 HD
ATOM      6  H   UNL     1     -29.943  -9.940   9.106  1.00  0.00     0.345 HD
ATOM      7  H   UNL     1     -29.458  -9.325   7.603  1.00  0.00     0.345 HD
ENDBRANCH   3   4
BRANCH   3   8
ATOM      8  C   UNL     1     -31.701 -11.782   7.789  1.00  0.00     0.099 C 
ATOM      9  O   UNL     1     -32.856 -11.991   8.246  1.00  0.00    -0.544 OA
ATOM     10  O   UNL     1     -30.874 -12.863   7.506  1.00  0.00    -0.544 OA
ENDBRANCH   3   8
ENDBRANCH   1   3
BRANCH   1  11
ATOM     11  C   UNL     1     -30.134  -9.060   5.620  1.00  0.00     0.006 C 
ATOM     12  C   UNL     1     -29.875  -9.011   4.114  1.00  0.00     0.004 C 
ENDBRANCH   1  11
TORSDOF 4
ENDMDL
MODEL 8
REMARK VINA RESULT:    -3.969     15.798     16.620
REMARK INTER + INTRA:          -4.884
REMARK INTER:                  -4.856
REMARK INTRA:                  -0.028
REMARK UNBOUND:                -0.103
REMARK SMILES CC[C@H](C)[C@H]([NH3+])C(=O)[O-]
REMARK SMILES IDX 3 1 4 2 5 3 6 4 7 8 8 9 9 10 2 11 1 12
REMARK H PARENT 6 5 6 6 6 7
REMARK Flexibility Score: inf
ROOT
ATOM      1  C   UNL     1     -42.526   2.572  -2.216  1.00  0.00     0.050 C 
ATOM      2  C   UNL     1     -43.378   1.379  -2.697  1.00  0.00     0.014 C 
ENDROOT
BRANCH   1   3
ATOM      3  C   UNL     1     -42.880   3.026  -0.765  1.00  0.00     0.230 C 
BRANCH   3   4
ATOM      4  N   UNL     1     -43.857   4.125  -0.756  1.00  0.00    -0.350 N 
ATOM      5  H   UNL     1     -43.893   4.582  -1.696  1.00  0.00     0.345 HD
ATOM      6  H   UNL     1     -43.624   4.842  -0.033  1.00  0.00     0.345 HD
ATOM      7  H   UNL     1     -44.808   3.743  -0.545  1.00  0.00     0.345 HD
ENDBRANCH   3   4
BRANCH   3   8
ATOM      8  C   UNL     1     -41.657   3.392   0.041  1.00  0.00     0.099 C 
ATOM      9  O   UNL     1     -41.557   3.016   1.239  1.00  0.00    -0.544 OA
ATOM     10  O   UNL     1     -40.618   4.115  -0.534  1.00  0.00    -0.544 OA
ENDBRANCH   3   8
ENDBRANCH   1   3
BRANCH   1  11
ATOM     11  C   UNL     1     -42.630   3.765  -3.202  1.00  0.00     0.006 C 
ATOM     12  C   UNL     1     -43.216   3.372  -4.559  1.00  0.00     0.004 C 
ENDBRANCH   1  11
TORSDOF 4
ENDMDL
