MODEL 1
REMARK VINA RESULT:    -3.902      0.000      0.000
REMARK INTER + INTRA:          -8.996
REMARK INTER:                  -7.323
REMARK INTRA:                  -1.673
REMARK UNBOUND:                -1.673
REMARK SMILES O=C([O-])CCCCCCCCCCCCCCC(=O)[O-]
REMARK SMILES IDX 10 1 9 2 8 3 7 4 6 5 5 6 4 7 2 8 1 9 3 10 11 11 12 12 13 13
REMARK SMILES IDX 14 14 15 15 16 16 17 17 18 18 19 19 20 20
REMARK H PARENT
REMARK Flexibility Score: inf
ROOT
ATOM      1  C   UNL     1      21.116   4.099  23.962  1.00  0.00     0.000 C 
ENDROOT
BRANCH   1   2
ATOM      2  C   UNL     1      21.605   2.677  23.648  1.00  0.00     0.000 C 
BRANCH   2   3
ATOM      3  C   UNL     1      20.891   1.606  24.491  1.00  0.00     0.000 C 
BRANCH   3   4
ATOM      4  C   UNL     1      21.687   1.212  25.744  1.00  0.00     0.000 C 
BRANCH   4   5
ATOM      5  C   UNL     1      21.091   1.802  27.032  1.00  0.00     0.000 C 
BRANCH   5   6
ATOM      6  C   UNL     1      22.157   2.574  27.826  1.00  0.00     0.006 C 
BRANCH   6   7
ATOM      7  C   UNL     1      22.219   4.055  27.427  1.00  0.00     0.053 C 
BRANCH   7   8
ATOM      8  C   UNL     1      23.562   4.427  26.878  1.00  0.00     0.041 C 
ATOM      9  O   UNL     1      24.039   5.573  27.093  1.00  0.00    -0.550 OA
ATOM     10  O   UNL     1      24.302   3.499  26.155  1.00  0.00    -0.550 OA
ENDBRANCH   7   8
ENDBRANCH   6   7
ENDBRANCH   5   6
ENDBRANCH   4   5
ENDBRANCH   3   4
ENDBRANCH   2   3
ENDBRANCH   1   2
BRANCH   1  11
ATOM     11  C   UNL     1      19.707   4.116  24.575  1.00  0.00     0.000 C 
BRANCH  11  12
ATOM     12  C   UNL     1      18.984   5.429  24.251  1.00  0.00     0.000 C 
BRANCH  12  13
ATOM     13  C   UNL     1      19.032   6.394  25.443  1.00  0.00     0.000 C 
BRANCH  13  14
ATOM     14  C   UNL     1      17.923   7.451  25.340  1.00  0.00     0.000 C 
BRANCH  14  15
ATOM     15  C   UNL     1      17.390   7.624  23.907  1.00  0.00     0.000 C 
BRANCH  15  16
ATOM     16  C   UNL     1      17.411   9.070  23.372  1.00  0.00     0.006 C 
BRANCH  16  17
ATOM     17  C   UNL     1      18.664   9.874  23.753  1.00  0.00     0.053 C 
BRANCH  17  18
ATOM     18  C   UNL     1      19.886   9.381  23.039  1.00  0.00     0.041 C 
ATOM     19  O   UNL     1      19.989   9.519  21.792  1.00  0.00    -0.550 OA
ATOM     20  O   UNL     1      20.926   8.803  23.755  1.00  0.00    -0.550 OA
ENDBRANCH  17  18
ENDBRANCH  16  17
ENDBRANCH  15  16
ENDBRANCH  14  15
ENDBRANCH  13  14
ENDBRANCH  12  13
ENDBRANCH  11  12
ENDBRANCH   1  11
TORSDOF 15
ENDMDL
MODEL 2
REMARK VINA RESULT:    -3.897      1.070      2.021
REMARK INTER + INTRA:          -8.987
REMARK INTER:                  -7.057
REMARK INTRA:                  -1.931
REMARK UNBOUND:                -1.673
REMARK SMILES O=C([O-])CCCCCCCCCCCCCCC(=O)[O-]
REMARK SMILES IDX 10 1 9 2 8 3 7 4 6 5 5 6 4 7 2 8 1 9 3 10 11 11 12 12 13 13
REMARK SMILES IDX 14 14 15 15 16 16 17 17 18 18 19 19 20 20
REMARK H PARENT
REMARK Flexibility Score: inf
ROOT
ATOM      1  C   UNL     1      21.323   2.182  23.676  1.00  0.00     0.000 C 
ENDROOT
BRANCH   1   2
ATOM      2  C   UNL     1      21.072   1.109  24.746  1.00  0.00     0.000 C 
BRANCH   2   3
ATOM      3  C   UNL     1      19.800   1.381  25.570  1.00  0.00     0.000 C 
BRANCH   3   4
ATOM      4  C   UNL     1      20.111   1.866  26.994  1.00  0.00     0.000 C 
BRANCH   4   5
ATOM      5  C   UNL     1      21.570   1.607  27.401  1.00  0.00     0.000 C 
BRANCH   5   6
ATOM      6  C   UNL     1      22.202   2.868  28.010  1.00  0.00     0.006 C 
BRANCH   6   7
ATOM      7  C   UNL     1      23.734   2.795  28.037  1.00  0.00     0.053 C 
BRANCH   7   8
ATOM      8  C   UNL     1      24.356   3.825  27.144  1.00  0.00     0.041 C 
ATOM      9  O   UNL     1      23.936   5.012  27.156  1.00  0.00    -0.550 OA
ATOM     10  O   UNL     1      25.422   3.481  26.321  1.00  0.00    -0.550 OA
ENDBRANCH   7   8
ENDBRANCH   6   7
ENDBRANCH   5   6
ENDBRANCH   4   5
ENDBRANCH   3   4
ENDBRANCH   2   3
ENDBRANCH   1   2
BRANCH   1  11
ATOM     11  C   UNL     1      22.278   3.285  24.159  1.00  0.00     0.000 C 
BRANCH  11  12
ATOM     12  C   UNL     1      21.496   4.502  24.669  1.00  0.00     0.000 C 
BRANCH  12  13
ATOM     13  C   UNL     1      20.092   4.553  24.054  1.00  0.00     0.000 C 
BRANCH  13  14
ATOM     14  C   UNL     1      19.156   5.435  24.893  1.00  0.00     0.000 C 
BRANCH  14  15
ATOM     15  C   UNL     1      19.893   6.576  25.615  1.00  0.00     0.000 C 
BRANCH  15  16
ATOM     16  C   UNL     1      19.389   7.994  25.281  1.00  0.00     0.006 C 
BRANCH  16  17
ATOM     17  C   UNL     1      19.130   8.244  23.786  1.00  0.00     0.053 C 
BRANCH  17  18
ATOM     18  C   UNL     1      20.190   9.104  23.169  1.00  0.00     0.041 C 
ATOM     19  O   UNL     1      21.199   9.445  23.839  1.00  0.00    -0.550 OA
ATOM     20  O   UNL     1      20.082   9.497  21.841  1.00  0.00    -0.550 OA
ENDBRANCH  17  18
ENDBRANCH  16  17
ENDBRANCH  15  16
ENDBRANCH  14  15
ENDBRANCH  13  14
ENDBRANCH  12  13
ENDBRANCH  11  12
ENDBRANCH   1  11
TORSDOF 15
ENDMDL
MODEL 3
REMARK VINA RESULT:    -3.891      1.583      2.532
REMARK INTER + INTRA:          -8.976
REMARK INTER:                  -6.988
REMARK INTRA:                  -1.988
REMARK UNBOUND:                -1.673
REMARK SMILES O=C([O-])CCCCCCCCCCCCCCC(=O)[O-]
REMARK SMILES IDX 10 1 9 2 8 3 7 4 6 5 5 6 4 7 2 8 1 9 3 10 11 11 12 12 13 13
REMARK SMILES IDX 14 14 15 15 16 16 17 17 18 18 19 19 20 20
REMARK H PARENT
REMARK Flexibility Score: inf
ROOT
ATOM      1  C   UNL     1      20.652   1.511  25.819  1.00  0.00     0.000 C 
ENDROOT
BRANCH   1   2
ATOM      2  C   UNL     1      21.214   1.318  24.402  1.00  0.00     0.000 C 
BRANCH   2   3
ATOM      3  C   UNL     1      22.374   2.279  24.089  1.00  0.00     0.000 C 
BRANCH   3   4
ATOM      4  C   UNL     1      22.560   3.353  25.172  1.00  0.00     0.000 C 
BRANCH   4   5
ATOM      5  C   UNL     1      23.937   3.275  25.850  1.00  0.00     0.000 C 
BRANCH   5   6
ATOM      6  C   UNL     1      23.920   3.992  27.209  1.00  0.00     0.006 C 
BRANCH   6   7
ATOM      7  C   UNL     1      22.679   4.879  27.382  1.00  0.00     0.053 C 
BRANCH   7   8
ATOM      8  C   UNL     1      23.032   6.335  27.385  1.00  0.00     0.041 C 
ATOM      9  O   UNL     1      24.239   6.695  27.370  1.00  0.00    -0.550 OA
ATOM     10  O   UNL     1      22.027   7.295  27.374  1.00  0.00    -0.550 OA
ENDBRANCH   7   8
ENDBRANCH   6   7
ENDBRANCH   5   6
ENDBRANCH   4   5
ENDBRANCH   3   4
ENDBRANCH   2   3
ENDBRANCH   1   2
BRANCH   1  11
ATOM     11  C   UNL     1      19.287   2.216  25.822  1.00  0.00     0.000 C 
BRANCH  11  12
ATOM     12  C   UNL     1      19.252   3.340  26.865  1.00  0.00     0.000 C 
BRANCH  12  13
ATOM     13  C   UNL     1      19.052   4.706  26.196  1.00  0.00     0.000 C 
BRANCH  13  14
ATOM     14  C   UNL     1      19.011   4.570  24.667  1.00  0.00     0.000 C 
BRANCH  14  15
ATOM     15  C   UNL     1      20.123   5.366  23.963  1.00  0.00     0.000 C 
BRANCH  15  16
ATOM     16  C   UNL     1      20.240   6.843  24.390  1.00  0.00     0.006 C 
BRANCH  16  17
ATOM     17  C   UNL     1      19.361   7.812  23.583  1.00  0.00     0.053 C 
BRANCH  17  18
ATOM     18  C   UNL     1      20.151   8.962  23.034  1.00  0.00     0.041 C 
ATOM     19  O   UNL     1      19.887   9.424  21.894  1.00  0.00    -0.550 OA
ATOM     20  O   UNL     1      21.154   9.545  23.798  1.00  0.00    -0.550 OA
ENDBRANCH  17  18
ENDBRANCH  16  17
ENDBRANCH  15  16
ENDBRANCH  14  15
ENDBRANCH  13  14
ENDBRANCH  12  13
ENDBRANCH  11  12
ENDBRANCH   1  11
TORSDOF 15
ENDMDL
MODEL 4
REMARK VINA RESULT:    -3.827      1.473      6.256
REMARK INTER + INTRA:          -8.856
REMARK INTER:                  -6.585
REMARK INTRA:                  -2.271
REMARK UNBOUND:                -1.673
REMARK SMILES O=C([O-])CCCCCCCCCCCCCCC(=O)[O-]
REMARK SMILES IDX 10 1 9 2 8 3 7 4 6 5 5 6 4 7 2 8 1 9 3 10 11 11 12 12 13 13
REMARK SMILES IDX 14 14 15 15 16 16 17 17 18 18 19 19 20 20
REMARK H PARENT
REMARK Flexibility Score: inf
ROOT
ATOM      1  C   UNL     1      21.954   3.496  24.248  1.00  0.00     0.000 C 
ENDROOT
BRANCH   1   2
ATOM      2  C   UNL     1      21.078   4.741  24.045  1.00  0.00     0.000 C 
BRANCH   2   3
ATOM      3  C   UNL     1      19.609   4.503  24.440  1.00  0.00     0.000 C 
BRANCH   3   4
ATOM      4  C   UNL     1      19.248   5.146  25.787  1.00  0.00     0.000 C 
BRANCH   4   5
ATOM      5  C   UNL     1      20.398   5.982  26.370  1.00  0.00     0.000 C 
BRANCH   5   6
ATOM      6  C   UNL     1      20.042   7.477  26.372  1.00  0.00     0.006 C 
BRANCH   6   7
ATOM      7  C   UNL     1      20.825   8.262  25.312  1.00  0.00     0.053 C 
BRANCH   7   8
ATOM      8  C   UNL     1      19.960   8.646  24.151  1.00  0.00     0.041 C 
ATOM      9  O   UNL     1      19.808   7.853  23.184  1.00  0.00    -0.550 OA
ATOM     10  O   UNL     1      19.294   9.866  24.151  1.00  0.00    -0.550 OA
ENDBRANCH   7   8
ENDBRANCH   6   7
ENDBRANCH   5   6
ENDBRANCH   4   5
ENDBRANCH   3   4
ENDBRANCH   2   3
ENDBRANCH   1   2
BRANCH   1  11
ATOM     11  C   UNL     1      21.300   2.218  23.699  1.00  0.00     0.000 C 
BRANCH  11  12
ATOM     12  C   UNL     1      21.210   1.138  24.785  1.00  0.00     0.000 C 
BRANCH  12  13
ATOM     13  C   UNL     1      19.885   1.238  25.552  1.00  0.00     0.000 C 
BRANCH  13  14
ATOM     14  C   UNL     1      20.113   1.762  26.977  1.00  0.00     0.000 C 
BRANCH  14  15
ATOM     15  C   UNL     1      21.565   1.590  27.455  1.00  0.00     0.000 C 
BRANCH  15  16
ATOM     16  C   UNL     1      22.278   2.896  27.862  1.00  0.00     0.006 C 
BRANCH  16  17
ATOM     17  C   UNL     1      23.812   2.804  27.888  1.00  0.00     0.053 C 
BRANCH  17  18
ATOM     18  C   UNL     1      24.450   3.811  26.980  1.00  0.00     0.041 C 
ATOM     19  O   UNL     1      25.479   3.507  26.321  1.00  0.00    -0.550 OA
ATOM     20  O   UNL     1      23.887   5.072  26.834  1.00  0.00    -0.550 OA
ENDBRANCH  17  18
ENDBRANCH  16  17
ENDBRANCH  15  16
ENDBRANCH  14  15
ENDBRANCH  13  14
ENDBRANCH  12  13
ENDBRANCH  11  12
ENDBRANCH   1  11
TORSDOF 15
ENDMDL
MODEL 5
REMARK VINA RESULT:    -3.813      2.605      6.269
REMARK INTER + INTRA:          -8.829
REMARK INTER:                  -6.692
REMARK INTRA:                  -2.138
REMARK UNBOUND:                -1.673
REMARK SMILES O=C([O-])CCCCCCCCCCCCCCC(=O)[O-]
REMARK SMILES IDX 10 1 9 2 8 3 7 4 6 5 5 6 4 7 2 8 1 9 3 10 11 11 12 12 13 13
REMARK SMILES IDX 14 14 15 15 16 16 17 17 18 18 19 19 20 20
REMARK H PARENT
REMARK Flexibility Score: inf
ROOT
ATOM      1  C   UNL     1      24.065   3.840  26.602  1.00  0.00     0.000 C 
ENDROOT
BRANCH   1   2
ATOM      2  C   UNL     1      23.542   5.058  27.379  1.00  0.00     0.000 C 
BRANCH   2   3
ATOM      3  C   UNL     1      22.032   4.973  27.666  1.00  0.00     0.000 C 
BRANCH   3   4
ATOM      4  C   UNL     1      21.319   6.321  27.486  1.00  0.00     0.000 C 
BRANCH   4   5
ATOM      5  C   UNL     1      22.255   7.418  26.956  1.00  0.00     0.000 C 
BRANCH   5   6
ATOM      6  C   UNL     1      21.458   8.525  26.250  1.00  0.00     0.006 C 
BRANCH   6   7
ATOM      7  C   UNL     1      20.220   7.978  25.526  1.00  0.00     0.053 C 
BRANCH   7   8
ATOM      8  C   UNL     1      20.272   8.247  24.054  1.00  0.00     0.041 C 
ATOM      9  O   UNL     1      19.720   7.455  23.245  1.00  0.00    -0.550 OA
ATOM     10  O   UNL     1      20.904   9.389  23.575  1.00  0.00    -0.550 OA
ENDBRANCH   7   8
ENDBRANCH   6   7
ENDBRANCH   5   6
ENDBRANCH   4   5
ENDBRANCH   3   4
ENDBRANCH   2   3
ENDBRANCH   1   2
BRANCH   1  11
ATOM     11  C   UNL     1      22.932   2.968  26.039  1.00  0.00     0.000 C 
BRANCH  11  12
ATOM     12  C   UNL     1      22.939   2.983  24.506  1.00  0.00     0.000 C 
BRANCH  12  13
ATOM     13  C   UNL     1      21.510   2.976  23.948  1.00  0.00     0.000 C 
BRANCH  13  14
ATOM     14  C   UNL     1      20.819   4.326  24.188  1.00  0.00     0.000 C 
BRANCH  14  15
ATOM     15  C   UNL     1      19.373   4.179  24.692  1.00  0.00     0.000 C 
BRANCH  15  16
ATOM     16  C   UNL     1      19.224   3.462  26.049  1.00  0.00     0.006 C 
BRANCH  16  17
ATOM     17  C   UNL     1      18.655   2.037  25.959  1.00  0.00     0.053 C 
BRANCH  17  18
ATOM     18  C   UNL     1      18.959   1.232  27.186  1.00  0.00     0.041 C 
ATOM     19  O   UNL     1      18.089   0.462  27.670  1.00  0.00    -0.550 OA
ATOM     20  O   UNL     1      20.216   1.306  27.774  1.00  0.00    -0.550 OA
ENDBRANCH  17  18
ENDBRANCH  16  17
ENDBRANCH  15  16
ENDBRANCH  14  15
ENDBRANCH  13  14
ENDBRANCH  12  13
ENDBRANCH  11  12
ENDBRANCH   1  11
TORSDOF 15
ENDMDL
MODEL 6
REMARK VINA RESULT:    -3.784      2.203      3.548
REMARK INTER + INTRA:          -8.775
REMARK INTER:                  -6.867
REMARK INTRA:                  -1.909
REMARK UNBOUND:                -1.673
REMARK SMILES O=C([O-])CCCCCCCCCCCCCCC(=O)[O-]
REMARK SMILES IDX 10 1 9 2 8 3 7 4 6 5 5 6 4 7 2 8 1 9 3 10 11 11 12 12 13 13
REMARK SMILES IDX 14 14 15 15 16 16 17 17 18 18 19 19 20 20
REMARK H PARENT
REMARK Flexibility Score: inf
ROOT
ATOM      1  C   UNL     1      22.974   5.183  26.998  1.00  0.00     0.000 C 
ENDROOT
BRANCH   1   2
ATOM      2  C   UNL     1      22.768   3.671  26.823  1.00  0.00     0.000 C 
BRANCH   2   3
ATOM      3  C   UNL     1      23.207   3.171  25.435  1.00  0.00     0.000 C 
BRANCH   3   4
ATOM      4  C   UNL     1      22.123   3.370  24.365  1.00  0.00     0.000 C 
BRANCH   4   5
ATOM      5  C   UNL     1      21.624   2.042  23.775  1.00  0.00     0.000 C 
BRANCH   5   6
ATOM      6  C   UNL     1      21.070   1.126  24.879  1.00  0.00     0.006 C 
BRANCH   6   7
ATOM      7  C   UNL     1      19.774   1.673  25.490  1.00  0.00     0.053 C 
BRANCH   7   8
ATOM      8  C   UNL     1      19.595   1.223  26.908  1.00  0.00     0.041 C 
ATOM      9  O   UNL     1      20.538   1.341  27.734  1.00  0.00    -0.550 OA
ATOM     10  O   UNL     1      18.375   0.703  27.326  1.00  0.00    -0.550 OA
ENDBRANCH   7   8
ENDBRANCH   6   7
ENDBRANCH   5   6
ENDBRANCH   4   5
ENDBRANCH   3   4
ENDBRANCH   2   3
ENDBRANCH   1   2
BRANCH   1  11
ATOM     11  C   UNL     1      21.679   5.914  27.382  1.00  0.00     0.000 C 
BRANCH  11  12
ATOM     12  C   UNL     1      20.485   4.952  27.384  1.00  0.00     0.000 C 
BRANCH  12  13
ATOM     13  C   UNL     1      19.289   5.555  26.636  1.00  0.00     0.000 C 
BRANCH  13  14
ATOM     14  C   UNL     1      19.062   4.843  25.295  1.00  0.00     0.000 C 
BRANCH  14  15
ATOM     15  C   UNL     1      18.936   5.819  24.112  1.00  0.00     0.000 C 
BRANCH  15  16
ATOM     16  C   UNL     1      20.102   6.817  23.960  1.00  0.00     0.006 C 
BRANCH  16  17
ATOM     17  C   UNL     1      19.712   8.290  24.162  1.00  0.00     0.053 C 
BRANCH  17  18
ATOM     18  C   UNL     1      20.528   9.210  23.306  1.00  0.00     0.041 C 
ATOM     19  O   UNL     1      21.599   9.701  23.748  1.00  0.00    -0.550 OA
ATOM     20  O   UNL     1      20.124   9.495  22.008  1.00  0.00    -0.550 OA
ENDBRANCH  17  18
ENDBRANCH  16  17
ENDBRANCH  15  16
ENDBRANCH  14  15
ENDBRANCH  13  14
ENDBRANCH  12  13
ENDBRANCH  11  12
ENDBRANCH   1  11
TORSDOF 15
ENDMDL
MODEL 7
REMARK VINA RESULT:    -3.693      2.059      3.578
REMARK INTER + INTRA:          -8.604
REMARK INTER:                  -6.272
REMARK INTRA:                  -2.332
REMARK UNBOUND:                -1.673
REMARK SMILES O=C([O-])CCCCCCCCCCCCCCC(=O)[O-]
REMARK SMILES IDX 10 1 9 2 8 3 7 4 6 5 5 6 4 7 2 8 1 9 3 10 11 11 12 12 13 13
REMARK SMILES IDX 14 14 15 15 16 16 17 17 18 18 19 19 20 20
REMARK H PARENT
REMARK Flexibility Score: inf
ROOT
ATOM      1  C   UNL     1      21.830   2.167  23.874  1.00  0.00     0.000 C 
ENDROOT
BRANCH   1   2
ATOM      2  C   UNL     1      22.550   3.372  24.498  1.00  0.00     0.000 C 
BRANCH   2   3
ATOM      3  C   UNL     1      23.412   2.983  25.712  1.00  0.00     0.000 C 
BRANCH   3   4
ATOM      4  C   UNL     1      23.046   3.777  26.975  1.00  0.00     0.000 C 
BRANCH   4   5
ATOM      5  C   UNL     1      22.506   5.180  26.655  1.00  0.00     0.000 C 
BRANCH   5   6
ATOM      6  C   UNL     1      22.739   6.138  27.834  1.00  0.00     0.006 C 
BRANCH   6   7
ATOM      7  C   UNL     1      22.465   7.600  27.456  1.00  0.00     0.053 C 
BRANCH   7   8
ATOM      8  C   UNL     1      23.712   8.302  27.012  1.00  0.00     0.041 C 
ATOM      9  O   UNL     1      23.638   9.412  26.420  1.00  0.00    -0.550 OA
ATOM     10  O   UNL     1      24.957   7.747  27.279  1.00  0.00    -0.550 OA
ENDBRANCH   7   8
ENDBRANCH   6   7
ENDBRANCH   5   6
ENDBRANCH   4   5
ENDBRANCH   3   4
ENDBRANCH   2   3
ENDBRANCH   1   2
BRANCH   1  11
ATOM     11  C   UNL     1      21.345   1.160  24.928  1.00  0.00     0.000 C 
BRANCH  11  12
ATOM     12  C   UNL     1      19.874   1.407  25.286  1.00  0.00     0.000 C 
BRANCH  12  13
ATOM     13  C   UNL     1      19.735   1.901  26.731  1.00  0.00     0.000 C 
BRANCH  13  14
ATOM     14  C   UNL     1      19.142   3.317  26.774  1.00  0.00     0.000 C 
BRANCH  14  15
ATOM     15  C   UNL     1      19.017   3.957  25.380  1.00  0.00     0.000 C 
BRANCH  15  16
ATOM     16  C   UNL     1      19.186   5.490  25.347  1.00  0.00     0.006 C 
BRANCH  16  17
ATOM     17  C   UNL     1      19.921   6.025  24.108  1.00  0.00     0.053 C 
BRANCH  17  18
ATOM     18  C   UNL     1      19.608   7.467  23.848  1.00  0.00     0.041 C 
ATOM     19  O   UNL     1      18.420   7.829  23.643  1.00  0.00    -0.550 OA
ATOM     20  O   UNL     1      20.623   8.414  23.867  1.00  0.00    -0.550 OA
ENDBRANCH  17  18
ENDBRANCH  16  17
ENDBRANCH  15  16
ENDBRANCH  14  15
ENDBRANCH  13  14
ENDBRANCH  12  13
ENDBRANCH  11  12
ENDBRANCH   1  11
TORSDOF 15
ENDMDL
MODEL 8
REMARK VINA RESULT:    -3.674      1.417      2.713
REMARK INTER + INTRA:          -8.569
REMARK INTER:                  -6.724
REMARK INTRA:                  -1.845
REMARK UNBOUND:                -1.673
REMARK SMILES O=C([O-])CCCCCCCCCCCCCCC(=O)[O-]
REMARK SMILES IDX 10 1 9 2 8 3 7 4 6 5 5 6 4 7 2 8 1 9 3 10 11 11 12 12 13 13
REMARK SMILES IDX 14 14 15 15 16 16 17 17 18 18 19 19 20 20
REMARK H PARENT
REMARK Flexibility Score: inf
ROOT
ATOM      1  C   UNL     1      20.156   1.691  25.369  1.00  0.00     0.000 C 
ENDROOT
BRANCH   1   2
ATOM      2  C   UNL     1      20.599   1.704  26.840  1.00  0.00     0.000 C 
BRANCH   2   3
ATOM      3  C   UNL     1      22.115   1.493  27.003  1.00  0.00     0.000 C 
BRANCH   3   4
ATOM      4  C   UNL     1      22.794   2.646  27.756  1.00  0.00     0.000 C 
BRANCH   4   5
ATOM      5  C   UNL     1      23.861   3.357  26.908  1.00  0.00     0.000 C 
BRANCH   5   6
ATOM      6  C   UNL     1      23.698   4.883  26.990  1.00  0.00     0.006 C 
BRANCH   6   7
ATOM      7  C   UNL     1      22.225   5.309  27.036  1.00  0.00     0.053 C 
BRANCH   7   8
ATOM      8  C   UNL     1      22.077   6.797  27.112  1.00  0.00     0.041 C 
ATOM      9  O   UNL     1      23.097   7.534  27.164  1.00  0.00    -0.550 OA
ATOM     10  O   UNL     1      20.813   7.374  27.092  1.00  0.00    -0.550 OA
ENDBRANCH   7   8
ENDBRANCH   6   7
ENDBRANCH   5   6
ENDBRANCH   4   5
ENDBRANCH   3   4
ENDBRANCH   2   3
ENDBRANCH   1   2
BRANCH   1  11
ATOM     11  C   UNL     1      21.304   2.022  24.404  1.00  0.00     0.000 C 
BRANCH  11  12
ATOM     12  C   UNL     1      21.246   3.490  23.964  1.00  0.00     0.000 C 
BRANCH  12  13
ATOM     13  C   UNL     1      19.922   4.140  24.386  1.00  0.00     0.000 C 
BRANCH  13  14
ATOM     14  C   UNL     1      19.920   5.642  24.065  1.00  0.00     0.000 C 
BRANCH  14  15
ATOM     15  C   UNL     1      18.610   6.340  24.470  1.00  0.00     0.000 C 
BRANCH  15  16
ATOM     16  C   UNL     1      18.292   7.634  23.693  1.00  0.00     0.006 C 
BRANCH  16  17
ATOM     17  C   UNL     1      18.985   8.893  24.238  1.00  0.00     0.053 C 
BRANCH  17  18
ATOM     18  C   UNL     1      20.170   9.285  23.409  1.00  0.00     0.041 C 
ATOM     19  O   UNL     1      21.308   9.387  23.938  1.00  0.00    -0.550 OA
ATOM     20  O   UNL     1      20.024   9.502  22.045  1.00  0.00    -0.550 OA
ENDBRANCH  17  18
ENDBRANCH  16  17
ENDBRANCH  15  16
ENDBRANCH  14  15
ENDBRANCH  13  14
ENDBRANCH  12  13
ENDBRANCH  11  12
ENDBRANCH   1  11
TORSDOF 15
ENDMDL
MODEL 9
REMARK VINA RESULT:    -3.666      1.525      6.527
REMARK INTER + INTRA:          -8.553
REMARK INTER:                  -6.616
REMARK INTRA:                  -1.937
REMARK UNBOUND:                -1.673
REMARK SMILES O=C([O-])CCCCCCCCCCCCCCC(=O)[O-]
REMARK SMILES IDX 10 1 9 2 8 3 7 4 6 5 5 6 4 7 2 8 1 9 3 10 11 11 12 12 13 13
REMARK SMILES IDX 14 14 15 15 16 16 17 17 18 18 19 19 20 20
REMARK H PARENT
REMARK Flexibility Score: inf
ROOT
ATOM      1  C   UNL     1      19.615   4.345  27.820  1.00  0.00     0.000 C 
ENDROOT
BRANCH   1   2
ATOM      2  C   UNL     1      19.251   5.724  27.249  1.00  0.00     0.000 C 
BRANCH   2   3
ATOM      3  C   UNL     1      19.884   5.979  25.869  1.00  0.00     0.000 C 
BRANCH   3   4
ATOM      4  C   UNL     1      18.960   5.572  24.711  1.00  0.00     0.000 C 
BRANCH   4   5
ATOM      5  C   UNL     1      18.778   6.696  23.679  1.00  0.00     0.000 C 
BRANCH   5   6
ATOM      6  C   UNL     1      18.429   8.023  24.369  1.00  0.00     0.006 C 
BRANCH   6   7
ATOM      7  C   UNL     1      18.488   9.214  23.403  1.00  0.00     0.053 C 
BRANCH   7   8
ATOM      8  C   UNL     1      19.847   9.366  22.791  1.00  0.00     0.041 C 
ATOM      9  O   UNL     1      19.967   9.538  21.549  1.00  0.00    -0.550 OA
ATOM     10  O   UNL     1      20.980   9.352  23.596  1.00  0.00    -0.550 OA
ENDBRANCH   7   8
ENDBRANCH   6   7
ENDBRANCH   5   6
ENDBRANCH   4   5
ENDBRANCH   3   4
ENDBRANCH   2   3
ENDBRANCH   1   2
BRANCH   1  11
ATOM     11  C   UNL     1      18.422   3.377  27.830  1.00  0.00     0.000 C 
BRANCH  11  12
ATOM     12  C   UNL     1      18.827   2.002  27.283  1.00  0.00     0.000 C 
BRANCH  12  13
ATOM     13  C   UNL     1      19.020   2.049  25.762  1.00  0.00     0.000 C 
BRANCH  13  14
ATOM     14  C   UNL     1      20.423   1.563  25.370  1.00  0.00     0.000 C 
BRANCH  14  15
ATOM     15  C   UNL     1      21.068   2.418  24.266  1.00  0.00     0.000 C 
BRANCH  15  16
ATOM     16  C   UNL     1      22.199   3.353  24.740  1.00  0.00     0.006 C 
BRANCH  16  17
ATOM     17  C   UNL     1      22.926   2.882  26.010  1.00  0.00     0.053 C 
BRANCH  17  18
ATOM     18  C   UNL     1      23.896   3.907  26.514  1.00  0.00     0.041 C 
ATOM     19  O   UNL     1      25.132   3.672  26.494  1.00  0.00    -0.550 OA
ATOM     20  O   UNL     1      23.436   5.136  26.971  1.00  0.00    -0.550 OA
ENDBRANCH  17  18
ENDBRANCH  16  17
ENDBRANCH  15  16
ENDBRANCH  14  15
ENDBRANCH  13  14
ENDBRANCH  12  13
ENDBRANCH  11  12
ENDBRANCH   1  11
TORSDOF 15
ENDMDL
