MODEL 1
REMARK VINA RESULT:    -3.099      0.000      0.000
REMARK INTER + INTRA:          -3.099
REMARK INTER:                  -3.099
REMARK INTRA:                   0.000
REMARK UNBOUND:                 0.000
REMARK SMILES c1cc[nH]c1
REMARK SMILES IDX 1 1 5 2 4 3 3 4 2 5
REMARK H PARENT 4 6
REMARK Flexibility Score: inf
ROOT
ATOM      1  C   UNL     1     146.267 145.470 125.942  1.00  0.00     0.019 A 
ATOM      2  C   UNL     1     145.623 144.269 125.728  1.00  0.00     0.082 A 
ATOM      3  N   UNL     1     144.312 144.483 125.521  1.00  0.00    -0.368 N 
ATOM      4  C   UNL     1     144.109 145.809 125.600  1.00  0.00     0.082 A 
ATOM      5  C   UNL     1     145.301 146.453 125.861  1.00  0.00     0.019 A 
ATOM      6  H   UNL     1     143.588 143.754 125.333  1.00  0.00     0.165 HD
ENDROOT
TORSDOF 0
ENDMDL
MODEL 2
REMARK VINA RESULT:    -3.061     10.960     11.595
REMARK INTER + INTRA:          -3.061
REMARK INTER:                  -3.061
REMARK INTRA:                   0.000
REMARK UNBOUND:                 0.000
REMARK SMILES c1cc[nH]c1
REMARK SMILES IDX 1 1 5 2 4 3 3 4 2 5
REMARK H PARENT 4 6
REMARK Flexibility Score: inf
ROOT
ATOM      1  C   UNL     1     135.586 137.501 123.542  1.00  0.00     0.019 A 
ATOM      2  C   UNL     1     136.913 137.873 123.480  1.00  0.00     0.082 A 
ATOM      3  N   UNL     1     137.041 139.172 123.803  1.00  0.00    -0.368 N 
ATOM      4  C   UNL     1     135.808 139.636 124.072  1.00  0.00     0.082 A 
ATOM      5  C   UNL     1     134.880 138.627 123.920  1.00  0.00     0.019 A 
ATOM      6  H   UNL     1     137.931 139.717 123.839  1.00  0.00     0.165 HD
ENDROOT
TORSDOF 0
ENDMDL
MODEL 3
REMARK VINA RESULT:    -3.056     11.279     11.954
REMARK INTER + INTRA:          -3.056
REMARK INTER:                  -3.056
REMARK INTRA:                   0.000
REMARK UNBOUND:                 0.000
REMARK SMILES c1cc[nH]c1
REMARK SMILES IDX 1 1 5 2 4 3 3 4 2 5
REMARK H PARENT 4 6
REMARK Flexibility Score: inf
ROOT
ATOM      1  C   UNL     1     152.131 134.875 124.060  1.00  0.00     0.019 A 
ATOM      2  C   UNL     1     151.145 135.829 124.211  1.00  0.00     0.082 A 
ATOM      3  N   UNL     1     151.636 137.046 123.918  1.00  0.00    -0.368 N 
ATOM      4  C   UNL     1     152.927 136.882 123.580  1.00  0.00     0.082 A 
ATOM      5  C   UNL     1     153.268 135.547 123.657  1.00  0.00     0.019 A 
ATOM      6  H   UNL     1     151.112 137.949 123.947  1.00  0.00     0.165 HD
ENDROOT
TORSDOF 0
ENDMDL
MODEL 4
REMARK VINA RESULT:    -3.042     11.289     11.932
REMARK INTER + INTRA:          -3.042
REMARK INTER:                  -3.042
REMARK INTRA:                   0.000
REMARK UNBOUND:                 0.000
REMARK SMILES c1cc[nH]c1
REMARK SMILES IDX 1 1 5 2 4 3 3 4 2 5
REMARK H PARENT 4 6
REMARK Flexibility Score: inf
ROOT
ATOM      1  C   UNL     1     153.285 135.557 123.716  1.00  0.00     0.019 A 
ATOM      2  C   UNL     1     152.920 136.880 123.579  1.00  0.00     0.082 A 
ATOM      3  N   UNL     1     151.618 137.030 123.880  1.00  0.00    -0.368 N 
ATOM      4  C   UNL     1     151.145 135.816 124.210  1.00  0.00     0.082 A 
ATOM      5  C   UNL     1     152.152 134.877 124.118  1.00  0.00     0.019 A 
ATOM      6  H   UNL     1     151.077 137.923 123.862  1.00  0.00     0.165 HD
ENDROOT
TORSDOF 0
ENDMDL
MODEL 5
REMARK VINA RESULT:    -3.020      1.074      1.842
REMARK INTER + INTRA:          -3.020
REMARK INTER:                  -3.020
REMARK INTRA:                   0.000
REMARK UNBOUND:                 0.000
REMARK SMILES c1cc[nH]c1
REMARK SMILES IDX 1 1 5 2 4 3 3 4 2 5
REMARK H PARENT 4 6
REMARK Flexibility Score: inf
ROOT
ATOM      1  C   UNL     1     145.223 144.424 125.771  1.00  0.00     0.019 A 
ATOM      2  C   UNL     1     144.185 145.333 125.785  1.00  0.00     0.082 A 
ATOM      3  N   UNL     1     144.671 146.585 125.713  1.00  0.00    -0.368 N 
ATOM      4  C   UNL     1     146.010 146.487 125.651  1.00  0.00     0.082 A 
ATOM      5  C   UNL     1     146.388 145.161 125.685  1.00  0.00     0.019 A 
ATOM      6  H   UNL     1     144.112 147.467 125.705  1.00  0.00     0.165 HD
ENDROOT
TORSDOF 0
ENDMDL
MODEL 6
REMARK VINA RESULT:    -2.952     11.670     12.181
REMARK INTER + INTRA:          -2.952
REMARK INTER:                  -2.952
REMARK INTRA:                   0.000
REMARK UNBOUND:                 0.000
REMARK SMILES c1cc[nH]c1
REMARK SMILES IDX 1 1 5 2 4 3 3 4 2 5
REMARK H PARENT 4 6
REMARK Flexibility Score: inf
ROOT
ATOM      1  C   UNL     1     137.517 137.148 123.144  1.00  0.00     0.019 A 
ATOM      2  C   UNL     1     136.680 136.061 123.285  1.00  0.00     0.082 A 
ATOM      3  N   UNL     1     135.441 136.474 123.604  1.00  0.00    -0.368 N 
ATOM      4  C   UNL     1     135.476 137.817 123.669  1.00  0.00     0.082 A 
ATOM      5  C   UNL     1     136.749 138.269 123.390  1.00  0.00     0.019 A 
ATOM      6  H   UNL     1     134.608 135.867 123.770  1.00  0.00     0.165 HD
ENDROOT
TORSDOF 0
ENDMDL
MODEL 7
REMARK VINA RESULT:    -2.941     11.986     12.650
REMARK INTER + INTRA:          -2.941
REMARK INTER:                  -2.941
REMARK INTRA:                   0.000
REMARK UNBOUND:                 0.000
REMARK SMILES c1cc[nH]c1
REMARK SMILES IDX 1 1 5 2 4 3 3 4 2 5
REMARK H PARENT 4 6
REMARK Flexibility Score: inf
ROOT
ATOM      1  C   UNL     1     152.572 136.878 123.446  1.00  0.00     0.019 A 
ATOM      2  C   UNL     1     152.848 135.568 123.780  1.00  0.00     0.082 A 
ATOM      3  N   UNL     1     154.173 135.349 123.718  1.00  0.00    -0.368 N 
ATOM      4  C   UNL     1     154.749 136.506 123.347  1.00  0.00     0.082 A 
ATOM      5  C   UNL     1     153.785 137.476 123.169  1.00  0.00     0.019 A 
ATOM      6  H   UNL     1     154.663 134.449 123.921  1.00  0.00     0.165 HD
ENDROOT
TORSDOF 0
ENDMDL
MODEL 8
REMARK VINA RESULT:    -2.880     11.733     12.322
REMARK INTER + INTRA:          -2.880
REMARK INTER:                  -2.880
REMARK INTRA:                   0.000
REMARK UNBOUND:                 0.000
REMARK SMILES c1cc[nH]c1
REMARK SMILES IDX 1 1 5 2 4 3 3 4 2 5
REMARK H PARENT 4 6
REMARK Flexibility Score: inf
ROOT
ATOM      1  C   UNL     1     138.240 153.903 123.486  1.00  0.00     0.019 A 
ATOM      2  C   UNL     1     137.733 155.112 123.915  1.00  0.00     0.082 A 
ATOM      3  N   UNL     1     136.396 155.125 123.777  1.00  0.00    -0.368 N 
ATOM      4  C   UNL     1     136.040 153.934 123.263  1.00  0.00     0.082 A 
ATOM      5  C   UNL     1     137.158 153.151 123.070  1.00  0.00     0.019 A 
ATOM      6  H   UNL     1     135.755 155.912 124.022  1.00  0.00     0.165 HD
ENDROOT
TORSDOF 0
ENDMDL
MODEL 9
REMARK VINA RESULT:    -2.872     11.545     12.128
REMARK INTER + INTRA:          -2.872
REMARK INTER:                  -2.872
REMARK INTRA:                   0.000
REMARK UNBOUND:                 0.000
REMARK SMILES c1cc[nH]c1
REMARK SMILES IDX 1 1 5 2 4 3 3 4 2 5
REMARK H PARENT 4 6
REMARK Flexibility Score: inf
ROOT
ATOM      1  C   UNL     1     138.243 154.018 123.377  1.00  0.00     0.019 A 
ATOM      2  C   UNL     1     137.327 153.016 123.132  1.00  0.00     0.082 A 
ATOM      3  N   UNL     1     136.081 153.467 123.361  1.00  0.00    -0.368 N 
ATOM      4  C   UNL     1     136.189 154.749 123.749  1.00  0.00     0.082 A 
ATOM      5  C   UNL     1     137.516 155.125 123.771  1.00  0.00     0.019 A 
ATOM      6  H   UNL     1     135.196 152.923 123.255  1.00  0.00     0.165 HD
ENDROOT
TORSDOF 0
ENDMDL
