MODEL 1
REMARK VINA RESULT:    21.510      0.000      0.000
REMARK INTER + INTRA:          25.145
REMARK INTER:                  25.283
REMARK INTRA:                  -0.138
REMARK UNBOUND:                -0.138
REMARK SMILES O=c1c(O)c(-c2ccc(O)cc2)oc2cc(O)cc(O)c12
REMARK SMILES IDX 5 1 3 2 2 3 1 4 21 5 19 6 18 7 16 8 15 9 14 10 13 11 6 12
REMARK SMILES IDX 7 13 8 14 9 15 12 16 11 17 10 18 4 20 20 22 17 24
REMARK H PARENT 10 19 4 21 20 23 17 25
REMARK Flexibility Score: inf
ROOT
ATOM      1  C   UNL     1      -6.156   7.426  16.105  1.00  0.00     0.180 A 
ATOM      2  C   UNL     1      -7.014   7.170  15.018  1.00  0.00     0.208 A 
ATOM      3  C   UNL     1      -7.328   5.839  14.702  1.00  0.00     0.238 A 
ATOM      4  O   UNL     1      -8.086   5.596  13.723  1.00  0.00    -0.285 OA
ATOM      5  C   UNL     1      -6.799   4.793  15.486  1.00  0.00     0.111 A 
ATOM      6  C   UNL     1      -7.070   3.426  15.236  1.00  0.00     0.134 A 
ATOM      7  C   UNL     1      -6.513   2.443  16.068  1.00  0.00     0.093 A 
ATOM      8  C   UNL     1      -5.692   2.802  17.143  1.00  0.00     0.123 A 
ATOM      9  C   UNL     1      -5.422   4.148  17.392  1.00  0.00     0.094 A 
ATOM     10  C   UNL     1      -5.965   5.142  16.574  1.00  0.00     0.146 A 
ATOM     11  O   UNL     1      -5.688   6.415  16.831  1.00  0.00    -0.452 OA
ENDROOT
BRANCH   1  12
ATOM     12  C   UNL     1      -5.762   8.801  16.490  1.00  0.00     0.021 A 
ATOM     13  C   UNL     1      -4.428   9.209  16.327  1.00  0.00     0.016 A 
ATOM     14  C   UNL     1      -4.039  10.510  16.662  1.00  0.00     0.047 A 
ATOM     15  C   UNL     1      -4.983  11.424  17.150  1.00  0.00     0.115 A 
ATOM     16  C   UNL     1      -6.708   9.730  16.960  1.00  0.00     0.016 A 
ATOM     17  C   UNL     1      -6.317  11.031  17.293  1.00  0.00     0.047 A 
BRANCH  15  18
ATOM     18  O   UNL     1      -4.607  12.721  17.487  1.00  0.00    -0.508 OA
ATOM     19  H   UNL     1      -4.825  13.509  16.887  1.00  0.00     0.293 HD
ENDBRANCH  15  18
ENDBRANCH   1  12
BRANCH   2  20
ATOM     20  O   UNL     1      -7.564   8.227  14.288  1.00  0.00    -0.502 OA
ATOM     21  H   UNL     1      -7.577   8.237  13.276  1.00  0.00     0.293 HD
ENDBRANCH   2  20
BRANCH   6  22
ATOM     22  O   UNL     1      -7.886   3.038  14.173  1.00  0.00    -0.507 OA
ATOM     23  H   UNL     1      -7.774   2.142  13.713  1.00  0.00     0.293 HD
ENDBRANCH   6  22
BRANCH   8  24
ATOM     24  O   UNL     1      -5.139   1.826  17.970  1.00  0.00    -0.508 OA
ATOM     25  H   UNL     1      -5.273   1.845  18.975  1.00  0.00     0.293 HD
ENDBRANCH   8  24
TORSDOF 5
ENDMDL
MODEL 2
REMARK VINA RESULT:    23.061      1.865      6.362
REMARK INTER + INTRA:          26.967
REMARK INTER:                  27.265
REMARK INTRA:                  -0.297
REMARK UNBOUND:                -0.138
REMARK SMILES O=c1c(O)c(-c2ccc(O)cc2)oc2cc(O)cc(O)c12
REMARK SMILES IDX 5 1 3 2 2 3 1 4 21 5 19 6 18 7 16 8 15 9 14 10 13 11 6 12
REMARK SMILES IDX 7 13 8 14 9 15 12 16 11 17 10 18 4 20 20 22 17 24
REMARK H PARENT 10 19 4 21 20 23 17 25
REMARK Flexibility Score: inf
ROOT
ATOM      1  C   UNL     1      -5.699   4.383  15.556  1.00  0.00     0.180 A 
ATOM      2  C   UNL     1      -6.774   4.252  14.655  1.00  0.00     0.208 A 
ATOM      3  C   UNL     1      -7.563   5.379  14.373  1.00  0.00     0.238 A 
ATOM      4  O   UNL     1      -8.535   5.271  13.576  1.00  0.00    -0.285 OA
ATOM      5  C   UNL     1      -7.254   6.614  14.977  1.00  0.00     0.111 A 
ATOM      6  C   UNL     1      -7.997   7.797  14.743  1.00  0.00     0.134 A 
ATOM      7  C   UNL     1      -7.621   8.992  15.375  1.00  0.00     0.093 A 
ATOM      8  C   UNL     1      -6.517   9.025  16.235  1.00  0.00     0.123 A 
ATOM      9  C   UNL     1      -5.783   7.862  16.469  1.00  0.00     0.094 A 
ATOM     10  C   UNL     1      -6.143   6.661  15.851  1.00  0.00     0.146 A 
ATOM     11  O   UNL     1      -5.429   5.569  16.095  1.00  0.00    -0.452 OA
ENDROOT
BRANCH   1  12
ATOM     12  C   UNL     1      -4.833   3.238  15.919  1.00  0.00     0.021 A 
ATOM     13  C   UNL     1      -3.660   2.999  15.184  1.00  0.00     0.016 A 
ATOM     14  C   UNL     1      -2.816   1.937  15.523  1.00  0.00     0.047 A 
ATOM     15  C   UNL     1      -3.126   1.111  16.612  1.00  0.00     0.115 A 
ATOM     16  C   UNL     1      -5.127   2.418  17.023  1.00  0.00     0.016 A 
ATOM     17  C   UNL     1      -4.280   1.357  17.361  1.00  0.00     0.047 A 
BRANCH  15  18
ATOM     18  O   UNL     1      -2.293   0.050  16.959  1.00  0.00    -0.508 OA
ATOM     19  H   UNL     1      -2.371  -0.413  17.857  1.00  0.00     0.293 HD
ENDBRANCH  15  18
ENDBRANCH   1  12
BRANCH   2  20
ATOM     20  O   UNL     1      -7.028   3.027  14.032  1.00  0.00    -0.502 OA
ATOM     21  H   UNL     1      -7.857   2.481  14.230  1.00  0.00     0.293 HD
ENDBRANCH   2  20
BRANCH   6  22
ATOM     22  O   UNL     1      -9.101   7.795  13.889  1.00  0.00    -0.507 OA
ATOM     23  H   UNL     1      -9.589   8.649  13.646  1.00  0.00     0.293 HD
ENDBRANCH   6  22
BRANCH   8  24
ATOM     24  O   UNL     1      -6.143  10.212  16.863  1.00  0.00    -0.508 OA
ATOM     25  H   UNL     1      -6.481  10.452  17.788  1.00  0.00     0.293 HD
ENDBRANCH   8  24
TORSDOF 5
ENDMDL
MODEL 3
REMARK VINA RESULT:    23.632     10.099     10.675
REMARK INTER + INTRA:          27.639
REMARK INTER:                  27.105
REMARK INTRA:                   0.534
REMARK UNBOUND:                -0.138
REMARK SMILES O=c1c(O)c(-c2ccc(O)cc2)oc2cc(O)cc(O)c12
REMARK SMILES IDX 5 1 3 2 2 3 1 4 21 5 19 6 18 7 16 8 15 9 14 10 13 11 6 12
REMARK SMILES IDX 7 13 8 14 9 15 12 16 11 17 10 18 4 20 20 22 17 24
REMARK H PARENT 10 19 4 21 20 23 17 25
REMARK Flexibility Score: inf
ROOT
ATOM      1  C   UNL     1      -5.738  -2.554  13.106  1.00  0.00     0.180 A 
ATOM      2  C   UNL     1      -6.510  -1.943  12.099  1.00  0.00     0.208 A 
ATOM      3  C   UNL     1      -7.905  -1.902  12.246  1.00  0.00     0.238 A 
ATOM      4  O   UNL     1      -8.608  -1.368  11.344  1.00  0.00    -0.285 OA
ATOM      5  C   UNL     1      -8.501  -2.450  13.400  1.00  0.00     0.111 A 
ATOM      6  C   UNL     1      -9.899  -2.446  13.626  1.00  0.00     0.134 A 
ATOM      7  C   UNL     1     -10.415  -3.004  14.805  1.00  0.00     0.093 A 
ATOM      8  C   UNL     1      -9.560  -3.564  15.761  1.00  0.00     0.123 A 
ATOM      9  C   UNL     1      -8.182  -3.571  15.542  1.00  0.00     0.094 A 
ATOM     10  C   UNL     1      -7.648  -3.023  14.373  1.00  0.00     0.146 A 
ATOM     11  O   UNL     1      -6.333  -3.047  14.188  1.00  0.00    -0.452 OA
ENDROOT
BRANCH   1  12
ATOM     12  C   UNL     1      -4.263  -2.653  13.015  1.00  0.00     0.021 A 
ATOM     13  C   UNL     1      -3.577  -1.895  12.052  1.00  0.00     0.016 A 
ATOM     14  C   UNL     1      -2.183  -1.956  11.964  1.00  0.00     0.047 A 
ATOM     15  C   UNL     1      -1.456  -2.764  12.848  1.00  0.00     0.115 A 
ATOM     16  C   UNL     1      -3.525  -3.446  13.913  1.00  0.00     0.016 A 
ATOM     17  C   UNL     1      -2.131  -3.505  13.823  1.00  0.00     0.047 A 
BRANCH  15  18
ATOM     18  O   UNL     1      -0.067  -2.834  12.769  1.00  0.00    -0.508 OA
ATOM     19  H   UNL     1       0.522  -2.543  13.541  1.00  0.00     0.293 HD
ENDBRANCH  15  18
ENDBRANCH   1  12
BRANCH   2  20
ATOM     20  O   UNL     1      -5.890  -1.363  10.988  1.00  0.00    -0.502 OA
ATOM     21  H   UNL     1      -5.602  -0.392  10.974  1.00  0.00     0.293 HD
ENDBRANCH   2  20
BRANCH   6  22
ATOM     22  O   UNL     1     -10.775  -1.893  12.691  1.00  0.00    -0.507 OA
ATOM     23  H   UNL     1     -11.367  -2.473  12.107  1.00  0.00     0.293 HD
ENDBRANCH   6  22
BRANCH   8  24
ATOM     24  O   UNL     1     -10.072  -4.118  16.933  1.00  0.00    -0.508 OA
ATOM     25  H   UNL     1     -10.656  -4.946  16.917  1.00  0.00     0.293 HD
ENDBRANCH   8  24
TORSDOF 5
ENDMDL
MODEL 4
REMARK VINA RESULT:    24.223      1.237      3.094
REMARK INTER + INTRA:          28.334
REMARK INTER:                  28.527
REMARK INTRA:                  -0.194
REMARK UNBOUND:                -0.138
REMARK SMILES O=c1c(O)c(-c2ccc(O)cc2)oc2cc(O)cc(O)c12
REMARK SMILES IDX 5 1 3 2 2 3 1 4 21 5 19 6 18 7 16 8 15 9 14 10 13 11 6 12
REMARK SMILES IDX 7 13 8 14 9 15 12 16 11 17 10 18 4 20 20 22 17 24
REMARK H PARENT 10 19 4 21 20 23 17 25
REMARK Flexibility Score: inf
ROOT
ATOM      1  C   UNL     1      -5.860   7.579  16.603  1.00  0.00     0.180 A 
ATOM      2  C   UNL     1      -5.429   6.643  17.563  1.00  0.00     0.208 A 
ATOM      3  C   UNL     1      -5.785   5.295  17.402  1.00  0.00     0.238 A 
ATOM      4  O   UNL     1      -5.415   4.449  18.262  1.00  0.00    -0.285 OA
ATOM      5  C   UNL     1      -6.543   4.903  16.280  1.00  0.00     0.111 A 
ATOM      6  C   UNL     1      -6.940   3.565  16.043  1.00  0.00     0.134 A 
ATOM      7  C   UNL     1      -7.687   3.253  14.897  1.00  0.00     0.093 A 
ATOM      8  C   UNL     1      -8.043   4.253  13.985  1.00  0.00     0.123 A 
ATOM      9  C   UNL     1      -7.655   5.574  14.216  1.00  0.00     0.094 A 
ATOM     10  C   UNL     1      -6.913   5.906  15.353  1.00  0.00     0.146 A 
ATOM     11  O   UNL     1      -6.562   7.171  15.549  1.00  0.00    -0.452 OA
ENDROOT
BRANCH   1  12
ATOM     12  C   UNL     1      -5.542   9.022  16.712  1.00  0.00     0.021 A 
ATOM     13  C   UNL     1      -6.552   9.926  17.077  1.00  0.00     0.016 A 
ATOM     14  C   UNL     1      -6.269  11.290  17.208  1.00  0.00     0.047 A 
ATOM     15  C   UNL     1      -4.968  11.763  16.992  1.00  0.00     0.115 A 
ATOM     16  C   UNL     1      -4.234   9.501  16.517  1.00  0.00     0.016 A 
ATOM     17  C   UNL     1      -3.953  10.864  16.650  1.00  0.00     0.047 A 
BRANCH  15  18
ATOM     18  O   UNL     1      -4.674  13.117  17.119  1.00  0.00    -0.508 OA
ATOM     19  H   UNL     1      -5.172  13.820  16.585  1.00  0.00     0.293 HD
ENDBRANCH  15  18
ENDBRANCH   1  12
BRANCH   2  20
ATOM     20  O   UNL     1      -4.637   7.050  18.640  1.00  0.00    -0.502 OA
ATOM     21  H   UNL     1      -3.634   7.167  18.561  1.00  0.00     0.293 HD
ENDBRANCH   2  20
BRANCH   6  22
ATOM     22  O   UNL     1      -6.597   2.546  16.933  1.00  0.00    -0.507 OA
ATOM     23  H   UNL     1      -6.909   2.553  17.896  1.00  0.00     0.293 HD
ENDBRANCH   6  22
BRANCH   8  24
ATOM     24  O   UNL     1      -8.784   3.944  12.846  1.00  0.00    -0.508 OA
ATOM     25  H   UNL     1      -9.743   3.623  12.909  1.00  0.00     0.293 HD
ENDBRANCH   8  24
TORSDOF 5
ENDMDL
