MODEL 1
REMARK VINA RESULT:    -3.710      0.000      0.000
REMARK INTER + INTRA:          -4.979
REMARK INTER:                  -5.661
REMARK INTRA:                   0.683
REMARK UNBOUND:                 0.683
REMARK SMILES CC1=CCC[C@@H](C)C(=O)C[C@H](C(C)C)C(=O)C1
REMARK SMILES IDX 8 1 9 2 6 3 7 4 5 5 4 6 3 7 2 8 1 9 10 11 11 12 15 13 16 14
REMARK SMILES IDX 17 15 12 17 13 18 14 19
REMARK H PARENT
REMARK Flexibility Score: 70.00
ROOT
ATOM      1  C   UNL     1      -0.242   7.076  -9.530  1.00  0.00     0.136 C 
ATOM      2  O   UNL     1      -1.049   6.335  -8.986  1.00  0.00    -0.299 OA
ENDROOT
BRANCH   1   3
ATOM      3  C   UNL     1       1.137   7.264  -8.931  1.00  0.00     0.053 C 
ATOM      4  C   UNL     1       0.997   7.629  -7.450  1.00  0.00     0.016 C 
BRANCH   3   5
ATOM      5  C   UNL     1       1.973   8.337  -9.668  1.00  0.00     0.015 C 
BRANCH   5   6
ATOM      6  C   UNL     1       1.911   9.730  -9.015  1.00  0.00     0.028 C 
BRANCH   6   7
ATOM      7  C   UNL     1       2.287  10.816  -9.996  1.00  0.00    -0.028 C 
ATOM      8  C   UNL     1       1.784  10.955 -11.243  1.00  0.00    -0.070 CG0
ATOM      9  C   UNL     1       2.261  12.121 -12.072  1.00  0.00     0.039 C 
ATOM     10  G   UNL     1       0.776   9.993 -11.839  1.00  0.00     0.000 G0
ENDBRANCH   6   7
ENDBRANCH   5   6
ENDBRANCH   3   5
ENDBRANCH   1   3
BRANCH   1  11
ATOM     11  C   UNL     1      -0.609   7.729 -10.841  1.00  0.00     0.087 C 
BRANCH  11  12
ATOM     12  C   UNL     1      -1.378   9.058 -10.646  1.00  0.00     0.066 C 
BRANCH  12  13
ATOM     13  C   UNL     1      -0.614  10.190 -11.318  1.00  0.00     0.140 C 
ATOM     14  O   UNL     1      -1.121  11.300 -11.384  1.00  0.00    -0.299 OA
BRANCH  13  15
ATOM     15  C   UNL     1       0.786   9.992 -11.840  1.00  0.00     0.106 CG0
ATOM     16  G   UNL     1       1.775  10.961 -11.222  1.00  0.00     0.000 G0
ENDBRANCH  13  15
ENDBRANCH  12  13
BRANCH  12  17
ATOM     17  C   UNL     1      -2.837   8.981 -11.203  1.00  0.00    -0.006 C 
ATOM     18  C   UNL     1      -3.856   9.510 -10.178  1.00  0.00     0.008 C 
ATOM     19  C   UNL     1      -3.234   7.548 -11.602  1.00  0.00     0.008 C 
ENDBRANCH  12  17
ENDBRANCH  11  12
ENDBRANCH   1  11
TORSDOF 1
ENDMDL
MODEL 2
REMARK VINA RESULT:    -3.416      9.895     11.496
REMARK INTER + INTRA:          -4.530
REMARK INTER:                  -4.812
REMARK INTRA:                   0.281
REMARK UNBOUND:                 0.683
REMARK SMILES CC1=CCC[C@@H](C)C(=O)C[C@H](C(C)C)C(=O)C1
REMARK SMILES IDX 8 1 9 2 6 3 7 4 5 5 4 6 3 7 2 8 1 9 10 11 11 12 15 13 16 14
REMARK SMILES IDX 17 15 12 17 13 18 14 19
REMARK H PARENT
REMARK Flexibility Score: 70.00
ROOT
ATOM      1  C   UNL     1      10.663   9.368  -5.030  1.00  0.00     0.136 C 
ATOM      2  O   UNL     1      10.780   8.156  -5.144  1.00  0.00    -0.299 OA
ENDROOT
BRANCH   1   3
ATOM      3  C   UNL     1      11.855  10.211  -4.625  1.00  0.00     0.053 C 
ATOM      4  C   UNL     1      11.449  11.689  -4.624  1.00  0.00     0.016 C 
BRANCH   3   5
ATOM      5  C   UNL     1      13.083   9.996  -5.540  1.00  0.00     0.015 C 
BRANCH   5   6
ATOM      6  C   UNL     1      12.933  10.621  -6.939  1.00  0.00     0.028 C 
BRANCH   6   7
ATOM      7  C   UNL     1      12.769   9.559  -8.002  1.00  0.00    -0.028 C 
ATOM      8  C   UNL     1      11.758   9.495  -8.897  1.00  0.00    -0.070 CG0
ATOM      9  C   UNL     1      11.775   8.372  -9.904  1.00  0.00     0.039 C 
ATOM     10  G   UNL     1      10.615  10.489  -8.924  1.00  0.00     0.000 G0
ENDBRANCH   6   7
ENDBRANCH   5   6
ENDBRANCH   3   5
ENDBRANCH   1   3
BRANCH   1  11
ATOM     11  C   UNL     1       9.344  10.016  -5.379  1.00  0.00     0.087 C 
BRANCH  11  12
ATOM     12  C   UNL     1       9.458  10.976  -6.588  1.00  0.00     0.066 C 
BRANCH  12  13
ATOM     13  C   UNL     1       9.565  10.165  -7.871  1.00  0.00     0.140 C 
ATOM     14  O   UNL     1       8.759   9.271  -8.086  1.00  0.00    -0.299 OA
BRANCH  13  15
ATOM     15  C   UNL     1      10.598  10.486  -8.921  1.00  0.00     0.106 CG0
ATOM     16  G   UNL     1      11.752   9.503  -8.915  1.00  0.00     0.000 G0
ENDBRANCH  13  15
ENDBRANCH  12  13
BRANCH  12  17
ATOM     17  C   UNL     1       8.250  11.966  -6.670  1.00  0.00    -0.006 C 
ATOM     18  C   UNL     1       8.578  13.174  -7.565  1.00  0.00     0.008 C 
ATOM     19  C   UNL     1       7.822  12.478  -5.283  1.00  0.00     0.008 C 
ENDBRANCH  12  17
ENDBRANCH  11  12
ENDBRANCH   1  11
TORSDOF 1
ENDMDL
MODEL 3
REMARK VINA RESULT:    -3.282      9.383     11.126
REMARK INTER + INTRA:          -4.326
REMARK INTER:                  -4.412
REMARK INTRA:                   0.086
REMARK UNBOUND:                 0.683
REMARK SMILES CC1=CCC[C@@H](C)C(=O)C[C@H](C(C)C)C(=O)C1
REMARK SMILES IDX 8 1 9 2 6 3 7 4 5 5 4 6 3 7 2 8 1 9 10 11 11 12 15 13 16 14
REMARK SMILES IDX 17 15 12 17 13 18 14 19
REMARK H PARENT
REMARK Flexibility Score: 70.00
ROOT
ATOM      1  C   UNL     1       8.770  11.096  -5.731  1.00  0.00     0.136 C 
ATOM      2  O   UNL     1       8.207  10.078  -5.351  1.00  0.00    -0.299 OA
ENDROOT
BRANCH   1   3
ATOM      3  C   UNL     1       8.027  12.416  -5.735  1.00  0.00     0.053 C 
ATOM      4  C   UNL     1       6.899  12.361  -4.698  1.00  0.00     0.016 C 
BRANCH   3   5
ATOM      5  C   UNL     1       7.455  12.782  -7.125  1.00  0.00     0.015 C 
BRANCH   5   6
ATOM      6  C   UNL     1       8.527  13.201  -8.147  1.00  0.00     0.028 C 
BRANCH   6   7
ATOM      7  C   UNL     1       8.536  12.281  -9.346  1.00  0.00    -0.028 C 
ATOM      8  C   UNL     1       9.530  11.424  -9.669  1.00  0.00    -0.070 CG0
ATOM      9  C   UNL     1       9.350  10.562 -10.894  1.00  0.00     0.039 C 
ATOM     10  G   UNL     1      10.808  11.299  -8.864  1.00  0.00     0.000 G0
ENDBRANCH   6   7
ENDBRANCH   5   6
ENDBRANCH   3   5
ENDBRANCH   1   3
BRANCH   1  11
ATOM     11  C   UNL     1      10.229  11.031  -6.112  1.00  0.00     0.087 C 
BRANCH  11  12
ATOM     12  C   UNL     1      10.605   9.693  -6.794  1.00  0.00     0.066 C 
BRANCH  12  13
ATOM     13  C   UNL     1      10.989   9.953  -8.243  1.00  0.00     0.140 C 
ATOM     14  O   UNL     1      11.393   9.028  -8.933  1.00  0.00    -0.299 OA
BRANCH  13  15
ATOM     15  C   UNL     1      10.816  11.312  -8.872  1.00  0.00     0.106 CG0
ATOM     16  G   UNL     1       9.525  11.424  -9.659  1.00  0.00     0.000 G0
ENDBRANCH  13  15
ENDBRANCH  12  13
BRANCH  12  17
ATOM     17  C   UNL     1      11.764   8.956  -6.048  1.00  0.00    -0.006 C 
ATOM     18  C   UNL     1      11.255   8.264  -4.770  1.00  0.00     0.008 C 
ATOM     19  C   UNL     1      12.913   9.908  -5.672  1.00  0.00     0.008 C 
ENDBRANCH  12  17
ENDBRANCH  11  12
ENDBRANCH   1  11
TORSDOF 1
ENDMDL
MODEL 4
REMARK VINA RESULT:    -3.216     10.297     11.863
REMARK INTER + INTRA:          -4.225
REMARK INTER:                  -4.545
REMARK INTRA:                   0.320
REMARK UNBOUND:                 0.683
REMARK SMILES CC1=CCC[C@@H](C)C(=O)C[C@H](C(C)C)C(=O)C1
REMARK SMILES IDX 8 1 9 2 6 3 7 4 5 5 4 6 3 7 2 8 1 9 10 11 11 12 15 13 16 14
REMARK SMILES IDX 17 15 12 17 13 18 14 19
REMARK H PARENT
REMARK Flexibility Score: 70.00
ROOT
ATOM      1  C   UNL     1      11.768   9.151  -6.020  1.00  0.00     0.136 C 
ATOM      2  O   UNL     1      11.396   8.181  -5.374  1.00  0.00    -0.299 OA
ENDROOT
BRANCH   1   3
ATOM      3  C   UNL     1      11.330  10.544  -5.615  1.00  0.00     0.053 C 
ATOM      4  C   UNL     1      12.017  10.924  -4.299  1.00  0.00     0.016 C 
BRANCH   3   5
ATOM      5  C   UNL     1       9.795  10.676  -5.473  1.00  0.00     0.015 C 
BRANCH   5   6
ATOM      6  C   UNL     1       9.023  10.387  -6.773  1.00  0.00     0.028 C 
BRANCH   6   7
ATOM      7  C   UNL     1       9.036  11.581  -7.699  1.00  0.00    -0.028 C 
ATOM      8  C   UNL     1       9.546  11.596  -8.951  1.00  0.00    -0.070 CG0
ATOM      9  C   UNL     1       9.446  12.878  -9.739  1.00  0.00     0.039 C 
ATOM     10  G   UNL     1      10.213  10.393  -9.587  1.00  0.00     0.000 G0
ENDBRANCH   6   7
ENDBRANCH   5   6
ENDBRANCH   3   5
ENDBRANCH   1   3
BRANCH   1  11
ATOM     11  C   UNL     1      12.730   8.948  -7.165  1.00  0.00     0.087 C 
BRANCH  11  12
ATOM     12  C   UNL     1      12.007   8.767  -8.522  1.00  0.00     0.066 C 
BRANCH  12  13
ATOM     13  C   UNL     1      11.605  10.129  -9.069  1.00  0.00     0.140 C 
ATOM     14  O   UNL     1      12.443  11.016  -9.145  1.00  0.00    -0.299 OA
BRANCH  13  15
ATOM     15  C   UNL     1      10.214  10.389  -9.589  1.00  0.00     0.106 CG0
ATOM     16  G   UNL     1       9.576  11.604  -8.946  1.00  0.00     0.000 G0
ENDBRANCH  13  15
ENDBRANCH  12  13
BRANCH  12  17
ATOM     17  C   UNL     1      12.888   8.001  -9.562  1.00  0.00    -0.006 C 
ATOM     18  C   UNL     1      12.476   8.345 -11.005  1.00  0.00     0.008 C 
ATOM     19  C   UNL     1      12.816   6.475  -9.376  1.00  0.00     0.008 C 
ENDBRANCH  12  17
ENDBRANCH  11  12
ENDBRANCH   1  11
TORSDOF 1
ENDMDL
MODEL 5
REMARK VINA RESULT:    -3.206      9.886     11.397
REMARK INTER + INTRA:          -4.210
REMARK INTER:                  -4.213
REMARK INTRA:                   0.003
REMARK UNBOUND:                 0.683
REMARK SMILES CC1=CCC[C@@H](C)C(=O)C[C@H](C(C)C)C(=O)C1
REMARK SMILES IDX 8 1 9 2 6 3 7 4 5 5 4 6 3 7 2 8 1 9 10 11 11 12 15 13 16 14
REMARK SMILES IDX 17 15 12 17 13 18 14 19
REMARK H PARENT
REMARK Flexibility Score: 70.00
ROOT
ATOM      1  C   UNL     1      12.061   8.616  -7.246  1.00  0.00     0.136 C 
ATOM      2  O   UNL     1      11.979   7.443  -7.586  1.00  0.00    -0.299 OA
ENDROOT
BRANCH   1   3
ATOM      3  C   UNL     1      11.907   8.995  -5.787  1.00  0.00     0.053 C 
ATOM      4  C   UNL     1      11.238   7.839  -5.036  1.00  0.00     0.016 C 
BRANCH   3   5
ATOM      5  C   UNL     1      11.100  10.299  -5.586  1.00  0.00     0.015 C 
BRANCH   5   6
ATOM      6  C   UNL     1       9.602  10.160  -5.910  1.00  0.00     0.028 C 
BRANCH   6   7
ATOM      7  C   UNL     1       9.011  11.476  -6.362  1.00  0.00    -0.028 C 
ATOM      8  C   UNL     1       8.742  11.817  -7.642  1.00  0.00    -0.070 CG0
ATOM      9  C   UNL     1       8.127  13.170  -7.899  1.00  0.00     0.039 C 
ATOM     10  G   UNL     1       9.037  10.908  -8.818  1.00  0.00     0.000 G0
ENDBRANCH   6   7
ENDBRANCH   5   6
ENDBRANCH   3   5
ENDBRANCH   1   3
BRANCH   1  11
ATOM     11  C   UNL     1      12.401   9.660  -8.282  1.00  0.00     0.087 C 
BRANCH  11  12
ATOM     12  C   UNL     1      11.346   9.738  -9.413  1.00  0.00     0.066 C 
BRANCH  12  13
ATOM     13  C   UNL     1      10.503  10.992  -9.234  1.00  0.00     0.140 C 
ATOM     14  O   UNL     1      10.989  12.084  -9.488  1.00  0.00    -0.299 OA
BRANCH  13  15
ATOM     15  C   UNL     1       9.055  10.915  -8.820  1.00  0.00     0.106 CG0
ATOM     16  G   UNL     1       8.740  11.824  -7.649  1.00  0.00     0.000 G0
ENDBRANCH  13  15
ENDBRANCH  12  13
BRANCH  12  17
ATOM     17  C   UNL     1      12.001   9.722 -10.832  1.00  0.00    -0.006 C 
ATOM     18  C   UNL     1      10.937   9.605 -11.938  1.00  0.00     0.008 C 
ATOM     19  C   UNL     1      13.012   8.572 -10.994  1.00  0.00     0.008 C 
ENDBRANCH  12  17
ENDBRANCH  11  12
ENDBRANCH   1  11
TORSDOF 1
ENDMDL
MODEL 6
REMARK VINA RESULT:    -3.157      9.666     11.283
REMARK INTER + INTRA:          -4.136
REMARK INTER:                  -4.474
REMARK INTRA:                   0.339
REMARK UNBOUND:                 0.683
REMARK SMILES CC1=CCC[C@@H](C)C(=O)C[C@H](C(C)C)C(=O)C1
REMARK SMILES IDX 8 1 9 2 6 3 7 4 5 5 4 6 3 7 2 8 1 9 10 11 11 12 15 13 16 14
REMARK SMILES IDX 17 15 12 17 13 18 14 19
REMARK H PARENT
REMARK Flexibility Score: 70.00
ROOT
ATOM      1  C   UNL     1       9.355  10.974  -9.278  1.00  0.00     0.136 C 
ATOM      2  O   UNL     1       8.241  10.718  -9.714  1.00  0.00    -0.299 OA
ENDROOT
BRANCH   1   3
ATOM      3  C   UNL     1      10.583  10.396  -9.950  1.00  0.00     0.053 C 
ATOM      4  C   UNL     1      10.280  10.158 -11.433  1.00  0.00     0.016 C 
BRANCH   3   5
ATOM      5  C   UNL     1      11.070   9.084  -9.289  1.00  0.00     0.015 C 
BRANCH   5   6
ATOM      6  C   UNL     1      12.266   9.273  -8.338  1.00  0.00     0.028 C 
BRANCH   6   7
ATOM      7  C   UNL     1      12.054   8.541  -7.033  1.00  0.00    -0.028 C 
ATOM      8  C   UNL     1      11.382   9.022  -5.964  1.00  0.00    -0.070 CG0
ATOM      9  C   UNL     1      11.250   8.134  -4.752  1.00  0.00     0.039 C 
ATOM     10  G   UNL     1      10.768  10.408  -5.930  1.00  0.00     0.000 G0
ENDBRANCH   6   7
ENDBRANCH   5   6
ENDBRANCH   3   5
ENDBRANCH   1   3
BRANCH   1  11
ATOM     11  C   UNL     1       9.490  11.938  -8.124  1.00  0.00     0.087 C 
BRANCH  11  12
ATOM     12  C   UNL     1       8.604  11.543  -6.916  1.00  0.00     0.066 C 
BRANCH  12  13
ATOM     13  C   UNL     1       9.282  10.428  -6.133  1.00  0.00     0.140 C 
ATOM     14  O   UNL     1       8.613   9.491  -5.720  1.00  0.00    -0.299 OA
BRANCH  13  15
ATOM     15  C   UNL     1      10.774  10.413  -5.917  1.00  0.00     0.106 CG0
ATOM     16  G   UNL     1      11.348   9.010  -5.954  1.00  0.00     0.000 G0
ENDBRANCH  13  15
ENDBRANCH  12  13
BRANCH  12  17
ATOM     17  C   UNL     1       8.305  12.760  -5.981  1.00  0.00    -0.006 C 
ATOM     18  C   UNL     1       6.791  12.988  -5.827  1.00  0.00     0.008 C 
ATOM     19  C   UNL     1       8.954  14.059  -6.492  1.00  0.00     0.008 C 
ENDBRANCH  12  17
ENDBRANCH  11  12
ENDBRANCH   1  11
TORSDOF 1
ENDMDL
MODEL 7
REMARK VINA RESULT:    -3.086      1.755      4.134
REMARK INTER + INTRA:          -4.027
REMARK INTER:                  -4.158
REMARK INTRA:                   0.131
REMARK UNBOUND:                 0.683
REMARK SMILES CC1=CCC[C@@H](C)C(=O)C[C@H](C(C)C)C(=O)C1
REMARK SMILES IDX 8 1 9 2 6 3 7 4 5 5 4 6 3 7 2 8 1 9 10 11 11 12 15 13 16 14
REMARK SMILES IDX 17 15 12 17 13 18 14 19
REMARK H PARENT
REMARK Flexibility Score: 70.00
ROOT
ATOM      1  C   UNL     1       0.653   8.073  -8.560  1.00  0.00     0.136 C 
ATOM      2  O   UNL     1       1.525   7.622  -7.830  1.00  0.00    -0.299 OA
ENDROOT
BRANCH   1   3
ATOM      3  C   UNL     1      -0.598   7.264  -8.835  1.00  0.00     0.053 C 
ATOM      4  C   UNL     1      -0.494   6.634 -10.228  1.00  0.00     0.016 C 
BRANCH   3   5
ATOM      5  C   UNL     1      -1.893   8.102  -8.724  1.00  0.00     0.015 C 
BRANCH   5   6
ATOM      6  C   UNL     1      -2.708   8.163 -10.029  1.00  0.00     0.028 C 
BRANCH   6   7
ATOM      7  C   UNL     1      -3.264   9.548 -10.268  1.00  0.00    -0.028 C 
ATOM      8  C   UNL     1      -2.737  10.471 -11.103  1.00  0.00    -0.070 CG0
ATOM      9  C   UNL     1      -3.448  11.796 -11.232  1.00  0.00     0.039 C 
ATOM     10  G   UNL     1      -1.470  10.236 -11.901  1.00  0.00     0.000 G0
ENDBRANCH   6   7
ENDBRANCH   5   6
ENDBRANCH   3   5
ENDBRANCH   1   3
BRANCH   1  11
ATOM     11  C   UNL     1       0.804   9.471  -9.110  1.00  0.00     0.087 C 
BRANCH  11  12
ATOM     12  C   UNL     1       0.764   9.506 -10.657  1.00  0.00     0.066 C 
BRANCH  12  13
ATOM     13  C   UNL     1      -0.213  10.580 -11.115  1.00  0.00     0.140 C 
ATOM     14  O   UNL     1       0.045  11.756 -10.903  1.00  0.00    -0.299 OA
BRANCH  13  15
ATOM     15  C   UNL     1      -1.458  10.232 -11.889  1.00  0.00     0.106 CG0
ATOM     16  G   UNL     1      -2.723  10.492 -11.096  1.00  0.00     0.000 G0
ENDBRANCH  13  15
ENDBRANCH  12  13
BRANCH  12  17
ATOM     17  C   UNL     1       2.177   9.757 -11.277  1.00  0.00    -0.006 C 
ATOM     18  C   UNL     1       2.935   8.435 -11.494  1.00  0.00     0.008 C 
ATOM     19  C   UNL     1       3.040  10.686 -10.404  1.00  0.00     0.008 C 
ENDBRANCH  12  17
ENDBRANCH  11  12
ENDBRANCH   1  11
TORSDOF 1
ENDMDL
MODEL 8
REMARK VINA RESULT:    -2.809      9.993     11.746
REMARK INTER + INTRA:          -3.605
REMARK INTER:                  -4.191
REMARK INTRA:                   0.587
REMARK UNBOUND:                 0.683
REMARK SMILES CC1=CCC[C@@H](C)C(=O)C[C@H](C(C)C)C(=O)C1
REMARK SMILES IDX 8 1 9 2 6 3 7 4 5 5 4 6 3 7 2 8 1 9 10 11 11 12 15 13 16 14
REMARK SMILES IDX 17 15 12 17 13 18 14 19
REMARK H PARENT
REMARK Flexibility Score: 70.00
ROOT
ATOM      1  C   UNL     1      10.039  10.013  -6.477  1.00  0.00     0.136 C 
ATOM      2  O   UNL     1      10.021   9.675  -7.653  1.00  0.00    -0.299 OA
ENDROOT
BRANCH   1   3
ATOM      3  C   UNL     1      11.216   9.639  -5.599  1.00  0.00     0.053 C 
ATOM      4  C   UNL     1      10.875   8.365  -4.818  1.00  0.00     0.016 C 
BRANCH   3   5
ATOM      5  C   UNL     1      11.622  10.769  -4.624  1.00  0.00     0.015 C 
BRANCH   5   6
ATOM      6  C   UNL     1      12.822  11.605  -5.106  1.00  0.00     0.028 C 
BRANCH   6   7
ATOM      7  C   UNL     1      12.957  11.559  -6.610  1.00  0.00    -0.028 C 
ATOM      8  C   UNL     1      12.317  12.373  -7.480  1.00  0.00    -0.070 CG0
ATOM      9  C   UNL     1      12.597  12.195  -8.951  1.00  0.00     0.039 C 
ATOM     10  G   UNL     1      11.334  13.440  -7.042  1.00  0.00     0.000 G0
ENDBRANCH   6   7
ENDBRANCH   5   6
ENDBRANCH   3   5
ENDBRANCH   1   3
BRANCH   1  11
ATOM     11  C   UNL     1       8.920  10.873  -5.941  1.00  0.00     0.087 C 
BRANCH  11  12
ATOM     12  C   UNL     1       9.367  12.334  -5.685  1.00  0.00     0.066 C 
BRANCH  12  13
ATOM     13  C   UNL     1       9.915  12.930  -6.973  1.00  0.00     0.140 C 
ATOM     14  O   UNL     1       9.176  13.054  -7.940  1.00  0.00    -0.299 OA
BRANCH  13  15
ATOM     15  C   UNL     1      11.330  13.442  -7.065  1.00  0.00     0.106 CG0
ATOM     16  G   UNL     1      12.309  12.362  -7.481  1.00  0.00     0.000 G0
ENDBRANCH  13  15
ENDBRANCH  12  13
BRANCH  12  17
ATOM     17  C   UNL     1       8.203  13.217  -5.129  1.00  0.00    -0.006 C 
ATOM     18  C   UNL     1       8.450  13.607  -3.660  1.00  0.00     0.008 C 
ATOM     19  C   UNL     1       6.838  12.514  -5.232  1.00  0.00     0.008 C 
ENDBRANCH  12  17
ENDBRANCH  11  12
ENDBRANCH   1  11
TORSDOF 1
ENDMDL
MODEL 9
REMARK VINA RESULT:    -2.788      9.662     11.934
REMARK INTER + INTRA:          -3.573
REMARK INTER:                  -4.421
REMARK INTRA:                   0.848
REMARK UNBOUND:                 0.683
REMARK SMILES CC1=CCC[C@@H](C)C(=O)C[C@H](C(C)C)C(=O)C1
REMARK SMILES IDX 8 1 9 2 6 3 7 4 5 5 4 6 3 7 2 8 1 9 10 11 11 12 15 13 16 14
REMARK SMILES IDX 17 15 12 17 13 18 14 19
REMARK H PARENT
REMARK Flexibility Score: 70.00
ROOT
ATOM      1  C   UNL     1       9.443  10.271  -9.149  1.00  0.00     0.136 C 
ATOM      2  O   UNL     1       8.833   9.257  -8.840  1.00  0.00    -0.299 OA
ENDROOT
BRANCH   1   3
ATOM      3  C   UNL     1       9.278  10.862 -10.534  1.00  0.00     0.053 C 
ATOM      4  C   UNL     1       7.854  10.589 -11.031  1.00  0.00     0.016 C 
BRANCH   3   5
ATOM      5  C   UNL     1      10.310  10.317 -11.550  1.00  0.00     0.015 C 
BRANCH   5   6
ATOM      6  C   UNL     1      11.717  10.113 -10.958  1.00  0.00     0.028 C 
BRANCH   6   7
ATOM      7  C   UNL     1      11.935   8.678 -10.537  1.00  0.00    -0.028 C 
ATOM      8  C   UNL     1      12.288   8.269  -9.298  1.00  0.00    -0.070 CG0
ATOM      9  C   UNL     1      12.437   6.788  -9.057  1.00  0.00     0.039 C 
ATOM     10  G   UNL     1      12.546   9.229  -8.154  1.00  0.00     0.000 G0
ENDBRANCH   6   7
ENDBRANCH   5   6
ENDBRANCH   3   5
ENDBRANCH   1   3
BRANCH   1  11
ATOM     11  C   UNL     1      10.290  10.967  -8.111  1.00  0.00     0.087 C 
BRANCH  11  12
ATOM     12  C   UNL     1      10.455  10.126  -6.821  1.00  0.00     0.066 C 
BRANCH  12  13
ATOM     13  C   UNL     1      11.559   9.099  -7.023  1.00  0.00     0.140 C 
ATOM     14  O   UNL     1      11.602   8.113  -6.302  1.00  0.00    -0.299 OA
BRANCH  13  15
ATOM     15  C   UNL     1      12.561   9.231  -8.142  1.00  0.00     0.106 CG0
ATOM     16  G   UNL     1      12.282   8.273  -9.283  1.00  0.00     0.000 G0
ENDBRANCH  13  15
ENDBRANCH  12  13
BRANCH  12  17
ATOM     17  C   UNL     1      10.761  11.015  -5.573  1.00  0.00    -0.006 C 
ATOM     18  C   UNL     1       9.687  12.101  -5.382  1.00  0.00     0.008 C 
ATOM     19  C   UNL     1      12.140  11.693  -5.664  1.00  0.00     0.008 C 
ENDBRANCH  12  17
ENDBRANCH  11  12
ENDBRANCH   1  11
TORSDOF 1
ENDMDL
