MODEL 1
REMARK VINA RESULT:    -3.448      0.000      0.000
REMARK INTER + INTRA:          -4.775
REMARK INTER:                  -4.657
REMARK INTRA:                  -0.118
REMARK UNBOUND:                -0.118
REMARK SMILES [NH3+]CCCC[C@H]([NH3+])C(=O)[O-]
REMARK SMILES IDX 4 1 3 2 2 3 1 4 5 8 6 9 7 10 8 14 9 15 10 16
REMARK H PARENT 1 5 1 6 1 7 7 11 7 12 7 13
REMARK Flexibility Score: inf
ROOT
ATOM      1  C   UNL     1      44.580  30.587  89.414  1.00  0.00     0.012 C 
ENDROOT
BRANCH   1   2
ATOM      2  C   UNL     1      45.406  31.330  90.471  1.00  0.00     0.061 C 
BRANCH   2   3
ATOM      3  C   UNL     1      44.631  31.456  91.790  1.00  0.00     0.258 C 
BRANCH   3   4
ATOM      4  N   UNL     1      44.890  32.746  92.428  1.00  0.00    -0.358 N 
ATOM      5  H   UNL     1      44.723  32.676  93.459  1.00  0.00     0.344 HD
ATOM      6  H   UNL     1      45.876  33.044  92.248  1.00  0.00     0.344 HD
ATOM      7  H   UNL     1      44.241  33.462  92.028  1.00  0.00     0.344 HD
ENDBRANCH   3   4
ENDBRANCH   2   3
ENDBRANCH   1   2
BRANCH   1   8
ATOM      8  C   UNL     1      43.458  31.486  88.864  1.00  0.00     0.072 C 
BRANCH   8   9
ATOM      9  C   UNL     1      42.434  30.749  87.970  1.00  0.00     0.227 C 
BRANCH   9  10
ATOM     10  N   UNL     1      42.190  31.458  86.707  1.00  0.00    -0.350 N 
ATOM     11  H   UNL     1      42.186  30.801  85.893  1.00  0.00     0.345 HD
ATOM     12  H   UNL     1      41.272  31.956  86.750  1.00  0.00     0.345 HD
ATOM     13  H   UNL     1      42.941  32.171  86.557  1.00  0.00     0.345 HD
ENDBRANCH   9  10
BRANCH   9  14
ATOM     14  C   UNL     1      41.149  30.474  88.710  1.00  0.00     0.099 C 
ATOM     15  O   UNL     1      41.137  29.749  89.741  1.00  0.00    -0.544 OA
ATOM     16  O   UNL     1      39.952  30.984  88.222  1.00  0.00    -0.544 OA
ENDBRANCH   9  14
ENDBRANCH   8   9
ENDBRANCH   1   8
TORSDOF 7
ENDMDL
MODEL 2
REMARK VINA RESULT:    -3.412     17.668     18.769
REMARK INTER + INTRA:          -4.727
REMARK INTER:                  -4.355
REMARK INTRA:                  -0.372
REMARK UNBOUND:                -0.118
REMARK SMILES [NH3+]CCCC[C@H]([NH3+])C(=O)[O-]
REMARK SMILES IDX 4 1 3 2 2 3 1 4 5 8 6 9 7 10 8 14 9 15 10 16
REMARK H PARENT 1 5 1 6 1 7 7 11 7 12 7 13
REMARK Flexibility Score: inf
ROOT
ATOM      1  C   UNL     1      46.277  18.298  75.193  1.00  0.00     0.012 C 
ENDROOT
BRANCH   1   2
ATOM      2  C   UNL     1      45.957  17.759  76.592  1.00  0.00     0.061 C 
BRANCH   2   3
ATOM      3  C   UNL     1      46.208  18.826  77.666  1.00  0.00     0.258 C 
BRANCH   3   4
ATOM      4  N   UNL     1      47.482  18.596  78.345  1.00  0.00    -0.358 N 
ATOM      5  H   UNL     1      48.249  19.116  77.856  1.00  0.00     0.344 HD
ATOM      6  H   UNL     1      47.422  18.911  79.340  1.00  0.00     0.344 HD
ATOM      7  H   UNL     1      47.702  17.574  78.326  1.00  0.00     0.344 HD
ENDBRANCH   3   4
ENDBRANCH   2   3
ENDBRANCH   1   2
BRANCH   1   8
ATOM      8  C   UNL     1      46.265  19.838  75.183  1.00  0.00     0.072 C 
BRANCH   8   9
ATOM      9  C   UNL     1      47.329  20.476  74.260  1.00  0.00     0.227 C 
BRANCH   9  10
ATOM     10  N   UNL     1      47.737  19.571  73.176  1.00  0.00    -0.350 N 
ATOM     11  H   UNL     1      47.367  19.889  72.252  1.00  0.00     0.345 HD
ATOM     12  H   UNL     1      48.780  19.520  73.130  1.00  0.00     0.345 HD
ATOM     13  H   UNL     1      47.372  18.610  73.369  1.00  0.00     0.345 HD
ENDBRANCH   9  10
BRANCH   9  14
ATOM     14  C   UNL     1      48.517  20.974  75.045  1.00  0.00     0.099 C 
ATOM     15  O   UNL     1      49.489  21.529  74.466  1.00  0.00    -0.544 OA
ATOM     16  O   UNL     1      48.566  20.774  76.419  1.00  0.00    -0.544 OA
ENDBRANCH   9  14
ENDBRANCH   8   9
ENDBRANCH   1   8
TORSDOF 7
ENDMDL
MODEL 3
REMARK VINA RESULT:    -3.397      2.421      4.695
REMARK INTER + INTRA:          -4.707
REMARK INTER:                  -4.286
REMARK INTRA:                  -0.421
REMARK UNBOUND:                -0.118
REMARK SMILES [NH3+]CCCC[C@H]([NH3+])C(=O)[O-]
REMARK SMILES IDX 4 1 3 2 2 3 1 4 5 8 6 9 7 10 8 14 9 15 10 16
REMARK H PARENT 1 5 1 6 1 7 7 11 7 12 7 13
REMARK Flexibility Score: inf
ROOT
ATOM      1  C   UNL     1      41.142  29.873  89.697  1.00  0.00     0.012 C 
ENDROOT
BRANCH   1   2
ATOM      2  C   UNL     1      40.593  30.544  88.433  1.00  0.00     0.061 C 
BRANCH   2   3
ATOM      3  C   UNL     1      41.581  30.416  87.266  1.00  0.00     0.258 C 
BRANCH   3   4
ATOM      4  N   UNL     1      42.007  31.732  86.794  1.00  0.00    -0.358 N 
ATOM      5  H   UNL     1      41.304  32.457  87.068  1.00  0.00     0.344 HD
ATOM      6  H   UNL     1      42.941  31.974  87.199  1.00  0.00     0.344 HD
ATOM      7  H   UNL     1      42.085  31.714  85.751  1.00  0.00     0.344 HD
ENDBRANCH   3   4
ENDBRANCH   2   3
ENDBRANCH   1   2
BRANCH   1   8
ATOM      8  C   UNL     1      42.586  29.389  89.477  1.00  0.00     0.072 C 
BRANCH   8   9
ATOM      9  C   UNL     1      43.570  29.794  90.600  1.00  0.00     0.227 C 
BRANCH   9  10
ATOM     10  N   UNL     1      42.896  29.960  91.895  1.00  0.00    -0.350 N 
ATOM     11  H   UNL     1      43.260  29.285  92.605  1.00  0.00     0.345 HD
ATOM     12  H   UNL     1      43.033  30.934  92.245  1.00  0.00     0.345 HD
ATOM     13  H   UNL     1      41.869  29.797  91.776  1.00  0.00     0.345 HD
ENDBRANCH   9  10
BRANCH   9  14
ATOM     14  C   UNL     1      44.363  31.021  90.226  1.00  0.00     0.099 C 
ATOM     15  O   UNL     1      44.071  31.693  89.200  1.00  0.00    -0.544 OA
ATOM     16  O   UNL     1      45.461  31.391  90.993  1.00  0.00    -0.544 OA
ENDBRANCH   9  14
ENDBRANCH   8   9
ENDBRANCH   1   8
TORSDOF 7
ENDMDL
MODEL 4
REMARK VINA RESULT:    -3.353      9.836     10.834
REMARK INTER + INTRA:          -4.647
REMARK INTER:                  -4.260
REMARK INTRA:                  -0.387
REMARK UNBOUND:                -0.118
REMARK SMILES [NH3+]CCCC[C@H]([NH3+])C(=O)[O-]
REMARK SMILES IDX 4 1 3 2 2 3 1 4 5 8 6 9 7 10 8 14 9 15 10 16
REMARK H PARENT 1 5 1 6 1 7 7 11 7 12 7 13
REMARK Flexibility Score: inf
ROOT
ATOM      1  C   UNL     1      50.863  35.752  87.234  1.00  0.00     0.012 C 
ENDROOT
BRANCH   1   2
ATOM      2  C   UNL     1      49.357  35.862  86.968  1.00  0.00     0.061 C 
BRANCH   2   3
ATOM      3  C   UNL     1      48.906  34.841  85.915  1.00  0.00     0.258 C 
BRANCH   3   4
ATOM      4  N   UNL     1      48.611  35.497  84.643  1.00  0.00    -0.358 N 
ATOM      5  H   UNL     1      48.524  34.783  83.882  1.00  0.00     0.344 HD
ATOM      6  H   UNL     1      47.722  36.044  84.717  1.00  0.00     0.344 HD
ATOM      7  H   UNL     1      49.391  36.151  84.404  1.00  0.00     0.344 HD
ENDBRANCH   3   4
ENDBRANCH   2   3
ENDBRANCH   1   2
BRANCH   1   8
ATOM      8  C   UNL     1      51.432  34.454  86.634  1.00  0.00     0.072 C 
BRANCH   8   9
ATOM      9  C   UNL     1      52.794  34.627  85.921  1.00  0.00     0.227 C 
BRANCH   9  10
ATOM     10  N   UNL     1      53.500  35.838  86.362  1.00  0.00    -0.350 N 
ATOM     11  H   UNL     1      53.823  36.409  85.549  1.00  0.00     0.345 HD
ATOM     12  H   UNL     1      52.871  36.418  86.962  1.00  0.00     0.345 HD
ATOM     13  H   UNL     1      54.335  35.566  86.931  1.00  0.00     0.345 HD
ENDBRANCH   9  10
BRANCH   9  14
ATOM     14  C   UNL     1      52.643  34.586  84.421  1.00  0.00     0.099 C 
ATOM     15  O   UNL     1      51.506  34.490  83.886  1.00  0.00    -0.544 OA
ATOM     16  O   UNL     1      53.776  34.605  83.616  1.00  0.00    -0.544 OA
ENDBRANCH   9  14
ENDBRANCH   8   9
ENDBRANCH   1   8
TORSDOF 7
ENDMDL
MODEL 5
REMARK VINA RESULT:    -3.317      9.168      9.708
REMARK INTER + INTRA:          -4.599
REMARK INTER:                  -4.448
REMARK INTRA:                  -0.151
REMARK UNBOUND:                -0.118
REMARK SMILES [NH3+]CCCC[C@H]([NH3+])C(=O)[O-]
REMARK SMILES IDX 4 1 3 2 2 3 1 4 5 8 6 9 7 10 8 14 9 15 10 16
REMARK H PARENT 1 5 1 6 1 7 7 11 7 12 7 13
REMARK Flexibility Score: inf
ROOT
ATOM      1  C   UNL     1      51.791  33.672  85.306  1.00  0.00     0.012 C 
ENDROOT
BRANCH   1   2
ATOM      2  C   UNL     1      53.213  34.242  85.344  1.00  0.00     0.061 C 
BRANCH   2   3
ATOM      3  C   UNL     1      53.522  34.866  86.712  1.00  0.00     0.258 C 
BRANCH   3   4
ATOM      4  N   UNL     1      54.939  34.724  87.043  1.00  0.00    -0.358 N 
ATOM      5  H   UNL     1      55.458  35.595  86.782  1.00  0.00     0.344 HD
ATOM      6  H   UNL     1      55.052  34.538  88.066  1.00  0.00     0.344 HD
ATOM      7  H   UNL     1      55.338  33.920  86.507  1.00  0.00     0.344 HD
ENDBRANCH   3   4
ENDBRANCH   2   3
ENDBRANCH   1   2
BRANCH   1   8
ATOM      8  C   UNL     1      50.890  34.509  84.379  1.00  0.00     0.072 C 
BRANCH   8   9
ATOM      9  C   UNL     1      49.401  34.537  84.795  1.00  0.00     0.227 C 
BRANCH   9  10
ATOM     10  N   UNL     1      48.612  35.462  83.969  1.00  0.00    -0.350 N 
ATOM     11  H   UNL     1      49.075  35.644  83.050  1.00  0.00     0.345 HD
ATOM     12  H   UNL     1      47.660  35.065  83.802  1.00  0.00     0.345 HD
ATOM     13  H   UNL     1      48.502  36.371  84.474  1.00  0.00     0.345 HD
ENDBRANCH   9  10
BRANCH   9  14
ATOM     14  C   UNL     1      49.242  34.832  86.265  1.00  0.00     0.099 C 
ATOM     15  O   UNL     1      49.654  35.917  86.757  1.00  0.00    -0.544 OA
ATOM     16  O   UNL     1      48.679  33.875  87.102  1.00  0.00    -0.544 OA
ENDBRANCH   9  14
ENDBRANCH   8   9
ENDBRANCH   1   8
TORSDOF 7
ENDMDL
MODEL 6
REMARK VINA RESULT:    -3.217      2.964      5.100
REMARK INTER + INTRA:          -4.463
REMARK INTER:                  -4.362
REMARK INTRA:                  -0.101
REMARK UNBOUND:                -0.118
REMARK SMILES [NH3+]CCCC[C@H]([NH3+])C(=O)[O-]
REMARK SMILES IDX 4 1 3 2 2 3 1 4 5 8 6 9 7 10 8 14 9 15 10 16
REMARK H PARENT 1 5 1 6 1 7 7 11 7 12 7 13
REMARK Flexibility Score: inf
ROOT
ATOM      1  C   UNL     1      43.099  30.170  89.374  1.00  0.00     0.012 C 
ENDROOT
BRANCH   1   2
ATOM      2  C   UNL     1      41.838  30.516  88.572  1.00  0.00     0.061 C 
BRANCH   2   3
ATOM      3  C   UNL     1      42.152  30.641  87.075  1.00  0.00     0.258 C 
BRANCH   3   4
ATOM      4  N   UNL     1      41.936  32.009  86.607  1.00  0.00    -0.358 N 
ATOM      5  H   UNL     1      42.259  32.692  87.333  1.00  0.00     0.344 HD
ATOM      6  H   UNL     1      42.457  32.170  85.714  1.00  0.00     0.344 HD
ATOM      7  H   UNL     1      40.915  32.156  86.436  1.00  0.00     0.344 HD
ENDBRANCH   3   4
ENDBRANCH   2   3
ENDBRANCH   1   2
BRANCH   1   8
ATOM      8  C   UNL     1      44.063  31.369  89.423  1.00  0.00     0.072 C 
BRANCH   8   9
ATOM      9  C   UNL     1      45.217  31.215  90.441  1.00  0.00     0.227 C 
BRANCH   9  10
ATOM     10  N   UNL     1      45.088  32.146  91.571  1.00  0.00    -0.350 N 
ATOM     11  H   UNL     1      44.849  31.643  92.455  1.00  0.00     0.345 HD
ATOM     12  H   UNL     1      45.982  32.669  91.705  1.00  0.00     0.345 HD
ATOM     13  H   UNL     1      44.332  32.839  91.367  1.00  0.00     0.345 HD
ENDBRANCH   9  10
BRANCH   9  14
ATOM     14  C   UNL     1      46.564  31.336  89.773  1.00  0.00     0.099 C 
ATOM     15  O   UNL     1      47.626  31.335  90.452  1.00  0.00    -0.544 OA
ATOM     16  O   UNL     1      46.636  31.503  88.395  1.00  0.00    -0.544 OA
ENDBRANCH   9  14
ENDBRANCH   8   9
ENDBRANCH   1   8
TORSDOF 7
ENDMDL
MODEL 7
REMARK VINA RESULT:    -3.209      9.785     11.015
REMARK INTER + INTRA:          -4.452
REMARK INTER:                  -4.348
REMARK INTRA:                  -0.104
REMARK UNBOUND:                -0.118
REMARK SMILES [NH3+]CCCC[C@H]([NH3+])C(=O)[O-]
REMARK SMILES IDX 4 1 3 2 2 3 1 4 5 8 6 9 7 10 8 14 9 15 10 16
REMARK H PARENT 1 5 1 6 1 7 7 11 7 12 7 13
REMARK Flexibility Score: inf
ROOT
ATOM      1  C   UNL     1      50.268  35.827  87.086  1.00  0.00     0.012 C 
ENDROOT
BRANCH   1   2
ATOM      2  C   UNL     1      49.019  35.313  86.361  1.00  0.00     0.061 C 
BRANCH   2   3
ATOM      3  C   UNL     1      49.376  34.741  84.983  1.00  0.00     0.258 C 
BRANCH   3   4
ATOM      4  N   UNL     1      48.629  35.420  83.925  1.00  0.00    -0.358 N 
ATOM      5  H   UNL     1      48.817  34.962  83.002  1.00  0.00     0.344 HD
ATOM      6  H   UNL     1      47.604  35.391  84.132  1.00  0.00     0.344 HD
ATOM      7  H   UNL     1      48.936  36.418  83.875  1.00  0.00     0.344 HD
ENDBRANCH   3   4
ENDBRANCH   2   3
ENDBRANCH   1   2
BRANCH   1   8
ATOM      8  C   UNL     1      51.408  34.795  87.013  1.00  0.00     0.072 C 
BRANCH   8   9
ATOM      9  C   UNL     1      52.825  35.403  87.125  1.00  0.00     0.227 C 
BRANCH   9  10
ATOM     10  N   UNL     1      53.487  35.509  85.817  1.00  0.00    -0.350 N 
ATOM     11  H   UNL     1      54.275  34.828  85.731  1.00  0.00     0.345 HD
ATOM     12  H   UNL     1      52.796  35.333  85.053  1.00  0.00     0.345 HD
ATOM     13  H   UNL     1      53.867  36.476  85.697  1.00  0.00     0.345 HD
ENDBRANCH   9  10
BRANCH   9  14
ATOM     14  C   UNL     1      53.675  34.651  88.118  1.00  0.00     0.099 C 
ATOM     15  O   UNL     1      53.845  33.407  88.013  1.00  0.00    -0.544 OA
ATOM     16  O   UNL     1      54.238  35.327  89.193  1.00  0.00    -0.544 OA
ENDBRANCH   9  14
ENDBRANCH   8   9
ENDBRANCH   1   8
TORSDOF 7
ENDMDL
MODEL 8
REMARK VINA RESULT:    -3.139      9.765     10.790
REMARK INTER + INTRA:          -4.357
REMARK INTER:                  -4.137
REMARK INTRA:                  -0.220
REMARK UNBOUND:                -0.118
REMARK SMILES [NH3+]CCCC[C@H]([NH3+])C(=O)[O-]
REMARK SMILES IDX 4 1 3 2 2 3 1 4 5 8 6 9 7 10 8 14 9 15 10 16
REMARK H PARENT 1 5 1 6 1 7 7 11 7 12 7 13
REMARK Flexibility Score: inf
ROOT
ATOM      1  C   UNL     1      51.203  33.849  84.293  1.00  0.00     0.012 C 
ENDROOT
BRANCH   1   2
ATOM      2  C   UNL     1      50.534  34.630  83.156  1.00  0.00     0.061 C 
BRANCH   2   3
ATOM      3  C   UNL     1      49.016  34.720  83.366  1.00  0.00     0.258 C 
BRANCH   3   4
ATOM      4  N   UNL     1      48.700  35.427  84.605  1.00  0.00    -0.358 N 
ATOM      5  H   UNL     1      47.663  35.451  84.751  1.00  0.00     0.344 HD
ATOM      6  H   UNL     1      49.160  34.955  85.417  1.00  0.00     0.344 HD
ATOM      7  H   UNL     1      49.054  36.409  84.539  1.00  0.00     0.344 HD
ENDBRANCH   3   4
ENDBRANCH   2   3
ENDBRANCH   1   2
BRANCH   1   8
ATOM      8  C   UNL     1      52.660  34.308  84.490  1.00  0.00     0.072 C 
BRANCH   8   9
ATOM      9  C   UNL     1      52.935  34.981  85.854  1.00  0.00     0.227 C 
BRANCH   9  10
ATOM     10  N   UNL     1      54.233  34.583  86.416  1.00  0.00    -0.350 N 
ATOM     11  H   UNL     1      54.138  33.762  87.055  1.00  0.00     0.345 HD
ATOM     12  H   UNL     1      54.897  34.344  85.645  1.00  0.00     0.345 HD
ATOM     13  H   UNL     1      54.638  35.382  86.957  1.00  0.00     0.345 HD
ENDBRANCH   9  10
BRANCH   9  14
ATOM     14  C   UNL     1      51.810  34.739  86.829  1.00  0.00     0.099 C 
ATOM     15  O   UNL     1      51.760  33.679  87.509  1.00  0.00    -0.544 OA
ATOM     16  O   UNL     1      50.788  35.672  86.946  1.00  0.00    -0.544 OA
ENDBRANCH   9  14
ENDBRANCH   8   9
ENDBRANCH   1   8
TORSDOF 7
ENDMDL
MODEL 9
REMARK VINA RESULT:    -3.120      2.740      4.666
REMARK INTER + INTRA:          -4.333
REMARK INTER:                  -4.169
REMARK INTRA:                  -0.164
REMARK UNBOUND:                -0.118
REMARK SMILES [NH3+]CCCC[C@H]([NH3+])C(=O)[O-]
REMARK SMILES IDX 4 1 3 2 2 3 1 4 5 8 6 9 7 10 8 14 9 15 10 16
REMARK H PARENT 1 5 1 6 1 7 7 11 7 12 7 13
REMARK Flexibility Score: inf
ROOT
ATOM      1  C   UNL     1      42.222  30.070  89.841  1.00  0.00     0.012 C 
ENDROOT
BRANCH   1   2
ATOM      2  C   UNL     1      41.426  30.199  88.537  1.00  0.00     0.061 C 
BRANCH   2   3
ATOM      3  C   UNL     1      41.999  31.310  87.647  1.00  0.00     0.258 C 
BRANCH   3   4
ATOM      4  N   UNL     1      42.332  30.798  86.319  1.00  0.00    -0.358 N 
ATOM      5  H   UNL     1      43.342  30.977  86.108  1.00  0.00     0.344 HD
ATOM      6  H   UNL     1      42.137  29.771  86.270  1.00  0.00     0.344 HD
ATOM      7  H   UNL     1      41.746  31.288  85.606  1.00  0.00     0.344 HD
ENDBRANCH   3   4
ENDBRANCH   2   3
ENDBRANCH   1   2
BRANCH   1   8
ATOM      8  C   UNL     1      43.728  30.263  89.585  1.00  0.00     0.072 C 
BRANCH   8   9
ATOM      9  C   UNL     1      44.399  31.311  90.503  1.00  0.00     0.227 C 
BRANCH   9  10
ATOM     10  N   UNL     1      45.670  31.800  89.950  1.00  0.00    -0.350 N 
ATOM     11  H   UNL     1      46.473  31.201  90.248  1.00  0.00     0.345 HD
ATOM     12  H   UNL     1      45.622  31.814  88.906  1.00  0.00     0.345 HD
ATOM     13  H   UNL     1      45.841  32.777  90.281  1.00  0.00     0.345 HD
ENDBRANCH   9  10
BRANCH   9  14
ATOM     14  C   UNL     1      44.570  30.788  91.908  1.00  0.00     0.099 C 
ATOM     15  O   UNL     1      45.043  29.639  92.118  1.00  0.00    -0.544 OA
ATOM     16  O   UNL     1      44.154  31.562  92.984  1.00  0.00    -0.544 OA
ENDBRANCH   9  14
ENDBRANCH   8   9
ENDBRANCH   1   8
TORSDOF 7
ENDMDL
