MODEL 1
REMARK VINA RESULT:    -5.677      0.000      0.000
REMARK INTER + INTRA:          -9.859
REMARK INTER:                  -7.834
REMARK INTRA:                  -2.026
REMARK UNBOUND:                -2.026
REMARK SMILES CC[C@H](CC[C@@H](C)[C@H]1CC[C@@H]2[C@H]3CC=C4C[C@@H](O)CC[C@@]4(C)[C@H]3CC[C@@]21C)C(C)C
REMARK SMILES IDX 5 1 4 2 3 3 2 4 1 5 28 6 29 7 30 8 6 9 7 10 8 11 9 12 26 13
REMARK SMILES IDX 10 14 11 15 25 16 27 17 12 18 24 19 23 20 13 21 21 22 14 23
REMARK SMILES IDX 15 24 20 25 22 26 16 27 19 28 17 29 18 30
REMARK H PARENT 18 31
REMARK Flexibility Score: inf
ROOT
ATOM      1  C   UNL     1      -4.070  37.057  44.431  1.00  0.00     0.004 C 
ENDROOT
BRANCH   1   2
ATOM      2  C   UNL     1      -5.260  36.283  45.035  1.00  0.00     0.004 C 
BRANCH   2   3
ATOM      3  C   UNL     1      -6.484  36.237  44.063  1.00  0.00    -0.009 C 
BRANCH   3   4
ATOM      4  C   UNL     1      -6.963  34.772  43.882  1.00  0.00     0.000 C 
ATOM      5  C   UNL     1      -5.913  33.729  44.270  1.00  0.00     0.004 C 
ENDBRANCH   3   4
BRANCH   3   6
ATOM      6  C   UNL     1      -7.635  37.223  44.462  1.00  0.00    -0.014 C 
ATOM      7  C   UNL     1      -8.028  37.161  45.950  1.00  0.00     0.007 C 
ATOM      8  C   UNL     1      -7.320  38.670  44.055  1.00  0.00     0.007 C 
ENDBRANCH   3   6
ENDBRANCH   2   3
ENDBRANCH   1   2
BRANCH   1   9
ATOM      9  C   UNL     1      -3.842  36.739  42.929  1.00  0.00    -0.011 C 
ATOM     10  C   UNL     1      -4.141  37.963  42.038  1.00  0.00     0.008 C 
BRANCH   9  11
ATOM     11  C   UNL     1      -2.471  36.008  42.632  1.00  0.00    -0.002 C 
ATOM     12  C   UNL     1      -1.580  36.032  43.889  1.00  0.00     0.005 C 
ATOM     13  C   UNL     1      -2.442  34.505  42.170  1.00  0.00    -0.026 C 
ATOM     14  C   UNL     1      -1.602  34.627  44.485  1.00  0.00     0.005 C 
ATOM     15  C   UNL     1      -2.380  33.723  43.513  1.00  0.00    -0.001 C 
ATOM     16  C   UNL     1      -1.141  34.262  41.339  1.00  0.00     0.007 C 
ATOM     17  C   UNL     1      -3.648  34.122  41.277  1.00  0.00     0.012 C 
ATOM     18  C   UNL     1      -1.787  32.279  43.472  1.00  0.00     0.000 C 
ATOM     19  C   UNL     1      -0.727  32.786  41.225  1.00  0.00     0.005 C 
ATOM     20  C   UNL     1      -0.493  32.165  42.623  1.00  0.00     0.003 C 
ATOM     21  C   UNL     1      -2.842  31.244  43.042  1.00  0.00     0.031 C 
ATOM     22  C   UNL     1       0.091  30.688  42.647  1.00  0.00    -0.008 C 
ATOM     23  C   UNL     1      -2.285  29.865  42.870  1.00  0.00    -0.027 C 
ATOM     24  C   UNL     1      -1.000  29.614  42.552  1.00  0.00    -0.065 C 
ATOM     25  C   UNL     1       1.117  30.455  41.492  1.00  0.00     0.014 C 
ATOM     26  C   UNL     1       0.827  30.495  44.005  1.00  0.00     0.016 C 
ATOM     27  C   UNL     1      -0.580  28.168  42.340  1.00  0.00     0.063 C 
ATOM     28  C   UNL     1       1.608  29.001  41.377  1.00  0.00     0.033 C 
ATOM     29  C   UNL     1       0.433  28.029  41.199  1.00  0.00     0.118 C 
BRANCH  29  30
ATOM     30  O   UNL     1      -0.209  28.270  39.971  1.00  0.00    -0.393 OA
ATOM     31  H   UNL     1      -1.049  28.761  40.175  1.00  0.00     0.210 HD
ENDBRANCH  29  30
ENDBRANCH   9  11
ENDBRANCH   1   9
TORSDOF 7
ENDMDL
MODEL 2
REMARK VINA RESULT:    -5.647      4.711      6.770
REMARK INTER + INTRA:          -9.819
REMARK INTER:                  -7.217
REMARK INTRA:                  -2.602
REMARK UNBOUND:                -2.026
REMARK SMILES CC[C@H](CC[C@@H](C)[C@H]1CC[C@@H]2[C@H]3CC=C4C[C@@H](O)CC[C@@]4(C)[C@H]3CC[C@@]21C)C(C)C
REMARK SMILES IDX 5 1 4 2 3 3 2 4 1 5 28 6 29 7 30 8 6 9 7 10 8 11 9 12 26 13
REMARK SMILES IDX 10 14 11 15 25 16 27 17 12 18 24 19 23 20 13 21 21 22 14 23
REMARK SMILES IDX 15 24 20 25 22 26 16 27 19 28 17 29 18 30
REMARK H PARENT 18 31
REMARK Flexibility Score: inf
ROOT
ATOM      1  C   UNL     1      -5.342  37.526  46.837  1.00  0.00     0.004 C 
ENDROOT
BRANCH   1   2
ATOM      2  C   UNL     1      -6.133  38.537  45.982  1.00  0.00     0.004 C 
BRANCH   2   3
ATOM      3  C   UNL     1      -6.378  38.012  44.530  1.00  0.00    -0.009 C 
BRANCH   3   4
ATOM      4  C   UNL     1      -7.900  37.866  44.267  1.00  0.00     0.000 C 
ATOM      5  C   UNL     1      -8.761  38.060  45.517  1.00  0.00     0.004 C 
ENDBRANCH   3   4
BRANCH   3   6
ATOM      6  C   UNL     1      -5.634  38.847  43.431  1.00  0.00    -0.014 C 
ATOM      7  C   UNL     1      -4.813  40.026  43.987  1.00  0.00     0.007 C 
ATOM      8  C   UNL     1      -4.757  37.964  42.532  1.00  0.00     0.007 C 
ENDBRANCH   3   6
ENDBRANCH   2   3
ENDBRANCH   1   2
BRANCH   1   9
ATOM      9  C   UNL     1      -4.694  36.396  45.992  1.00  0.00    -0.011 C 
ATOM     10  C   UNL     1      -3.159  36.537  45.938  1.00  0.00     0.008 C 
BRANCH   9  11
ATOM     11  C   UNL     1      -5.226  34.949  46.347  1.00  0.00    -0.002 C 
ATOM     12  C   UNL     1      -6.358  35.045  47.388  1.00  0.00     0.005 C 
ATOM     13  C   UNL     1      -5.813  34.009  45.229  1.00  0.00    -0.026 C 
ATOM     14  C   UNL     1      -7.671  34.782  46.654  1.00  0.00     0.005 C 
ATOM     15  C   UNL     1      -7.322  34.381  45.209  1.00  0.00    -0.001 C 
ATOM     16  C   UNL     1      -5.625  32.524  45.676  1.00  0.00     0.007 C 
ATOM     17  C   UNL     1      -5.106  34.181  43.861  1.00  0.00     0.012 C 
ATOM     18  C   UNL     1      -8.315  33.311  44.655  1.00  0.00     0.000 C 
ATOM     19  C   UNL     1      -6.542  31.523  44.954  1.00  0.00     0.005 C 
ATOM     20  C   UNL     1      -8.031  31.877  45.175  1.00  0.00     0.003 C 
ATOM     21  C   UNL     1      -8.395  33.353  43.119  1.00  0.00     0.031 C 
ATOM     22  C   UNL     1      -9.092  30.835  44.615  1.00  0.00    -0.008 C 
ATOM     23  C   UNL     1      -9.240  32.262  42.539  1.00  0.00    -0.027 C 
ATOM     24  C   UNL     1      -9.441  31.073  43.141  1.00  0.00    -0.065 C 
ATOM     25  C   UNL     1      -8.592  29.362  44.773  1.00  0.00     0.014 C 
ATOM     26  C   UNL     1     -10.399  31.002  45.443  1.00  0.00     0.016 C 
ATOM     27  C   UNL     1     -10.267  30.028  42.410  1.00  0.00     0.063 C 
ATOM     28  C   UNL     1      -9.513  28.317  44.118  1.00  0.00     0.033 C 
ATOM     29  C   UNL     1      -9.717  28.613  42.625  1.00  0.00     0.118 C 
BRANCH  29  30
ATOM     30  O   UNL     1      -8.500  28.475  41.936  1.00  0.00    -0.393 OA
ATOM     31  H   UNL     1      -8.108  27.603  42.210  1.00  0.00     0.210 HD
ENDBRANCH  29  30
ENDBRANCH   9  11
ENDBRANCH   1   9
TORSDOF 7
ENDMDL
MODEL 3
REMARK VINA RESULT:    -5.359      1.188      1.804
REMARK INTER + INTRA:          -9.421
REMARK INTER:                  -7.430
REMARK INTRA:                  -1.992
REMARK UNBOUND:                -2.026
REMARK SMILES CC[C@H](CC[C@@H](C)[C@H]1CC[C@@H]2[C@H]3CC=C4C[C@@H](O)CC[C@@]4(C)[C@H]3CC[C@@]21C)C(C)C
REMARK SMILES IDX 5 1 4 2 3 3 2 4 1 5 28 6 29 7 30 8 6 9 7 10 8 11 9 12 26 13
REMARK SMILES IDX 10 14 11 15 25 16 27 17 12 18 24 19 23 20 13 21 21 22 14 23
REMARK SMILES IDX 15 24 20 25 22 26 16 27 19 28 17 29 18 30
REMARK H PARENT 18 31
REMARK Flexibility Score: inf
ROOT
ATOM      1  C   UNL     1      -5.552  36.636  44.261  1.00  0.00     0.004 C 
ENDROOT
BRANCH   1   2
ATOM      2  C   UNL     1      -7.019  36.238  43.998  1.00  0.00     0.004 C 
BRANCH   2   3
ATOM      3  C   UNL     1      -7.343  34.806  44.533  1.00  0.00    -0.009 C 
BRANCH   3   4
ATOM      4  C   UNL     1      -7.211  33.768  43.386  1.00  0.00     0.000 C 
ATOM      5  C   UNL     1      -8.545  33.152  42.958  1.00  0.00     0.004 C 
ENDBRANCH   3   4
BRANCH   3   6
ATOM      6  C   UNL     1      -6.531  34.421  45.817  1.00  0.00    -0.014 C 
ATOM      7  C   UNL     1      -7.254  34.744  47.138  1.00  0.00     0.007 C 
ATOM      8  C   UNL     1      -6.087  32.951  45.798  1.00  0.00     0.007 C 
ENDBRANCH   3   6
ENDBRANCH   2   3
ENDBRANCH   1   2
BRANCH   1   9
ATOM      9  C   UNL     1      -4.806  37.077  42.973  1.00  0.00    -0.011 C 
ATOM     10  C   UNL     1      -4.832  38.610  42.799  1.00  0.00     0.008 C 
BRANCH   9  11
ATOM     11  C   UNL     1      -3.386  36.403  42.796  1.00  0.00    -0.002 C 
ATOM     12  C   UNL     1      -2.584  36.514  44.107  1.00  0.00     0.005 C 
ATOM     13  C   UNL     1      -3.257  34.887  42.396  1.00  0.00    -0.026 C 
ATOM     14  C   UNL     1      -2.582  35.132  44.755  1.00  0.00     0.005 C 
ATOM     15  C   UNL     1      -3.251  34.157  43.769  1.00  0.00    -0.001 C 
ATOM     16  C   UNL     1      -1.893  34.677  41.663  1.00  0.00     0.007 C 
ATOM     17  C   UNL     1      -4.382  34.415  41.440  1.00  0.00     0.012 C 
ATOM     18  C   UNL     1      -2.592  32.743  43.823  1.00  0.00     0.000 C 
ATOM     19  C   UNL     1      -1.406  33.219  41.634  1.00  0.00     0.005 C 
ATOM     20  C   UNL     1      -1.239  32.661  43.066  1.00  0.00     0.003 C 
ATOM     21  C   UNL     1      -3.567  31.644  43.365  1.00  0.00     0.031 C 
ATOM     22  C   UNL     1      -0.592  31.216  43.187  1.00  0.00    -0.008 C 
ATOM     23  C   UNL     1      -2.937  30.288  43.284  1.00  0.00    -0.027 C 
ATOM     24  C   UNL     1      -1.623  30.087  43.061  1.00  0.00    -0.065 C 
ATOM     25  C   UNL     1       0.520  30.990  42.111  1.00  0.00     0.014 C 
ATOM     26  C   UNL     1       0.059  31.107  44.597  1.00  0.00     0.016 C 
ATOM     27  C   UNL     1      -1.126  28.657  42.934  1.00  0.00     0.063 C 
ATOM     28  C   UNL     1       1.083  29.559  42.086  1.00  0.00     0.033 C 
ATOM     29  C   UNL     1      -0.032  28.526  41.868  1.00  0.00     0.118 C 
BRANCH  29  30
ATOM     30  O   UNL     1      -0.600  28.692  40.593  1.00  0.00    -0.393 OA
ATOM     31  H   UNL     1      -0.060  29.381  40.123  1.00  0.00     0.210 HD
ENDBRANCH  29  30
ENDBRANCH   9  11
ENDBRANCH   1   9
TORSDOF 7
ENDMDL
MODEL 4
REMARK VINA RESULT:    -5.353      1.301      2.151
REMARK INTER + INTRA:          -9.413
REMARK INTER:                  -7.234
REMARK INTRA:                  -2.179
REMARK UNBOUND:                -2.026
REMARK SMILES CC[C@H](CC[C@@H](C)[C@H]1CC[C@@H]2[C@H]3CC=C4C[C@@H](O)CC[C@@]4(C)[C@H]3CC[C@@]21C)C(C)C
REMARK SMILES IDX 5 1 4 2 3 3 2 4 1 5 28 6 29 7 30 8 6 9 7 10 8 11 9 12 26 13
REMARK SMILES IDX 10 14 11 15 25 16 27 17 12 18 24 19 23 20 13 21 21 22 14 23
REMARK SMILES IDX 15 24 20 25 22 26 16 27 19 28 17 29 18 30
REMARK H PARENT 18 31
REMARK Flexibility Score: inf
ROOT
ATOM      1  C   UNL     1      -5.638  36.583  44.429  1.00  0.00     0.004 C 
ENDROOT
BRANCH   1   2
ATOM      2  C   UNL     1      -6.901  35.709  44.294  1.00  0.00     0.004 C 
BRANCH   2   3
ATOM      3  C   UNL     1      -6.678  34.265  44.851  1.00  0.00    -0.009 C 
BRANCH   3   4
ATOM      4  C   UNL     1      -6.557  34.307  46.398  1.00  0.00     0.000 C 
ATOM      5  C   UNL     1      -5.214  33.797  46.923  1.00  0.00     0.004 C 
ENDBRANCH   3   4
BRANCH   3   6
ATOM      6  C   UNL     1      -7.735  33.228  44.337  1.00  0.00    -0.014 C 
ATOM      7  C   UNL     1      -8.120  33.405  42.856  1.00  0.00     0.007 C 
ATOM      8  C   UNL     1      -7.298  31.780  44.605  1.00  0.00     0.007 C 
ENDBRANCH   3   6
ENDBRANCH   2   3
ENDBRANCH   1   2
BRANCH   1   9
ATOM      9  C   UNL     1      -5.043  37.002  43.058  1.00  0.00    -0.011 C 
ATOM     10  C   UNL     1      -5.136  38.527  42.841  1.00  0.00     0.008 C 
BRANCH   9  11
ATOM     11  C   UNL     1      -3.627  36.363  42.755  1.00  0.00    -0.002 C 
ATOM     12  C   UNL     1      -2.689  36.568  43.959  1.00  0.00     0.005 C 
ATOM     13  C   UNL     1      -3.490  34.833  42.417  1.00  0.00    -0.026 C 
ATOM     14  C   UNL     1      -2.565  35.222  44.669  1.00  0.00     0.005 C 
ATOM     15  C   UNL     1      -3.304  34.177  43.814  1.00  0.00    -0.001 C 
ATOM     16  C   UNL     1      -2.209  34.627  41.545  1.00  0.00     0.007 C 
ATOM     17  C   UNL     1      -4.696  34.277  41.619  1.00  0.00     0.012 C 
ATOM     18  C   UNL     1      -2.591  32.788  43.863  1.00  0.00     0.000 C 
ATOM     19  C   UNL     1      -1.675  33.185  41.532  1.00  0.00     0.005 C 
ATOM     20  C   UNL     1      -1.330  32.709  42.962  1.00  0.00     0.003 C 
ATOM     21  C   UNL     1      -3.570  31.637  43.572  1.00  0.00     0.031 C 
ATOM     22  C   UNL     1      -0.620  31.292  43.080  1.00  0.00    -0.008 C 
ATOM     23  C   UNL     1      -2.905  30.299  43.487  1.00  0.00    -0.027 C 
ATOM     24  C   UNL     1      -1.618  30.128  43.127  1.00  0.00    -0.065 C 
ATOM     25  C   UNL     1       0.372  31.045  41.897  1.00  0.00     0.014 C 
ATOM     26  C   UNL     1       0.187  31.278  44.410  1.00  0.00     0.016 C 
ATOM     27  C   UNL     1      -1.085  28.709  43.015  1.00  0.00     0.063 C 
ATOM     28  C   UNL     1       0.981  29.632  41.879  1.00  0.00     0.033 C 
ATOM     29  C   UNL     1      -0.114  28.555  41.839  1.00  0.00     0.118 C 
BRANCH  29  30
ATOM     30  O   UNL     1      -0.826  28.636  40.630  1.00  0.00    -0.393 OA
ATOM     31  H   UNL     1      -0.735  29.570  40.302  1.00  0.00     0.210 HD
ENDBRANCH  29  30
ENDBRANCH   9  11
ENDBRANCH   1   9
TORSDOF 7
ENDMDL
MODEL 5
REMARK VINA RESULT:    -5.275      1.951      3.094
REMARK INTER + INTRA:          -9.305
REMARK INTER:                  -6.752
REMARK INTRA:                  -2.553
REMARK UNBOUND:                -2.026
REMARK SMILES CC[C@H](CC[C@@H](C)[C@H]1CC[C@@H]2[C@H]3CC=C4C[C@@H](O)CC[C@@]4(C)[C@H]3CC[C@@]21C)C(C)C
REMARK SMILES IDX 5 1 4 2 3 3 2 4 1 5 28 6 29 7 30 8 6 9 7 10 8 11 9 12 26 13
REMARK SMILES IDX 10 14 11 15 25 16 27 17 12 18 24 19 23 20 13 21 21 22 14 23
REMARK SMILES IDX 15 24 20 25 22 26 16 27 19 28 17 29 18 30
REMARK H PARENT 18 31
REMARK Flexibility Score: inf
ROOT
ATOM      1  C   UNL     1      -7.039  34.852  45.897  1.00  0.00     0.004 C 
ENDROOT
BRANCH   1   2
ATOM      2  C   UNL     1      -7.896  33.573  45.810  1.00  0.00     0.004 C 
BRANCH   2   3
ATOM      3  C   UNL     1      -7.708  32.833  44.445  1.00  0.00    -0.009 C 
BRANCH   3   4
ATOM      4  C   UNL     1      -7.327  31.349  44.694  1.00  0.00     0.000 C 
ATOM      5  C   UNL     1      -7.023  31.030  46.159  1.00  0.00     0.004 C 
ENDBRANCH   3   4
BRANCH   3   6
ATOM      6  C   UNL     1      -8.920  33.009  43.468  1.00  0.00    -0.014 C 
ATOM      7  C   UNL     1      -8.525  33.067  41.981  1.00  0.00     0.007 C 
ATOM      8  C   UNL     1      -9.999  31.938  43.691  1.00  0.00     0.007 C 
ENDBRANCH   3   6
ENDBRANCH   2   3
ENDBRANCH   1   2
BRANCH   1   9
ATOM      9  C   UNL     1      -6.347  35.209  44.555  1.00  0.00    -0.011 C 
ATOM     10  C   UNL     1      -6.879  36.536  43.976  1.00  0.00     0.008 C 
BRANCH   9  11
ATOM     11  C   UNL     1      -4.770  35.075  44.595  1.00  0.00    -0.002 C 
ATOM     12  C   UNL     1      -4.303  34.789  46.035  1.00  0.00     0.005 C 
ATOM     13  C   UNL     1      -4.031  33.989  43.730  1.00  0.00    -0.026 C 
ATOM     14  C   UNL     1      -3.910  33.315  46.098  1.00  0.00     0.005 C 
ATOM     15  C   UNL     1      -3.997  32.751  44.669  1.00  0.00    -0.001 C 
ATOM     16  C   UNL     1      -2.580  34.488  43.434  1.00  0.00     0.007 C 
ATOM     17  C   UNL     1      -4.723  33.725  42.369  1.00  0.00     0.012 C 
ATOM     18  C   UNL     1      -2.887  31.684  44.405  1.00  0.00     0.000 C 
ATOM     19  C   UNL     1      -1.598  33.378  43.027  1.00  0.00     0.005 C 
ATOM     20  C   UNL     1      -1.489  32.301  44.132  1.00  0.00     0.003 C 
ATOM     21  C   UNL     1      -3.299  30.698  43.298  1.00  0.00     0.031 C 
ATOM     22  C   UNL     1      -0.390  31.175  43.911  1.00  0.00    -0.008 C 
ATOM     23  C   UNL     1      -2.215  29.735  42.927  1.00  0.00    -0.027 C 
ATOM     24  C   UNL     1      -0.901  30.000  43.067  1.00  0.00    -0.065 C 
ATOM     25  C   UNL     1       0.895  31.749  43.231  1.00  0.00     0.014 C 
ATOM     26  C   UNL     1       0.001  30.617  45.310  1.00  0.00     0.016 C 
ATOM     27  C   UNL     1       0.097  28.960  42.588  1.00  0.00     0.063 C 
ATOM     28  C   UNL     1       1.936  30.679  42.861  1.00  0.00     0.033 C 
ATOM     29  C   UNL     1       1.330  29.606  41.945  1.00  0.00     0.118 C 
BRANCH  29  30
ATOM     30  O   UNL     1       0.970  30.173  40.710  1.00  0.00    -0.393 OA
ATOM     31  H   UNL     1       1.004  31.160  40.824  1.00  0.00     0.210 HD
ENDBRANCH  29  30
ENDBRANCH   9  11
ENDBRANCH   1   9
TORSDOF 7
ENDMDL
MODEL 6
REMARK VINA RESULT:    -5.269      4.850      8.320
REMARK INTER + INTRA:          -9.296
REMARK INTER:                  -6.825
REMARK INTRA:                  -2.471
REMARK UNBOUND:                -2.026
REMARK SMILES CC[C@H](CC[C@@H](C)[C@H]1CC[C@@H]2[C@H]3CC=C4C[C@@H](O)CC[C@@]4(C)[C@H]3CC[C@@]21C)C(C)C
REMARK SMILES IDX 5 1 4 2 3 3 2 4 1 5 28 6 29 7 30 8 6 9 7 10 8 11 9 12 26 13
REMARK SMILES IDX 10 14 11 15 25 16 27 17 12 18 24 19 23 20 13 21 21 22 14 23
REMARK SMILES IDX 15 24 20 25 22 26 16 27 19 28 17 29 18 30
REMARK H PARENT 18 31
REMARK Flexibility Score: inf
ROOT
ATOM      1  C   UNL     1       0.027  32.327  43.049  1.00  0.00     0.004 C 
ENDROOT
BRANCH   1   2
ATOM      2  C   UNL     1      -0.592  31.295  42.084  1.00  0.00     0.004 C 
BRANCH   2   3
ATOM      3  C   UNL     1      -0.014  29.860  42.312  1.00  0.00    -0.009 C 
BRANCH   3   4
ATOM      4  C   UNL     1      -1.159  28.880  42.683  1.00  0.00     0.000 C 
ATOM      5  C   UNL     1      -2.558  29.460  42.471  1.00  0.00     0.004 C 
ENDBRANCH   3   4
BRANCH   3   6
ATOM      6  C   UNL     1       0.880  29.353  41.128  1.00  0.00    -0.014 C 
ATOM      7  C   UNL     1       2.392  29.406  41.416  1.00  0.00     0.007 C 
ATOM      8  C   UNL     1       0.475  27.946  40.663  1.00  0.00     0.007 C 
ENDBRANCH   3   6
ENDBRANCH   2   3
ENDBRANCH   1   2
BRANCH   1   9
ATOM      9  C   UNL     1       0.819  31.670  44.210  1.00  0.00    -0.011 C 
ATOM     10  C   UNL     1       2.295  32.119  44.215  1.00  0.00     0.008 C 
BRANCH   9  11
ATOM     11  C   UNL     1       0.086  31.751  45.609  1.00  0.00    -0.002 C 
ATOM     12  C   UNL     1      -1.156  32.656  45.501  1.00  0.00     0.005 C 
ATOM     13  C   UNL     1      -0.449  30.450  46.315  1.00  0.00    -0.026 C 
ATOM     14  C   UNL     1      -2.381  31.745  45.496  1.00  0.00     0.005 C 
ATOM     15  C   UNL     1      -1.891  30.309  45.751  1.00  0.00    -0.001 C 
ATOM     16  C   UNL     1      -0.490  30.699  47.857  1.00  0.00     0.007 C 
ATOM     17  C   UNL     1       0.447  29.212  46.063  1.00  0.00     0.012 C 
ATOM     18  C   UNL     1      -2.915  29.496  46.605  1.00  0.00     0.000 C 
ATOM     19  C   UNL     1      -1.411  29.741  48.631  1.00  0.00     0.005 C 
ATOM     20  C   UNL     1      -2.867  29.836  48.118  1.00  0.00     0.003 C 
ATOM     21  C   UNL     1      -2.786  27.982  46.358  1.00  0.00     0.031 C 
ATOM     22  C   UNL     1      -3.954  29.014  48.934  1.00  0.00    -0.008 C 
ATOM     23  C   UNL     1      -3.664  27.159  47.247  1.00  0.00    -0.027 C 
ATOM     24  C   UNL     1      -4.076  27.558  48.467  1.00  0.00    -0.065 C 
ATOM     25  C   UNL     1      -3.649  29.017  50.467  1.00  0.00     0.014 C 
ATOM     26  C   UNL     1      -5.332  29.700  48.706  1.00  0.00     0.016 C 
ATOM     27  C   UNL     1      -4.910  26.595  49.295  1.00  0.00     0.063 C 
ATOM     28  C   UNL     1      -4.585  28.118  51.292  1.00  0.00     0.033 C 
ATOM     29  C   UNL     1      -4.555  26.668  50.785  1.00  0.00     0.118 C 
BRANCH  29  30
ATOM     30  O   UNL     1      -3.281  26.113  50.991  1.00  0.00    -0.393 OA
ATOM     31  H   UNL     1      -3.358  25.486  51.758  1.00  0.00     0.210 HD
ENDBRANCH  29  30
ENDBRANCH   9  11
ENDBRANCH   1   9
TORSDOF 7
ENDMDL
MODEL 7
REMARK VINA RESULT:    -5.192      0.782      1.650
REMARK INTER + INTRA:          -9.191
REMARK INTER:                  -7.343
REMARK INTRA:                  -1.848
REMARK UNBOUND:                -2.026
REMARK SMILES CC[C@H](CC[C@@H](C)[C@H]1CC[C@@H]2[C@H]3CC=C4C[C@@H](O)CC[C@@]4(C)[C@H]3CC[C@@]21C)C(C)C
REMARK SMILES IDX 5 1 4 2 3 3 2 4 1 5 28 6 29 7 30 8 6 9 7 10 8 11 9 12 26 13
REMARK SMILES IDX 10 14 11 15 25 16 27 17 12 18 24 19 23 20 13 21 21 22 14 23
REMARK SMILES IDX 15 24 20 25 22 26 16 27 19 28 17 29 18 30
REMARK H PARENT 18 31
REMARK Flexibility Score: inf
ROOT
ATOM      1  C   UNL     1      -3.889  37.984  43.780  1.00  0.00     0.004 C 
ENDROOT
BRANCH   1   2
ATOM      2  C   UNL     1      -5.309  38.497  44.098  1.00  0.00     0.004 C 
BRANCH   2   3
ATOM      3  C   UNL     1      -6.170  37.420  44.836  1.00  0.00    -0.009 C 
BRANCH   3   4
ATOM      4  C   UNL     1      -7.645  37.503  44.362  1.00  0.00     0.000 C 
ATOM      5  C   UNL     1      -8.628  37.876  45.474  1.00  0.00     0.004 C 
ENDBRANCH   3   4
BRANCH   3   6
ATOM      6  C   UNL     1      -5.569  35.975  44.748  1.00  0.00    -0.014 C 
ATOM      7  C   UNL     1      -5.250  35.343  46.116  1.00  0.00     0.007 C 
ATOM      8  C   UNL     1      -6.455  35.033  43.920  1.00  0.00     0.007 C 
ENDBRANCH   3   6
ENDBRANCH   2   3
ENDBRANCH   1   2
BRANCH   1   9
ATOM      9  C   UNL     1      -3.806  37.239  42.421  1.00  0.00    -0.011 C 
ATOM     10  C   UNL     1      -4.179  38.164  41.244  1.00  0.00     0.008 C 
BRANCH   9  11
ATOM     11  C   UNL     1      -2.473  36.408  42.230  1.00  0.00    -0.002 C 
ATOM     12  C   UNL     1      -1.592  36.531  43.487  1.00  0.00     0.005 C 
ATOM     13  C   UNL     1      -2.522  34.861  41.945  1.00  0.00    -0.026 C 
ATOM     14  C   UNL     1      -1.694  35.207  44.242  1.00  0.00     0.005 C 
ATOM     15  C   UNL     1      -2.512  34.238  43.370  1.00  0.00    -0.001 C 
ATOM     16  C   UNL     1      -1.230  34.456  41.165  1.00  0.00     0.007 C 
ATOM     17  C   UNL     1      -3.740  34.442  41.085  1.00  0.00     0.012 C 
ATOM     18  C   UNL     1      -1.998  32.770  43.504  1.00  0.00     0.000 C 
ATOM     19  C   UNL     1      -0.895  32.957  41.228  1.00  0.00     0.005 C 
ATOM     20  C   UNL     1      -0.705  32.492  42.691  1.00  0.00     0.003 C 
ATOM     21  C   UNL     1      -3.103  31.750  43.182  1.00  0.00     0.031 C 
ATOM     22  C   UNL     1      -0.201  30.999  42.894  1.00  0.00    -0.008 C 
ATOM     23  C   UNL     1      -2.619  30.333  43.178  1.00  0.00    -0.027 C 
ATOM     24  C   UNL     1      -1.347  29.979  42.909  1.00  0.00    -0.065 C 
ATOM     25  C   UNL     1       0.820  30.579  41.788  1.00  0.00     0.014 C 
ATOM     26  C   UNL     1       0.513  30.927  44.275  1.00  0.00     0.016 C 
ATOM     27  C   UNL     1      -1.005  28.499  42.871  1.00  0.00     0.063 C 
ATOM     28  C   UNL     1       1.233  29.098  41.848  1.00  0.00     0.033 C 
ATOM     29  C   UNL     1       0.008  28.175  41.767  1.00  0.00     0.118 C 
BRANCH  29  30
ATOM     30  O   UNL     1      -0.610  28.305  40.512  1.00  0.00    -0.393 OA
ATOM     31  H   UNL     1      -0.979  27.413  40.276  1.00  0.00     0.210 HD
ENDBRANCH  29  30
ENDBRANCH   9  11
ENDBRANCH   1   9
TORSDOF 7
ENDMDL
MODEL 8
REMARK VINA RESULT:    -5.130      2.875      8.792
REMARK INTER + INTRA:          -9.105
REMARK INTER:                  -7.802
REMARK INTRA:                  -1.303
REMARK UNBOUND:                -2.026
REMARK SMILES CC[C@H](CC[C@@H](C)[C@H]1CC[C@@H]2[C@H]3CC=C4C[C@@H](O)CC[C@@]4(C)[C@H]3CC[C@@]21C)C(C)C
REMARK SMILES IDX 5 1 4 2 3 3 2 4 1 5 28 6 29 7 30 8 6 9 7 10 8 11 9 12 26 13
REMARK SMILES IDX 10 14 11 15 25 16 27 17 12 18 24 19 23 20 13 21 21 22 14 23
REMARK SMILES IDX 15 24 20 25 22 26 16 27 19 28 17 29 18 30
REMARK H PARENT 18 31
REMARK Flexibility Score: inf
ROOT
ATOM      1  C   UNL     1      -2.246  29.762  42.501  1.00  0.00     0.004 C 
ENDROOT
BRANCH   1   2
ATOM      2  C   UNL     1      -1.412  28.552  42.971  1.00  0.00     0.004 C 
BRANCH   2   3
ATOM      3  C   UNL     1       0.009  28.530  42.319  1.00  0.00    -0.009 C 
BRANCH   3   4
ATOM      4  C   UNL     1      -0.078  27.966  40.876  1.00  0.00     0.000 C 
ATOM      5  C   UNL     1       0.502  26.558  40.730  1.00  0.00     0.004 C 
ENDBRANCH   3   4
BRANCH   3   6
ATOM      6  C   UNL     1       0.756  29.906  42.406  1.00  0.00    -0.014 C 
ATOM      7  C   UNL     1       1.084  30.353  43.842  1.00  0.00     0.007 C 
ATOM      8  C   UNL     1       2.023  29.928  41.538  1.00  0.00     0.007 C 
ENDBRANCH   3   6
ENDBRANCH   2   3
ENDBRANCH   1   2
BRANCH   1   9
ATOM      9  C   UNL     1      -2.877  30.554  43.677  1.00  0.00    -0.011 C 
ATOM     10  C   UNL     1      -2.723  29.802  45.016  1.00  0.00     0.008 C 
BRANCH   9  11
ATOM     11  C   UNL     1      -2.466  32.082  43.712  1.00  0.00    -0.002 C 
ATOM     12  C   UNL     1      -2.068  32.551  42.299  1.00  0.00     0.005 C 
ATOM     13  C   UNL     1      -3.480  33.178  44.208  1.00  0.00    -0.026 C 
ATOM     14  C   UNL     1      -3.214  33.408  41.768  1.00  0.00     0.005 C 
ATOM     15  C   UNL     1      -4.233  33.578  42.908  1.00  0.00    -0.001 C 
ATOM     16  C   UNL     1      -2.669  34.393  44.763  1.00  0.00     0.007 C 
ATOM     17  C   UNL     1      -4.408  32.675  45.342  1.00  0.00     0.012 C 
ATOM     18  C   UNL     1      -4.901  34.990  42.876  1.00  0.00     0.000 C 
ATOM     19  C   UNL     1      -3.466  35.706  44.840  1.00  0.00     0.005 C 
ATOM     20  C   UNL     1      -3.996  36.115  43.446  1.00  0.00     0.003 C 
ATOM     21  C   UNL     1      -6.285  34.979  43.547  1.00  0.00     0.031 C 
ATOM     22  C   UNL     1      -4.705  37.534  43.351  1.00  0.00    -0.008 C 
ATOM     23  C   UNL     1      -6.907  36.337  43.647  1.00  0.00    -0.027 C 
ATOM     24  C   UNL     1      -6.197  37.480  43.704  1.00  0.00    -0.065 C 
ATOM     25  C   UNL     1      -4.015  38.585  44.280  1.00  0.00     0.014 C 
ATOM     26  C   UNL     1      -4.584  38.024  41.879  1.00  0.00     0.016 C 
ATOM     27  C   UNL     1      -6.951  38.789  43.873  1.00  0.00     0.063 C 
ATOM     28  C   UNL     1      -4.744  39.938  44.340  1.00  0.00     0.033 C 
ATOM     29  C   UNL     1      -6.203  39.765  44.788  1.00  0.00     0.118 C 
BRANCH  29  30
ATOM     30  O   UNL     1      -6.248  39.294  46.112  1.00  0.00    -0.393 OA
ATOM     31  H   UNL     1      -5.846  38.385  46.110  1.00  0.00     0.210 HD
ENDBRANCH  29  30
ENDBRANCH   9  11
ENDBRANCH   1   9
TORSDOF 7
ENDMDL
MODEL 9
REMARK VINA RESULT:    -5.085     12.544     14.607
REMARK INTER + INTRA:          -9.042
REMARK INTER:                  -6.406
REMARK INTRA:                  -2.636
REMARK UNBOUND:                -2.026
REMARK SMILES CC[C@H](CC[C@@H](C)[C@H]1CC[C@@H]2[C@H]3CC=C4C[C@@H](O)CC[C@@]4(C)[C@H]3CC[C@@]21C)C(C)C
REMARK SMILES IDX 5 1 4 2 3 3 2 4 1 5 28 6 29 7 30 8 6 9 7 10 8 11 9 12 26 13
REMARK SMILES IDX 10 14 11 15 25 16 27 17 12 18 24 19 23 20 13 21 21 22 14 23
REMARK SMILES IDX 15 24 20 25 22 26 16 27 19 28 17 29 18 30
REMARK H PARENT 18 31
REMARK Flexibility Score: inf
ROOT
ATOM      1  C   UNL     1      -8.876  34.358  55.683  1.00  0.00     0.004 C 
ENDROOT
BRANCH   1   2
ATOM      2  C   UNL     1      -8.599  34.217  57.194  1.00  0.00     0.004 C 
BRANCH   2   3
ATOM      3  C   UNL     1      -9.413  33.045  57.833  1.00  0.00    -0.009 C 
BRANCH   3   4
ATOM      4  C   UNL     1      -8.447  32.025  58.493  1.00  0.00     0.000 C 
ATOM      5  C   UNL     1      -6.984  32.216  58.091  1.00  0.00     0.004 C 
ENDBRANCH   3   4
BRANCH   3   6
ATOM      6  C   UNL     1     -10.556  33.529  58.790  1.00  0.00    -0.014 C 
ATOM      7  C   UNL     1     -10.945  35.008  58.607  1.00  0.00     0.007 C 
ATOM      8  C   UNL     1     -11.801  32.635  58.698  1.00  0.00     0.007 C 
ENDBRANCH   3   6
ENDBRANCH   2   3
ENDBRANCH   1   2
BRANCH   1   9
ATOM      9  C   UNL     1     -10.111  33.542  55.217  1.00  0.00    -0.011 C 
ATOM     10  C   UNL     1     -11.272  34.464  54.788  1.00  0.00     0.008 C 
BRANCH   9  11
ATOM     11  C   UNL     1      -9.763  32.381  54.199  1.00  0.00    -0.002 C 
ATOM     12  C   UNL     1      -8.337  32.576  53.648  1.00  0.00     0.005 C 
ATOM     13  C   UNL     1      -9.796  30.875  54.653  1.00  0.00    -0.026 C 
ATOM     14  C   UNL     1      -7.444  31.541  54.329  1.00  0.00     0.005 C 
ATOM     15  C   UNL     1      -8.352  30.630  55.174  1.00  0.00    -0.001 C 
ATOM     16  C   UNL     1     -10.081  29.982  53.403  1.00  0.00     0.007 C 
ATOM     17  C   UNL     1     -10.899  30.582  55.701  1.00  0.00     0.012 C 
ATOM     18  C   UNL     1      -7.836  29.156  55.185  1.00  0.00     0.000 C 
ATOM     19  C   UNL     1      -9.681  28.508  53.571  1.00  0.00     0.005 C 
ATOM     20  C   UNL     1      -8.173  28.374  53.887  1.00  0.00     0.003 C 
ATOM     21  C   UNL     1      -8.302  28.400  56.441  1.00  0.00     0.031 C 
ATOM     22  C   UNL     1      -7.592  26.897  53.931  1.00  0.00    -0.008 C 
ATOM     23  C   UNL     1      -7.934  26.949  56.431  1.00  0.00    -0.027 C 
ATOM     24  C   UNL     1      -7.753  26.233  55.304  1.00  0.00    -0.065 C 
ATOM     25  C   UNL     1      -8.263  25.981  52.857  1.00  0.00     0.014 C 
ATOM     26  C   UNL     1      -6.069  26.980  53.623  1.00  0.00     0.016 C 
ATOM     27  C   UNL     1      -7.448  24.750  55.436  1.00  0.00     0.063 C 
ATOM     28  C   UNL     1      -7.845  24.503  52.947  1.00  0.00     0.033 C 
ATOM     29  C   UNL     1      -8.135  23.926  54.341  1.00  0.00     0.118 C 
BRANCH  29  30
ATOM     30  O   UNL     1      -9.522  23.903  54.573  1.00  0.00    -0.393 OA
ATOM     31  H   UNL     1      -9.698  24.509  55.340  1.00  0.00     0.210 HD
ENDBRANCH  29  30
ENDBRANCH   9  11
ENDBRANCH   1   9
TORSDOF 7
ENDMDL
