MODEL 1
REMARK VINA RESULT:    -3.992      0.000      0.000
REMARK INTER + INTRA:          -9.189
REMARK INTER:                  -7.726
REMARK INTRA:                  -1.463
REMARK UNBOUND:                -1.463
REMARK SMILES CCCCCCCCCCCCCCCCCC(=O)[O-]
REMARK SMILES IDX 10 1 11 2 12 3 13 4 14 5 15 6 16 7 17 8 18 9 19 10 20 11
REMARK SMILES IDX 9 12 8 13 7 14 6 15 5 16 4 17 3 18 2 19 1 20
REMARK H PARENT
REMARK Flexibility Score: inf
ROOT
ATOM      1  C   UNL     1      -0.148  12.609  -4.240  1.00  0.00     0.000 C 
ENDROOT
BRANCH   1   2
ATOM      2  C   UNL     1       0.933  11.762  -3.546  1.00  0.00     0.000 C 
BRANCH   2   3
ATOM      3  C   UNL     1       0.401  11.024  -2.308  1.00  0.00     0.000 C 
BRANCH   3   4
ATOM      4  C   UNL     1       1.435  10.063  -1.698  1.00  0.00     0.000 C 
BRANCH   4   5
ATOM      5  C   UNL     1       2.642   9.831  -2.621  1.00  0.00     0.000 C 
BRANCH   5   6
ATOM      6  C   UNL     1       3.764   9.031  -1.936  1.00  0.00     0.000 C 
BRANCH   6   7
ATOM      7  C   UNL     1       3.229   7.847  -1.115  1.00  0.00     0.006 C 
BRANCH   7   8
ATOM      8  C   UNL     1       3.840   7.781   0.290  1.00  0.00     0.053 C 
BRANCH   8   9
ATOM      9  C   UNL     1       2.973   6.966   1.198  1.00  0.00     0.041 C 
ATOM     10  O   UNL     1       3.474   6.043   1.891  1.00  0.00    -0.550 OA
ATOM     11  O   UNL     1       1.620   7.253   1.310  1.00  0.00    -0.550 OA
ENDBRANCH   8   9
ENDBRANCH   7   8
ENDBRANCH   6   7
ENDBRANCH   5   6
ENDBRANCH   4   5
ENDBRANCH   3   4
ENDBRANCH   2   3
ENDBRANCH   1   2
BRANCH   1  12
ATOM     12  C   UNL     1      -1.506  11.890  -4.295  1.00  0.00     0.000 C 
BRANCH  12  13
ATOM     13  C   UNL     1      -2.523  12.628  -5.184  1.00  0.00    -0.000 C 
BRANCH  13  14
ATOM     14  C   UNL     1      -2.964  13.976  -4.588  1.00  0.00    -0.000 C 
BRANCH  14  15
ATOM     15  C   UNL     1      -2.870  15.132  -5.596  1.00  0.00    -0.000 C 
BRANCH  15  16
ATOM     16  C   UNL     1      -2.138  16.334  -4.983  1.00  0.00    -0.000 C 
BRANCH  16  17
ATOM     17  C   UNL     1      -0.617  16.120  -4.880  1.00  0.00    -0.000 C 
BRANCH  17  18
ATOM     18  C   UNL     1      -0.018  16.341  -3.475  1.00  0.00    -0.000 C 
BRANCH  18  19
ATOM     19  C   UNL     1      -0.809  15.698  -2.322  1.00  0.00    -0.003 C 
ATOM     20  C   UNL     1      -0.216  16.008  -0.948  1.00  0.00     0.004 C 
ENDBRANCH  18  19
ENDBRANCH  17  18
ENDBRANCH  16  17
ENDBRANCH  15  16
ENDBRANCH  14  15
ENDBRANCH  13  14
ENDBRANCH  12  13
ENDBRANCH   1  12
TORSDOF 16
ENDMDL
MODEL 2
REMARK VINA RESULT:    -3.804      3.206      8.116
REMARK INTER + INTRA:          -8.826
REMARK INTER:                  -7.505
REMARK INTRA:                  -1.322
REMARK UNBOUND:                -1.463
REMARK SMILES CCCCCCCCCCCCCCCCCC(=O)[O-]
REMARK SMILES IDX 10 1 11 2 12 3 13 4 14 5 15 6 16 7 17 8 18 9 19 10 20 11
REMARK SMILES IDX 9 12 8 13 7 14 6 15 5 16 4 17 3 18 2 19 1 20
REMARK H PARENT
REMARK Flexibility Score: inf
ROOT
ATOM      1  C   UNL     1      -1.822  11.771  -4.429  1.00  0.00     0.000 C 
ENDROOT
BRANCH   1   2
ATOM      2  C   UNL     1      -2.884  12.497  -5.273  1.00  0.00     0.000 C 
BRANCH   2   3
ATOM      3  C   UNL     1      -3.048  13.971  -4.874  1.00  0.00     0.000 C 
BRANCH   3   4
ATOM      4  C   UNL     1      -2.702  14.939  -6.018  1.00  0.00     0.000 C 
BRANCH   4   5
ATOM      5  C   UNL     1      -2.469  16.376  -5.526  1.00  0.00     0.000 C 
BRANCH   5   6
ATOM      6  C   UNL     1      -0.991  16.797  -5.611  1.00  0.00     0.000 C 
BRANCH   6   7
ATOM      7  C   UNL     1      -0.398  17.151  -4.238  1.00  0.00     0.006 C 
BRANCH   7   8
ATOM      8  C   UNL     1      -0.030  15.910  -3.416  1.00  0.00     0.053 C 
BRANCH   8   9
ATOM      9  C   UNL     1      -0.751  15.919  -2.105  1.00  0.00     0.041 C 
ATOM     10  O   UNL     1      -2.009  15.915  -2.074  1.00  0.00    -0.550 OA
ATOM     11  O   UNL     1      -0.033  15.891  -0.917  1.00  0.00    -0.550 OA
ENDBRANCH   8   9
ENDBRANCH   7   8
ENDBRANCH   6   7
ENDBRANCH   5   6
ENDBRANCH   4   5
ENDBRANCH   3   4
ENDBRANCH   2   3
ENDBRANCH   1   2
BRANCH   1  12
ATOM     12  C   UNL     1      -0.532  12.595  -4.279  1.00  0.00     0.000 C 
BRANCH  12  13
ATOM     13  C   UNL     1       0.591  11.805  -3.584  1.00  0.00    -0.000 C 
BRANCH  13  14
ATOM     14  C   UNL     1       0.069  10.899  -2.457  1.00  0.00    -0.000 C 
BRANCH  14  15
ATOM     15  C   UNL     1       1.196  10.323  -1.585  1.00  0.00    -0.000 C 
BRANCH  15  16
ATOM     16  C   UNL     1       2.405   9.927  -2.446  1.00  0.00    -0.000 C 
BRANCH  16  17
ATOM     17  C   UNL     1       3.502   9.207  -1.643  1.00  0.00    -0.000 C 
BRANCH  17  18
ATOM     18  C   UNL     1       3.047   7.927  -0.911  1.00  0.00    -0.000 C 
BRANCH  18  19
ATOM     19  C   UNL     1       3.169   7.975   0.622  1.00  0.00    -0.003 C 
ATOM     20  C   UNL     1       2.253   6.973   1.324  1.00  0.00     0.004 C 
ENDBRANCH  18  19
ENDBRANCH  17  18
ENDBRANCH  16  17
ENDBRANCH  15  16
ENDBRANCH  14  15
ENDBRANCH  13  14
ENDBRANCH  12  13
ENDBRANCH   1  12
TORSDOF 16
ENDMDL
MODEL 3
REMARK VINA RESULT:    -3.752      1.406      2.430
REMARK INTER + INTRA:          -8.726
REMARK INTER:                  -7.215
REMARK INTRA:                  -1.511
REMARK UNBOUND:                -1.463
REMARK SMILES CCCCCCCCCCCCCCCCCC(=O)[O-]
REMARK SMILES IDX 10 1 11 2 12 3 13 4 14 5 15 6 16 7 17 8 18 9 19 10 20 11
REMARK SMILES IDX 9 12 8 13 7 14 6 15 5 16 4 17 3 18 2 19 1 20
REMARK H PARENT
REMARK Flexibility Score: inf
ROOT
ATOM      1  C   UNL     1      -2.994  12.750  -4.763  1.00  0.00     0.000 C 
ENDROOT
BRANCH   1   2
ATOM      2  C   UNL     1      -1.583  12.137  -4.764  1.00  0.00     0.000 C 
BRANCH   2   3
ATOM      3  C   UNL     1      -0.514  13.114  -4.250  1.00  0.00     0.000 C 
BRANCH   3   4
ATOM      4  C   UNL     1       0.866  12.454  -4.088  1.00  0.00     0.000 C 
BRANCH   4   5
ATOM      5  C   UNL     1       0.826  11.218  -3.175  1.00  0.00     0.000 C 
BRANCH   5   6
ATOM      6  C   UNL     1       2.172  10.475  -3.128  1.00  0.00     0.000 C 
BRANCH   6   7
ATOM      7  C   UNL     1       2.293   9.550  -1.906  1.00  0.00     0.006 C 
BRANCH   7   8
ATOM      8  C   UNL     1       1.302   9.912  -0.793  1.00  0.00     0.053 C 
BRANCH   8   9
ATOM      9  C   UNL     1       1.302   8.859   0.269  1.00  0.00     0.041 C 
ATOM     10  O   UNL     1       2.376   8.289   0.597  1.00  0.00    -0.550 OA
ATOM     11  O   UNL     1       0.123   8.534   0.927  1.00  0.00    -0.550 OA
ENDBRANCH   8   9
ENDBRANCH   7   8
ENDBRANCH   6   7
ENDBRANCH   5   6
ENDBRANCH   4   5
ENDBRANCH   3   4
ENDBRANCH   2   3
ENDBRANCH   1   2
BRANCH   1  12
ATOM     12  C   UNL     1      -2.966  14.279  -4.594  1.00  0.00     0.000 C 
BRANCH  12  13
ATOM     13  C   UNL     1      -3.037  15.018  -5.942  1.00  0.00    -0.000 C 
BRANCH  13  14
ATOM     14  C   UNL     1      -1.912  16.052  -6.112  1.00  0.00    -0.000 C 
BRANCH  14  15
ATOM     15  C   UNL     1      -2.267  17.423  -5.514  1.00  0.00    -0.000 C 
BRANCH  15  16
ATOM     16  C   UNL     1      -1.104  17.971  -4.676  1.00  0.00    -0.000 C 
BRANCH  16  17
ATOM     17  C   UNL     1       0.144  17.071  -4.721  1.00  0.00    -0.000 C 
BRANCH  17  18
ATOM     18  C   UNL     1       0.360  16.187  -3.475  1.00  0.00    -0.000 C 
BRANCH  18  19
ATOM     19  C   UNL     1      -0.744  16.287  -2.407  1.00  0.00    -0.003 C 
ATOM     20  C   UNL     1      -0.247  15.945  -1.003  1.00  0.00     0.004 C 
ENDBRANCH  18  19
ENDBRANCH  17  18
ENDBRANCH  16  17
ENDBRANCH  15  16
ENDBRANCH  14  15
ENDBRANCH  13  14
ENDBRANCH  12  13
ENDBRANCH   1  12
TORSDOF 16
ENDMDL
MODEL 4
REMARK VINA RESULT:    -3.736      1.358      2.821
REMARK INTER + INTRA:          -8.693
REMARK INTER:                  -6.960
REMARK INTRA:                  -1.733
REMARK UNBOUND:                -1.463
REMARK SMILES CCCCCCCCCCCCCCCCCC(=O)[O-]
REMARK SMILES IDX 10 1 11 2 12 3 13 4 14 5 15 6 16 7 17 8 18 9 19 10 20 11
REMARK SMILES IDX 9 12 8 13 7 14 6 15 5 16 4 17 3 18 2 19 1 20
REMARK H PARENT
REMARK Flexibility Score: inf
ROOT
ATOM      1  C   UNL     1       0.364  13.132  -3.792  1.00  0.00     0.000 C 
ENDROOT
BRANCH   1   2
ATOM      2  C   UNL     1       0.400  11.595  -3.846  1.00  0.00     0.000 C 
BRANCH   2   3
ATOM      3  C   UNL     1       1.262  10.985  -2.731  1.00  0.00     0.000 C 
BRANCH   3   4
ATOM      4  C   UNL     1       2.412  10.119  -3.274  1.00  0.00     0.000 C 
BRANCH   4   5
ATOM      5  C   UNL     1       3.476   9.814  -2.208  1.00  0.00     0.000 C 
BRANCH   5   6
ATOM      6  C   UNL     1       3.787   8.312  -2.096  1.00  0.00     0.000 C 
BRANCH   6   7
ATOM      7  C   UNL     1       3.688   7.795  -0.652  1.00  0.00     0.006 C 
BRANCH   7   8
ATOM      8  C   UNL     1       2.928   8.757   0.269  1.00  0.00     0.053 C 
BRANCH   8   9
ATOM      9  C   UNL     1       1.525   8.281   0.478  1.00  0.00     0.041 C 
ATOM     10  O   UNL     1       1.304   7.083   0.794  1.00  0.00    -0.550 OA
ATOM     11  O   UNL     1       0.464   9.170   0.364  1.00  0.00    -0.550 OA
ENDBRANCH   8   9
ENDBRANCH   7   8
ENDBRANCH   6   7
ENDBRANCH   5   6
ENDBRANCH   4   5
ENDBRANCH   3   4
ENDBRANCH   2   3
ENDBRANCH   1   2
BRANCH   1  12
ATOM     12  C   UNL     1       1.040  13.776  -5.015  1.00  0.00     0.000 C 
BRANCH  12  13
ATOM     13  C   UNL     1       0.463  15.166  -5.338  1.00  0.00    -0.000 C 
BRANCH  13  14
ATOM     14  C   UNL     1      -0.076  15.889  -4.093  1.00  0.00    -0.000 C 
BRANCH  14  15
ATOM     15  C   UNL     1      -1.564  16.252  -4.213  1.00  0.00    -0.000 C 
BRANCH  15  16
ATOM     16  C   UNL     1      -2.017  16.227  -5.680  1.00  0.00    -0.000 C 
BRANCH  16  17
ATOM     17  C   UNL     1      -3.170  15.239  -5.935  1.00  0.00    -0.000 C 
BRANCH  17  18
ATOM     18  C   UNL     1      -3.283  14.086  -4.916  1.00  0.00    -0.000 C 
BRANCH  18  19
ATOM     19  C   UNL     1      -2.889  12.700  -5.455  1.00  0.00    -0.003 C 
ATOM     20  C   UNL     1      -3.083  11.585  -4.429  1.00  0.00     0.004 C 
ENDBRANCH  18  19
ENDBRANCH  17  18
ENDBRANCH  16  17
ENDBRANCH  15  16
ENDBRANCH  14  15
ENDBRANCH  13  14
ENDBRANCH  12  13
ENDBRANCH   1  12
TORSDOF 16
ENDMDL
MODEL 5
REMARK VINA RESULT:    -3.698      3.883      8.682
REMARK INTER + INTRA:          -8.621
REMARK INTER:                  -7.304
REMARK INTRA:                  -1.317
REMARK UNBOUND:                -1.463
REMARK SMILES CCCCCCCCCCCCCCCCCC(=O)[O-]
REMARK SMILES IDX 10 1 11 2 12 3 13 4 14 5 15 6 16 7 17 8 18 9 19 10 20 11
REMARK SMILES IDX 9 12 8 13 7 14 6 15 5 16 4 17 3 18 2 19 1 20
REMARK H PARENT
REMARK Flexibility Score: inf
ROOT
ATOM      1  C   UNL     1      -0.075  12.407  -3.875  1.00  0.00     0.000 C 
ENDROOT
BRANCH   1   2
ATOM      2  C   UNL     1      -1.418  11.754  -4.247  1.00  0.00     0.000 C 
BRANCH   2   3
ATOM      3  C   UNL     1      -2.274  12.646  -5.161  1.00  0.00     0.000 C 
BRANCH   3   4
ATOM      4  C   UNL     1      -2.969  13.786  -4.397  1.00  0.00     0.000 C 
BRANCH   4   5
ATOM      5  C   UNL     1      -2.256  15.136  -4.577  1.00  0.00     0.000 C 
BRANCH   5   6
ATOM      6  C   UNL     1      -1.905  15.802  -3.235  1.00  0.00     0.000 C 
BRANCH   6   7
ATOM      7  C   UNL     1      -0.429  16.222  -3.153  1.00  0.00     0.006 C 
BRANCH   7   8
ATOM      8  C   UNL     1       0.321  15.999  -4.472  1.00  0.00     0.053 C 
BRANCH   8   9
ATOM      9  C   UNL     1       1.387  17.034  -4.648  1.00  0.00     0.041 C 
ATOM     10  O   UNL     1       1.115  18.254  -4.501  1.00  0.00    -0.550 OA
ATOM     11  O   UNL     1       2.690  16.649  -4.934  1.00  0.00    -0.550 OA
ENDBRANCH   8   9
ENDBRANCH   7   8
ENDBRANCH   6   7
ENDBRANCH   5   6
ENDBRANCH   4   5
ENDBRANCH   3   4
ENDBRANCH   2   3
ENDBRANCH   1   2
BRANCH   1  12
ATOM     12  C   UNL     1       0.935  11.388  -3.320  1.00  0.00     0.000 C 
BRANCH  12  13
ATOM     13  C   UNL     1       0.440  10.717  -2.027  1.00  0.00    -0.000 C 
BRANCH  13  14
ATOM     14  C   UNL     1       1.538   9.901  -1.325  1.00  0.00    -0.000 C 
BRANCH  14  15
ATOM     15  C   UNL     1       2.688   9.515  -2.267  1.00  0.00    -0.000 C 
BRANCH  15  16
ATOM     16  C   UNL     1       3.731   8.657  -1.535  1.00  0.00    -0.000 C 
BRANCH  16  17
ATOM     17  C   UNL     1       3.649   8.792  -0.004  1.00  0.00    -0.000 C 
BRANCH  17  18
ATOM     18  C   UNL     1       4.055   7.531   0.788  1.00  0.00    -0.000 C 
BRANCH  18  19
ATOM     19  C   UNL     1       2.902   6.827   1.524  1.00  0.00    -0.003 C 
ATOM     20  C   UNL     1       1.524   7.246   1.012  1.00  0.00     0.004 C 
ENDBRANCH  18  19
ENDBRANCH  17  18
ENDBRANCH  16  17
ENDBRANCH  15  16
ENDBRANCH  14  15
ENDBRANCH  13  14
ENDBRANCH  12  13
ENDBRANCH   1  12
TORSDOF 16
ENDMDL
MODEL 6
REMARK VINA RESULT:    -3.479      1.255      1.926
REMARK INTER + INTRA:          -8.196
REMARK INTER:                  -7.081
REMARK INTRA:                  -1.115
REMARK UNBOUND:                -1.463
REMARK SMILES CCCCCCCCCCCCCCCCCC(=O)[O-]
REMARK SMILES IDX 10 1 11 2 12 3 13 4 14 5 15 6 16 7 17 8 18 9 19 10 20 11
REMARK SMILES IDX 9 12 8 13 7 14 6 15 5 16 4 17 3 18 2 19 1 20
REMARK H PARENT
REMARK Flexibility Score: inf
ROOT
ATOM      1  C   UNL     1      -1.606  11.351  -4.390  1.00  0.00     0.000 C 
ENDROOT
BRANCH   1   2
ATOM      2  C   UNL     1      -0.515  12.389  -4.075  1.00  0.00     0.000 C 
BRANCH   2   3
ATOM      3  C   UNL     1       0.712  11.767  -3.391  1.00  0.00     0.000 C 
BRANCH   3   4
ATOM      4  C   UNL     1       0.341  10.631  -2.422  1.00  0.00     0.000 C 
BRANCH   4   5
ATOM      5  C   UNL     1       1.482  10.285  -1.453  1.00  0.00     0.000 C 
BRANCH   5   6
ATOM      6  C   UNL     1       2.575   9.425  -2.110  1.00  0.00     0.000 C 
BRANCH   6   7
ATOM      7  C   UNL     1       3.276   8.495  -1.107  1.00  0.00     0.006 C 
BRANCH   7   8
ATOM      8  C   UNL     1       2.903   8.808   0.348  1.00  0.00     0.053 C 
BRANCH   8   9
ATOM      9  C   UNL     1       2.414   7.575   1.038  1.00  0.00     0.041 C 
ATOM     10  O   UNL     1       3.224   6.824   1.642  1.00  0.00    -0.550 OA
ATOM     11  O   UNL     1       1.059   7.275   1.051  1.00  0.00    -0.550 OA
ENDBRANCH   8   9
ENDBRANCH   7   8
ENDBRANCH   6   7
ENDBRANCH   5   6
ENDBRANCH   4   5
ENDBRANCH   3   4
ENDBRANCH   2   3
ENDBRANCH   1   2
BRANCH   1  12
ATOM     12  C   UNL     1      -2.980  12.001  -4.624  1.00  0.00     0.000 C 
BRANCH  12  13
ATOM     13  C   UNL     1      -2.975  12.965  -5.824  1.00  0.00    -0.000 C 
BRANCH  13  14
ATOM     14  C   UNL     1      -3.344  14.404  -5.430  1.00  0.00    -0.000 C 
BRANCH  14  15
ATOM     15  C   UNL     1      -2.201  15.401  -5.676  1.00  0.00    -0.000 C 
BRANCH  15  16
ATOM     16  C   UNL     1      -1.853  16.162  -4.388  1.00  0.00    -0.000 C 
BRANCH  16  17
ATOM     17  C   UNL     1      -0.349  16.129  -4.061  1.00  0.00    -0.000 C 
BRANCH  17  18
ATOM     18  C   UNL     1       0.379  17.484  -4.186  1.00  0.00    -0.000 C 
BRANCH  18  19
ATOM     19  C   UNL     1       1.455  17.545  -5.285  1.00  0.00    -0.003 C 
ATOM     20  C   UNL     1       2.607  18.487  -4.938  1.00  0.00     0.004 C 
ENDBRANCH  18  19
ENDBRANCH  17  18
ENDBRANCH  16  17
ENDBRANCH  15  16
ENDBRANCH  14  15
ENDBRANCH  13  14
ENDBRANCH  12  13
ENDBRANCH   1  12
TORSDOF 16
ENDMDL
MODEL 7
REMARK VINA RESULT:    -3.332      4.191      9.238
REMARK INTER + INTRA:          -7.913
REMARK INTER:                  -6.886
REMARK INTRA:                  -1.027
REMARK UNBOUND:                -1.463
REMARK SMILES CCCCCCCCCCCCCCCCCC(=O)[O-]
REMARK SMILES IDX 10 1 11 2 12 3 13 4 14 5 15 6 16 7 17 8 18 9 19 10 20 11
REMARK SMILES IDX 9 12 8 13 7 14 6 15 5 16 4 17 3 18 2 19 1 20
REMARK H PARENT
REMARK Flexibility Score: inf
ROOT
ATOM      1  C   UNL     1      -0.423  12.994  -4.182  1.00  0.00     0.000 C 
ENDROOT
BRANCH   1   2
ATOM      2  C   UNL     1      -0.321  14.497  -3.868  1.00  0.00     0.000 C 
BRANCH   2   3
ATOM      3  C   UNL     1      -1.680  15.210  -3.946  1.00  0.00     0.000 C 
BRANCH   3   4
ATOM      4  C   UNL     1      -2.380  15.010  -5.301  1.00  0.00     0.000 C 
BRANCH   4   5
ATOM      5  C   UNL     1      -2.451  16.305  -6.125  1.00  0.00     0.000 C 
BRANCH   5   6
ATOM      6  C   UNL     1      -2.132  17.556  -5.288  1.00  0.00     0.000 C 
BRANCH   6   7
ATOM      7  C   UNL     1      -0.838  18.253  -5.736  1.00  0.00     0.006 C 
BRANCH   7   8
ATOM      8  C   UNL     1       0.207  18.331  -4.616  1.00  0.00     0.053 C 
BRANCH   8   9
ATOM      9  C   UNL     1       1.560  17.962  -5.138  1.00  0.00     0.041 C 
ATOM     10  O   UNL     1       2.478  18.823  -5.184  1.00  0.00    -0.550 OA
ATOM     11  O   UNL     1       1.820  16.657  -5.534  1.00  0.00    -0.550 OA
ENDBRANCH   8   9
ENDBRANCH   7   8
ENDBRANCH   6   7
ENDBRANCH   5   6
ENDBRANCH   4   5
ENDBRANCH   3   4
ENDBRANCH   2   3
ENDBRANCH   1   2
BRANCH   1  12
ATOM     12  C   UNL     1       0.944  12.291  -4.127  1.00  0.00     0.000 C 
BRANCH  12  13
ATOM     13  C   UNL     1       1.018  11.242  -3.003  1.00  0.00    -0.000 C 
BRANCH  13  14
ATOM     14  C   UNL     1       2.171  10.244  -3.200  1.00  0.00    -0.000 C 
BRANCH  14  15
ATOM     15  C   UNL     1       2.846   9.846  -1.877  1.00  0.00    -0.000 C 
BRANCH  15  16
ATOM     16  C   UNL     1       1.796   9.514  -0.806  1.00  0.00    -0.000 C 
BRANCH  16  17
ATOM     17  C   UNL     1       1.591   8.001  -0.616  1.00  0.00    -0.000 C 
BRANCH  17  18
ATOM     18  C   UNL     1       1.461   7.535   0.849  1.00  0.00    -0.000 C 
BRANCH  18  19
ATOM     19  C   UNL     1       2.593   6.617   1.342  1.00  0.00    -0.003 C 
ATOM     20  C   UNL     1       3.852   7.386   1.744  1.00  0.00     0.004 C 
ENDBRANCH  18  19
ENDBRANCH  17  18
ENDBRANCH  16  17
ENDBRANCH  15  16
ENDBRANCH  14  15
ENDBRANCH  13  14
ENDBRANCH  12  13
ENDBRANCH   1  12
TORSDOF 16
ENDMDL
MODEL 8
REMARK VINA RESULT:    -3.320      2.021      3.525
REMARK INTER + INTRA:          -7.888
REMARK INTER:                  -6.834
REMARK INTRA:                  -1.054
REMARK UNBOUND:                -1.463
REMARK SMILES CCCCCCCCCCCCCCCCCC(=O)[O-]
REMARK SMILES IDX 10 1 11 2 12 3 13 4 14 5 15 6 16 7 17 8 18 9 19 10 20 11
REMARK SMILES IDX 9 12 8 13 7 14 6 15 5 16 4 17 3 18 2 19 1 20
REMARK H PARENT
REMARK Flexibility Score: inf
ROOT
ATOM      1  C   UNL     1       2.259  13.579  -5.347  1.00  0.00     0.000 C 
ENDROOT
BRANCH   1   2
ATOM      2  C   UNL     1       3.768  13.323  -5.504  1.00  0.00     0.000 C 
BRANCH   2   3
ATOM      3  C   UNL     1       4.123  11.830  -5.443  1.00  0.00     0.000 C 
BRANCH   3   4
ATOM      4  C   UNL     1       4.098  11.271  -4.010  1.00  0.00     0.000 C 
BRANCH   4   5
ATOM      5  C   UNL     1       3.107  10.108  -3.848  1.00  0.00     0.000 C 
BRANCH   5   6
ATOM      6  C   UNL     1       3.478   9.172  -2.684  1.00  0.00     0.000 C 
BRANCH   6   7
ATOM      7  C   UNL     1       2.820   9.589  -1.359  1.00  0.00     0.006 C 
BRANCH   7   8
ATOM      8  C   UNL     1       3.010   8.544  -0.253  1.00  0.00     0.053 C 
BRANCH   8   9
ATOM      9  C   UNL     1       1.698   8.213   0.385  1.00  0.00     0.041 C 
ATOM     10  O   UNL     1       1.607   7.239   1.177  1.00  0.00    -0.550 OA
ATOM     11  O   UNL     1       0.585   9.004   0.136  1.00  0.00    -0.550 OA
ENDBRANCH   8   9
ENDBRANCH   7   8
ENDBRANCH   6   7
ENDBRANCH   5   6
ENDBRANCH   4   5
ENDBRANCH   3   4
ENDBRANCH   2   3
ENDBRANCH   1   2
BRANCH   1  12
ATOM     12  C   UNL     1       1.792  14.821  -6.125  1.00  0.00     0.000 C 
BRANCH  12  13
ATOM     13  C   UNL     1       2.064  16.128  -5.358  1.00  0.00    -0.000 C 
BRANCH  13  14
ATOM     14  C   UNL     1       0.963  17.180  -5.571  1.00  0.00    -0.000 C 
BRANCH  14  15
ATOM     15  C   UNL     1       0.216  17.530  -4.275  1.00  0.00    -0.000 C 
BRANCH  15  16
ATOM     16  C   UNL     1      -0.629  16.342  -3.792  1.00  0.00    -0.000 C 
BRANCH  16  17
ATOM     17  C   UNL     1      -1.861  16.084  -4.677  1.00  0.00    -0.000 C 
BRANCH  17  18
ATOM     18  C   UNL     1      -1.946  14.670  -5.288  1.00  0.00    -0.000 C 
BRANCH  18  19
ATOM     19  C   UNL     1      -3.105  13.804  -4.765  1.00  0.00    -0.003 C 
ATOM     20  C   UNL     1      -2.841  12.305  -4.909  1.00  0.00     0.004 C 
ENDBRANCH  18  19
ENDBRANCH  17  18
ENDBRANCH  16  17
ENDBRANCH  15  16
ENDBRANCH  14  15
ENDBRANCH  13  14
ENDBRANCH  12  13
ENDBRANCH   1  12
TORSDOF 16
ENDMDL
MODEL 9
REMARK VINA RESULT:    -1.861      3.317      7.379
REMARK INTER + INTRA:          -5.065
REMARK INTER:                  -3.853
REMARK INTRA:                  -1.212
REMARK UNBOUND:                -1.463
REMARK SMILES CCCCCCCCCCCCCCCCCC(=O)[O-]
REMARK SMILES IDX 10 1 11 2 12 3 13 4 14 5 15 6 16 7 17 8 18 9 19 10 20 11
REMARK SMILES IDX 9 12 8 13 7 14 6 15 5 16 4 17 3 18 2 19 1 20
REMARK H PARENT
REMARK Flexibility Score: inf
ROOT
ATOM      1  C   UNL     1      -2.607  14.164  -4.554  1.00  0.00     0.000 C 
ENDROOT
BRANCH   1   2
ATOM      2  C   UNL     1      -2.992  15.307  -5.510  1.00  0.00     0.000 C 
BRANCH   2   3
ATOM      3  C   UNL     1      -1.766  16.037  -6.080  1.00  0.00     0.000 C 
BRANCH   3   4
ATOM      4  C   UNL     1      -0.511  15.147  -6.125  1.00  0.00     0.000 C 
BRANCH   4   5
ATOM      5  C   UNL     1       0.690  15.784  -5.410  1.00  0.00     0.000 C 
BRANCH   5   6
ATOM      6  C   UNL     1       0.358  17.162  -4.810  1.00  0.00     0.000 C 
BRANCH   6   7
ATOM      7  C   UNL     1      -0.408  17.058  -3.482  1.00  0.00     0.006 C 
BRANCH   7   8
ATOM      8  C   UNL     1       0.009  15.836  -2.655  1.00  0.00     0.053 C 
BRANCH   8   9
ATOM      9  C   UNL     1      -0.514  15.948  -1.258  1.00  0.00     0.041 C 
ATOM     10  O   UNL     1      -1.753  15.907  -1.040  1.00  0.00    -0.550 OA
ATOM     11  O   UNL     1       0.368  16.056  -0.191  1.00  0.00    -0.550 OA
ENDBRANCH   8   9
ENDBRANCH   7   8
ENDBRANCH   6   7
ENDBRANCH   5   6
ENDBRANCH   4   5
ENDBRANCH   3   4
ENDBRANCH   2   3
ENDBRANCH   1   2
BRANCH   1  12
ATOM     12  C   UNL     1      -2.712  12.783  -5.224  1.00  0.00     0.000 C 
BRANCH  12  13
ATOM     13  C   UNL     1      -1.780  11.745  -4.574  1.00  0.00    -0.000 C 
BRANCH  13  14
ATOM     14  C   UNL     1      -0.622  12.392  -3.796  1.00  0.00    -0.000 C 
BRANCH  14  15
ATOM     15  C   UNL     1       0.684  11.587  -3.894  1.00  0.00    -0.000 C 
BRANCH  15  16
ATOM     16  C   UNL     1       1.069  11.002  -2.527  1.00  0.00    -0.000 C 
BRANCH  16  17
ATOM     17  C   UNL     1       2.219   9.982  -2.615  1.00  0.00    -0.000 C 
BRANCH  17  18
ATOM     18  C   UNL     1       2.647   9.359  -1.269  1.00  0.00    -0.000 C 
BRANCH  18  19
ATOM     19  C   UNL     1       1.554   9.337  -0.186  1.00  0.00    -0.003 C 
ATOM     20  C   UNL     1       1.124   7.921   0.197  1.00  0.00     0.004 C 
ENDBRANCH  18  19
ENDBRANCH  17  18
ENDBRANCH  16  17
ENDBRANCH  15  16
ENDBRANCH  14  15
ENDBRANCH  13  14
ENDBRANCH  12  13
ENDBRANCH   1  12
TORSDOF 16
ENDMDL
