MODEL 1
REMARK VINA RESULT:    -2.932      0.000      0.000
REMARK INTER + INTRA:          -2.689
REMARK INTER:                  -3.189
REMARK INTRA:                   0.500
REMARK UNBOUND:                 0.500
REMARK SMILES CC1=CC[C@@H](C(C)(C)O)CC1
REMARK SMILES IDX 6 1 7 2 8 3 5 4 1 5 2 6 3 7 11 8 4 9 10 10 9 11
REMARK H PARENT 9 12
REMARK Flexibility Score: inf
ROOT
ATOM      1  C   UNL     1      36.302 -34.356 -10.087  1.00  0.00     0.062 C 
ATOM      2  C   UNL     1      36.646 -35.698  -9.398  1.00  0.00     0.042 C 
ATOM      3  C   UNL     1      37.490 -33.390  -9.866  1.00  0.00     0.042 C 
ENDROOT
BRANCH   1   4
ATOM      4  C   UNL     1      36.053 -34.565 -11.631  1.00  0.00     0.024 C 
ATOM      5  C   UNL     1      32.458 -37.095 -11.382  1.00  0.00     0.039 C 
ATOM      6  C   UNL     1      33.679 -36.257 -11.643  1.00  0.00    -0.077 C 
ATOM      7  C   UNL     1      33.537 -34.926 -11.813  1.00  0.00    -0.028 C 
ATOM      8  C   UNL     1      35.044 -36.916 -11.581  1.00  0.00     0.031 C 
ATOM      9  C   UNL     1      34.695 -34.011 -12.125  1.00  0.00     0.034 C 
ATOM     10  C   UNL     1      36.169 -36.027 -12.125  1.00  0.00     0.011 C 
ENDBRANCH   1   4
BRANCH   1  11
ATOM     11  O   UNL     1      35.148 -33.809  -9.490  1.00  0.00    -0.390 OA
ATOM     12  H   UNL     1      34.509 -33.571 -10.212  1.00  0.00     0.211 HD
ENDBRANCH   1  11
TORSDOF 2
ENDMDL
MODEL 2
REMARK VINA RESULT:    -2.507      1.785      4.050
REMARK INTER + INTRA:          -2.227
REMARK INTER:                  -2.731
REMARK INTRA:                   0.504
REMARK UNBOUND:                 0.500
REMARK SMILES CC1=CC[C@@H](C(C)(C)O)CC1
REMARK SMILES IDX 6 1 7 2 8 3 5 4 1 5 2 6 3 7 11 8 4 9 10 10 9 11
REMARK H PARENT 9 12
REMARK Flexibility Score: inf
ROOT
ATOM      1  C   UNL     1      35.750 -36.127 -11.040  1.00  0.00     0.062 C 
ATOM      2  C   UNL     1      36.309 -37.106  -9.980  1.00  0.00     0.042 C 
ATOM      3  C   UNL     1      34.396 -36.689 -11.538  1.00  0.00     0.042 C 
ENDROOT
BRANCH   1   4
ATOM      4  C   UNL     1      35.544 -34.689 -10.424  1.00  0.00     0.024 C 
ATOM      5  C   UNL     1      39.103 -32.730 -12.123  1.00  0.00     0.039 C 
ATOM      6  C   UNL     1      37.859 -33.247 -11.455  1.00  0.00    -0.077 C 
ATOM      7  C   UNL     1      36.675 -33.129 -12.093  1.00  0.00    -0.028 C 
ATOM      8  C   UNL     1      37.991 -33.996 -10.144  1.00  0.00     0.031 C 
ATOM      9  C   UNL     1      35.369 -33.575 -11.484  1.00  0.00     0.034 C 
ATOM     10  C   UNL     1      36.648 -34.229  -9.441  1.00  0.00     0.011 C 
ENDBRANCH   1   4
BRANCH   1  11
ATOM     11  O   UNL     1      36.645 -36.054 -12.125  1.00  0.00    -0.390 OA
ATOM     12  H   UNL     1      37.217 -36.866 -12.109  1.00  0.00     0.211 HD
ENDBRANCH   1  11
TORSDOF 2
ENDMDL
MODEL 3
REMARK VINA RESULT:    -2.502      2.090      3.247
REMARK INTER + INTRA:          -2.221
REMARK INTER:                  -2.662
REMARK INTRA:                   0.442
REMARK UNBOUND:                 0.500
REMARK SMILES CC1=CC[C@@H](C(C)(C)O)CC1
REMARK SMILES IDX 6 1 7 2 8 3 5 4 1 5 2 6 3 7 11 8 4 9 10 10 9 11
REMARK H PARENT 9 12
REMARK Flexibility Score: inf
ROOT
ATOM      1  C   UNL     1      37.931 -36.047  -9.707  1.00  0.00     0.062 C 
ATOM      2  C   UNL     1      36.622 -36.673  -9.170  1.00  0.00     0.042 C 
ATOM      3  C   UNL     1      39.117 -36.849  -9.117  1.00  0.00     0.042 C 
ENDROOT
BRANCH   1   4
ATOM      4  C   UNL     1      37.974 -36.099 -11.283  1.00  0.00     0.024 C 
ATOM      5  C   UNL     1      35.370 -32.649 -12.125  1.00  0.00     0.039 C 
ATOM      6  C   UNL     1      36.262 -33.854 -12.014  1.00  0.00    -0.077 C 
ATOM      7  C   UNL     1      37.601 -33.680 -11.996  1.00  0.00    -0.028 C 
ATOM      8  C   UNL     1      35.628 -35.215 -11.798  1.00  0.00     0.031 C 
ATOM      9  C   UNL     1      38.575 -34.830 -11.933  1.00  0.00     0.034 C 
ATOM     10  C   UNL     1      36.615 -36.376 -11.971  1.00  0.00     0.011 C 
ENDBRANCH   1   4
BRANCH   1  11
ATOM     11  O   UNL     1      38.020 -34.710  -9.274  1.00  0.00    -0.390 OA
ATOM     12  H   UNL     1      37.859 -34.119 -10.056  1.00  0.00     0.211 HD
ENDBRANCH   1  11
TORSDOF 2
ENDMDL
MODEL 4
REMARK VINA RESULT:    -2.327      1.718      2.795
REMARK INTER + INTRA:          -2.031
REMARK INTER:                  -2.586
REMARK INTRA:                   0.555
REMARK UNBOUND:                 0.500
REMARK SMILES CC1=CC[C@@H](C(C)(C)O)CC1
REMARK SMILES IDX 6 1 7 2 8 3 5 4 1 5 2 6 3 7 11 8 4 9 10 10 9 11
REMARK H PARENT 9 12
REMARK Flexibility Score: inf
ROOT
ATOM      1  C   UNL     1      38.081 -34.526 -10.821  1.00  0.00     0.062 C 
ATOM      2  C   UNL     1      38.786 -33.149 -10.872  1.00  0.00     0.042 C 
ATOM      3  C   UNL     1      39.125 -35.578 -10.373  1.00  0.00     0.042 C 
ENDROOT
BRANCH   1   4
ATOM      4  C   UNL     1      36.871 -34.501  -9.809  1.00  0.00     0.024 C 
ATOM      5  C   UNL     1      34.037 -36.958 -12.117  1.00  0.00     0.039 C 
ATOM      6  C   UNL     1      34.872 -36.095 -11.212  1.00  0.00    -0.077 C 
ATOM      7  C   UNL     1      35.634 -36.683 -10.265  1.00  0.00    -0.028 C 
ATOM      8  C   UNL     1      34.929 -34.602 -11.474  1.00  0.00     0.031 C 
ATOM      9  C   UNL     1      36.468 -35.900  -9.283  1.00  0.00     0.034 C 
ATOM     10  C   UNL     1      35.587 -33.814 -10.335  1.00  0.00     0.011 C 
ENDBRANCH   1   4
BRANCH   1  11
ATOM     11  O   UNL     1      37.617 -34.859 -12.109  1.00  0.00    -0.390 OA
ATOM     12  H   UNL     1      37.477 -35.842 -12.143  1.00  0.00     0.211 HD
ENDBRANCH   1  11
TORSDOF 2
ENDMDL
MODEL 5
REMARK VINA RESULT:    -2.137      1.942      2.879
REMARK INTER + INTRA:          -1.825
REMARK INTER:                  -2.547
REMARK INTRA:                   0.722
REMARK UNBOUND:                 0.500
REMARK SMILES CC1=CC[C@@H](C(C)(C)O)CC1
REMARK SMILES IDX 6 1 7 2 8 3 5 4 1 5 2 6 3 7 11 8 4 9 10 10 9 11
REMARK H PARENT 9 12
REMARK Flexibility Score: inf
ROOT
ATOM      1  C   UNL     1      37.766 -33.791 -10.502  1.00  0.00     0.062 C 
ATOM      2  C   UNL     1      37.704 -33.488 -12.018  1.00  0.00     0.042 C 
ATOM      3  C   UNL     1      36.383 -33.456  -9.894  1.00  0.00     0.042 C 
ENDROOT
BRANCH   1   4
ATOM      4  C   UNL     1      38.117 -35.307 -10.245  1.00  0.00     0.024 C 
ATOM      5  C   UNL     1      34.535 -37.125 -12.048  1.00  0.00     0.039 C 
ATOM      6  C   UNL     1      35.804 -36.670 -11.383  1.00  0.00    -0.077 C 
ATOM      7  C   UNL     1      36.926 -36.549 -12.125  1.00  0.00    -0.028 C 
ATOM      8  C   UNL     1      35.754 -36.238  -9.930  1.00  0.00     0.031 C 
ATOM      9  C   UNL     1      38.256 -36.144 -11.539  1.00  0.00     0.034 C 
ATOM     10  C   UNL     1      37.143 -36.058  -9.305  1.00  0.00     0.011 C 
ENDBRANCH   1   4
BRANCH   1  11
ATOM     11  O   UNL     1      38.742 -32.969  -9.903  1.00  0.00    -0.390 OA
ATOM     12  H   UNL     1      39.573 -33.030 -10.444  1.00  0.00     0.211 HD
ENDBRANCH   1  11
TORSDOF 2
ENDMDL
MODEL 6
REMARK VINA RESULT:    -2.032      1.820      3.256
REMARK INTER + INTRA:          -1.710
REMARK INTER:                  -2.234
REMARK INTRA:                   0.525
REMARK UNBOUND:                 0.500
REMARK SMILES CC1=CC[C@@H](C(C)(C)O)CC1
REMARK SMILES IDX 6 1 7 2 8 3 5 4 1 5 2 6 3 7 11 8 4 9 10 10 9 11
REMARK H PARENT 9 12
REMARK Flexibility Score: inf
ROOT
ATOM      1  C   UNL     1      38.000 -36.244 -10.750  1.00  0.00     0.062 C 
ATOM      2  C   UNL     1      38.923 -36.912  -9.703  1.00  0.00     0.042 C 
ATOM      3  C   UNL     1      38.216 -36.965 -12.103  1.00  0.00     0.042 C 
ENDROOT
BRANCH   1   4
ATOM      4  C   UNL     1      36.487 -36.351 -10.316  1.00  0.00     0.024 C 
ATOM      5  C   UNL     1      35.019 -32.614 -12.125  1.00  0.00     0.039 C 
ATOM      6  C   UNL     1      35.356 -33.908 -11.439  1.00  0.00    -0.077 C 
ATOM      7  C   UNL     1      35.229 -35.065 -12.123  1.00  0.00    -0.028 C 
ATOM      8  C   UNL     1      35.951 -33.863 -10.044  1.00  0.00     0.031 C 
ATOM      9  C   UNL     1      35.499 -36.415 -11.506  1.00  0.00     0.034 C 
ATOM     10  C   UNL     1      35.995 -35.236  -9.361  1.00  0.00     0.011 C 
ENDBRANCH   1   4
BRANCH   1  11
ATOM     11  O   UNL     1      38.359 -34.889 -10.890  1.00  0.00    -0.390 OA
ATOM     12  H   UNL     1      37.558 -34.334 -10.698  1.00  0.00     0.211 HD
ENDBRANCH   1  11
TORSDOF 2
ENDMDL
MODEL 7
REMARK VINA RESULT:    -0.590      1.329      1.629
REMARK INTER + INTRA:          -0.142
REMARK INTER:                  -0.695
REMARK INTRA:                   0.553
REMARK UNBOUND:                 0.500
REMARK SMILES CC1=CC[C@@H](C(C)(C)O)CC1
REMARK SMILES IDX 6 1 7 2 8 3 5 4 1 5 2 6 3 7 11 8 4 9 10 10 9 11
REMARK H PARENT 9 12
REMARK Flexibility Score: inf
ROOT
ATOM      1  C   UNL     1      37.266 -35.842  -9.953  1.00  0.00     0.062 C 
ATOM      2  C   UNL     1      36.505 -37.012  -9.284  1.00  0.00     0.042 C 
ATOM      3  C   UNL     1      38.760 -35.963  -9.564  1.00  0.00     0.042 C 
ENDROOT
BRANCH   1   4
ATOM      4  C   UNL     1      37.110 -35.893 -11.522  1.00  0.00     0.024 C 
ATOM      5  C   UNL     1      32.720 -35.640 -11.753  1.00  0.00     0.039 C 
ATOM      6  C   UNL     1      34.216 -35.748 -11.851  1.00  0.00    -0.077 C 
ATOM      7  C   UNL     1      34.948 -34.620 -11.974  1.00  0.00    -0.028 C 
ATOM      8  C   UNL     1      34.863 -37.109 -11.681  1.00  0.00     0.031 C 
ATOM      9  C   UNL     1      36.449 -34.631 -12.125  1.00  0.00     0.034 C 
ATOM     10  C   UNL     1      36.347 -37.125 -12.068  1.00  0.00     0.011 C 
ENDBRANCH   1   4
BRANCH   1  11
ATOM     11  O   UNL     1      36.762 -34.620  -9.465  1.00  0.00    -0.390 OA
ATOM     12  H   UNL     1      37.503 -33.958  -9.463  1.00  0.00     0.211 HD
ENDBRANCH   1  11
TORSDOF 2
ENDMDL
