MODEL 1
REMARK VINA RESULT:    -4.620      0.000      0.000
REMARK INTER + INTRA:          -6.698
REMARK INTER:                  -6.241
REMARK INTRA:                  -0.457
REMARK UNBOUND:                -0.457
REMARK SMILES CCCCCCCC(=O)[O-]
REMARK SMILES IDX 5 1 6 2 7 3 8 4 9 5 10 6 4 7 3 8 2 9 1 10
REMARK H PARENT
REMARK Flexibility Score: inf
ROOT
ATOM      1  C   UNL     1       9.997  53.810  21.339  1.00  0.00     0.000 C 
ENDROOT
BRANCH   1   2
ATOM      2  C   UNL     1       8.547  53.991  20.864  1.00  0.00     0.006 C 
BRANCH   2   3
ATOM      3  C   UNL     1       8.018  55.405  21.142  1.00  0.00     0.053 C 
BRANCH   3   4
ATOM      4  C   UNL     1       7.262  55.954  19.971  1.00  0.00     0.041 C 
ATOM      5  O   UNL     1       6.457  56.910  20.128  1.00  0.00    -0.550 OA
ATOM      6  O   UNL     1       7.423  55.388  18.713  1.00  0.00    -0.550 OA
ENDBRANCH   3   4
ENDBRANCH   2   3
ENDBRANCH   1   2
BRANCH   1   7
ATOM      7  C   UNL     1      10.042  53.178  22.738  1.00  0.00     0.000 C 
BRANCH   7   8
ATOM      8  C   UNL     1      10.301  54.211  23.846  1.00  0.00    -0.000 C 
BRANCH   8   9
ATOM      9  C   UNL     1       9.247  54.156  24.962  1.00  0.00    -0.003 C 
ATOM     10  C   UNL     1       8.016  53.372  24.517  1.00  0.00     0.004 C 
ENDBRANCH   8   9
ENDBRANCH   7   8
ENDBRANCH   1   7
TORSDOF 6
ENDMDL
MODEL 2
REMARK VINA RESULT:    -4.574      3.121      5.333
REMARK INTER + INTRA:          -6.634
REMARK INTER:                  -6.329
REMARK INTRA:                  -0.305
REMARK UNBOUND:                -0.457
REMARK SMILES CCCCCCCC(=O)[O-]
REMARK SMILES IDX 5 1 6 2 7 3 8 4 9 5 10 6 4 7 3 8 2 9 1 10
REMARK H PARENT
REMARK Flexibility Score: inf
ROOT
ATOM      1  C   UNL     1       7.063  54.359  21.282  1.00  0.00     0.000 C 
ENDROOT
BRANCH   1   2
ATOM      2  C   UNL     1       8.504  54.761  21.630  1.00  0.00     0.006 C 
BRANCH   2   3
ATOM      3  C   UNL     1       9.527  53.712  21.170  1.00  0.00     0.053 C 
BRANCH   3   4
ATOM      4  C   UNL     1      10.069  52.924  22.323  1.00  0.00     0.041 C 
ATOM      5  O   UNL     1      10.343  53.497  23.410  1.00  0.00    -0.550 OA
ATOM      6  O   UNL     1      10.302  51.562  22.184  1.00  0.00    -0.550 OA
ENDBRANCH   3   4
ENDBRANCH   2   3
ENDBRANCH   1   2
BRANCH   1   7
ATOM      7  C   UNL     1       6.401  55.411  20.381  1.00  0.00     0.000 C 
BRANCH   7   8
ATOM      8  C   UNL     1       7.217  55.701  19.111  1.00  0.00    -0.000 C 
BRANCH   8   9
ATOM      9  C   UNL     1       7.197  54.532  18.115  1.00  0.00    -0.003 C 
ATOM     10  C   UNL     1       6.774  55.001  16.726  1.00  0.00     0.004 C 
ENDBRANCH   8   9
ENDBRANCH   7   8
ENDBRANCH   1   7
TORSDOF 6
ENDMDL
MODEL 3
REMARK VINA RESULT:    -4.552      3.072      5.271
REMARK INTER + INTRA:          -6.605
REMARK INTER:                  -6.352
REMARK INTRA:                  -0.253
REMARK UNBOUND:                -0.457
REMARK SMILES CCCCCCCC(=O)[O-]
REMARK SMILES IDX 5 1 6 2 7 3 8 4 9 5 10 6 4 7 3 8 2 9 1 10
REMARK H PARENT
REMARK Flexibility Score: inf
ROOT
ATOM      1  C   UNL     1       8.283  54.193  20.855  1.00  0.00     0.000 C 
ENDROOT
BRANCH   1   2
ATOM      2  C   UNL     1       9.734  53.963  21.304  1.00  0.00     0.006 C 
BRANCH   2   3
ATOM      3  C   UNL     1       9.828  53.007  22.501  1.00  0.00     0.053 C 
BRANCH   3   4
ATOM      4  C   UNL     1       9.814  53.745  23.804  1.00  0.00     0.041 C 
ATOM      5  O   UNL     1       8.750  53.831  24.472  1.00  0.00    -0.550 OA
ATOM      6  O   UNL     1      10.968  54.366  24.263  1.00  0.00    -0.550 OA
ENDBRANCH   3   4
ENDBRANCH   2   3
ENDBRANCH   1   2
BRANCH   1   7
ATOM      7  C   UNL     1       8.032  55.676  20.546  1.00  0.00     0.000 C 
BRANCH   7   8
ATOM      8  C   UNL     1       7.319  55.888  19.201  1.00  0.00    -0.000 C 
BRANCH   8   9
ATOM      9  C   UNL     1       7.299  54.619  18.336  1.00  0.00    -0.003 C 
ATOM     10  C   UNL     1       6.826  54.929  16.918  1.00  0.00     0.004 C 
ENDBRANCH   8   9
ENDBRANCH   7   8
ENDBRANCH   1   7
TORSDOF 6
ENDMDL
MODEL 4
REMARK VINA RESULT:    -4.505      3.018      4.702
REMARK INTER + INTRA:          -6.542
REMARK INTER:                  -6.191
REMARK INTRA:                  -0.351
REMARK UNBOUND:                -0.457
REMARK SMILES CCCCCCCC(=O)[O-]
REMARK SMILES IDX 5 1 6 2 7 3 8 4 9 5 10 6 4 7 3 8 2 9 1 10
REMARK H PARENT
REMARK Flexibility Score: inf
ROOT
ATOM      1  C   UNL     1       9.668  53.642  21.146  1.00  0.00     0.000 C 
ENDROOT
BRANCH   1   2
ATOM      2  C   UNL     1      10.248  53.651  22.569  1.00  0.00     0.006 C 
BRANCH   2   3
ATOM      3  C   UNL     1       9.554  54.680  23.472  1.00  0.00     0.053 C 
BRANCH   3   4
ATOM      4  C   UNL     1       9.015  54.050  24.719  1.00  0.00     0.041 C 
ATOM      5  O   UNL     1       9.638  54.163  25.807  1.00  0.00    -0.550 OA
ATOM      6  O   UNL     1       7.840  53.311  24.671  1.00  0.00    -0.550 OA
ENDBRANCH   3   4
ENDBRANCH   2   3
ENDBRANCH   1   2
BRANCH   1   7
ATOM      7  C   UNL     1       8.187  54.046  21.154  1.00  0.00     0.000 C 
BRANCH   7   8
ATOM      8  C   UNL     1       7.736  54.674  19.825  1.00  0.00    -0.000 C 
BRANCH   8   9
ATOM      9  C   UNL     1       7.575  56.198  19.915  1.00  0.00    -0.003 C 
ATOM     10  C   UNL     1       6.498  56.577  20.927  1.00  0.00     0.004 C 
ENDBRANCH   8   9
ENDBRANCH   7   8
ENDBRANCH   1   7
TORSDOF 6
ENDMDL
MODEL 5
REMARK VINA RESULT:    -4.411      1.627      2.434
REMARK INTER + INTRA:          -6.414
REMARK INTER:                  -6.122
REMARK INTRA:                  -0.293
REMARK UNBOUND:                -0.457
REMARK SMILES CCCCCCCC(=O)[O-]
REMARK SMILES IDX 5 1 6 2 7 3 8 4 9 5 10 6 4 7 3 8 2 9 1 10
REMARK H PARENT
REMARK Flexibility Score: inf
ROOT
ATOM      1  C   UNL     1       8.087  55.217  21.396  1.00  0.00     0.000 C 
ENDROOT
BRANCH   1   2
ATOM      2  C   UNL     1       6.936  55.478  20.414  1.00  0.00     0.006 C 
BRANCH   2   3
ATOM      3  C   UNL     1       7.440  55.866  19.017  1.00  0.00     0.053 C 
BRANCH   3   4
ATOM      4  C   UNL     1       6.957  54.913  17.968  1.00  0.00     0.041 C 
ATOM      5  O   UNL     1       6.919  55.266  16.760  1.00  0.00    -0.550 OA
ATOM      6  O   UNL     1       6.517  53.647  18.329  1.00  0.00    -0.550 OA
ENDBRANCH   3   4
ENDBRANCH   2   3
ENDBRANCH   1   2
BRANCH   1   7
ATOM      7  C   UNL     1       9.018  54.114  20.871  1.00  0.00     0.000 C 
BRANCH   7   8
ATOM      8  C   UNL     1       9.939  53.546  21.962  1.00  0.00    -0.000 C 
BRANCH   8   9
ATOM      9  C   UNL     1       9.471  53.910  23.379  1.00  0.00    -0.003 C 
ATOM     10  C   UNL     1      10.644  54.356  24.247  1.00  0.00     0.004 C 
ENDBRANCH   8   9
ENDBRANCH   7   8
ENDBRANCH   1   7
TORSDOF 6
ENDMDL
MODEL 6
REMARK VINA RESULT:    -4.285      3.061      5.032
REMARK INTER + INTRA:          -6.244
REMARK INTER:                  -5.841
REMARK INTRA:                  -0.403
REMARK UNBOUND:                -0.457
REMARK SMILES CCCCCCCC(=O)[O-]
REMARK SMILES IDX 5 1 6 2 7 3 8 4 9 5 10 6 4 7 3 8 2 9 1 10
REMARK H PARENT
REMARK Flexibility Score: inf
ROOT
ATOM      1  C   UNL     1       6.513  54.408  22.031  1.00  0.00     0.000 C 
ENDROOT
BRANCH   1   2
ATOM      2  C   UNL     1       7.776  53.583  21.746  1.00  0.00     0.006 C 
BRANCH   2   3
ATOM      3  C   UNL     1       9.061  54.353  22.081  1.00  0.00     0.053 C 
BRANCH   3   4
ATOM      4  C   UNL     1      10.054  53.490  22.798  1.00  0.00     0.041 C 
ATOM      5  O   UNL     1      10.668  53.932  23.804  1.00  0.00    -0.550 OA
ATOM      6  O   UNL     1      10.324  52.209  22.333  1.00  0.00    -0.550 OA
ENDBRANCH   3   4
ENDBRANCH   2   3
ENDBRANCH   1   2
BRANCH   1   7
ATOM      7  C   UNL     1       5.883  54.917  20.726  1.00  0.00     0.000 C 
BRANCH   7   8
ATOM      8  C   UNL     1       6.516  54.285  19.476  1.00  0.00    -0.000 C 
BRANCH   8   9
ATOM      9  C   UNL     1       7.148  55.328  18.543  1.00  0.00    -0.003 C 
ATOM     10  C   UNL     1       7.627  56.547  19.325  1.00  0.00     0.004 C 
ENDBRANCH   8   9
ENDBRANCH   7   8
ENDBRANCH   1   7
TORSDOF 6
ENDMDL
MODEL 7
REMARK VINA RESULT:    -4.249      1.648      2.332
REMARK INTER + INTRA:          -6.196
REMARK INTER:                  -6.080
REMARK INTRA:                  -0.115
REMARK UNBOUND:                -0.457
REMARK SMILES CCCCCCCC(=O)[O-]
REMARK SMILES IDX 5 1 6 2 7 3 8 4 9 5 10 6 4 7 3 8 2 9 1 10
REMARK H PARENT
REMARK Flexibility Score: inf
ROOT
ATOM      1  C   UNL     1       8.556  54.855  21.260  1.00  0.00     0.000 C 
ENDROOT
BRANCH   1   2
ATOM      2  C   UNL     1       7.635  55.187  20.077  1.00  0.00     0.006 C 
BRANCH   2   3
ATOM      3  C   UNL     1       6.942  56.547  20.244  1.00  0.00     0.053 C 
BRANCH   3   4
ATOM      4  C   UNL     1       5.625  56.416  20.946  1.00  0.00     0.041 C 
ATOM      5  O   UNL     1       5.351  55.369  21.589  1.00  0.00    -0.550 OA
ATOM      6  O   UNL     1       4.688  57.438  20.860  1.00  0.00    -0.550 OA
ENDBRANCH   3   4
ENDBRANCH   2   3
ENDBRANCH   1   2
BRANCH   1   7
ATOM      7  C   UNL     1       9.444  53.643  20.941  1.00  0.00     0.000 C 
BRANCH   7   8
ATOM      8  C   UNL     1      10.423  53.309  22.078  1.00  0.00    -0.000 C 
BRANCH   8   9
ATOM      9  C   UNL     1       9.818  53.552  23.469  1.00  0.00    -0.003 C 
ATOM     10  C   UNL     1      10.732  54.431  24.319  1.00  0.00     0.004 C 
ENDBRANCH   8   9
ENDBRANCH   7   8
ENDBRANCH   1   7
TORSDOF 6
ENDMDL
MODEL 8
REMARK VINA RESULT:    -4.188      1.170      2.068
REMARK INTER + INTRA:          -6.114
REMARK INTER:                  -5.668
REMARK INTRA:                  -0.446
REMARK UNBOUND:                -0.457
REMARK SMILES CCCCCCCC(=O)[O-]
REMARK SMILES IDX 5 1 6 2 7 3 8 4 9 5 10 6 4 7 3 8 2 9 1 10
REMARK H PARENT
REMARK Flexibility Score: inf
ROOT
ATOM      1  C   UNL     1       6.866  54.001  22.574  1.00  0.00     0.000 C 
ENDROOT
BRANCH   1   2
ATOM      2  C   UNL     1       7.119  54.077  21.061  1.00  0.00     0.006 C 
BRANCH   2   3
ATOM      3  C   UNL     1       8.002  55.273  20.678  1.00  0.00     0.053 C 
BRANCH   3   4
ATOM      4  C   UNL     1       7.201  56.381  20.067  1.00  0.00     0.041 C 
ATOM      5  O   UNL     1       7.648  57.014  19.075  1.00  0.00    -0.550 OA
ATOM      6  O   UNL     1       5.974  56.734  20.614  1.00  0.00    -0.550 OA
ENDBRANCH   3   4
ENDBRANCH   2   3
ENDBRANCH   1   2
BRANCH   1   7
ATOM      7  C   UNL     1       7.910  53.108  23.261  1.00  0.00     0.000 C 
BRANCH   7   8
ATOM      8  C   UNL     1       8.603  53.807  24.442  1.00  0.00    -0.000 C 
BRANCH   8   9
ATOM      9  C   UNL     1      10.019  54.290  24.095  1.00  0.00    -0.003 C 
ATOM     10  C   UNL     1      10.538  53.606  22.833  1.00  0.00     0.004 C 
ENDBRANCH   8   9
ENDBRANCH   7   8
ENDBRANCH   1   7
TORSDOF 6
ENDMDL
MODEL 9
REMARK VINA RESULT:    -3.656      8.632     10.007
REMARK INTER + INTRA:          -5.395
REMARK INTER:                  -4.940
REMARK INTRA:                  -0.455
REMARK UNBOUND:                -0.457
REMARK SMILES CCCCCCCC(=O)[O-]
REMARK SMILES IDX 5 1 6 2 7 3 8 4 9 5 10 6 4 7 3 8 2 9 1 10
REMARK H PARENT
REMARK Flexibility Score: inf
ROOT
ATOM      1  C   UNL     1      12.794  47.949  23.673  1.00  0.00     0.000 C 
ENDROOT
BRANCH   1   2
ATOM      2  C   UNL     1      12.289  48.004  25.123  1.00  0.00     0.006 C 
BRANCH   2   3
ATOM      3  C   UNL     1      12.925  46.918  26.002  1.00  0.00     0.053 C 
BRANCH   3   4
ATOM      4  C   UNL     1      13.887  47.498  26.992  1.00  0.00     0.041 C 
ATOM      5  O   UNL     1      14.197  48.717  26.935  1.00  0.00    -0.550 OA
ATOM      6  O   UNL     1      14.465  46.684  27.958  1.00  0.00    -0.550 OA
ENDBRANCH   3   4
ENDBRANCH   2   3
ENDBRANCH   1   2
BRANCH   1   7
ATOM      7  C   UNL     1      11.743  47.316  22.749  1.00  0.00     0.000 C 
BRANCH   7   8
ATOM      8  C   UNL     1      10.304  47.660  23.165  1.00  0.00    -0.000 C 
BRANCH   8   9
ATOM      9  C   UNL     1       9.457  46.411  23.449  1.00  0.00    -0.003 C 
ATOM     10  C   UNL     1      10.312  45.147  23.413  1.00  0.00     0.004 C 
ENDBRANCH   8   9
ENDBRANCH   7   8
ENDBRANCH   1   7
TORSDOF 6
ENDMDL
