MODEL 1
REMARK VINA RESULT:    -5.377      0.000      0.000
REMARK INTER + INTRA:          -6.074
REMARK INTER:                  -6.006
REMARK INTRA:                  -0.068
REMARK UNBOUND:                -0.068
REMARK SMILES COc1cc2ccc(=O)oc2c(O)c1O
REMARK SMILES IDX 3 1 14 2 12 3 11 4 5 5 4 6 6 7 7 8 8 9 9 10 10 11 2 12 1 13
REMARK SMILES IDX 15 14 13 16
REMARK H PARENT 15 15 13 17
REMARK Flexibility Score: inf
ROOT
ATOM      1  C   UNL     1     -39.792  75.812 -26.611  1.00  0.00     0.165 A 
ATOM      2  C   UNL     1     -39.104  75.708 -25.387  1.00  0.00     0.204 A 
ATOM      3  C   UNL     1     -37.723  75.470 -25.366  1.00  0.00     0.205 A 
ATOM      4  C   UNL     1     -37.016  75.333 -26.571  1.00  0.00     0.184 A 
ATOM      5  C   UNL     1     -37.700  75.436 -27.800  1.00  0.00     0.025 A 
ATOM      6  C   UNL     1     -39.080  75.674 -27.818  1.00  0.00     0.062 A 
ATOM      7  C   UNL     1     -36.970  75.296 -28.986  1.00  0.00     0.020 A 
ATOM      8  C   UNL     1     -35.597  75.060 -28.921  1.00  0.00     0.094 A 
ATOM      9  C   UNL     1     -34.985  74.970 -27.668  1.00  0.00     0.336 A 
ATOM     10  O   UNL     1     -33.747  74.757 -27.589  1.00  0.00    -0.246 OA
ATOM     11  O   UNL     1     -35.702  75.106 -26.557  1.00  0.00    -0.419 OA
ENDROOT
BRANCH   1  12
ATOM     12  O   UNL     1     -41.176  76.051 -26.592  1.00  0.00    -0.493 OA
ATOM     13  C   UNL     1     -42.175  75.039 -26.687  1.00  0.00     0.278 C 
ENDBRANCH   1  12
BRANCH   2  14
ATOM     14  O   UNL     1     -39.784  75.839 -24.175  1.00  0.00    -0.502 OA
ATOM     15  H   UNL     1     -39.301  75.980 -23.295  1.00  0.00     0.293 HD
ENDBRANCH   2  14
BRANCH   3  16
ATOM     16  O   UNL     1     -37.070  75.371 -24.137  1.00  0.00    -0.502 OA
ATOM     17  H   UNL     1     -37.222  76.038 -23.390  1.00  0.00     0.293 HD
ENDBRANCH   3  16
TORSDOF 3
ENDMDL
MODEL 2
REMARK VINA RESULT:    -5.355     14.264     16.375
REMARK INTER + INTRA:          -6.049
REMARK INTER:                  -6.000
REMARK INTRA:                  -0.049
REMARK UNBOUND:                -0.068
REMARK SMILES COc1cc2ccc(=O)oc2c(O)c1O
REMARK SMILES IDX 3 1 14 2 12 3 11 4 5 5 4 6 6 7 7 8 8 9 9 10 10 11 2 12 1 13
REMARK SMILES IDX 15 14 13 16
REMARK H PARENT 15 15 13 17
REMARK Flexibility Score: inf
ROOT
ATOM      1  C   UNL     1     -38.423  75.442 -11.810  1.00  0.00     0.165 A 
ATOM      2  C   UNL     1     -37.810  74.883 -10.673  1.00  0.00     0.204 A 
ATOM      3  C   UNL     1     -38.382  73.776 -10.030  1.00  0.00     0.205 A 
ATOM      4  C   UNL     1     -39.574  73.218 -10.518  1.00  0.00     0.184 A 
ATOM      5  C   UNL     1     -40.192  73.775 -11.657  1.00  0.00     0.025 A 
ATOM      6  C   UNL     1     -39.618  74.880 -12.298  1.00  0.00     0.062 A 
ATOM      7  C   UNL     1     -41.379  73.199 -12.123  1.00  0.00     0.020 A 
ATOM      8  C   UNL     1     -41.915  72.099 -11.454  1.00  0.00     0.094 A 
ATOM      9  C   UNL     1     -41.248  71.600 -10.331  1.00  0.00     0.336 A 
ATOM     10  O   UNL     1     -41.716  70.607  -9.714  1.00  0.00    -0.246 OA
ATOM     11  O   UNL     1     -40.122  72.166  -9.910  1.00  0.00    -0.419 OA
ENDROOT
BRANCH   1  12
ATOM     12  O   UNL     1     -37.820  76.551 -12.428  1.00  0.00    -0.493 OA
ATOM     13  C   UNL     1     -38.249  77.125 -13.658  1.00  0.00     0.278 C 
ENDBRANCH   1  12
BRANCH   2  14
ATOM     14  O   UNL     1     -36.625  75.419 -10.166  1.00  0.00    -0.502 OA
ATOM     15  H   UNL     1     -36.284  75.199  -9.237  1.00  0.00     0.293 HD
ENDBRANCH   2  14
BRANCH   3  16
ATOM     16  O   UNL     1     -37.751  73.244  -8.904  1.00  0.00    -0.502 OA
ATOM     17  H   UNL     1     -37.621  72.247  -8.779  1.00  0.00     0.293 HD
ENDBRANCH   3  16
TORSDOF 3
ENDMDL
MODEL 3
REMARK VINA RESULT:    -5.308      1.755      2.731
REMARK INTER + INTRA:          -5.996
REMARK INTER:                  -5.946
REMARK INTRA:                  -0.050
REMARK UNBOUND:                -0.068
REMARK SMILES COc1cc2ccc(=O)oc2c(O)c1O
REMARK SMILES IDX 3 1 14 2 12 3 11 4 5 5 4 6 6 7 7 8 8 9 9 10 10 11 2 12 1 13
REMARK SMILES IDX 15 14 13 16
REMARK H PARENT 15 15 13 17
REMARK Flexibility Score: inf
ROOT
ATOM      1  C   UNL     1     -38.969  75.509 -25.921  1.00  0.00     0.165 A 
ATOM      2  C   UNL     1     -38.741  74.581 -26.955  1.00  0.00     0.204 A 
ATOM      3  C   UNL     1     -37.434  74.273 -27.357  1.00  0.00     0.205 A 
ATOM      4  C   UNL     1     -36.341  74.890 -26.729  1.00  0.00     0.184 A 
ATOM      5  C   UNL     1     -36.564  75.821 -25.692  1.00  0.00     0.025 A 
ATOM      6  C   UNL     1     -37.871  76.127 -25.292  1.00  0.00     0.062 A 
ATOM      7  C   UNL     1     -35.457  76.422 -25.083  1.00  0.00     0.020 A 
ATOM      8  C   UNL     1     -34.173  76.088 -25.513  1.00  0.00     0.094 A 
ATOM      9  C   UNL     1     -34.027  75.157 -26.545  1.00  0.00     0.336 A 
ATOM     10  O   UNL     1     -32.877  74.841 -26.947  1.00  0.00    -0.246 OA
ATOM     11  O   UNL     1     -35.096  74.601 -27.107  1.00  0.00    -0.419 OA
ENDROOT
BRANCH   1  12
ATOM     12  O   UNL     1     -40.293  75.793 -25.546  1.00  0.00    -0.493 OA
ATOM     13  C   UNL     1     -40.694  76.212 -24.245  1.00  0.00     0.278 C 
ENDBRANCH   1  12
BRANCH   2  14
ATOM     14  O   UNL     1     -39.809  73.953 -27.597  1.00  0.00    -0.502 OA
ATOM     15  H   UNL     1     -40.279  74.363 -28.395  1.00  0.00     0.293 HD
ENDBRANCH   2  14
BRANCH   3  16
ATOM     16  O   UNL     1     -37.240  73.349 -28.385  1.00  0.00    -0.502 OA
ATOM     17  H   UNL     1     -36.374  73.298 -28.909  1.00  0.00     0.293 HD
ENDBRANCH   3  16
TORSDOF 3
ENDMDL
MODEL 4
REMARK VINA RESULT:    -5.124      2.041      5.102
REMARK INTER + INTRA:          -5.791
REMARK INTER:                  -5.725
REMARK INTRA:                  -0.066
REMARK UNBOUND:                -0.068
REMARK SMILES COc1cc2ccc(=O)oc2c(O)c1O
REMARK SMILES IDX 3 1 14 2 12 3 11 4 5 5 4 6 6 7 7 8 8 9 9 10 10 11 2 12 1 13
REMARK SMILES IDX 15 14 13 16
REMARK H PARENT 15 15 13 17
REMARK Flexibility Score: inf
ROOT
ATOM      1  C   UNL     1     -34.838  75.974 -26.475  1.00  0.00     0.165 A 
ATOM      2  C   UNL     1     -34.976  74.593 -26.717  1.00  0.00     0.204 A 
ATOM      3  C   UNL     1     -36.240  74.038 -26.963  1.00  0.00     0.205 A 
ATOM      4  C   UNL     1     -37.379  74.858 -26.969  1.00  0.00     0.184 A 
ATOM      5  C   UNL     1     -37.247  76.242 -26.728  1.00  0.00     0.025 A 
ATOM      6  C   UNL     1     -35.983  76.794 -26.482  1.00  0.00     0.062 A 
ATOM      7  C   UNL     1     -38.398  77.036 -26.740  1.00  0.00     0.020 A 
ATOM      8  C   UNL     1     -39.636  76.444 -26.989  1.00  0.00     0.094 A 
ATOM      9  C   UNL     1     -39.692  75.067 -27.220  1.00  0.00     0.336 A 
ATOM     10  O   UNL     1     -40.800  74.514 -27.447  1.00  0.00    -0.246 OA
ATOM     11  O   UNL     1     -38.582  74.336 -27.202  1.00  0.00    -0.419 OA
ENDROOT
BRANCH   1  12
ATOM     12  O   UNL     1     -33.556  76.494 -26.233  1.00  0.00    -0.493 OA
ATOM     13  C   UNL     1     -33.123  77.032 -24.988  1.00  0.00     0.278 C 
ENDBRANCH   1  12
BRANCH   2  14
ATOM     14  O   UNL     1     -33.860  73.755 -26.716  1.00  0.00    -0.502 OA
ATOM     15  H   UNL     1     -32.985  74.019 -26.280  1.00  0.00     0.293 HD
ENDBRANCH   2  14
BRANCH   3  16
ATOM     16  O   UNL     1     -36.344  72.666 -27.199  1.00  0.00    -0.502 OA
ATOM     17  H   UNL     1     -36.284  71.984 -26.452  1.00  0.00     0.293 HD
ENDBRANCH   3  16
TORSDOF 3
ENDMDL
MODEL 5
REMARK VINA RESULT:    -5.123     16.259     16.993
REMARK INTER + INTRA:          -5.790
REMARK INTER:                  -5.741
REMARK INTRA:                  -0.049
REMARK UNBOUND:                -0.068
REMARK SMILES COc1cc2ccc(=O)oc2c(O)c1O
REMARK SMILES IDX 3 1 14 2 12 3 11 4 5 5 4 6 6 7 7 8 8 9 9 10 10 11 2 12 1 13
REMARK SMILES IDX 15 14 13 16
REMARK H PARENT 15 15 13 17
REMARK Flexibility Score: inf
ROOT
ATOM      1  C   UNL     1     -38.471  75.827 -10.579  1.00  0.00     0.165 A 
ATOM      2  C   UNL     1     -39.874  75.880 -10.683  1.00  0.00     0.204 A 
ATOM      3  C   UNL     1     -40.639  74.709 -10.584  1.00  0.00     0.205 A 
ATOM      4  C   UNL     1     -40.008  73.473 -10.379  1.00  0.00     0.184 A 
ATOM      5  C   UNL     1     -38.602  73.413 -10.273  1.00  0.00     0.025 A 
ATOM      6  C   UNL     1     -37.840  74.585 -10.372  1.00  0.00     0.062 A 
ATOM      7  C   UNL     1     -37.998  72.168 -10.068  1.00  0.00     0.020 A 
ATOM      8  C   UNL     1     -38.796  71.027  -9.975  1.00  0.00     0.094 A 
ATOM      9  C   UNL     1     -40.182  71.161 -10.090  1.00  0.00     0.336 A 
ATOM     10  O   UNL     1     -40.919  70.143 -10.008  1.00  0.00    -0.246 OA
ATOM     11  O   UNL     1     -40.729  72.356 -10.284  1.00  0.00    -0.419 OA
ENDROOT
BRANCH   1  12
ATOM     12  O   UNL     1     -37.739  77.020 -10.683  1.00  0.00    -0.493 OA
ATOM     13  C   UNL     1     -36.330  77.125 -10.505  1.00  0.00     0.278 C 
ENDBRANCH   1  12
BRANCH   2  14
ATOM     14  O   UNL     1     -40.528  77.096 -10.888  1.00  0.00    -0.502 OA
ATOM     15  H   UNL     1     -40.468  77.603 -11.763  1.00  0.00     0.293 HD
ENDBRANCH   2  14
BRANCH   3  16
ATOM     16  O   UNL     1     -42.028  74.794 -10.693  1.00  0.00    -0.502 OA
ATOM     17  H   UNL     1     -42.574  74.100 -11.190  1.00  0.00     0.293 HD
ENDBRANCH   3  16
TORSDOF 3
ENDMDL
MODEL 6
REMARK VINA RESULT:    -5.069      1.747      5.279
REMARK INTER + INTRA:          -5.729
REMARK INTER:                  -5.660
REMARK INTRA:                  -0.069
REMARK UNBOUND:                -0.068
REMARK SMILES COc1cc2ccc(=O)oc2c(O)c1O
REMARK SMILES IDX 3 1 14 2 12 3 11 4 5 5 4 6 6 7 7 8 8 9 9 10 10 11 2 12 1 13
REMARK SMILES IDX 15 14 13 16
REMARK H PARENT 15 15 13 17
REMARK Flexibility Score: inf
ROOT
ATOM      1  C   UNL     1     -35.935  75.046 -26.981  1.00  0.00     0.165 A 
ATOM      2  C   UNL     1     -37.011  74.332 -27.542  1.00  0.00     0.204 A 
ATOM      3  C   UNL     1     -38.311  74.502 -27.048  1.00  0.00     0.205 A 
ATOM      4  C   UNL     1     -38.549  75.388 -25.986  1.00  0.00     0.184 A 
ATOM      5  C   UNL     1     -37.475  76.107 -25.420  1.00  0.00     0.025 A 
ATOM      6  C   UNL     1     -36.177  75.935 -25.915  1.00  0.00     0.062 A 
ATOM      7  C   UNL     1     -37.741  76.984 -24.362  1.00  0.00     0.020 A 
ATOM      8  C   UNL     1     -39.049  77.124 -23.901  1.00  0.00     0.094 A 
ATOM      9  C   UNL     1     -40.064  76.380 -24.509  1.00  0.00     0.336 A 
ATOM     10  O   UNL     1     -41.252  76.493 -24.107  1.00  0.00    -0.246 OA
ATOM     11  O   UNL     1     -39.784  75.554 -25.512  1.00  0.00    -0.419 OA
ENDROOT
BRANCH   1  12
ATOM     12  O   UNL     1     -34.646  74.850 -27.502  1.00  0.00    -0.493 OA
ATOM     13  C   UNL     1     -33.630  74.070 -26.879  1.00  0.00     0.278 C 
ENDBRANCH   1  12
BRANCH   2  14
ATOM     14  O   UNL     1     -36.802  73.444 -28.598  1.00  0.00    -0.502 OA
ATOM     15  H   UNL     1     -35.942  73.431 -29.134  1.00  0.00     0.293 HD
ENDBRANCH   2  14
BRANCH   3  16
ATOM     16  O   UNL     1     -39.357  73.779 -27.625  1.00  0.00    -0.502 OA
ATOM     17  H   UNL     1     -39.969  74.182 -28.325  1.00  0.00     0.293 HD
ENDBRANCH   3  16
TORSDOF 3
ENDMDL
MODEL 7
REMARK VINA RESULT:    -4.940     14.929     15.894
REMARK INTER + INTRA:          -5.586
REMARK INTER:                  -5.537
REMARK INTRA:                  -0.049
REMARK UNBOUND:                -0.068
REMARK SMILES COc1cc2ccc(=O)oc2c(O)c1O
REMARK SMILES IDX 3 1 14 2 12 3 11 4 5 5 4 6 6 7 7 8 8 9 9 10 10 11 2 12 1 13
REMARK SMILES IDX 15 14 13 16
REMARK H PARENT 15 15 13 17
REMARK Flexibility Score: inf
ROOT
ATOM      1  C   UNL     1     -40.609  73.016 -11.558  1.00  0.00     0.165 A 
ATOM      2  C   UNL     1     -39.857  72.635 -10.430  1.00  0.00     0.204 A 
ATOM      3  C   UNL     1     -38.778  73.418  -9.997  1.00  0.00     0.205 A 
ATOM      4  C   UNL     1     -38.440  74.591 -10.690  1.00  0.00     0.184 A 
ATOM      5  C   UNL     1     -39.189  74.978 -11.821  1.00  0.00     0.025 A 
ATOM      6  C   UNL     1     -40.267  74.193 -12.250  1.00  0.00     0.062 A 
ATOM      7  C   UNL     1     -38.830  76.152 -12.492  1.00  0.00     0.020 A 
ATOM      8  C   UNL     1     -37.750  76.902 -12.029  1.00  0.00     0.094 A 
ATOM      9  C   UNL     1     -37.052  76.459 -10.902  1.00  0.00     0.336 A 
ATOM     10  O   UNL     1     -36.074  77.123 -10.468  1.00  0.00    -0.246 OA
ATOM     11  O   UNL     1     -37.415  75.340 -10.283  1.00  0.00    -0.419 OA
ENDROOT
BRANCH   1  12
ATOM     12  O   UNL     1     -41.683  72.205 -11.961  1.00  0.00    -0.493 OA
ATOM     13  C   UNL     1     -42.631  72.556 -12.964  1.00  0.00     0.278 C 
ENDBRANCH   1  12
BRANCH   2  14
ATOM     14  O   UNL     1     -40.172  71.473  -9.723  1.00  0.00    -0.502 OA
ATOM     15  H   UNL     1     -40.942  70.870  -9.988  1.00  0.00     0.293 HD
ENDBRANCH   2  14
BRANCH   3  16
ATOM     16  O   UNL     1     -38.052  73.014  -8.876  1.00  0.00    -0.502 OA
ATOM     17  H   UNL     1     -37.235  73.518  -8.552  1.00  0.00     0.293 HD
ENDBRANCH   3  16
TORSDOF 3
ENDMDL
MODEL 8
REMARK VINA RESULT:    -4.865     15.746     16.467
REMARK INTER + INTRA:          -5.502
REMARK INTER:                  -5.439
REMARK INTRA:                  -0.063
REMARK UNBOUND:                -0.068
REMARK SMILES COc1cc2ccc(=O)oc2c(O)c1O
REMARK SMILES IDX 3 1 14 2 12 3 11 4 5 5 4 6 6 7 7 8 8 9 9 10 10 11 2 12 1 13
REMARK SMILES IDX 15 14 13 16
REMARK H PARENT 15 15 13 17
REMARK Flexibility Score: inf
ROOT
ATOM      1  C   UNL     1     -38.898  74.574 -10.489  1.00  0.00     0.165 A 
ATOM      2  C   UNL     1     -38.711  73.204 -10.753  1.00  0.00     0.204 A 
ATOM      3  C   UNL     1     -39.760  72.431 -11.269  1.00  0.00     0.205 A 
ATOM      4  C   UNL     1     -41.008  73.021 -11.526  1.00  0.00     0.184 A 
ATOM      5  C   UNL     1     -41.200  74.394 -11.264  1.00  0.00     0.025 A 
ATOM      6  C   UNL     1     -40.150  75.164 -10.748  1.00  0.00     0.062 A 
ATOM      7  C   UNL     1     -42.453  74.957 -11.530  1.00  0.00     0.020 A 
ATOM      8  C   UNL     1     -43.470  74.153 -12.043  1.00  0.00     0.094 A 
ATOM      9  C   UNL     1     -43.208  72.800 -12.279  1.00  0.00     0.336 A 
ATOM     10  O   UNL     1     -44.113  72.057 -12.742  1.00  0.00    -0.246 OA
ATOM     11  O   UNL     1     -42.009  72.291 -12.017  1.00  0.00    -0.419 OA
ENDROOT
BRANCH   1  12
ATOM     12  O   UNL     1     -37.823  75.316  -9.972  1.00  0.00    -0.493 OA
ATOM     13  C   UNL     1     -37.221  76.431 -10.622  1.00  0.00     0.278 C 
ENDBRANCH   1  12
BRANCH   2  14
ATOM     14  O   UNL     1     -37.481  72.591 -10.505  1.00  0.00    -0.502 OA
ATOM     15  H   UNL     1     -36.727  72.598 -11.181  1.00  0.00     0.293 HD
ENDBRANCH   2  14
BRANCH   3  16
ATOM     16  O   UNL     1     -39.545  71.074 -11.519  1.00  0.00    -0.502 OA
ATOM     17  H   UNL     1     -40.031  70.578 -12.257  1.00  0.00     0.293 HD
ENDBRANCH   3  16
TORSDOF 3
ENDMDL
MODEL 9
REMARK VINA RESULT:    -4.686     14.609     15.946
REMARK INTER + INTRA:          -5.301
REMARK INTER:                  -5.252
REMARK INTRA:                  -0.049
REMARK UNBOUND:                -0.068
REMARK SMILES COc1cc2ccc(=O)oc2c(O)c1O
REMARK SMILES IDX 3 1 14 2 12 3 11 4 5 5 4 6 6 7 7 8 8 9 9 10 10 11 2 12 1 13
REMARK SMILES IDX 15 14 13 16
REMARK H PARENT 15 15 13 17
REMARK Flexibility Score: inf
ROOT
ATOM      1  C   UNL     1     -42.357  74.220 -12.513  1.00  0.00     0.165 A 
ATOM      2  C   UNL     1     -42.045  72.852 -12.398  1.00  0.00     0.204 A 
ATOM      3  C   UNL     1     -40.946  72.435 -11.635  1.00  0.00     0.205 A 
ATOM      4  C   UNL     1     -40.146  73.384 -10.979  1.00  0.00     0.184 A 
ATOM      5  C   UNL     1     -40.453  74.756 -11.090  1.00  0.00     0.025 A 
ATOM      6  C   UNL     1     -41.553  75.170 -11.853  1.00  0.00     0.062 A 
ATOM      7  C   UNL     1     -39.640  75.680 -10.426  1.00  0.00     0.020 A 
ATOM      8  C   UNL     1     -38.555  75.224  -9.677  1.00  0.00     0.094 A 
ATOM      9  C   UNL     1     -38.310  73.850  -9.611  1.00  0.00     0.336 A 
ATOM     10  O   UNL     1     -37.336  73.418  -8.940  1.00  0.00    -0.246 OA
ATOM     11  O   UNL     1     -39.099  72.994 -10.252  1.00  0.00    -0.419 OA
ENDROOT
BRANCH   1  12
ATOM     12  O   UNL     1     -43.467  74.599 -13.286  1.00  0.00    -0.493 OA
ATOM     13  C   UNL     1     -43.717  75.923 -13.749  1.00  0.00     0.278 C 
ENDBRANCH   1  12
BRANCH   2  14
ATOM     14  O   UNL     1     -42.824  71.888 -13.040  1.00  0.00    -0.502 OA
ATOM     15  H   UNL     1     -43.777  71.686 -12.761  1.00  0.00     0.293 HD
ENDBRANCH   2  14
BRANCH   3  16
ATOM     16  O   UNL     1     -40.662  71.072 -11.541  1.00  0.00    -0.502 OA
ATOM     17  H   UNL     1     -40.576  70.599 -10.649  1.00  0.00     0.293 HD
ENDBRANCH   3  16
TORSDOF 3
ENDMDL
