MODEL 1
REMARK VINA RESULT:    -2.139      0.000      0.000
REMARK INTER + INTRA:          -2.529
REMARK INTER:                  -2.451
REMARK INTRA:                  -0.077
REMARK UNBOUND:                -0.077
REMARK SMILES COc1cc(C=O)ccc1O
REMARK SMILES IDX 3 1 10 2 9 3 8 4 5 5 4 6 2 7 1 8 11 9 6 11 7 12
REMARK H PARENT 11 10
REMARK Flexibility Score: inf
ROOT
ATOM      1  C   UNL     1     125.971 110.131 136.065  1.00  0.00     0.161 A 
ATOM      2  C   UNL     1     126.368 111.302 135.395  1.00  0.00     0.157 A 
ATOM      3  C   UNL     1     126.941 111.221 134.122  1.00  0.00     0.051 A 
ATOM      4  C   UNL     1     127.124 109.982 133.506  1.00  0.00     0.015 A 
ATOM      5  C   UNL     1     126.733 108.802 134.161  1.00  0.00     0.018 A 
ATOM      6  C   UNL     1     126.158 108.882 135.439  1.00  0.00     0.062 A 
ENDROOT
BRANCH   1   7
ATOM      7  O   UNL     1     125.399 110.243 137.343  1.00  0.00    -0.493 OA
ATOM      8  C   UNL     1     126.085 109.979 138.562  1.00  0.00     0.278 C 
ENDBRANCH   1   7
BRANCH   2   9
ATOM      9  O   UNL     1     126.202 112.558 135.978  1.00  0.00    -0.504 OA
ATOM     10  H   UNL     1     126.786 113.349 135.734  1.00  0.00     0.293 HD
ENDBRANCH   2   9
BRANCH   5  11
ATOM     11  C   UNL     1     126.918 107.484 133.526  1.00  0.00     0.260 C 
ATOM     12  O   UNL     1     127.061 107.376 132.279  1.00  0.00    -0.298 OA
ENDBRANCH   5  11
TORSDOF 3
ENDMDL
MODEL 2
REMARK VINA RESULT:    -2.097      1.800      2.168
REMARK INTER + INTRA:          -2.481
REMARK INTER:                  -2.432
REMARK INTRA:                  -0.049
REMARK UNBOUND:                -0.077
REMARK SMILES COc1cc(C=O)ccc1O
REMARK SMILES IDX 3 1 10 2 9 3 8 4 5 5 4 6 2 7 1 8 11 9 6 11 7 12
REMARK H PARENT 11 10
REMARK Flexibility Score: inf
ROOT
ATOM      1  C   UNL     1     126.209 111.018 135.620  1.00  0.00     0.161 A 
ATOM      2  C   UNL     1     126.780 111.284 134.362  1.00  0.00     0.157 A 
ATOM      3  C   UNL     1     127.096 110.231 133.499  1.00  0.00     0.051 A 
ATOM      4  C   UNL     1     126.850 108.910 133.876  1.00  0.00     0.015 A 
ATOM      5  C   UNL     1     126.280 108.625 135.127  1.00  0.00     0.018 A 
ATOM      6  C   UNL     1     125.962 109.682 135.995  1.00  0.00     0.062 A 
ENDROOT
BRANCH   1   7
ATOM      7  O   UNL     1     125.901 112.096 136.466  1.00  0.00    -0.493 OA
ATOM      8  C   UNL     1     126.817 112.696 137.376  1.00  0.00     0.278 C 
ENDBRANCH   1   7
BRANCH   2   9
ATOM      9  O   UNL     1     127.041 112.592 133.952  1.00  0.00    -0.504 OA
ATOM     10  H   UNL     1     126.850 112.911 133.010  1.00  0.00     0.293 HD
ENDBRANCH   2   9
BRANCH   5  11
ATOM     11  C   UNL     1     126.012 107.236 135.541  1.00  0.00     0.260 C 
ATOM     12  O   UNL     1     126.153 106.875 136.740  1.00  0.00    -0.298 OA
ENDBRANCH   5  11
TORSDOF 3
ENDMDL
MODEL 3
REMARK VINA RESULT:    -2.067      1.427      3.765
REMARK INTER + INTRA:          -2.447
REMARK INTER:                  -2.395
REMARK INTRA:                  -0.051
REMARK UNBOUND:                -0.077
REMARK SMILES COc1cc(C=O)ccc1O
REMARK SMILES IDX 3 1 10 2 9 3 8 4 5 5 4 6 2 7 1 8 11 9 6 11 7 12
REMARK H PARENT 11 10
REMARK Flexibility Score: inf
ROOT
ATOM      1  C   UNL     1     126.184 108.455 135.255  1.00  0.00     0.161 A 
ATOM      2  C   UNL     1     126.741 108.295 133.973  1.00  0.00     0.157 A 
ATOM      3  C   UNL     1     127.125 109.416 133.231  1.00  0.00     0.051 A 
ATOM      4  C   UNL     1     126.960 110.700 133.753  1.00  0.00     0.015 A 
ATOM      5  C   UNL     1     126.407 110.879 135.031  1.00  0.00     0.018 A 
ATOM      6  C   UNL     1     126.020 109.754 135.777  1.00  0.00     0.062 A 
ENDROOT
BRANCH   1   7
ATOM      7  O   UNL     1     125.807 107.311 135.978  1.00  0.00    -0.493 OA
ATOM      8  C   UNL     1     125.676 107.257 137.394  1.00  0.00     0.278 C 
ENDBRANCH   1   7
BRANCH   2   9
ATOM      9  O   UNL     1     126.921 107.028 133.419  1.00  0.00    -0.504 OA
ATOM     10  H   UNL     1     127.563 106.858 132.654  1.00  0.00     0.293 HD
ENDBRANCH   2   9
BRANCH   5  11
ATOM     11  C   UNL     1     126.225 112.228 135.598  1.00  0.00     0.260 C 
ATOM     12  O   UNL     1     126.920 112.624 136.571  1.00  0.00    -0.298 OA
ENDBRANCH   5  11
TORSDOF 3
ENDMDL
MODEL 4
REMARK VINA RESULT:    -1.992      1.299      1.516
REMARK INTER + INTRA:          -2.361
REMARK INTER:                  -2.285
REMARK INTRA:                  -0.076
REMARK UNBOUND:                -0.077
REMARK SMILES COc1cc(C=O)ccc1O
REMARK SMILES IDX 3 1 10 2 9 3 8 4 5 5 4 6 2 7 1 8 11 9 6 11 7 12
REMARK H PARENT 11 10
REMARK Flexibility Score: inf
ROOT
ATOM      1  C   UNL     1     125.723 108.814 136.228  1.00  0.00     0.161 A 
ATOM      2  C   UNL     1     125.866 110.206 136.084  1.00  0.00     0.157 A 
ATOM      3  C   UNL     1     126.419 110.736 134.915  1.00  0.00     0.051 A 
ATOM      4  C   UNL     1     126.832 109.893 133.882  1.00  0.00     0.015 A 
ATOM      5  C   UNL     1     126.695 108.501 134.007  1.00  0.00     0.018 A 
ATOM      6  C   UNL     1     126.141 107.967 135.182  1.00  0.00     0.062 A 
ENDROOT
BRANCH   1   7
ATOM      7  O   UNL     1     125.165 108.309 137.414  1.00  0.00    -0.493 OA
ATOM      8  C   UNL     1     123.798 107.942 137.572  1.00  0.00     0.278 C 
ENDBRANCH   1   7
BRANCH   2   9
ATOM      9  O   UNL     1     125.466 111.080 137.095  1.00  0.00    -0.504 OA
ATOM     10  H   UNL     1     125.911 111.094 138.005  1.00  0.00     0.293 HD
ENDBRANCH   2   9
BRANCH   5  11
ATOM     11  C   UNL     1     127.125 107.595 132.927  1.00  0.00     0.260 C 
ATOM     12  O   UNL     1     126.886 107.862 131.719  1.00  0.00    -0.298 OA
ENDBRANCH   5  11
TORSDOF 3
ENDMDL
MODEL 5
REMARK VINA RESULT:    -1.988      1.870      3.009
REMARK INTER + INTRA:          -2.356
REMARK INTER:                  -2.295
REMARK INTRA:                  -0.060
REMARK UNBOUND:                -0.077
REMARK SMILES COc1cc(C=O)ccc1O
REMARK SMILES IDX 3 1 10 2 9 3 8 4 5 5 4 6 2 7 1 8 11 9 6 11 7 12
REMARK H PARENT 11 10
REMARK Flexibility Score: inf
ROOT
ATOM      1  C   UNL     1     125.961 109.394 136.324  1.00  0.00     0.161 A 
ATOM      2  C   UNL     1     125.955 108.039 135.945  1.00  0.00     0.157 A 
ATOM      3  C   UNL     1     126.328 107.672 134.649  1.00  0.00     0.051 A 
ATOM      4  C   UNL     1     126.709 108.643 133.721  1.00  0.00     0.015 A 
ATOM      5  C   UNL     1     126.722 110.000 134.082  1.00  0.00     0.018 A 
ATOM      6  C   UNL     1     126.347 110.370 135.383  1.00  0.00     0.062 A 
ENDROOT
BRANCH   1   7
ATOM      7  O   UNL     1     125.582 109.732 137.633  1.00  0.00    -0.493 OA
ATOM      8  C   UNL     1     126.310 110.611 138.484  1.00  0.00     0.278 C 
ENDBRANCH   1   7
BRANCH   2   9
ATOM      9  O   UNL     1     125.580 107.041 136.844  1.00  0.00    -0.504 OA
ATOM     10  H   UNL     1     126.161 106.776 137.631  1.00  0.00     0.293 HD
ENDBRANCH   2   9
BRANCH   5  11
ATOM     11  C   UNL     1     127.122 111.040 133.115  1.00  0.00     0.260 C 
ATOM     12  O   UNL     1     126.521 112.146 133.063  1.00  0.00    -0.298 OA
ENDBRANCH   5  11
TORSDOF 3
ENDMDL
MODEL 6
REMARK VINA RESULT:    -1.961      1.104      2.897
REMARK INTER + INTRA:          -2.325
REMARK INTER:                  -2.270
REMARK INTRA:                  -0.055
REMARK UNBOUND:                -0.077
REMARK SMILES COc1cc(C=O)ccc1O
REMARK SMILES IDX 3 1 10 2 9 3 8 4 5 5 4 6 2 7 1 8 11 9 6 11 7 12
REMARK H PARENT 11 10
REMARK Flexibility Score: inf
ROOT
ATOM      1  C   UNL     1     126.834 111.236 134.260  1.00  0.00     0.161 A 
ATOM      2  C   UNL     1     126.297 111.023 135.543  1.00  0.00     0.157 A 
ATOM      3  C   UNL     1     126.004 109.726 135.974  1.00  0.00     0.051 A 
ATOM      4  C   UNL     1     126.240 108.633 135.139  1.00  0.00     0.015 A 
ATOM      5  C   UNL     1     126.777 108.826 133.856  1.00  0.00     0.018 A 
ATOM      6  C   UNL     1     127.071 110.128 133.421  1.00  0.00     0.062 A 
ENDROOT
BRANCH   1   7
ATOM      7  O   UNL     1     127.119 112.550 133.854  1.00  0.00    -0.493 OA
ATOM      8  C   UNL     1     127.100 113.000 132.504  1.00  0.00     0.278 C 
ENDBRANCH   1   7
BRANCH   2   9
ATOM      9  O   UNL     1     126.047 112.091 136.405  1.00  0.00    -0.504 OA
ATOM     10  H   UNL     1     125.996 111.974 137.410  1.00  0.00     0.293 HD
ENDBRANCH   2   9
BRANCH   5  11
ATOM     11  C   UNL     1     127.034 107.683 132.960  1.00  0.00     0.260 C 
ATOM     12  O   UNL     1     127.123 107.841 131.713  1.00  0.00    -0.298 OA
ENDBRANCH   5  11
TORSDOF 3
ENDMDL
MODEL 7
REMARK VINA RESULT:    -1.849      1.503      2.700
REMARK INTER + INTRA:          -2.197
REMARK INTER:                  -2.143
REMARK INTRA:                  -0.054
REMARK UNBOUND:                -0.077
REMARK SMILES COc1cc(C=O)ccc1O
REMARK SMILES IDX 3 1 10 2 9 3 8 4 5 5 4 6 2 7 1 8 11 9 6 11 7 12
REMARK H PARENT 11 10
REMARK Flexibility Score: inf
ROOT
ATOM      1  C   UNL     1     126.367 111.045 136.247  1.00  0.00     0.161 A 
ATOM      2  C   UNL     1     125.992 109.779 136.734  1.00  0.00     0.157 A 
ATOM      3  C   UNL     1     125.989 108.673 135.880  1.00  0.00     0.051 A 
ATOM      4  C   UNL     1     126.356 108.812 134.540  1.00  0.00     0.015 A 
ATOM      5  C   UNL     1     126.734 110.068 134.037  1.00  0.00     0.018 A 
ATOM      6  C   UNL     1     126.737 111.180 134.894  1.00  0.00     0.062 A 
ENDROOT
BRANCH   1   7
ATOM      7  O   UNL     1     126.360 112.138 137.128  1.00  0.00    -0.493 OA
ATOM      8  C   UNL     1     126.008 113.469 136.763  1.00  0.00     0.278 C 
ENDBRANCH   1   7
BRANCH   2   9
ATOM      9  O   UNL     1     125.619 109.601 138.066  1.00  0.00    -0.504 OA
ATOM     10  H   UNL     1     124.751 109.968 138.438  1.00  0.00     0.293 HD
ENDBRANCH   2   9
BRANCH   5  11
ATOM     11  C   UNL     1     127.125 110.234 132.625  1.00  0.00     0.260 C 
ATOM     12  O   UNL     1     126.330 110.731 131.783  1.00  0.00    -0.298 OA
ENDBRANCH   5  11
TORSDOF 3
ENDMDL
MODEL 8
REMARK VINA RESULT:    -1.782      1.427      3.952
REMARK INTER + INTRA:          -2.120
REMARK INTER:                  -2.069
REMARK INTRA:                  -0.051
REMARK UNBOUND:                -0.077
REMARK SMILES COc1cc(C=O)ccc1O
REMARK SMILES IDX 3 1 10 2 9 3 8 4 5 5 4 6 2 7 1 8 11 9 6 11 7 12
REMARK H PARENT 11 10
REMARK Flexibility Score: inf
ROOT
ATOM      1  C   UNL     1     126.548 110.592 134.637  1.00  0.00     0.161 A 
ATOM      2  C   UNL     1     126.705 109.439 133.846  1.00  0.00     0.157 A 
ATOM      3  C   UNL     1     126.439 108.178 134.386  1.00  0.00     0.051 A 
ATOM      4  C   UNL     1     126.018 108.049 135.710  1.00  0.00     0.015 A 
ATOM      5  C   UNL     1     125.855 109.189 136.515  1.00  0.00     0.018 A 
ATOM      6  C   UNL     1     126.123 110.457 135.974  1.00  0.00     0.062 A 
ENDROOT
BRANCH   1   7
ATOM      7  O   UNL     1     126.823 111.846 134.068  1.00  0.00    -0.493 OA
ATOM      8  C   UNL     1     126.440 113.093 134.638  1.00  0.00     0.278 C 
ENDBRANCH   1   7
BRANCH   2   9
ATOM      9  O   UNL     1     127.125 109.528 132.519  1.00  0.00    -0.504 OA
ATOM     10  H   UNL     1     127.502 108.733 132.017  1.00  0.00     0.293 HD
ENDBRANCH   2   9
BRANCH   5  11
ATOM     11  C   UNL     1     125.411 109.073 137.916  1.00  0.00     0.260 C 
ATOM     12  O   UNL     1     126.193 109.325 138.871  1.00  0.00    -0.298 OA
ENDBRANCH   5  11
TORSDOF 3
ENDMDL
MODEL 9
REMARK VINA RESULT:    -1.746      2.261      3.613
REMARK INTER + INTRA:          -2.079
REMARK INTER:                  -2.010
REMARK INTRA:                  -0.069
REMARK UNBOUND:                -0.077
REMARK SMILES COc1cc(C=O)ccc1O
REMARK SMILES IDX 3 1 10 2 9 3 8 4 5 5 4 6 2 7 1 8 11 9 6 11 7 12
REMARK H PARENT 11 10
REMARK Flexibility Score: inf
ROOT
ATOM      1  C   UNL     1     126.325 111.078 135.660  1.00  0.00     0.161 A 
ATOM      2  C   UNL     1     126.701 111.843 136.779  1.00  0.00     0.157 A 
ATOM      3  C   UNL     1     126.724 111.262 138.050  1.00  0.00     0.051 A 
ATOM      4  C   UNL     1     126.376 109.921 138.221  1.00  0.00     0.015 A 
ATOM      5  C   UNL     1     125.999 109.141 137.115  1.00  0.00     0.018 A 
ATOM      6  C   UNL     1     125.974 109.725 135.839  1.00  0.00     0.062 A 
ENDROOT
BRANCH   1   7
ATOM      7  O   UNL     1     126.310 111.689 134.396  1.00  0.00    -0.493 OA
ATOM      8  C   UNL     1     127.125 111.294 133.298  1.00  0.00     0.278 C 
ENDBRANCH   1   7
BRANCH   2   9
ATOM      9  O   UNL     1     127.055 113.186 136.648  1.00  0.00    -0.504 OA
ATOM     10  H   UNL     1     126.816 113.730 135.827  1.00  0.00     0.293 HD
ENDBRANCH   2   9
BRANCH   5  11
ATOM     11  C   UNL     1     125.628 107.723 137.276  1.00  0.00     0.260 C 
ATOM     12  O   UNL     1     126.383 106.918 137.884  1.00  0.00    -0.298 OA
ENDBRANCH   5  11
TORSDOF 3
ENDMDL
