MODEL 1
REMARK VINA RESULT:    -4.808      0.000      0.000
REMARK INTER + INTRA:          -7.280
REMARK INTER:                  -7.056
REMARK INTRA:                  -0.224
REMARK UNBOUND:                -0.224
REMARK SMILES O=C([O-])CCCCCCCC(=O)[O-]
REMARK SMILES IDX 7 1 6 2 5 3 4 4 2 5 1 6 3 7 8 8 9 9 10 10 11 11 12 12 13 13
REMARK H PARENT
REMARK Flexibility Score: inf
ROOT
ATOM      1  C   UNL     1      11.819  12.170   5.054  1.00  0.00     0.000 C 
ENDROOT
BRANCH   1   2
ATOM      2  C   UNL     1      12.973  12.505   4.095  1.00  0.00     0.000 C 
BRANCH   2   3
ATOM      3  C   UNL     1      14.312  12.706   4.826  1.00  0.00     0.006 C 
BRANCH   3   4
ATOM      4  C   UNL     1      15.117  13.876   4.245  1.00  0.00     0.053 C 
BRANCH   4   5
ATOM      5  C   UNL     1      16.233  13.405   3.364  1.00  0.00     0.041 C 
ATOM      6  O   UNL     1      15.979  12.881   2.247  1.00  0.00    -0.550 OA
ATOM      7  O   UNL     1      17.553  13.571   3.762  1.00  0.00    -0.550 OA
ENDBRANCH   4   5
ENDBRANCH   3   4
ENDBRANCH   2   3
ENDBRANCH   1   2
BRANCH   1   8
ATOM      8  C   UNL     1      10.893  11.072   4.501  1.00  0.00     0.000 C 
BRANCH   8   9
ATOM      9  C   UNL     1       9.849  10.600   5.531  1.00  0.00     0.006 C 
BRANCH   9  10
ATOM     10  C   UNL     1       8.428  11.128   5.284  1.00  0.00     0.053 C 
BRANCH  10  11
ATOM     11  C   UNL     1       7.862  11.808   6.493  1.00  0.00     0.041 C 
ATOM     12  O   UNL     1       6.636  12.092   6.543  1.00  0.00    -0.550 OA
ATOM     13  O   UNL     1       8.680  12.097   7.577  1.00  0.00    -0.550 OA
ENDBRANCH  10  11
ENDBRANCH   9  10
ENDBRANCH   8   9
ENDBRANCH   1   8
TORSDOF 8
ENDMDL
MODEL 2
REMARK VINA RESULT:    -4.790      1.816      7.018
REMARK INTER + INTRA:          -7.254
REMARK INTER:                  -6.802
REMARK INTRA:                  -0.452
REMARK UNBOUND:                -0.224
REMARK SMILES O=C([O-])CCCCCCCC(=O)[O-]
REMARK SMILES IDX 7 1 6 2 5 3 4 4 2 5 1 6 3 7 8 8 9 9 10 10 11 11 12 12 13 13
REMARK H PARENT
REMARK Flexibility Score: inf
ROOT
ATOM      1  C   UNL     1      10.851  10.259   4.517  1.00  0.00     0.000 C 
ENDROOT
BRANCH   1   2
ATOM      2  C   UNL     1      10.033  10.144   5.814  1.00  0.00     0.000 C 
BRANCH   2   3
ATOM      3  C   UNL     1       8.738  10.973   5.772  1.00  0.00     0.006 C 
BRANCH   3   4
ATOM      4  C   UNL     1       8.608  11.905   6.985  1.00  0.00     0.053 C 
BRANCH   4   5
ATOM      5  C   UNL     1       7.195  11.994   7.472  1.00  0.00     0.041 C 
ATOM      6  O   UNL     1       6.803  11.258   8.416  1.00  0.00    -0.550 OA
ATOM      7  O   UNL     1       6.319  12.912   6.905  1.00  0.00    -0.550 OA
ENDBRANCH   4   5
ENDBRANCH   3   4
ENDBRANCH   2   3
ENDBRANCH   1   2
BRANCH   1   8
ATOM      8  C   UNL     1      10.607  11.589   3.782  1.00  0.00     0.000 C 
BRANCH   8   9
ATOM      9  C   UNL     1      11.901  12.399   3.574  1.00  0.00     0.006 C 
BRANCH   9  10
ATOM     10  C   UNL     1      13.138  11.811   4.270  1.00  0.00     0.053 C 
BRANCH  10  11
ATOM     11  C   UNL     1      13.760  12.781   5.227  1.00  0.00     0.041 C 
ATOM     12  O   UNL     1      14.942  13.177   5.048  1.00  0.00    -0.550 OA
ATOM     13  O   UNL     1      13.023  13.273   6.297  1.00  0.00    -0.550 OA
ENDBRANCH  10  11
ENDBRANCH   9  10
ENDBRANCH   8   9
ENDBRANCH   1   8
TORSDOF 8
ENDMDL
MODEL 3
REMARK VINA RESULT:    -4.772      0.290      7.585
REMARK INTER + INTRA:          -7.227
REMARK INTER:                  -6.990
REMARK INTRA:                  -0.238
REMARK UNBOUND:                -0.224
REMARK SMILES O=C([O-])CCCCCCCC(=O)[O-]
REMARK SMILES IDX 7 1 6 2 5 3 4 4 2 5 1 6 3 7 8 8 9 9 10 10 11 11 12 12 13 13
REMARK H PARENT
REMARK Flexibility Score: inf
ROOT
ATOM      1  C   UNL     1      11.737  11.905   4.991  1.00  0.00     0.000 C 
ENDROOT
BRANCH   1   2
ATOM      2  C   UNL     1      10.813  10.891   4.297  1.00  0.00     0.000 C 
BRANCH   2   3
ATOM      3  C   UNL     1       9.609  10.493   5.168  1.00  0.00     0.006 C 
BRANCH   3   4
ATOM      4  C   UNL     1       8.494  11.547   5.130  1.00  0.00     0.053 C 
BRANCH   4   5
ATOM      5  C   UNL     1       7.868  11.748   6.476  1.00  0.00     0.041 C 
ATOM      6  O   UNL     1       8.560  11.622   7.520  1.00  0.00    -0.550 OA
ATOM      7  O   UNL     1       6.530  12.105   6.575  1.00  0.00    -0.550 OA
ENDBRANCH   4   5
ENDBRANCH   3   4
ENDBRANCH   2   3
ENDBRANCH   1   2
BRANCH   1   8
ATOM      8  C   UNL     1      12.749  12.541   4.021  1.00  0.00     0.000 C 
BRANCH   8   9
ATOM      9  C   UNL     1      14.185  12.547   4.580  1.00  0.00     0.006 C 
BRANCH   9  10
ATOM     10  C   UNL     1      15.023  13.766   4.165  1.00  0.00     0.053 C 
BRANCH  10  11
ATOM     11  C   UNL     1      16.179  13.384   3.293  1.00  0.00     0.041 C 
ATOM     12  O   UNL     1      15.982  12.751   2.221  1.00  0.00    -0.550 OA
ATOM     13  O   UNL     1      17.470  13.756   3.645  1.00  0.00    -0.550 OA
ENDBRANCH  10  11
ENDBRANCH   9  10
ENDBRANCH   8   9
ENDBRANCH   1   8
TORSDOF 8
ENDMDL
MODEL 4
REMARK VINA RESULT:    -4.755      0.939      7.177
REMARK INTER + INTRA:          -7.202
REMARK INTER:                  -6.826
REMARK INTRA:                  -0.377
REMARK UNBOUND:                -0.224
REMARK SMILES O=C([O-])CCCCCCCC(=O)[O-]
REMARK SMILES IDX 7 1 6 2 5 3 4 4 2 5 1 6 3 7 8 8 9 9 10 10 11 11 12 12 13 13
REMARK H PARENT
REMARK Flexibility Score: inf
ROOT
ATOM      1  C   UNL     1      12.478  11.720   4.136  1.00  0.00     0.000 C 
ENDROOT
BRANCH   1   2
ATOM      2  C   UNL     1      10.947  11.814   4.031  1.00  0.00     0.000 C 
BRANCH   2   3
ATOM      3  C   UNL     1      10.243  10.505   4.428  1.00  0.00     0.006 C 
BRANCH   3   4
ATOM      4  C   UNL     1      10.122  10.352   5.950  1.00  0.00     0.053 C 
BRANCH   4   5
ATOM      5  C   UNL     1       9.228  11.395   6.547  1.00  0.00     0.041 C 
ATOM      6  O   UNL     1       8.048  11.533   6.128  1.00  0.00    -0.550 OA
ATOM      7  O   UNL     1       9.686  12.193   7.587  1.00  0.00    -0.550 OA
ENDBRANCH   4   5
ENDBRANCH   3   4
ENDBRANCH   2   3
ENDBRANCH   1   2
BRANCH   1   8
ATOM      8  C   UNL     1      13.053  12.648   5.221  1.00  0.00     0.000 C 
BRANCH   8   9
ATOM      9  C   UNL     1      14.588  12.751   5.162  1.00  0.00     0.006 C 
BRANCH   9  10
ATOM     10  C   UNL     1      15.115  13.892   4.277  1.00  0.00     0.053 C 
BRANCH  10  11
ATOM     11  C   UNL     1      16.241  13.446   3.395  1.00  0.00     0.041 C 
ATOM     12  O   UNL     1      17.433  13.559   3.784  1.00  0.00    -0.550 OA
ATOM     13  O   UNL     1      15.971  12.875   2.158  1.00  0.00    -0.550 OA
ENDBRANCH  10  11
ENDBRANCH   9  10
ENDBRANCH   8   9
ENDBRANCH   1   8
TORSDOF 8
ENDMDL
MODEL 5
REMARK VINA RESULT:    -4.742      2.893      3.202
REMARK INTER + INTRA:          -7.184
REMARK INTER:                  -6.500
REMARK INTRA:                  -0.683
REMARK UNBOUND:                -0.224
REMARK SMILES O=C([O-])CCCCCCCC(=O)[O-]
REMARK SMILES IDX 7 1 6 2 5 3 4 4 2 5 1 6 3 7 8 8 9 9 10 10 11 11 12 12 13 13
REMARK H PARENT
REMARK Flexibility Score: inf
ROOT
ATOM      1  C   UNL     1       9.991  11.410   4.544  1.00  0.00     0.000 C 
ENDROOT
BRANCH   1   2
ATOM      2  C   UNL     1      11.408  11.342   3.951  1.00  0.00     0.000 C 
BRANCH   2   3
ATOM      3  C   UNL     1      12.196  12.649   4.145  1.00  0.00     0.006 C 
BRANCH   3   4
ATOM      4  C   UNL     1      12.974  12.666   5.468  1.00  0.00     0.053 C 
BRANCH   4   5
ATOM      5  C   UNL     1      12.439  13.692   6.418  1.00  0.00     0.041 C 
ATOM      6  O   UNL     1      11.358  14.287   6.165  1.00  0.00    -0.550 OA
ATOM      7  O   UNL     1      13.118  13.971   7.597  1.00  0.00    -0.550 OA
ENDBRANCH   4   5
ENDBRANCH   3   4
ENDBRANCH   2   3
ENDBRANCH   1   2
BRANCH   1   8
ATOM      8  C   UNL     1       9.730  10.299   5.576  1.00  0.00     0.000 C 
BRANCH   8   9
ATOM      9  C   UNL     1       9.583  10.842   7.010  1.00  0.00     0.006 C 
BRANCH   9  10
ATOM     10  C   UNL     1       8.789  12.153   7.114  1.00  0.00     0.053 C 
BRANCH  10  11
ATOM     11  C   UNL     1       7.346  11.914   7.437  1.00  0.00     0.041 C 
ATOM     12  O   UNL     1       6.449  12.261   6.624  1.00  0.00    -0.550 OA
ATOM     13  O   UNL     1       6.994  11.277   8.621  1.00  0.00    -0.550 OA
ENDBRANCH  10  11
ENDBRANCH   9  10
ENDBRANCH   8   9
ENDBRANCH   1   8
TORSDOF 8
ENDMDL
MODEL 6
REMARK VINA RESULT:    -4.736      1.508      2.212
REMARK INTER + INTRA:          -7.175
REMARK INTER:                  -6.778
REMARK INTRA:                  -0.397
REMARK UNBOUND:                -0.224
REMARK SMILES O=C([O-])CCCCCCCC(=O)[O-]
REMARK SMILES IDX 7 1 6 2 5 3 4 4 2 5 1 6 3 7 8 8 9 9 10 10 11 11 12 12 13 13
REMARK H PARENT
REMARK Flexibility Score: inf
ROOT
ATOM      1  C   UNL     1      10.520  10.213   4.636  1.00  0.00     0.000 C 
ENDROOT
BRANCH   1   2
ATOM      2  C   UNL     1      10.646  11.584   3.951  1.00  0.00     0.000 C 
BRANCH   2   3
ATOM      3  C   UNL     1      12.077  11.875   3.466  1.00  0.00     0.006 C 
BRANCH   3   4
ATOM      4  C   UNL     1      13.041  12.140   4.630  1.00  0.00     0.053 C 
BRANCH   4   5
ATOM      5  C   UNL     1      14.292  12.827   4.175  1.00  0.00     0.041 C 
ATOM      6  O   UNL     1      14.426  13.163   2.969  1.00  0.00    -0.550 OA
ATOM      7  O   UNL     1      15.295  13.123   5.088  1.00  0.00    -0.550 OA
ENDBRANCH   4   5
ENDBRANCH   3   4
ENDBRANCH   2   3
ENDBRANCH   1   2
BRANCH   1   8
ATOM      8  C   UNL     1       9.872  10.307   6.029  1.00  0.00     0.000 C 
BRANCH   8   9
ATOM      9  C   UNL     1       9.301  11.707   6.325  1.00  0.00     0.006 C 
BRANCH   9  10
ATOM     10  C   UNL     1       8.723  11.871   7.740  1.00  0.00     0.053 C 
BRANCH  10  11
ATOM     11  C   UNL     1       7.231  11.735   7.758  1.00  0.00     0.041 C 
ATOM     12  O   UNL     1       6.538  12.241   6.836  1.00  0.00    -0.550 OA
ATOM     13  O   UNL     1       6.610  11.020   8.774  1.00  0.00    -0.550 OA
ENDBRANCH  10  11
ENDBRANCH   9  10
ENDBRANCH   8   9
ENDBRANCH   1   8
TORSDOF 8
ENDMDL
MODEL 7
REMARK VINA RESULT:    -4.699      1.279      7.553
REMARK INTER + INTRA:          -7.121
REMARK INTER:                  -6.927
REMARK INTRA:                  -0.195
REMARK UNBOUND:                -0.224
REMARK SMILES O=C([O-])CCCCCCCC(=O)[O-]
REMARK SMILES IDX 7 1 6 2 5 3 4 4 2 5 1 6 3 7 8 8 9 9 10 10 11 11 12 12 13 13
REMARK H PARENT
REMARK Flexibility Score: inf
ROOT
ATOM      1  C   UNL     1      11.813  12.084   3.647  1.00  0.00     0.000 C 
ENDROOT
BRANCH   1   2
ATOM      2  C   UNL     1      11.230  11.161   4.729  1.00  0.00     0.000 C 
BRANCH   2   3
ATOM      3  C   UNL     1       9.722  10.915   4.549  1.00  0.00     0.006 C 
BRANCH   3   4
ATOM      4  C   UNL     1       8.946  11.097   5.861  1.00  0.00     0.053 C 
BRANCH   4   5
ATOM      5  C   UNL     1       7.836  12.094   5.720  1.00  0.00     0.041 C 
ATOM      6  O   UNL     1       6.768  11.948   6.371  1.00  0.00    -0.550 OA
ATOM      7  O   UNL     1       7.993  13.198   4.893  1.00  0.00    -0.550 OA
ENDBRANCH   4   5
ENDBRANCH   3   4
ENDBRANCH   2   3
ENDBRANCH   1   2
BRANCH   1   8
ATOM      8  C   UNL     1      13.334  12.271   3.789  1.00  0.00     0.000 C 
BRANCH   8   9
ATOM      9  C   UNL     1      13.912  13.251   2.750  1.00  0.00     0.006 C 
BRANCH   9  10
ATOM     10  C   UNL     1      15.405  13.050   2.448  1.00  0.00     0.053 C 
BRANCH  10  11
ATOM     11  C   UNL     1      16.273  13.940   3.283  1.00  0.00     0.041 C 
ATOM     12  O   UNL     1      17.434  13.572   3.605  1.00  0.00    -0.550 OA
ATOM     13  O   UNL     1      15.814  15.190   3.677  1.00  0.00    -0.550 OA
ENDBRANCH  10  11
ENDBRANCH   9  10
ENDBRANCH   8   9
ENDBRANCH   1   8
TORSDOF 8
ENDMDL
MODEL 8
REMARK VINA RESULT:    -4.645      2.711      6.230
REMARK INTER + INTRA:          -7.042
REMARK INTER:                  -6.529
REMARK INTRA:                  -0.513
REMARK UNBOUND:                -0.224
REMARK SMILES O=C([O-])CCCCCCCC(=O)[O-]
REMARK SMILES IDX 7 1 6 2 5 3 4 4 2 5 1 6 3 7 8 8 9 9 10 10 11 11 12 12 13 13
REMARK H PARENT
REMARK Flexibility Score: inf
ROOT
ATOM      1  C   UNL     1      10.640  11.571   3.674  1.00  0.00     0.000 C 
ENDROOT
BRANCH   1   2
ATOM      2  C   UNL     1      10.673  10.599   4.864  1.00  0.00     0.000 C 
BRANCH   2   3
ATOM      3  C   UNL     1       9.306  10.465   5.558  1.00  0.00     0.006 C 
BRANCH   3   4
ATOM      4  C   UNL     1       8.938  11.723   6.356  1.00  0.00     0.053 C 
BRANCH   4   5
ATOM      5  C   UNL     1       7.642  12.318   5.895  1.00  0.00     0.041 C 
ATOM      6  O   UNL     1       6.576  12.073   6.518  1.00  0.00    -0.550 OA
ATOM      7  O   UNL     1       7.618  13.167   4.796  1.00  0.00    -0.550 OA
ENDBRANCH   4   5
ENDBRANCH   3   4
ENDBRANCH   2   3
ENDBRANCH   1   2
BRANCH   1   8
ATOM      8  C   UNL     1      12.016  12.201   3.389  1.00  0.00     0.000 C 
BRANCH   8   9
ATOM      9  C   UNL     1      13.023  11.970   4.532  1.00  0.00     0.006 C 
BRANCH   9  10
ATOM     10  C   UNL     1      13.569  13.258   5.167  1.00  0.00     0.053 C 
BRANCH  10  11
ATOM     11  C   UNL     1      12.613  13.845   6.161  1.00  0.00     0.041 C 
ATOM     12  O   UNL     1      11.520  14.337   5.774  1.00  0.00    -0.550 OA
ATOM     13  O   UNL     1      12.915  13.817   7.517  1.00  0.00    -0.550 OA
ENDBRANCH  10  11
ENDBRANCH   9  10
ENDBRANCH   8   9
ENDBRANCH   1   8
TORSDOF 8
ENDMDL
MODEL 9
REMARK VINA RESULT:    -4.518      1.858      2.555
REMARK INTER + INTRA:          -6.856
REMARK INTER:                  -6.573
REMARK INTRA:                  -0.283
REMARK UNBOUND:                -0.224
REMARK SMILES O=C([O-])CCCCCCCC(=O)[O-]
REMARK SMILES IDX 7 1 6 2 5 3 4 4 2 5 1 6 3 7 8 8 9 9 10 10 11 11 12 12 13 13
REMARK H PARENT
REMARK Flexibility Score: inf
ROOT
ATOM      1  C   UNL     1      12.572  13.378   2.888  1.00  0.00     0.000 C 
ENDROOT
BRANCH   1   2
ATOM      2  C   UNL     1      13.186  13.511   1.485  1.00  0.00     0.000 C 
BRANCH   2   3
ATOM      3  C   UNL     1      14.635  14.027   1.518  1.00  0.00     0.006 C 
BRANCH   3   4
ATOM      4  C   UNL     1      15.512  13.225   2.489  1.00  0.00     0.053 C 
BRANCH   4   5
ATOM      5  C   UNL     1      16.522  14.092   3.176  1.00  0.00     0.041 C 
ATOM      6  O   UNL     1      17.612  13.602   3.574  1.00  0.00    -0.550 OA
ATOM      7  O   UNL     1      16.273  15.448   3.350  1.00  0.00    -0.550 OA
ENDBRANCH   4   5
ENDBRANCH   3   4
ENDBRANCH   2   3
ENDBRANCH   1   2
BRANCH   1   8
ATOM      8  C   UNL     1      12.069  11.952   3.179  1.00  0.00     0.000 C 
BRANCH   8   9
ATOM      9  C   UNL     1      11.572  11.781   4.626  1.00  0.00     0.006 C 
BRANCH   9  10
ATOM     10  C   UNL     1      10.087  11.408   4.748  1.00  0.00     0.053 C 
BRANCH  10  11
ATOM     11  C   UNL     1       9.855  10.351   5.785  1.00  0.00     0.041 C 
ATOM     12  O   UNL     1      10.029   9.137   5.501  1.00  0.00    -0.550 OA
ATOM     13  O   UNL     1       9.480  10.710   7.073  1.00  0.00    -0.550 OA
ENDBRANCH  10  11
ENDBRANCH   9  10
ENDBRANCH   8   9
ENDBRANCH   1   8
TORSDOF 8
ENDMDL
