MODEL 1
REMARK VINA RESULT:    -5.780      0.000      0.000
REMARK INTER + INTRA:         -17.748
REMARK INTER:                 -14.566
REMARK INTRA:                  -3.183
REMARK UNBOUND:                -3.183
REMARK SMILES CCCCCCCCCCCCCCCCCCCCCCCCCCCC(=O)[O-]
REMARK SMILES IDX 15 1 16 2 17 3 18 4 19 5 20 6 21 7 22 8 23 9 24 10 25 11
REMARK SMILES IDX 26 12 27 13 28 14 29 15 30 16 14 17 13 18 12 19 11 20 10 21
REMARK SMILES IDX 9 22 8 23 7 24 6 25 5 26 4 27 3 28 2 29 1 30
REMARK H PARENT
REMARK Flexibility Score: inf
ROOT
ATOM      1  C   UNL     1      -0.757 -26.866   8.511  1.00  0.00     0.000 C 
ENDROOT
BRANCH   1   2
ATOM      2  C   UNL     1       0.731 -26.870   8.145  1.00  0.00     0.000 C 
BRANCH   2   3
ATOM      3  C   UNL     1       0.915 -27.062   6.631  1.00  0.00     0.000 C 
BRANCH   3   4
ATOM      4  C   UNL     1      -0.308 -27.699   5.958  1.00  0.00     0.000 C 
BRANCH   4   5
ATOM      5  C   UNL     1      -0.131 -29.206   5.705  1.00  0.00     0.000 C 
BRANCH   5   6
ATOM      6  C   UNL     1       1.342 -29.606   5.503  1.00  0.00     0.000 C 
BRANCH   6   7
ATOM      7  C   UNL     1       1.784 -29.728   4.032  1.00  0.00     0.000 C 
BRANCH   7   8
ATOM      8  C   UNL     1       0.683 -30.202   3.061  1.00  0.00     0.000 C 
BRANCH   8   9
ATOM      9  C   UNL     1       0.351 -29.221   1.919  1.00  0.00     0.000 C 
BRANCH   9  10
ATOM     10  C   UNL     1       0.409 -27.732   2.302  1.00  0.00     0.000 C 
BRANCH  10  11
ATOM     11  C   UNL     1      -0.980 -27.119   2.535  1.00  0.00     0.000 C 
BRANCH  11  12
ATOM     12  C   UNL     1      -1.775 -27.059   1.224  1.00  0.00     0.006 C 
BRANCH  12  13
ATOM     13  C   UNL     1      -2.487 -25.713   1.039  1.00  0.00     0.053 C 
BRANCH  13  14
ATOM     14  C   UNL     1      -1.544 -24.632   0.605  1.00  0.00     0.041 C 
ATOM     15  O   UNL     1      -1.525 -23.527   1.213  1.00  0.00    -0.550 OA
ATOM     16  O   UNL     1      -0.694 -24.840  -0.478  1.00  0.00    -0.550 OA
ENDBRANCH  13  14
ENDBRANCH  12  13
ENDBRANCH  11  12
ENDBRANCH  10  11
ENDBRANCH   9  10
ENDBRANCH   8   9
ENDBRANCH   7   8
ENDBRANCH   6   7
ENDBRANCH   5   6
ENDBRANCH   4   5
ENDBRANCH   3   4
ENDBRANCH   2   3
ENDBRANCH   1   2
BRANCH   1  17
ATOM     17  C   UNL     1      -1.019 -27.663   9.796  1.00  0.00     0.000 C 
BRANCH  17  18
ATOM     18  C   UNL     1      -0.979 -26.741  11.020  1.00  0.00     0.000 C 
BRANCH  18  19
ATOM     19  C   UNL     1       0.290 -26.958  11.851  1.00  0.00     0.000 C 
BRANCH  19  20
ATOM     20  C   UNL     1       1.217 -25.738  11.749  1.00  0.00     0.000 C 
BRANCH  20  21
ATOM     21  C   UNL     1       1.733 -25.309  13.130  1.00  0.00     0.000 C 
BRANCH  21  22
ATOM     22  C   UNL     1       0.916 -24.151  13.735  1.00  0.00    -0.000 C 
BRANCH  22  23
ATOM     23  C   UNL     1      -0.152 -24.565  14.764  1.00  0.00    -0.000 C 
BRANCH  23  24
ATOM     24  C   UNL     1      -1.561 -23.981  14.537  1.00  0.00    -0.000 C 
BRANCH  24  25
ATOM     25  C   UNL     1      -2.136 -24.225  13.127  1.00  0.00    -0.000 C 
BRANCH  25  26
ATOM     26  C   UNL     1      -3.269 -23.250  12.747  1.00  0.00    -0.000 C 
BRANCH  26  27
ATOM     27  C   UNL     1      -4.295 -23.879  11.792  1.00  0.00    -0.000 C 
BRANCH  27  28
ATOM     28  C   UNL     1      -3.665 -24.394  10.487  1.00  0.00    -0.000 C 
BRANCH  28  29
ATOM     29  C   UNL     1      -4.610 -25.362   9.763  1.00  0.00    -0.003 C 
ATOM     30  C   UNL     1      -5.073 -26.483  10.689  1.00  0.00     0.004 C 
ENDBRANCH  28  29
ENDBRANCH  27  28
ENDBRANCH  26  27
ENDBRANCH  25  26
ENDBRANCH  24  25
ENDBRANCH  23  24
ENDBRANCH  22  23
ENDBRANCH  21  22
ENDBRANCH  20  21
ENDBRANCH  19  20
ENDBRANCH  18  19
ENDBRANCH  17  18
ENDBRANCH   1  17
TORSDOF 26
ENDMDL
MODEL 2
REMARK VINA RESULT:    -5.703      1.286      3.594
REMARK INTER + INTRA:         -17.553
REMARK INTER:                 -14.846
REMARK INTRA:                  -2.708
REMARK UNBOUND:                -3.183
REMARK SMILES CCCCCCCCCCCCCCCCCCCCCCCCCCCC(=O)[O-]
REMARK SMILES IDX 15 1 16 2 17 3 18 4 19 5 20 6 21 7 22 8 23 9 24 10 25 11
REMARK SMILES IDX 26 12 27 13 28 14 29 15 30 16 14 17 13 18 12 19 11 20 10 21
REMARK SMILES IDX 9 22 8 23 7 24 6 25 5 26 4 27 3 28 2 29 1 30
REMARK H PARENT
REMARK Flexibility Score: inf
ROOT
ATOM      1  C   UNL     1       0.197 -26.926   8.158  1.00  0.00     0.000 C 
ENDROOT
BRANCH   1   2
ATOM      2  C   UNL     1       1.453 -26.846   7.283  1.00  0.00     0.000 C 
BRANCH   2   3
ATOM      3  C   UNL     1       1.092 -27.021   5.800  1.00  0.00     0.000 C 
BRANCH   3   4
ATOM      4  C   UNL     1      -0.147 -27.902   5.588  1.00  0.00     0.000 C 
BRANCH   4   5
ATOM      5  C   UNL     1       0.210 -29.367   5.283  1.00  0.00     0.000 C 
BRANCH   5   6
ATOM      6  C   UNL     1       1.638 -29.529   4.732  1.00  0.00     0.000 C 
BRANCH   6   7
ATOM      7  C   UNL     1       1.718 -30.031   3.277  1.00  0.00     0.000 C 
BRANCH   7   8
ATOM      8  C   UNL     1       0.358 -30.355   2.628  1.00  0.00     0.000 C 
BRANCH   8   9
ATOM      9  C   UNL     1      -0.051 -29.427   1.466  1.00  0.00     0.000 C 
BRANCH   9  10
ATOM     10  C   UNL     1      -0.184 -27.940   1.837  1.00  0.00     0.000 C 
BRANCH  10  11
ATOM     11  C   UNL     1      -1.642 -27.499   2.033  1.00  0.00     0.000 C 
BRANCH  11  12
ATOM     12  C   UNL     1      -2.090 -26.578   0.889  1.00  0.00     0.006 C 
BRANCH  12  13
ATOM     13  C   UNL     1      -0.968 -25.640   0.427  1.00  0.00     0.053 C 
BRANCH  13  14
ATOM     14  C   UNL     1      -0.775 -24.488   1.366  1.00  0.00     0.041 C 
ATOM     15  O   UNL     1      -1.586 -23.522   1.358  1.00  0.00    -0.550 OA
ATOM     16  O   UNL     1       0.308 -24.476   2.241  1.00  0.00    -0.550 OA
ENDBRANCH  13  14
ENDBRANCH  12  13
ENDBRANCH  11  12
ENDBRANCH  10  11
ENDBRANCH   9  10
ENDBRANCH   8   9
ENDBRANCH   7   8
ENDBRANCH   6   7
ENDBRANCH   5   6
ENDBRANCH   4   5
ENDBRANCH   3   4
ENDBRANCH   2   3
ENDBRANCH   1   2
BRANCH   1  17
ATOM     17  C   UNL     1       0.493 -26.506   9.603  1.00  0.00     0.000 C 
BRANCH  17  18
ATOM     18  C   UNL     1      -0.778 -26.574  10.457  1.00  0.00     0.000 C 
BRANCH  18  19
ATOM     19  C   UNL     1      -2.043 -26.537   9.592  1.00  0.00     0.000 C 
BRANCH  19  20
ATOM     20  C   UNL     1      -3.299 -26.470  10.474  1.00  0.00     0.000 C 
BRANCH  20  21
ATOM     21  C   UNL     1      -4.206 -25.299  10.069  1.00  0.00     0.000 C 
BRANCH  21  22
ATOM     22  C   UNL     1      -4.306 -24.220  11.165  1.00  0.00    -0.000 C 
BRANCH  22  23
ATOM     23  C   UNL     1      -2.979 -23.857  11.855  1.00  0.00    -0.000 C 
BRANCH  23  24
ATOM     24  C   UNL     1      -3.090 -23.413  13.328  1.00  0.00    -0.000 C 
BRANCH  24  25
ATOM     25  C   UNL     1      -1.873 -23.781  14.201  1.00  0.00    -0.000 C 
BRANCH  25  26
ATOM     26  C   UNL     1      -0.950 -24.837  13.558  1.00  0.00    -0.000 C 
BRANCH  26  27
ATOM     27  C   UNL     1      -0.575 -25.965  14.531  1.00  0.00    -0.000 C 
BRANCH  27  28
ATOM     28  C   UNL     1      -1.101 -25.729  15.957  1.00  0.00    -0.000 C 
BRANCH  28  29
ATOM     29  C   UNL     1      -0.001 -25.974  16.997  1.00  0.00    -0.003 C 
ATOM     30  C   UNL     1       0.218 -24.746  17.875  1.00  0.00     0.004 C 
ENDBRANCH  28  29
ENDBRANCH  27  28
ENDBRANCH  26  27
ENDBRANCH  25  26
ENDBRANCH  24  25
ENDBRANCH  23  24
ENDBRANCH  22  23
ENDBRANCH  21  22
ENDBRANCH  20  21
ENDBRANCH  19  20
ENDBRANCH  18  19
ENDBRANCH  17  18
ENDBRANCH   1  17
TORSDOF 26
ENDMDL
MODEL 3
REMARK VINA RESULT:    -5.594      1.275      3.437
REMARK INTER + INTRA:         -17.279
REMARK INTER:                 -14.442
REMARK INTRA:                  -2.838
REMARK UNBOUND:                -3.183
REMARK SMILES CCCCCCCCCCCCCCCCCCCCCCCCCCCC(=O)[O-]
REMARK SMILES IDX 15 1 16 2 17 3 18 4 19 5 20 6 21 7 22 8 23 9 24 10 25 11
REMARK SMILES IDX 26 12 27 13 28 14 29 15 30 16 14 17 13 18 12 19 11 20 10 21
REMARK SMILES IDX 9 22 8 23 7 24 6 25 5 26 4 27 3 28 2 29 1 30
REMARK H PARENT
REMARK Flexibility Score: inf
ROOT
ATOM      1  C   UNL     1      -0.355 -26.879   8.710  1.00  0.00     0.000 C 
ENDROOT
BRANCH   1   2
ATOM      2  C   UNL     1       0.987 -26.852   7.971  1.00  0.00     0.000 C 
BRANCH   2   3
ATOM      3  C   UNL     1       0.771 -26.948   6.453  1.00  0.00     0.000 C 
BRANCH   3   4
ATOM      4  C   UNL     1      -0.478 -27.758   6.078  1.00  0.00     0.000 C 
BRANCH   4   5
ATOM      5  C   UNL     1      -0.158 -29.226   5.749  1.00  0.00     0.000 C 
BRANCH   5   6
ATOM      6  C   UNL     1       1.153 -29.387   4.960  1.00  0.00     0.000 C 
BRANCH   6   7
ATOM      7  C   UNL     1       0.979 -29.872   3.507  1.00  0.00     0.000 C 
BRANCH   7   8
ATOM      8  C   UNL     1       0.457 -28.803   2.526  1.00  0.00     0.000 C 
BRANCH   8   9
ATOM      9  C   UNL     1       1.015 -27.383   2.747  1.00  0.00     0.000 C 
BRANCH   9  10
ATOM     10  C   UNL     1       0.069 -26.241   2.338  1.00  0.00     0.000 C 
BRANCH  10  11
ATOM     11  C   UNL     1      -1.387 -26.489   2.760  1.00  0.00     0.000 C 
BRANCH  11  12
ATOM     12  C   UNL     1      -2.353 -26.099   1.632  1.00  0.00     0.006 C 
BRANCH  12  13
ATOM     13  C   UNL     1      -1.651 -26.011   0.271  1.00  0.00     0.053 C 
BRANCH  13  14
ATOM     14  C   UNL     1      -2.458 -25.241  -0.730  1.00  0.00     0.041 C 
ATOM     15  O   UNL     1      -3.330 -25.828  -1.426  1.00  0.00    -0.550 OA
ATOM     16  O   UNL     1      -2.238 -23.877  -0.902  1.00  0.00    -0.550 OA
ENDBRANCH  13  14
ENDBRANCH  12  13
ENDBRANCH  11  12
ENDBRANCH  10  11
ENDBRANCH   9  10
ENDBRANCH   8   9
ENDBRANCH   7   8
ENDBRANCH   6   7
ENDBRANCH   5   6
ENDBRANCH   4   5
ENDBRANCH   3   4
ENDBRANCH   2   3
ENDBRANCH   1   2
BRANCH   1  17
ATOM     17  C   UNL     1      -0.189 -26.501  10.188  1.00  0.00     0.000 C 
BRANCH  17  18
ATOM     18  C   UNL     1      -1.545 -26.501  10.901  1.00  0.00     0.000 C 
BRANCH  18  19
ATOM     19  C   UNL     1      -2.704 -26.677   9.914  1.00  0.00     0.000 C 
BRANCH  19  20
ATOM     20  C   UNL     1      -4.012 -26.141  10.515  1.00  0.00     0.000 C 
BRANCH  20  21
ATOM     21  C   UNL     1      -4.157 -24.630  10.284  1.00  0.00     0.000 C 
BRANCH  21  22
ATOM     22  C   UNL     1      -4.094 -23.821  11.593  1.00  0.00    -0.000 C 
BRANCH  22  23
ATOM     23  C   UNL     1      -2.750 -23.887  12.343  1.00  0.00    -0.000 C 
BRANCH  23  24
ATOM     24  C   UNL     1      -2.808 -23.553  13.847  1.00  0.00    -0.000 C 
BRANCH  24  25
ATOM     25  C   UNL     1      -1.517 -23.881  14.626  1.00  0.00    -0.000 C 
BRANCH  25  26
ATOM     26  C   UNL     1      -0.428 -24.549  13.760  1.00  0.00    -0.000 C 
BRANCH  26  27
ATOM     27  C   UNL     1       0.875 -24.796  14.535  1.00  0.00    -0.000 C 
BRANCH  27  28
ATOM     28  C   UNL     1       1.078 -26.273  14.913  1.00  0.00    -0.000 C 
BRANCH  28  29
ATOM     29  C   UNL     1       0.108 -27.178  14.143  1.00  0.00    -0.003 C 
ATOM     30  C   UNL     1       0.833 -28.370  13.525  1.00  0.00     0.004 C 
ENDBRANCH  28  29
ENDBRANCH  27  28
ENDBRANCH  26  27
ENDBRANCH  25  26
ENDBRANCH  24  25
ENDBRANCH  23  24
ENDBRANCH  22  23
ENDBRANCH  21  22
ENDBRANCH  20  21
ENDBRANCH  19  20
ENDBRANCH  18  19
ENDBRANCH  17  18
ENDBRANCH   1  17
TORSDOF 26
ENDMDL
MODEL 4
REMARK VINA RESULT:    -5.572      3.941     10.361
REMARK INTER + INTRA:         -17.223
REMARK INTER:                 -13.880
REMARK INTRA:                  -3.343
REMARK UNBOUND:                -3.183
REMARK SMILES CCCCCCCCCCCCCCCCCCCCCCCCCCCC(=O)[O-]
REMARK SMILES IDX 15 1 16 2 17 3 18 4 19 5 20 6 21 7 22 8 23 9 24 10 25 11
REMARK SMILES IDX 26 12 27 13 28 14 29 15 30 16 14 17 13 18 12 19 11 20 10 21
REMARK SMILES IDX 9 22 8 23 7 24 6 25 5 26 4 27 3 28 2 29 1 30
REMARK H PARENT
REMARK Flexibility Score: inf
ROOT
ATOM      1  C   UNL     1       1.359 -26.537   8.557  1.00  0.00     0.000 C 
ENDROOT
BRANCH   1   2
ATOM      2  C   UNL     1       0.544 -27.326   9.588  1.00  0.00     0.000 C 
BRANCH   2   3
ATOM      3  C   UNL     1       0.077 -26.408  10.728  1.00  0.00     0.000 C 
BRANCH   3   4
ATOM      4  C   UNL     1      -1.413 -26.575  11.057  1.00  0.00     0.000 C 
BRANCH   4   5
ATOM      5  C   UNL     1      -2.319 -26.371   9.830  1.00  0.00     0.000 C 
BRANCH   5   6
ATOM      6  C   UNL     1      -3.812 -26.550  10.158  1.00  0.00     0.000 C 
BRANCH   6   7
ATOM      7  C   UNL     1      -4.623 -25.240  10.216  1.00  0.00     0.000 C 
BRANCH   7   8
ATOM      8  C   UNL     1      -3.855 -24.026  10.778  1.00  0.00     0.000 C 
BRANCH   8   9
ATOM      9  C   UNL     1      -4.075 -23.750  12.278  1.00  0.00     0.000 C 
BRANCH   9  10
ATOM     10  C   UNL     1      -2.897 -23.068  12.994  1.00  0.00     0.000 C 
BRANCH  10  11
ATOM     11  C   UNL     1      -2.353 -23.891  14.171  1.00  0.00     0.000 C 
BRANCH  11  12
ATOM     12  C   UNL     1      -0.852 -24.164  13.997  1.00  0.00     0.006 C 
BRANCH  12  13
ATOM     13  C   UNL     1      -0.231 -24.803  15.245  1.00  0.00     0.053 C 
BRANCH  13  14
ATOM     14  C   UNL     1      -0.441 -26.287  15.282  1.00  0.00     0.041 C 
ATOM     15  O   UNL     1      -0.106 -26.998  14.296  1.00  0.00    -0.550 OA
ATOM     16  O   UNL     1      -1.018 -26.882  16.401  1.00  0.00    -0.550 OA
ENDBRANCH  13  14
ENDBRANCH  12  13
ENDBRANCH  11  12
ENDBRANCH  10  11
ENDBRANCH   9  10
ENDBRANCH   8   9
ENDBRANCH   7   8
ENDBRANCH   6   7
ENDBRANCH   5   6
ENDBRANCH   4   5
ENDBRANCH   3   4
ENDBRANCH   2   3
ENDBRANCH   1   2
BRANCH   1  17
ATOM     17  C   UNL     1       0.972 -26.923   7.124  1.00  0.00     0.000 C 
BRANCH  17  18
ATOM     18  C   UNL     1      -0.252 -27.846   7.125  1.00  0.00     0.000 C 
BRANCH  18  19
ATOM     19  C   UNL     1      -0.072 -29.027   6.166  1.00  0.00     0.000 C 
BRANCH  19  20
ATOM     20  C   UNL     1       1.411 -29.220   5.817  1.00  0.00     0.000 C 
BRANCH  20  21
ATOM     21  C   UNL     1       1.614 -29.379   4.303  1.00  0.00     0.000 C 
BRANCH  21  22
ATOM     22  C   UNL     1       0.366 -29.935   3.592  1.00  0.00    -0.000 C 
BRANCH  22  23
ATOM     23  C   UNL     1       0.404 -29.875   2.053  1.00  0.00    -0.000 C 
BRANCH  23  24
ATOM     24  C   UNL     1      -0.058 -28.546   1.424  1.00  0.00    -0.000 C 
BRANCH  24  25
ATOM     25  C   UNL     1      -1.520 -28.164   1.735  1.00  0.00    -0.000 C 
BRANCH  25  26
ATOM     26  C   UNL     1      -1.927 -26.782   1.183  1.00  0.00    -0.000 C 
BRANCH  26  27
ATOM     27  C   UNL     1      -1.595 -25.637   2.152  1.00  0.00    -0.000 C 
BRANCH  27  28
ATOM     28  C   UNL     1      -1.308 -26.124   3.582  1.00  0.00    -0.000 C 
BRANCH  28  29
ATOM     29  C   UNL     1       0.159 -25.887   3.961  1.00  0.00    -0.003 C 
ATOM     30  C   UNL     1       0.882 -25.066   2.897  1.00  0.00     0.004 C 
ENDBRANCH  28  29
ENDBRANCH  27  28
ENDBRANCH  26  27
ENDBRANCH  25  26
ENDBRANCH  24  25
ENDBRANCH  23  24
ENDBRANCH  22  23
ENDBRANCH  21  22
ENDBRANCH  20  21
ENDBRANCH  19  20
ENDBRANCH  18  19
ENDBRANCH  17  18
ENDBRANCH   1  17
TORSDOF 26
ENDMDL
MODEL 5
REMARK VINA RESULT:    -5.538      4.569     10.877
REMARK INTER + INTRA:         -17.138
REMARK INTER:                 -13.930
REMARK INTRA:                  -3.208
REMARK UNBOUND:                -3.183
REMARK SMILES CCCCCCCCCCCCCCCCCCCCCCCCCCCC(=O)[O-]
REMARK SMILES IDX 15 1 16 2 17 3 18 4 19 5 20 6 21 7 22 8 23 9 24 10 25 11
REMARK SMILES IDX 26 12 27 13 28 14 29 15 30 16 14 17 13 18 12 19 11 20 10 21
REMARK SMILES IDX 9 22 8 23 7 24 6 25 5 26 4 27 3 28 2 29 1 30
REMARK H PARENT
REMARK Flexibility Score: inf
ROOT
ATOM      1  C   UNL     1       0.083 -26.735   8.819  1.00  0.00     0.000 C 
ENDROOT
BRANCH   1   2
ATOM      2  C   UNL     1      -0.317 -26.514  10.283  1.00  0.00     0.000 C 
BRANCH   2   3
ATOM      3  C   UNL     1      -1.782 -26.919  10.510  1.00  0.00     0.000 C 
BRANCH   3   4
ATOM      4  C   UNL     1      -2.774 -26.003   9.782  1.00  0.00     0.000 C 
BRANCH   4   5
ATOM      5  C   UNL     1      -4.155 -25.963  10.459  1.00  0.00     0.000 C 
BRANCH   5   6
ATOM      6  C   UNL     1      -4.420 -24.635  11.189  1.00  0.00     0.000 C 
BRANCH   6   7
ATOM      7  C   UNL     1      -3.156 -23.895  11.668  1.00  0.00     0.000 C 
BRANCH   7   8
ATOM      8  C   UNL     1      -3.224 -23.362  13.113  1.00  0.00     0.000 C 
BRANCH   8   9
ATOM      9  C   UNL     1      -2.069 -23.809  14.032  1.00  0.00     0.000 C 
BRANCH   9  10
ATOM     10  C   UNL     1      -0.979 -24.649  13.345  1.00  0.00     0.000 C 
BRANCH  10  11
ATOM     11  C   UNL     1      -0.710 -25.982  14.059  1.00  0.00     0.000 C 
BRANCH  11  12
ATOM     12  C   UNL     1       0.458 -25.844  15.046  1.00  0.00     0.006 C 
BRANCH  12  13
ATOM     13  C   UNL     1       0.075 -26.290  16.463  1.00  0.00     0.053 C 
BRANCH  13  14
ATOM     14  C   UNL     1      -0.736 -25.254  17.180  1.00  0.00     0.041 C 
ATOM     15  O   UNL     1      -0.164 -24.303  17.776  1.00  0.00    -0.550 OA
ATOM     16  O   UNL     1      -2.126 -25.348  17.201  1.00  0.00    -0.550 OA
ENDBRANCH  13  14
ENDBRANCH  12  13
ENDBRANCH  11  12
ENDBRANCH  10  11
ENDBRANCH   9  10
ENDBRANCH   8   9
ENDBRANCH   7   8
ENDBRANCH   6   7
ENDBRANCH   5   6
ENDBRANCH   4   5
ENDBRANCH   3   4
ENDBRANCH   2   3
ENDBRANCH   1   2
BRANCH   1  17
ATOM     17  C   UNL     1       0.691 -28.128   8.609  1.00  0.00     0.000 C 
BRANCH  17  18
ATOM     18  C   UNL     1      -0.243 -29.002   7.764  1.00  0.00     0.000 C 
BRANCH  18  19
ATOM     19  C   UNL     1      -0.414 -28.443   6.347  1.00  0.00     0.000 C 
BRANCH  19  20
ATOM     20  C   UNL     1      -0.084 -29.516   5.299  1.00  0.00     0.000 C 
BRANCH  20  21
ATOM     21  C   UNL     1       1.242 -29.213   4.585  1.00  0.00     0.000 C 
BRANCH  21  22
ATOM     22  C   UNL     1       1.435 -30.057   3.311  1.00  0.00    -0.000 C 
BRANCH  22  23
ATOM     23  C   UNL     1       0.320 -29.926   2.258  1.00  0.00    -0.000 C 
BRANCH  23  24
ATOM     24  C   UNL     1       0.003 -28.489   1.795  1.00  0.00    -0.000 C 
BRANCH  24  25
ATOM     25  C   UNL     1      -1.501 -28.184   1.639  1.00  0.00    -0.000 C 
BRANCH  25  26
ATOM     26  C   UNL     1      -1.934 -26.866   2.314  1.00  0.00    -0.000 C 
BRANCH  26  27
ATOM     27  C   UNL     1      -0.926 -26.381   3.367  1.00  0.00    -0.000 C 
BRANCH  27  28
ATOM     28  C   UNL     1      -0.516 -24.912   3.174  1.00  0.00    -0.000 C 
BRANCH  28  29
ATOM     29  C   UNL     1       0.957 -24.801   2.761  1.00  0.00    -0.003 C 
ATOM     30  C   UNL     1       1.820 -25.822   3.496  1.00  0.00     0.004 C 
ENDBRANCH  28  29
ENDBRANCH  27  28
ENDBRANCH  26  27
ENDBRANCH  25  26
ENDBRANCH  24  25
ENDBRANCH  23  24
ENDBRANCH  22  23
ENDBRANCH  21  22
ENDBRANCH  20  21
ENDBRANCH  19  20
ENDBRANCH  18  19
ENDBRANCH  17  18
ENDBRANCH   1  17
TORSDOF 26
ENDMDL
MODEL 6
REMARK VINA RESULT:    -5.511      4.418     10.259
REMARK INTER + INTRA:         -17.069
REMARK INTER:                 -14.213
REMARK INTRA:                  -2.857
REMARK UNBOUND:                -3.183
REMARK SMILES CCCCCCCCCCCCCCCCCCCCCCCCCCCC(=O)[O-]
REMARK SMILES IDX 15 1 16 2 17 3 18 4 19 5 20 6 21 7 22 8 23 9 24 10 25 11
REMARK SMILES IDX 26 12 27 13 28 14 29 15 30 16 14 17 13 18 12 19 11 20 10 21
REMARK SMILES IDX 9 22 8 23 7 24 6 25 5 26 4 27 3 28 2 29 1 30
REMARK H PARENT
REMARK Flexibility Score: inf
ROOT
ATOM      1  C   UNL     1       1.173 -26.514   8.185  1.00  0.00     0.000 C 
ENDROOT
BRANCH   1   2
ATOM      2  C   UNL     1       1.270 -27.166   9.569  1.00  0.00     0.000 C 
BRANCH   2   3
ATOM      3  C   UNL     1       0.762 -26.206  10.656  1.00  0.00     0.000 C 
BRANCH   3   4
ATOM      4  C   UNL     1      -0.466 -26.746  11.402  1.00  0.00     0.000 C 
BRANCH   4   5
ATOM      5  C   UNL     1      -1.560 -27.262  10.451  1.00  0.00     0.000 C 
BRANCH   5   6
ATOM      6  C   UNL     1      -2.489 -26.143   9.949  1.00  0.00     0.000 C 
BRANCH   6   7
ATOM      7  C   UNL     1      -3.990 -26.388  10.197  1.00  0.00     0.000 C 
BRANCH   7   8
ATOM      8  C   UNL     1      -4.744 -25.203  10.833  1.00  0.00     0.000 C 
BRANCH   8   9
ATOM      9  C   UNL     1      -3.950 -23.883  10.904  1.00  0.00     0.000 C 
BRANCH   9  10
ATOM     10  C   UNL     1      -3.567 -23.429  12.322  1.00  0.00     0.000 C 
BRANCH  10  11
ATOM     11  C   UNL     1      -2.401 -24.234  12.915  1.00  0.00     0.000 C 
BRANCH  11  12
ATOM     12  C   UNL     1      -2.081 -23.760  14.340  1.00  0.00     0.006 C 
BRANCH  12  13
ATOM     13  C   UNL     1      -0.692 -24.215  14.805  1.00  0.00     0.053 C 
BRANCH  13  14
ATOM     14  C   UNL     1      -0.708 -24.718  16.216  1.00  0.00     0.041 C 
ATOM     15  O   UNL     1       0.368 -24.812  16.866  1.00  0.00    -0.550 OA
ATOM     16  O   UNL     1      -1.910 -25.094  16.810  1.00  0.00    -0.550 OA
ENDBRANCH  13  14
ENDBRANCH  12  13
ENDBRANCH  11  12
ENDBRANCH  10  11
ENDBRANCH   9  10
ENDBRANCH   8   9
ENDBRANCH   7   8
ENDBRANCH   6   7
ENDBRANCH   5   6
ENDBRANCH   4   5
ENDBRANCH   3   4
ENDBRANCH   2   3
ENDBRANCH   1   2
BRANCH   1  17
ATOM     17  C   UNL     1       0.005 -27.091   7.375  1.00  0.00     0.000 C 
BRANCH  17  18
ATOM     18  C   UNL     1       0.043 -28.623   7.389  1.00  0.00     0.000 C 
BRANCH  18  19
ATOM     19  C   UNL     1      -0.230 -29.209   5.999  1.00  0.00     0.000 C 
BRANCH  19  20
ATOM     20  C   UNL     1       1.084 -29.411   5.230  1.00  0.00     0.000 C 
BRANCH  20  21
ATOM     21  C   UNL     1       0.824 -29.736   3.752  1.00  0.00     0.000 C 
BRANCH  21  22
ATOM     22  C   UNL     1       1.304 -28.618   2.806  1.00  0.00    -0.000 C 
BRANCH  22  23
ATOM     23  C   UNL     1       1.815 -27.342   3.500  1.00  0.00    -0.000 C 
BRANCH  23  24
ATOM     24  C   UNL     1       0.972 -26.072   3.268  1.00  0.00    -0.000 C 
BRANCH  24  25
ATOM     25  C   UNL     1      -0.258 -25.941   4.190  1.00  0.00    -0.000 C 
BRANCH  25  26
ATOM     26  C   UNL     1      -1.577 -25.704   3.426  1.00  0.00    -0.000 C 
BRANCH  26  27
ATOM     27  C   UNL     1      -1.359 -25.498   1.920  1.00  0.00    -0.000 C 
BRANCH  27  28
ATOM     28  C   UNL     1      -2.503 -26.066   1.063  1.00  0.00    -0.000 C 
BRANCH  28  29
ATOM     29  C   UNL     1      -2.330 -25.682  -0.412  1.00  0.00    -0.003 C 
ATOM     30  C   UNL     1      -2.306 -24.167  -0.593  1.00  0.00     0.004 C 
ENDBRANCH  28  29
ENDBRANCH  27  28
ENDBRANCH  26  27
ENDBRANCH  25  26
ENDBRANCH  24  25
ENDBRANCH  23  24
ENDBRANCH  22  23
ENDBRANCH  21  22
ENDBRANCH  20  21
ENDBRANCH  19  20
ENDBRANCH  18  19
ENDBRANCH  17  18
ENDBRANCH   1  17
TORSDOF 26
ENDMDL
MODEL 7
REMARK VINA RESULT:    -5.468      1.278      2.094
REMARK INTER + INTRA:         -16.961
REMARK INTER:                 -13.816
REMARK INTRA:                  -3.146
REMARK UNBOUND:                -3.183
REMARK SMILES CCCCCCCCCCCCCCCCCCCCCCCCCCCC(=O)[O-]
REMARK SMILES IDX 15 1 16 2 17 3 18 4 19 5 20 6 21 7 22 8 23 9 24 10 25 11
REMARK SMILES IDX 26 12 27 13 28 14 29 15 30 16 14 17 13 18 12 19 11 20 10 21
REMARK SMILES IDX 9 22 8 23 7 24 6 25 5 26 4 27 3 28 2 29 1 30
REMARK H PARENT
REMARK Flexibility Score: inf
ROOT
ATOM      1  C   UNL     1      -0.068 -29.709  10.360  1.00  0.00     0.000 C 
ENDROOT
BRANCH   1   2
ATOM      2  C   UNL     1      -0.269 -29.375   8.878  1.00  0.00     0.000 C 
BRANCH   2   3
ATOM      3  C   UNL     1      -1.262 -28.213   8.715  1.00  0.00     0.000 C 
BRANCH   3   4
ATOM      4  C   UNL     1      -0.574 -26.885   8.373  1.00  0.00     0.000 C 
BRANCH   4   5
ATOM      5  C   UNL     1       0.858 -27.075   7.843  1.00  0.00     0.000 C 
BRANCH   5   6
ATOM      6  C   UNL     1       0.960 -26.871   6.321  1.00  0.00     0.000 C 
BRANCH   6   7
ATOM      7  C   UNL     1      -0.296 -27.281   5.527  1.00  0.00     0.000 C 
BRANCH   7   8
ATOM      8  C   UNL     1      -0.172 -28.612   4.759  1.00  0.00     0.000 C 
BRANCH   8   9
ATOM      9  C   UNL     1       0.539 -28.516   3.394  1.00  0.00     0.000 C 
BRANCH   9  10
ATOM     10  C   UNL     1      -0.111 -27.553   2.388  1.00  0.00     0.000 C 
BRANCH  10  11
ATOM     11  C   UNL     1      -1.553 -27.941   2.031  1.00  0.00     0.000 C 
BRANCH  11  12
ATOM     12  C   UNL     1      -2.288 -26.762   1.378  1.00  0.00     0.006 C 
BRANCH  12  13
ATOM     13  C   UNL     1      -1.365 -25.929   0.480  1.00  0.00     0.053 C 
BRANCH  13  14
ATOM     14  C   UNL     1      -2.130 -25.161  -0.555  1.00  0.00     0.041 C 
ATOM     15  O   UNL     1      -3.043 -25.725  -1.216  1.00  0.00    -0.550 OA
ATOM     16  O   UNL     1      -1.825 -23.824  -0.797  1.00  0.00    -0.550 OA
ENDBRANCH  13  14
ENDBRANCH  12  13
ENDBRANCH  11  12
ENDBRANCH  10  11
ENDBRANCH   9  10
ENDBRANCH   8   9
ENDBRANCH   7   8
ENDBRANCH   6   7
ENDBRANCH   5   6
ENDBRANCH   4   5
ENDBRANCH   3   4
ENDBRANCH   2   3
ENDBRANCH   1   2
BRANCH   1  17
ATOM     17  C   UNL     1       1.419 -29.689  10.741  1.00  0.00     0.000 C 
BRANCH  17  18
ATOM     18  C   UNL     1       1.805 -28.330  11.335  1.00  0.00     0.000 C 
BRANCH  18  19
ATOM     19  C   UNL     1       0.603 -27.629  11.976  1.00  0.00     0.000 C 
BRANCH  19  20
ATOM     20  C   UNL     1       0.667 -26.114  11.732  1.00  0.00     0.000 C 
BRANCH  20  21
ATOM     21  C   UNL     1       1.781 -25.459  12.563  1.00  0.00     0.000 C 
BRANCH  21  22
ATOM     22  C   UNL     1       1.247 -24.381  13.525  1.00  0.00    -0.000 C 
BRANCH  22  23
ATOM     23  C   UNL     1       0.657 -24.911  14.845  1.00  0.00    -0.000 C 
BRANCH  23  24
ATOM     24  C   UNL     1      -0.879 -25.045  14.885  1.00  0.00    -0.000 C 
BRANCH  24  25
ATOM     25  C   UNL     1      -1.640 -23.889  14.204  1.00  0.00    -0.000 C 
BRANCH  25  26
ATOM     26  C   UNL     1      -2.325 -24.296  12.883  1.00  0.00    -0.000 C 
BRANCH  26  27
ATOM     27  C   UNL     1      -3.506 -23.382  12.523  1.00  0.00    -0.000 C 
BRANCH  27  28
ATOM     28  C   UNL     1      -4.272 -23.853  11.275  1.00  0.00    -0.000 C 
BRANCH  28  29
ATOM     29  C   UNL     1      -3.581 -25.059  10.627  1.00  0.00    -0.003 C 
ATOM     30  C   UNL     1      -4.586 -26.151  10.271  1.00  0.00     0.004 C 
ENDBRANCH  28  29
ENDBRANCH  27  28
ENDBRANCH  26  27
ENDBRANCH  25  26
ENDBRANCH  24  25
ENDBRANCH  23  24
ENDBRANCH  22  23
ENDBRANCH  21  22
ENDBRANCH  20  21
ENDBRANCH  19  20
ENDBRANCH  18  19
ENDBRANCH  17  18
ENDBRANCH   1  17
TORSDOF 26
ENDMDL
MODEL 8
REMARK VINA RESULT:    -5.432      3.238      9.209
REMARK INTER + INTRA:         -16.872
REMARK INTER:                 -12.714
REMARK INTRA:                  -4.158
REMARK UNBOUND:                -3.183
REMARK SMILES CCCCCCCCCCCCCCCCCCCCCCCCCCCC(=O)[O-]
REMARK SMILES IDX 15 1 16 2 17 3 18 4 19 5 20 6 21 7 22 8 23 9 24 10 25 11
REMARK SMILES IDX 26 12 27 13 28 14 29 15 30 16 14 17 13 18 12 19 11 20 10 21
REMARK SMILES IDX 9 22 8 23 7 24 6 25 5 26 4 27 3 28 2 29 1 30
REMARK H PARENT
REMARK Flexibility Score: inf
ROOT
ATOM      1  C   UNL     1       0.563 -26.859   7.854  1.00  0.00     0.000 C 
ENDROOT
BRANCH   1   2
ATOM      2  C   UNL     1       1.210 -27.614   9.021  1.00  0.00     0.000 C 
BRANCH   2   3
ATOM      3  C   UNL     1       1.973 -28.847   8.512  1.00  0.00     0.000 C 
BRANCH   3   4
ATOM      4  C   UNL     1       1.320 -30.169   8.938  1.00  0.00     0.000 C 
BRANCH   4   5
ATOM      5  C   UNL     1       0.481 -30.032  10.220  1.00  0.00     0.000 C 
BRANCH   5   6
ATOM      6  C   UNL     1       1.147 -30.693  11.440  1.00  0.00     0.000 C 
BRANCH   6   7
ATOM      7  C   UNL     1       1.086 -29.865  12.739  1.00  0.00     0.000 C 
BRANCH   7   8
ATOM      8  C   UNL     1       1.503 -28.388  12.586  1.00  0.00     0.000 C 
BRANCH   8   9
ATOM      9  C   UNL     1       0.455 -27.360  13.058  1.00  0.00     0.000 C 
BRANCH   9  10
ATOM     10  C   UNL     1       0.298 -26.128  12.151  1.00  0.00     0.000 C 
BRANCH  10  11
ATOM     11  C   UNL     1      -1.168 -25.730  11.928  1.00  0.00     0.000 C 
BRANCH  11  12
ATOM     12  C   UNL     1      -1.870 -26.736  11.004  1.00  0.00     0.006 C 
BRANCH  12  13
ATOM     13  C   UNL     1      -2.695 -26.043   9.913  1.00  0.00     0.053 C 
BRANCH  13  14
ATOM     14  C   UNL     1      -4.075 -25.697  10.384  1.00  0.00     0.041 C 
ATOM     15  O   UNL     1      -4.999 -26.551  10.316  1.00  0.00    -0.550 OA
ATOM     16  O   UNL     1      -4.342 -24.426  10.886  1.00  0.00    -0.550 OA
ENDBRANCH  13  14
ENDBRANCH  12  13
ENDBRANCH  11  12
ENDBRANCH  10  11
ENDBRANCH   9  10
ENDBRANCH   8   9
ENDBRANCH   7   8
ENDBRANCH   6   7
ENDBRANCH   5   6
ENDBRANCH   4   5
ENDBRANCH   3   4
ENDBRANCH   2   3
ENDBRANCH   1   2
BRANCH   1  17
ATOM     17  C   UNL     1      -0.511 -27.711   7.164  1.00  0.00     0.000 C 
BRANCH  17  18
ATOM     18  C   UNL     1      -0.263 -27.771   5.653  1.00  0.00     0.000 C 
BRANCH  18  19
ATOM     19  C   UNL     1       0.242 -29.150   5.216  1.00  0.00     0.000 C 
BRANCH  19  20
ATOM     20  C   UNL     1       1.690 -29.062   4.713  1.00  0.00     0.000 C 
BRANCH  20  21
ATOM     21  C   UNL     1       1.874 -29.833   3.398  1.00  0.00     0.000 C 
BRANCH  21  22
ATOM     22  C   UNL     1       0.556 -30.429   2.869  1.00  0.00    -0.000 C 
BRANCH  22  23
ATOM     23  C   UNL     1      -0.013 -29.752   1.608  1.00  0.00    -0.000 C 
BRANCH  23  24
ATOM     24  C   UNL     1      -0.035 -28.211   1.628  1.00  0.00    -0.000 C 
BRANCH  24  25
ATOM     25  C   UNL     1      -1.439 -27.589   1.479  1.00  0.00    -0.000 C 
BRANCH  25  26
ATOM     26  C   UNL     1      -1.706 -26.429   2.459  1.00  0.00    -0.000 C 
BRANCH  26  27
ATOM     27  C   UNL     1      -1.372 -25.056   1.856  1.00  0.00    -0.000 C 
BRANCH  27  28
ATOM     28  C   UNL     1       0.123 -24.705   1.951  1.00  0.00    -0.000 C 
BRANCH  28  29
ATOM     29  C   UNL     1       0.674 -25.018   3.348  1.00  0.00    -0.003 C 
ATOM     30  C   UNL     1       2.055 -25.661   3.270  1.00  0.00     0.004 C 
ENDBRANCH  28  29
ENDBRANCH  27  28
ENDBRANCH  26  27
ENDBRANCH  25  26
ENDBRANCH  24  25
ENDBRANCH  23  24
ENDBRANCH  22  23
ENDBRANCH  21  22
ENDBRANCH  20  21
ENDBRANCH  19  20
ENDBRANCH  18  19
ENDBRANCH  17  18
ENDBRANCH   1  17
TORSDOF 26
ENDMDL
MODEL 9
REMARK VINA RESULT:    -5.409      1.372      2.002
REMARK INTER + INTRA:         -16.813
REMARK INTER:                 -13.642
REMARK INTRA:                  -3.171
REMARK UNBOUND:                -3.183
REMARK SMILES CCCCCCCCCCCCCCCCCCCCCCCCCCCC(=O)[O-]
REMARK SMILES IDX 15 1 16 2 17 3 18 4 19 5 20 6 21 7 22 8 23 9 24 10 25 11
REMARK SMILES IDX 26 12 27 13 28 14 29 15 30 16 14 17 13 18 12 19 11 20 10 21
REMARK SMILES IDX 9 22 8 23 7 24 6 25 5 26 4 27 3 28 2 29 1 30
REMARK H PARENT
REMARK Flexibility Score: inf
ROOT
ATOM      1  C   UNL     1      -0.752 -28.305   9.022  1.00  0.00     0.000 C 
ENDROOT
BRANCH   1   2
ATOM      2  C   UNL     1       0.196 -29.066   8.087  1.00  0.00     0.000 C 
BRANCH   2   3
ATOM      3  C   UNL     1      -0.497 -29.381   6.753  1.00  0.00     0.000 C 
BRANCH   3   4
ATOM      4  C   UNL     1       0.101 -28.604   5.572  1.00  0.00     0.000 C 
BRANCH   4   5
ATOM      5  C   UNL     1      -0.479 -27.185   5.438  1.00  0.00     0.000 C 
BRANCH   5   6
ATOM      6  C   UNL     1       0.400 -26.262   4.576  1.00  0.00     0.000 C 
BRANCH   6   7
ATOM      7  C   UNL     1       1.214 -26.980   3.482  1.00  0.00     0.000 C 
BRANCH   7   8
ATOM      8  C   UNL     1       0.625 -26.875   2.061  1.00  0.00     0.000 C 
BRANCH   8   9
ATOM      9  C   UNL     1      -0.242 -28.072   1.622  1.00  0.00     0.000 C 
BRANCH   9  10
ATOM     10  C   UNL     1      -1.750 -27.913   1.880  1.00  0.00     0.000 C 
BRANCH  10  11
ATOM     11  C   UNL     1      -2.223 -26.455   1.794  1.00  0.00     0.000 C 
BRANCH  11  12
ATOM     12  C   UNL     1      -2.314 -25.997   0.332  1.00  0.00     0.006 C 
BRANCH  12  13
ATOM     13  C   UNL     1      -1.516 -24.713   0.076  1.00  0.00     0.053 C 
BRANCH  13  14
ATOM     14  C   UNL     1      -1.537 -24.315  -1.369  1.00  0.00     0.041 C 
ATOM     15  O   UNL     1      -0.508 -23.824  -1.906  1.00  0.00    -0.550 OA
ATOM     16  O   UNL     1      -2.699 -24.476  -2.120  1.00  0.00    -0.550 OA
ENDBRANCH  13  14
ENDBRANCH  12  13
ENDBRANCH  11  12
ENDBRANCH  10  11
ENDBRANCH   9  10
ENDBRANCH   8   9
ENDBRANCH   7   8
ENDBRANCH   6   7
ENDBRANCH   5   6
ENDBRANCH   4   5
ENDBRANCH   3   4
ENDBRANCH   2   3
ENDBRANCH   1   2
BRANCH   1  17
ATOM     17  C   UNL     1      -0.397 -26.814   9.086  1.00  0.00     0.000 C 
BRANCH  17  18
ATOM     18  C   UNL     1       1.123 -26.619   9.037  1.00  0.00     0.000 C 
BRANCH  18  19
ATOM     19  C   UNL     1       1.685 -26.200  10.400  1.00  0.00     0.000 C 
BRANCH  19  20
ATOM     20  C   UNL     1       0.551 -25.782  11.347  1.00  0.00     0.000 C 
BRANCH  20  21
ATOM     21  C   UNL     1       0.245 -26.881  12.375  1.00  0.00     0.000 C 
BRANCH  21  22
ATOM     22  C   UNL     1      -0.187 -26.312  13.740  1.00  0.00    -0.000 C 
BRANCH  22  23
ATOM     23  C   UNL     1       0.233 -24.856  14.010  1.00  0.00    -0.000 C 
BRANCH  23  24
ATOM     24  C   UNL     1      -0.916 -23.872  14.309  1.00  0.00    -0.000 C 
BRANCH  24  25
ATOM     25  C   UNL     1      -2.305 -24.348  13.835  1.00  0.00    -0.000 C 
BRANCH  25  26
ATOM     26  C   UNL     1      -3.114 -23.255  13.107  1.00  0.00    -0.000 C 
BRANCH  26  27
ATOM     27  C   UNL     1      -3.710 -23.746  11.779  1.00  0.00    -0.000 C 
BRANCH  27  28
ATOM     28  C   UNL     1      -2.985 -24.980  11.215  1.00  0.00    -0.000 C 
BRANCH  28  29
ATOM     29  C   UNL     1      -3.789 -25.617  10.074  1.00  0.00    -0.003 C 
ATOM     30  C   UNL     1      -5.023 -26.344  10.602  1.00  0.00     0.004 C 
ENDBRANCH  28  29
ENDBRANCH  27  28
ENDBRANCH  26  27
ENDBRANCH  25  26
ENDBRANCH  24  25
ENDBRANCH  23  24
ENDBRANCH  22  23
ENDBRANCH  21  22
ENDBRANCH  20  21
ENDBRANCH  19  20
ENDBRANCH  18  19
ENDBRANCH  17  18
ENDBRANCH   1  17
TORSDOF 26
ENDMDL
