MODEL 1
REMARK VINA RESULT:    -5.234      0.000      0.000
REMARK INTER + INTRA:          -5.915
REMARK INTER:                  -5.846
REMARK INTRA:                  -0.069
REMARK UNBOUND:                -0.069
REMARK SMILES COc1cc2ccc(=O)oc2c(O)c1O
REMARK SMILES IDX 3 1 14 2 12 3 11 4 5 5 4 6 6 7 7 8 8 9 9 10 10 11 2 12 1 13
REMARK SMILES IDX 15 14 13 16
REMARK H PARENT 15 15 13 17
REMARK Flexibility Score: inf
ROOT
ATOM      1  C   UNL     1       1.707 -13.915  12.145  1.00  0.00     0.165 A 
ATOM      2  C   UNL     1       2.362 -13.329  11.044  1.00  0.00     0.204 A 
ATOM      3  C   UNL     1       2.377 -13.976   9.801  1.00  0.00     0.205 A 
ATOM      4  C   UNL     1       1.737 -15.215   9.646  1.00  0.00     0.184 A 
ATOM      5  C   UNL     1       1.080 -15.806  10.745  1.00  0.00     0.025 A 
ATOM      6  C   UNL     1       1.066 -15.158  11.987  1.00  0.00     0.062 A 
ATOM      7  C   UNL     1       0.450 -17.042  10.562  1.00  0.00     0.020 A 
ATOM      8  C   UNL     1       0.487 -17.653   9.310  1.00  0.00     0.094 A 
ATOM      9  C   UNL     1       1.158 -17.009   8.265  1.00  0.00     0.336 A 
ATOM     10  O   UNL     1       1.204 -17.543   7.126  1.00  0.00    -0.246 OA
ATOM     11  O   UNL     1       1.748 -15.835   8.466  1.00  0.00    -0.419 OA
ENDROOT
BRANCH   1  12
ATOM     12  O   UNL     1       1.714 -13.236  13.375  1.00  0.00    -0.493 OA
ATOM     13  C   UNL     1       0.636 -12.446  13.869  1.00  0.00     0.278 C 
ENDBRANCH   1  12
BRANCH   2  14
ATOM     14  O   UNL     1       3.006 -12.097  11.171  1.00  0.00    -0.502 OA
ATOM     15  H   UNL     1       2.800 -11.452  11.924  1.00  0.00     0.293 HD
ENDBRANCH   2  14
BRANCH   3  16
ATOM     16  O   UNL     1       3.034 -13.371   8.728  1.00  0.00    -0.502 OA
ATOM     17  H   UNL     1       2.532 -12.912   7.977  1.00  0.00     0.293 HD
ENDBRANCH   3  16
TORSDOF 3
ENDMDL
MODEL 2
REMARK VINA RESULT:    -4.445      1.858      4.761
REMARK INTER + INTRA:          -5.034
REMARK INTER:                  -4.965
REMARK INTRA:                  -0.069
REMARK UNBOUND:                -0.069
REMARK SMILES COc1cc2ccc(=O)oc2c(O)c1O
REMARK SMILES IDX 3 1 14 2 12 3 11 4 5 5 4 6 6 7 7 8 8 9 9 10 10 11 2 12 1 13
REMARK SMILES IDX 15 14 13 16
REMARK H PARENT 15 15 13 17
REMARK Flexibility Score: inf
ROOT
ATOM      1  C   UNL     1       1.004 -15.143  10.855  1.00  0.00     0.165 A 
ATOM      2  C   UNL     1       1.589 -14.467   9.767  1.00  0.00     0.204 A 
ATOM      3  C   UNL     1       2.715 -13.654   9.959  1.00  0.00     0.205 A 
ATOM      4  C   UNL     1       3.268 -13.511  11.241  1.00  0.00     0.184 A 
ATOM      5  C   UNL     1       2.685 -14.186  12.334  1.00  0.00     0.025 A 
ATOM      6  C   UNL     1       1.560 -14.997  12.140  1.00  0.00     0.062 A 
ATOM      7  C   UNL     1       3.256 -14.024  13.601  1.00  0.00     0.020 A 
ATOM      8  C   UNL     1       4.376 -13.209  13.750  1.00  0.00     0.094 A 
ATOM      9  C   UNL     1       4.900 -12.569  12.622  1.00  0.00     0.336 A 
ATOM     10  O   UNL     1       5.911 -11.827  12.734  1.00  0.00    -0.246 OA
ATOM     11  O   UNL     1       4.338 -12.740  11.429  1.00  0.00    -0.419 OA
ENDROOT
BRANCH   1  12
ATOM     12  O   UNL     1      -0.124 -15.949  10.622  1.00  0.00    -0.493 OA
ATOM     13  C   UNL     1      -0.092 -17.366  10.491  1.00  0.00     0.278 C 
ENDBRANCH   1  12
BRANCH   2  14
ATOM     14  O   UNL     1       1.060 -14.593   8.481  1.00  0.00    -0.502 OA
ATOM     15  H   UNL     1       0.967 -15.489   8.019  1.00  0.00     0.293 HD
ENDBRANCH   2  14
BRANCH   3  16
ATOM     16  O   UNL     1       3.274 -12.997   8.861  1.00  0.00    -0.502 OA
ATOM     17  H   UNL     1       3.698 -13.498   8.090  1.00  0.00     0.293 HD
ENDBRANCH   3  16
TORSDOF 3
ENDMDL
MODEL 3
REMARK VINA RESULT:    -4.289      2.013      2.598
REMARK INTER + INTRA:          -4.860
REMARK INTER:                  -5.099
REMARK INTRA:                   0.239
REMARK UNBOUND:                -0.069
REMARK SMILES COc1cc2ccc(=O)oc2c(O)c1O
REMARK SMILES IDX 3 1 14 2 12 3 11 4 5 5 4 6 6 7 7 8 8 9 9 10 10 11 2 12 1 13
REMARK SMILES IDX 15 14 13 16
REMARK H PARENT 15 15 13 17
REMARK Flexibility Score: inf
ROOT
ATOM      1  C   UNL     1       3.486 -13.440  13.281  1.00  0.00     0.165 A 
ATOM      2  C   UNL     1       4.010 -12.850  12.115  1.00  0.00     0.204 A 
ATOM      3  C   UNL     1       3.365 -13.020  10.882  1.00  0.00     0.205 A 
ATOM      4  C   UNL     1       2.189 -13.782  10.803  1.00  0.00     0.184 A 
ATOM      5  C   UNL     1       1.660 -14.375  11.969  1.00  0.00     0.025 A 
ATOM      6  C   UNL     1       2.307 -14.204  13.200  1.00  0.00     0.062 A 
ATOM      7  C   UNL     1       0.487 -15.130  11.862  1.00  0.00     0.020 A 
ATOM      8  C   UNL     1      -0.125 -15.275  10.618  1.00  0.00     0.094 A 
ATOM      9  C   UNL     1       0.456 -14.659   9.505  1.00  0.00     0.336 A 
ATOM     10  O   UNL     1      -0.080 -14.778   8.372  1.00  0.00    -0.246 OA
ATOM     11  O   UNL     1       1.571 -13.947   9.634  1.00  0.00    -0.419 OA
ENDROOT
BRANCH   1  12
ATOM     12  O   UNL     1       4.161 -13.246  14.498  1.00  0.00    -0.493 OA
ATOM     13  C   UNL     1       5.514 -13.620  14.741  1.00  0.00     0.278 C 
ENDBRANCH   1  12
BRANCH   2  14
ATOM     14  O   UNL     1       5.178 -12.087  12.164  1.00  0.00    -0.502 OA
ATOM     15  H   UNL     1       5.299 -11.246  11.612  1.00  0.00     0.293 HD
ENDBRANCH   2  14
BRANCH   3  16
ATOM     16  O   UNL     1       3.908 -12.423   9.742  1.00  0.00    -0.502 OA
ATOM     17  H   UNL     1       3.876 -12.867   8.833  1.00  0.00     0.293 HD
ENDBRANCH   3  16
TORSDOF 3
ENDMDL
MODEL 4
REMARK VINA RESULT:    -4.255      2.275      3.095
REMARK INTER + INTRA:          -4.822
REMARK INTER:                  -5.007
REMARK INTRA:                   0.185
REMARK UNBOUND:                -0.069
REMARK SMILES COc1cc2ccc(=O)oc2c(O)c1O
REMARK SMILES IDX 3 1 14 2 12 3 11 4 5 5 4 6 6 7 7 8 8 9 9 10 10 11 2 12 1 13
REMARK SMILES IDX 15 14 13 16
REMARK H PARENT 15 15 13 17
REMARK Flexibility Score: inf
ROOT
ATOM      1  C   UNL     1       0.814 -12.810   9.505  1.00  0.00     0.165 A 
ATOM      2  C   UNL     1       1.885 -12.650  10.407  1.00  0.00     0.204 A 
ATOM      3  C   UNL     1       2.323 -13.728  11.188  1.00  0.00     0.205 A 
ATOM      4  C   UNL     1       1.696 -14.979  11.074  1.00  0.00     0.184 A 
ATOM      5  C   UNL     1       0.624 -15.145  10.172  1.00  0.00     0.025 A 
ATOM      6  C   UNL     1       0.187 -14.066   9.394  1.00  0.00     0.062 A 
ATOM      7  C   UNL     1       0.018 -16.402  10.079  1.00  0.00     0.020 A 
ATOM      8  C   UNL     1       0.484 -17.449  10.872  1.00  0.00     0.094 A 
ATOM      9  C   UNL     1       1.550 -17.212  11.744  1.00  0.00     0.336 A 
ATOM     10  O   UNL     1       1.987 -18.145  12.470  1.00  0.00    -0.246 OA
ATOM     11  O   UNL     1       2.109 -16.008  11.813  1.00  0.00    -0.419 OA
ENDROOT
BRANCH   1  12
ATOM     12  O   UNL     1       0.404 -11.706   8.741  1.00  0.00    -0.493 OA
ATOM     13  C   UNL     1      -0.125 -10.499   9.282  1.00  0.00     0.278 C 
ENDBRANCH   1  12
BRANCH   2  14
ATOM     14  O   UNL     1       2.526 -11.417  10.540  1.00  0.00    -0.502 OA
ATOM     15  H   UNL     1       2.039 -10.583  10.845  1.00  0.00     0.293 HD
ENDBRANCH   2  14
BRANCH   3  16
ATOM     16  O   UNL     1       3.386 -13.539  12.072  1.00  0.00    -0.502 OA
ATOM     17  H   UNL     1       3.861 -14.314  12.520  1.00  0.00     0.293 HD
ENDBRANCH   3  16
TORSDOF 3
ENDMDL
MODEL 5
REMARK VINA RESULT:    -4.177      2.294      3.034
REMARK INTER + INTRA:          -4.735
REMARK INTER:                  -4.675
REMARK INTRA:                  -0.060
REMARK UNBOUND:                -0.069
REMARK SMILES COc1cc2ccc(=O)oc2c(O)c1O
REMARK SMILES IDX 3 1 14 2 12 3 11 4 5 5 4 6 6 7 7 8 8 9 9 10 10 11 2 12 1 13
REMARK SMILES IDX 15 14 13 16
REMARK H PARENT 15 15 13 17
REMARK Flexibility Score: inf
ROOT
ATOM      1  C   UNL     1       1.196 -15.385  10.992  1.00  0.00     0.165 A 
ATOM      2  C   UNL     1       1.323 -15.477   9.592  1.00  0.00     0.204 A 
ATOM      3  C   UNL     1       1.716 -16.681   8.992  1.00  0.00     0.205 A 
ATOM      4  C   UNL     1       1.986 -17.807   9.786  1.00  0.00     0.184 A 
ATOM      5  C   UNL     1       1.860 -17.720  11.189  1.00  0.00     0.025 A 
ATOM      6  C   UNL     1       1.468 -16.515  11.786  1.00  0.00     0.062 A 
ATOM      7  C   UNL     1       2.136 -18.857  11.956  1.00  0.00     0.020 A 
ATOM      8  C   UNL     1       2.523 -20.036  11.322  1.00  0.00     0.094 A 
ATOM      9  C   UNL     1       2.627 -20.049   9.927  1.00  0.00     0.336 A 
ATOM     10  O   UNL     1       2.976 -21.103   9.334  1.00  0.00    -0.246 OA
ATOM     11  O   UNL     1       2.360 -18.955   9.222  1.00  0.00    -0.419 OA
ENDROOT
BRANCH   1  12
ATOM     12  O   UNL     1       0.800 -14.161  11.555  1.00  0.00    -0.493 OA
ATOM     13  C   UNL     1       1.526 -13.460  12.560  1.00  0.00     0.278 C 
ENDBRANCH   1  12
BRANCH   2  14
ATOM     14  O   UNL     1       1.061 -14.373   8.778  1.00  0.00    -0.502 OA
ATOM     15  H   UNL     1       0.909 -14.460   7.780  1.00  0.00     0.293 HD
ENDBRANCH   2  14
BRANCH   3  16
ATOM     16  O   UNL     1       1.833 -16.742   7.602  1.00  0.00    -0.502 OA
ATOM     17  H   UNL     1       1.187 -16.266   6.985  1.00  0.00     0.293 HD
ENDBRANCH   3  16
TORSDOF 3
ENDMDL
MODEL 6
REMARK VINA RESULT:    -4.133      1.755      5.411
REMARK INTER + INTRA:          -4.686
REMARK INTER:                  -4.619
REMARK INTRA:                  -0.067
REMARK UNBOUND:                -0.069
REMARK SMILES COc1cc2ccc(=O)oc2c(O)c1O
REMARK SMILES IDX 3 1 14 2 12 3 11 4 5 5 4 6 6 7 7 8 8 9 9 10 10 11 2 12 1 13
REMARK SMILES IDX 15 14 13 16
REMARK H PARENT 15 15 13 17
REMARK Flexibility Score: inf
ROOT
ATOM      1  C   UNL     1       1.489 -17.070   8.671  1.00  0.00     0.165 A 
ATOM      2  C   UNL     1       1.704 -17.799   9.858  1.00  0.00     0.204 A 
ATOM      3  C   UNL     1       1.881 -17.132  11.078  1.00  0.00     0.205 A 
ATOM      4  C   UNL     1       1.844 -15.730  11.124  1.00  0.00     0.184 A 
ATOM      5  C   UNL     1       1.629 -14.995   9.939  1.00  0.00     0.025 A 
ATOM      6  C   UNL     1       1.453 -15.664   8.721  1.00  0.00     0.062 A 
ATOM      7  C   UNL     1       1.598 -13.599  10.015  1.00  0.00     0.020 A 
ATOM      8  C   UNL     1       1.777 -12.974  11.247  1.00  0.00     0.094 A 
ATOM      9  C   UNL     1       1.986 -13.765  12.381  1.00  0.00     0.336 A 
ATOM     10  O   UNL     1       2.151 -13.221  13.504  1.00  0.00    -0.246 OA
ATOM     11  O   UNL     1       2.011 -15.090  12.282  1.00  0.00    -0.419 OA
ENDROOT
BRANCH   1  12
ATOM     12  O   UNL     1       1.316 -17.774   7.468  1.00  0.00    -0.493 OA
ATOM     13  C   UNL     1       0.053 -18.121   6.908  1.00  0.00     0.278 C 
ENDBRANCH   1  12
BRANCH   2  14
ATOM     14  O   UNL     1       1.745 -19.194   9.840  1.00  0.00    -0.502 OA
ATOM     15  H   UNL     1       1.320 -19.739   9.100  1.00  0.00     0.293 HD
ENDBRANCH   2  14
BRANCH   3  16
ATOM     16  O   UNL     1       2.092 -17.881  12.237  1.00  0.00    -0.502 OA
ATOM     17  H   UNL     1       2.218 -18.885  12.216  1.00  0.00     0.293 HD
ENDBRANCH   3  16
TORSDOF 3
ENDMDL
MODEL 7
REMARK VINA RESULT:    -4.072      1.917      4.589
REMARK INTER + INTRA:          -4.618
REMARK INTER:                  -4.554
REMARK INTRA:                  -0.064
REMARK UNBOUND:                -0.069
REMARK SMILES COc1cc2ccc(=O)oc2c(O)c1O
REMARK SMILES IDX 3 1 14 2 12 3 11 4 5 5 4 6 6 7 7 8 8 9 9 10 10 11 2 12 1 13
REMARK SMILES IDX 15 14 13 16
REMARK H PARENT 15 15 13 17
REMARK Flexibility Score: inf
ROOT
ATOM      1  C   UNL     1       1.431 -18.065  11.172  1.00  0.00     0.165 A 
ATOM      2  C   UNL     1       1.524 -18.015   9.767  1.00  0.00     0.204 A 
ATOM      3  C   UNL     1       1.762 -16.798   9.114  1.00  0.00     0.205 A 
ATOM      4  C   UNL     1       1.911 -15.618   9.860  1.00  0.00     0.184 A 
ATOM      5  C   UNL     1       1.820 -15.663  11.267  1.00  0.00     0.025 A 
ATOM      6  C   UNL     1       1.580 -16.881  11.917  1.00  0.00     0.062 A 
ATOM      7  C   UNL     1       1.972 -14.472  11.986  1.00  0.00     0.020 A 
ATOM      8  C   UNL     1       2.209 -13.283  11.300  1.00  0.00     0.094 A 
ATOM      9  C   UNL     1       2.288 -13.312   9.904  1.00  0.00     0.336 A 
ATOM     10  O   UNL     1       2.501 -12.249   9.264  1.00  0.00    -0.246 OA
ATOM     11  O   UNL     1       2.139 -14.458   9.246  1.00  0.00    -0.419 OA
ENDROOT
BRANCH   1  12
ATOM     12  O   UNL     1       1.191 -19.304  11.789  1.00  0.00    -0.493 OA
ATOM     13  C   UNL     1      -0.099 -19.796  12.141  1.00  0.00     0.278 C 
ENDBRANCH   1  12
BRANCH   2  14
ATOM     14  O   UNL     1       1.379 -19.173   9.001  1.00  0.00    -0.502 OA
ATOM     15  H   UNL     1       0.509 -19.414   8.542  1.00  0.00     0.293 HD
ENDBRANCH   2  14
BRANCH   3  16
ATOM     16  O   UNL     1       1.850 -16.779   7.721  1.00  0.00    -0.502 OA
ATOM     17  H   UNL     1       1.534 -17.553   7.150  1.00  0.00     0.293 HD
ENDBRANCH   3  16
TORSDOF 3
ENDMDL
MODEL 8
REMARK VINA RESULT:    -3.920      2.399      4.898
REMARK INTER + INTRA:          -4.448
REMARK INTER:                  -4.379
REMARK INTRA:                  -0.069
REMARK UNBOUND:                -0.069
REMARK SMILES COc1cc2ccc(=O)oc2c(O)c1O
REMARK SMILES IDX 3 1 14 2 12 3 11 4 5 5 4 6 6 7 7 8 8 9 9 10 10 11 2 12 1 13
REMARK SMILES IDX 15 14 13 16
REMARK H PARENT 15 15 13 17
REMARK Flexibility Score: inf
ROOT
ATOM      1  C   UNL     1       0.938 -15.529  10.062  1.00  0.00     0.165 A 
ATOM      2  C   UNL     1       1.562 -14.950  11.185  1.00  0.00     0.204 A 
ATOM      3  C   UNL     1       1.621 -13.557  11.325  1.00  0.00     0.205 A 
ATOM      4  C   UNL     1       1.056 -12.728  10.343  1.00  0.00     0.184 A 
ATOM      5  C   UNL     1       0.430 -13.302   9.217  1.00  0.00     0.025 A 
ATOM      6  C   UNL     1       0.373 -14.695   9.079  1.00  0.00     0.062 A 
ATOM      7  C   UNL     1      -0.125 -12.452   8.254  1.00  0.00     0.020 A 
ATOM      8  C   UNL     1      -0.046 -11.072   8.430  1.00  0.00     0.094 A 
ATOM      9  C   UNL     1       0.590 -10.572   9.571  1.00  0.00     0.336 A 
ATOM     10  O   UNL     1       0.673  -9.328   9.750  1.00  0.00    -0.246 OA
ATOM     11  O   UNL     1       1.108 -11.402  10.471  1.00  0.00    -0.419 OA
ENDROOT
BRANCH   1  12
ATOM     12  O   UNL     1       0.899 -16.929   9.958  1.00  0.00    -0.493 OA
ATOM     13  C   UNL     1       1.727 -17.699   9.092  1.00  0.00     0.278 C 
ENDBRANCH   1  12
BRANCH   2  14
ATOM     14  O   UNL     1       2.131 -15.751  12.176  1.00  0.00    -0.502 OA
ATOM     15  H   UNL     1       2.628 -15.362  12.968  1.00  0.00     0.293 HD
ENDBRANCH   2  14
BRANCH   3  16
ATOM     16  O   UNL     1       2.245 -13.012  12.448  1.00  0.00    -0.502 OA
ATOM     17  H   UNL     1       1.728 -12.746  13.277  1.00  0.00     0.293 HD
ENDBRANCH   3  16
TORSDOF 3
ENDMDL
MODEL 9
REMARK VINA RESULT:    -3.619      1.949      2.549
REMARK INTER + INTRA:          -4.112
REMARK INTER:                  -4.042
REMARK INTRA:                  -0.069
REMARK UNBOUND:                -0.069
REMARK SMILES COc1cc2ccc(=O)oc2c(O)c1O
REMARK SMILES IDX 3 1 14 2 12 3 11 4 5 5 4 6 6 7 7 8 8 9 9 10 10 11 2 12 1 13
REMARK SMILES IDX 15 14 13 16
REMARK H PARENT 15 15 13 17
REMARK Flexibility Score: inf
ROOT
ATOM      1  C   UNL     1       1.090 -13.943  10.938  1.00  0.00     0.165 A 
ATOM      2  C   UNL     1       1.629 -14.429   9.731  1.00  0.00     0.204 A 
ATOM      3  C   UNL     1       1.589 -15.799   9.436  1.00  0.00     0.205 A 
ATOM      4  C   UNL     1       1.009 -16.697  10.346  1.00  0.00     0.184 A 
ATOM      5  C   UNL     1       0.468 -16.215  11.556  1.00  0.00     0.025 A 
ATOM      6  C   UNL     1       0.509 -14.846  11.849  1.00  0.00     0.062 A 
ATOM      7  C   UNL     1      -0.104 -17.132  12.444  1.00  0.00     0.020 A 
ATOM      8  C   UNL     1      -0.125 -18.486  12.114  1.00  0.00     0.094 A 
ATOM      9  C   UNL     1       0.431 -18.892  10.897  1.00  0.00     0.336 A 
ATOM     10  O   UNL     1       0.423 -20.111  10.579  1.00  0.00    -0.246 OA
ATOM     11  O   UNL     1       0.968 -18.000  10.071  1.00  0.00    -0.419 OA
ENDROOT
BRANCH   1  12
ATOM     12  O   UNL     1       1.149 -12.563  11.198  1.00  0.00    -0.493 OA
ATOM     13  C   UNL     1       0.073 -11.654  10.987  1.00  0.00     0.278 C 
ENDBRANCH   1  12
BRANCH   2  14
ATOM     14  O   UNL     1       2.212 -13.558   8.808  1.00  0.00    -0.502 OA
ATOM     15  H   UNL     1       1.740 -13.274   7.958  1.00  0.00     0.293 HD
ENDBRANCH   2  14
BRANCH   3  16
ATOM     16  O   UNL     1       2.131 -16.251   8.232  1.00  0.00    -0.502 OA
ATOM     17  H   UNL     1       3.129 -16.337   8.088  1.00  0.00     0.293 HD
ENDBRANCH   3  16
TORSDOF 3
ENDMDL
