MODEL 1
REMARK VINA RESULT:    -3.247      0.000      0.000
REMARK INTER + INTRA:          -4.246
REMARK INTER:                  -3.912
REMARK INTRA:                  -0.334
REMARK UNBOUND:                -0.334
REMARK SMILES NC(=O)C[C@H]([NH3+])C(=O)[O-]
REMARK SMILES IDX 4 1 5 2 6 3 7 7 8 8 9 9 2 10 3 11 1 12
REMARK H PARENT 6 4 6 5 6 6 1 13 1 14
REMARK Flexibility Score: inf
ROOT
ATOM      1  C   UNL     1       7.387  -0.436  -0.381  1.00  0.00     0.171 C 
ENDROOT
BRANCH   1   2
ATOM      2  C   UNL     1       6.463  -1.585   0.071  1.00  0.00     0.237 C 
BRANCH   2   3
ATOM      3  N   UNL     1       5.050  -1.258  -0.162  1.00  0.00    -0.350 N 
ATOM      4  H   UNL     1       4.637  -0.832   0.700  1.00  0.00     0.345 HD
ATOM      5  H   UNL     1       4.512  -2.128  -0.379  1.00  0.00     0.345 HD
ATOM      6  H   UNL     1       4.949  -0.585  -0.958  1.00  0.00     0.345 HD
ENDBRANCH   2   3
BRANCH   2   7
ATOM      7  C   UNL     1       6.692  -1.874   1.530  1.00  0.00     0.100 C 
ATOM      8  O   UNL     1       7.417  -2.844   1.877  1.00  0.00    -0.544 OA
ATOM      9  O   UNL     1       6.120  -1.064   2.503  1.00  0.00    -0.544 OA
ENDBRANCH   2   7
ENDBRANCH   1   2
BRANCH   1  10
ATOM     10  C   UNL     1       6.604   0.762  -0.831  1.00  0.00     0.223 C 
ATOM     11  O   UNL     1       5.959   1.443   0.011  1.00  0.00    -0.275 OA
ATOM     12  N   UNL     1       6.561   1.121  -2.212  1.00  0.00    -0.369 N 
ATOM     13  H   UNL     1       7.081   0.562  -2.924  1.00  0.00     0.159 HD
ATOM     14  H   UNL     1       6.005   1.948  -2.526  1.00  0.00     0.159 HD
ENDBRANCH   1  10
TORSDOF 4
ENDMDL
MODEL 2
REMARK VINA RESULT:    -3.108      2.235      3.910
REMARK INTER + INTRA:          -4.079
REMARK INTER:                  -3.980
REMARK INTRA:                  -0.099
REMARK UNBOUND:                -0.334
REMARK SMILES NC(=O)C[C@H]([NH3+])C(=O)[O-]
REMARK SMILES IDX 4 1 5 2 6 3 7 7 8 8 9 9 2 10 3 11 1 12
REMARK H PARENT 6 4 6 5 6 6 1 13 1 14
REMARK Flexibility Score: inf
ROOT
ATOM      1  C   UNL     1       6.233  -1.886   2.190  1.00  0.00     0.171 C 
ENDROOT
BRANCH   1   2
ATOM      2  C   UNL     1       5.765  -1.123   0.933  1.00  0.00     0.237 C 
BRANCH   2   3
ATOM      3  N   UNL     1       5.077  -2.016  -0.010  1.00  0.00    -0.350 N 
ATOM      4  H   UNL     1       4.943  -1.529  -0.926  1.00  0.00     0.345 HD
ATOM      5  H   UNL     1       4.131  -2.268   0.361  1.00  0.00     0.345 HD
ATOM      6  H   UNL     1       5.629  -2.891  -0.165  1.00  0.00     0.345 HD
ENDBRANCH   2   3
BRANCH   2   7
ATOM      7  C   UNL     1       6.947  -0.479   0.262  1.00  0.00     0.100 C 
ATOM      8  O   UNL     1       6.944   0.759   0.025  1.00  0.00    -0.544 OA
ATOM      9  O   UNL     1       8.058  -1.239  -0.084  1.00  0.00    -0.544 OA
ENDBRANCH   2   7
ENDBRANCH   1   2
BRANCH   1  10
ATOM     10  C   UNL     1       5.712  -1.254   3.447  1.00  0.00     0.223 C 
ATOM     11  O   UNL     1       4.808  -0.378   3.382  1.00  0.00    -0.275 OA
ATOM     12  N   UNL     1       6.254  -1.618   4.716  1.00  0.00    -0.369 N 
ATOM     13  H   UNL     1       7.010  -2.334   4.787  1.00  0.00     0.159 HD
ATOM     14  H   UNL     1       5.899  -1.169   5.590  1.00  0.00     0.159 HD
ENDBRANCH   1  10
TORSDOF 4
ENDMDL
MODEL 3
REMARK VINA RESULT:    -3.082      1.841      4.125
REMARK INTER + INTRA:          -4.047
REMARK INTER:                  -3.787
REMARK INTRA:                  -0.261
REMARK UNBOUND:                -0.334
REMARK SMILES NC(=O)C[C@H]([NH3+])C(=O)[O-]
REMARK SMILES IDX 4 1 5 2 6 3 7 7 8 8 9 9 2 10 3 11 1 12
REMARK H PARENT 6 4 6 5 6 6 1 13 1 14
REMARK Flexibility Score: inf
ROOT
ATOM      1  C   UNL     1       5.730  -1.127   0.808  1.00  0.00     0.171 C 
ENDROOT
BRANCH   1   2
ATOM      2  C   UNL     1       6.765  -0.703  -0.254  1.00  0.00     0.237 C 
BRANCH   2   3
ATOM      3  N   UNL     1       8.130  -0.724   0.290  1.00  0.00    -0.350 N 
ATOM      4  H   UNL     1       8.108  -0.491   1.310  1.00  0.00     0.345 HD
ATOM      5  H   UNL     1       8.718  -0.004  -0.190  1.00  0.00     0.345 HD
ATOM      6  H   UNL     1       8.567  -1.666   0.163  1.00  0.00     0.345 HD
ENDBRANCH   2   3
BRANCH   2   7
ATOM      7  C   UNL     1       6.433   0.673  -0.763  1.00  0.00     0.100 C 
ATOM      8  O   UNL     1       5.830   1.494  -0.022  1.00  0.00    -0.544 OA
ATOM      9  O   UNL     1       6.806   1.055  -2.046  1.00  0.00    -0.544 OA
ENDBRANCH   2   7
ENDBRANCH   1   2
BRANCH   1  10
ATOM     10  C   UNL     1       6.364  -1.911   1.919  1.00  0.00     0.223 C 
ATOM     11  O   UNL     1       7.065  -2.924   1.652  1.00  0.00    -0.275 OA
ATOM     12  N   UNL     1       6.157  -1.533   3.280  1.00  0.00    -0.369 N 
ATOM     13  H   UNL     1       5.571  -0.703   3.519  1.00  0.00     0.159 HD
ATOM     14  H   UNL     1       6.589  -2.087   4.053  1.00  0.00     0.159 HD
ENDBRANCH   1  10
TORSDOF 4
ENDMDL
MODEL 4
REMARK VINA RESULT:    -2.959      1.940      2.371
REMARK INTER + INTRA:          -3.899
REMARK INTER:                  -3.655
REMARK INTRA:                  -0.244
REMARK UNBOUND:                -0.334
REMARK SMILES NC(=O)C[C@H]([NH3+])C(=O)[O-]
REMARK SMILES IDX 4 1 5 2 6 3 7 7 8 8 9 9 2 10 3 11 1 12
REMARK H PARENT 6 4 6 5 6 6 1 13 1 14
REMARK Flexibility Score: inf
ROOT
ATOM      1  C   UNL     1       5.936  -0.820   0.684  1.00  0.00     0.171 C 
ENDROOT
BRANCH   1   2
ATOM      2  C   UNL     1       6.579  -1.450   1.937  1.00  0.00     0.237 C 
BRANCH   2   3
ATOM      3  N   UNL     1       7.080  -2.803   1.658  1.00  0.00    -0.350 N 
ATOM      4  H   UNL     1       6.390  -3.513   1.994  1.00  0.00     0.345 HD
ATOM      5  H   UNL     1       7.979  -2.964   2.167  1.00  0.00     0.345 HD
ATOM      6  H   UNL     1       7.238  -2.938   0.632  1.00  0.00     0.345 HD
ENDBRANCH   2   3
BRANCH   2   7
ATOM      7  C   UNL     1       5.573  -1.494   3.055  1.00  0.00     0.100 C 
ATOM      8  O   UNL     1       5.656  -0.681   4.014  1.00  0.00    -0.544 OA
ATOM      9  O   UNL     1       4.535  -2.417   3.029  1.00  0.00    -0.544 OA
ENDBRANCH   2   7
ENDBRANCH   1   2
BRANCH   1  10
ATOM     10  C   UNL     1       6.970  -0.400  -0.318  1.00  0.00     0.223 C 
ATOM     11  O   UNL     1       8.121  -0.912  -0.285  1.00  0.00    -0.275 OA
ATOM     12  N   UNL     1       6.669   0.598  -1.293  1.00  0.00    -0.369 N 
ATOM     13  H   UNL     1       5.723   1.040  -1.328  1.00  0.00     0.159 HD
ATOM     14  H   UNL     1       7.393   0.899  -1.983  1.00  0.00     0.159 HD
ENDBRANCH   1  10
TORSDOF 4
ENDMDL
MODEL 5
REMARK VINA RESULT:    -2.941      1.798      3.468
REMARK INTER + INTRA:          -3.877
REMARK INTER:                  -3.519
REMARK INTRA:                  -0.357
REMARK UNBOUND:                -0.334
REMARK SMILES NC(=O)C[C@H]([NH3+])C(=O)[O-]
REMARK SMILES IDX 4 1 5 2 6 3 7 7 8 8 9 9 2 10 3 11 1 12
REMARK H PARENT 6 4 6 5 6 6 1 13 1 14
REMARK Flexibility Score: inf
ROOT
ATOM      1  C   UNL     1       5.716  -1.475  -0.434  1.00  0.00     0.171 C 
ENDROOT
BRANCH   1   2
ATOM      2  C   UNL     1       5.382  -0.035  -0.876  1.00  0.00     0.237 C 
BRANCH   2   3
ATOM      3  N   UNL     1       6.525   0.596  -1.551  1.00  0.00    -0.350 N 
ATOM      4  H   UNL     1       7.265  -0.120  -1.740  1.00  0.00     0.345 HD
ATOM      5  H   UNL     1       6.941   1.333  -0.937  1.00  0.00     0.345 HD
ATOM      6  H   UNL     1       6.229   1.029  -2.456  1.00  0.00     0.345 HD
ENDBRANCH   2   3
BRANCH   2   7
ATOM      7  C   UNL     1       4.977   0.781   0.322  1.00  0.00     0.100 C 
ATOM      8  O   UNL     1       5.085   2.036   0.299  1.00  0.00    -0.544 OA
ATOM      9  O   UNL     1       4.463   0.159   1.453  1.00  0.00    -0.544 OA
ENDBRANCH   2   7
ENDBRANCH   1   2
BRANCH   1  10
ATOM     10  C   UNL     1       6.961  -1.524   0.402  1.00  0.00     0.223 C 
ATOM     11  O   UNL     1       8.077  -1.250  -0.117  1.00  0.00    -0.275 OA
ATOM     12  N   UNL     1       6.895  -1.905   1.776  1.00  0.00    -0.369 N 
ATOM     13  H   UNL     1       5.980  -2.145   2.218  1.00  0.00     0.159 HD
ATOM     14  H   UNL     1       7.764  -1.951   2.354  1.00  0.00     0.159 HD
ENDBRANCH   1  10
TORSDOF 4
ENDMDL
MODEL 6
REMARK VINA RESULT:    -2.911      5.771      6.213
REMARK INTER + INTRA:          -3.842
REMARK INTER:                  -3.354
REMARK INTRA:                  -0.487
REMARK UNBOUND:                -0.334
REMARK SMILES NC(=O)C[C@H]([NH3+])C(=O)[O-]
REMARK SMILES IDX 4 1 5 2 6 3 7 7 8 8 9 9 2 10 3 11 1 12
REMARK H PARENT 6 4 6 5 6 6 1 13 1 14
REMARK Flexibility Score: inf
ROOT
ATOM      1  C   UNL     1       1.508   3.832   1.869  1.00  0.00     0.171 C 
ENDROOT
BRANCH   1   2
ATOM      2  C   UNL     1       2.992   3.762   2.284  1.00  0.00     0.237 C 
BRANCH   2   3
ATOM      3  N   UNL     1       3.836   3.291   1.177  1.00  0.00    -0.350 N 
ATOM      4  H   UNL     1       3.563   2.316   0.914  1.00  0.00     0.345 HD
ATOM      5  H   UNL     1       4.839   3.274   1.474  1.00  0.00     0.345 HD
ATOM      6  H   UNL     1       3.735   3.912   0.341  1.00  0.00     0.345 HD
ENDBRANCH   2   3
BRANCH   2   7
ATOM      7  C   UNL     1       3.143   2.851   3.472  1.00  0.00     0.100 C 
ATOM      8  O   UNL     1       4.153   2.947   4.220  1.00  0.00    -0.544 OA
ATOM      9  O   UNL     1       2.163   1.910   3.763  1.00  0.00    -0.544 OA
ENDBRANCH   2   7
ENDBRANCH   1   2
BRANCH   1  10
ATOM     10  C   UNL     1       1.204   2.895   0.738  1.00  0.00     0.223 C 
ATOM     11  O   UNL     1       1.339   3.285  -0.454  1.00  0.00    -0.275 OA
ATOM     12  N   UNL     1       0.735   1.573   1.000  1.00  0.00    -0.369 N 
ATOM     13  H   UNL     1       0.609   1.238   1.981  1.00  0.00     0.159 HD
ATOM     14  H   UNL     1       0.513   0.925   0.212  1.00  0.00     0.159 HD
ENDBRANCH   1  10
TORSDOF 4
ENDMDL
MODEL 7
REMARK VINA RESULT:    -2.906      1.664      1.828
REMARK INTER + INTRA:          -3.835
REMARK INTER:                  -3.483
REMARK INTRA:                  -0.352
REMARK UNBOUND:                -0.334
REMARK SMILES NC(=O)C[C@H]([NH3+])C(=O)[O-]
REMARK SMILES IDX 4 1 5 2 6 3 7 7 8 8 9 9 2 10 3 11 1 12
REMARK H PARENT 6 4 6 5 6 6 1 13 1 14
REMARK Flexibility Score: inf
ROOT
ATOM      1  C   UNL     1       5.538  -1.068  -0.230  1.00  0.00     0.171 C 
ENDROOT
BRANCH   1   2
ATOM      2  C   UNL     1       4.740  -1.153   1.087  1.00  0.00     0.237 C 
BRANCH   2   3
ATOM      3  N   UNL     1       4.090   0.126   1.403  1.00  0.00    -0.350 N 
ATOM      4  H   UNL     1       3.872   0.171   2.425  1.00  0.00     0.345 HD
ATOM      5  H   UNL     1       3.188   0.209   0.879  1.00  0.00     0.345 HD
ATOM      6  H   UNL     1       4.710   0.931   1.150  1.00  0.00     0.345 HD
ENDBRANCH   2   3
BRANCH   2   7
ATOM      7  C   UNL     1       5.656  -1.557   2.210  1.00  0.00     0.100 C 
ATOM      8  O   UNL     1       6.380  -2.583   2.099  1.00  0.00    -0.544 OA
ATOM      9  O   UNL     1       5.724  -0.794   3.369  1.00  0.00    -0.544 OA
ENDBRANCH   2   7
ENDBRANCH   1   2
BRANCH   1  10
ATOM     10  C   UNL     1       6.753  -0.198  -0.086  1.00  0.00     0.223 C 
ATOM     11  O   UNL     1       6.630   1.056  -0.091  1.00  0.00    -0.275 OA
ATOM     12  N   UNL     1       8.050  -0.782   0.027  1.00  0.00    -0.369 N 
ATOM     13  H   UNL     1       8.170  -1.819   0.022  1.00  0.00     0.159 HD
ATOM     14  H   UNL     1       8.896  -0.176   0.115  1.00  0.00     0.159 HD
ENDBRANCH   1  10
TORSDOF 4
ENDMDL
MODEL 8
REMARK VINA RESULT:    -2.896      1.886      2.082
REMARK INTER + INTRA:          -3.823
REMARK INTER:                  -3.476
REMARK INTRA:                  -0.347
REMARK UNBOUND:                -0.334
REMARK SMILES NC(=O)C[C@H]([NH3+])C(=O)[O-]
REMARK SMILES IDX 4 1 5 2 6 3 7 7 8 8 9 9 2 10 3 11 1 12
REMARK H PARENT 6 4 6 5 6 6 1 13 1 14
REMARK Flexibility Score: inf
ROOT
ATOM      1  C   UNL     1       5.930   1.241  -0.687  1.00  0.00     0.171 C 
ENDROOT
BRANCH   1   2
ATOM      2  C   UNL     1       5.900  -0.301  -0.666  1.00  0.00     0.237 C 
BRANCH   2   3
ATOM      3  N   UNL     1       4.566  -0.805  -0.312  1.00  0.00    -0.350 N 
ATOM      4  H   UNL     1       4.281  -1.556  -0.983  1.00  0.00     0.345 HD
ATOM      5  H   UNL     1       3.862  -0.034  -0.377  1.00  0.00     0.345 HD
ATOM      6  H   UNL     1       4.560  -1.194   0.660  1.00  0.00     0.345 HD
ENDBRANCH   2   3
BRANCH   2   7
ATOM      7  C   UNL     1       6.921  -0.814   0.313  1.00  0.00     0.100 C 
ATOM      8  O   UNL     1       8.035  -1.237  -0.098  1.00  0.00    -0.544 OA
ATOM      9  O   UNL     1       6.652  -0.808   1.676  1.00  0.00    -0.544 OA
ENDBRANCH   2   7
ENDBRANCH   1   2
BRANCH   1  10
ATOM     10  C   UNL     1       4.672   1.828  -0.117  1.00  0.00     0.223 C 
ATOM     11  O   UNL     1       4.411   1.685   1.107  1.00  0.00    -0.275 OA
ATOM     12  N   UNL     1       3.755   2.526  -0.959  1.00  0.00    -0.369 N 
ATOM     13  H   UNL     1       3.952   2.645  -1.978  1.00  0.00     0.159 HD
ATOM     14  H   UNL     1       2.874   2.924  -0.565  1.00  0.00     0.159 HD
ENDBRANCH   1  10
TORSDOF 4
ENDMDL
MODEL 9
REMARK VINA RESULT:    -2.854      1.743      2.081
REMARK INTER + INTRA:          -3.772
REMARK INTER:                  -3.665
REMARK INTRA:                  -0.107
REMARK UNBOUND:                -0.334
REMARK SMILES NC(=O)C[C@H]([NH3+])C(=O)[O-]
REMARK SMILES IDX 4 1 5 2 6 3 7 7 8 8 9 9 2 10 3 11 1 12
REMARK H PARENT 6 4 6 5 6 6 1 13 1 14
REMARK Flexibility Score: inf
ROOT
ATOM      1  C   UNL     1       6.126   1.085  -0.850  1.00  0.00     0.171 C 
ENDROOT
BRANCH   1   2
ATOM      2  C   UNL     1       5.729  -0.293  -0.282  1.00  0.00     0.237 C 
BRANCH   2   3
ATOM      3  N   UNL     1       4.515  -0.202   0.542  1.00  0.00    -0.350 N 
ATOM      4  H   UNL     1       3.670  -0.175  -0.075  1.00  0.00     0.345 HD
ATOM      5  H   UNL     1       4.529   0.678   1.105  1.00  0.00     0.345 HD
ATOM      6  H   UNL     1       4.441  -1.023   1.187  1.00  0.00     0.345 HD
ENDBRANCH   2   3
BRANCH   2   7
ATOM      7  C   UNL     1       6.864  -0.851   0.534  1.00  0.00     0.100 C 
ATOM      8  O   UNL     1       6.736  -1.000   1.778  1.00  0.00    -0.544 OA
ATOM      9  O   UNL     1       8.053  -1.222  -0.082  1.00  0.00    -0.544 OA
ENDBRANCH   2   7
ENDBRANCH   1   2
BRANCH   1  10
ATOM     10  C   UNL     1       6.131   1.085  -2.351  1.00  0.00     0.223 C 
ATOM     11  O   UNL     1       5.102   0.721  -2.981  1.00  0.00    -0.275 OA
ATOM     12  N   UNL     1       7.302   1.469  -3.070  1.00  0.00    -0.369 N 
ATOM     13  H   UNL     1       8.166   1.764  -2.562  1.00  0.00     0.159 HD
ATOM     14  H   UNL     1       7.308   1.458  -4.114  1.00  0.00     0.159 HD
ENDBRANCH   1  10
TORSDOF 4
ENDMDL
