MODEL 1
REMARK VINA RESULT:    -4.094      0.000      0.000
REMARK INTER + INTRA:          -4.333
REMARK INTER:                  -4.333
REMARK INTRA:                   0.000
REMARK UNBOUND:                 0.000
REMARK SMILES Cc1cc(O)c(C)c(C)c1O
REMARK SMILES IDX 1 1 2 2 3 3 4 4 6 5 8 6 10 7 9 8 7 9 11 10 5 12
REMARK H PARENT 11 11 5 13
REMARK Flexibility Score: inf
ROOT
ATOM      1  C   UNL     1      11.431   6.246  17.788  1.00  0.00     0.048 C 
ATOM      2  C   UNL     1      12.495   5.199  17.970  1.00  0.00    -0.005 A 
ATOM      3  C   UNL     1      13.257   4.783  16.874  1.00  0.00     0.053 A 
ATOM      4  C   UNL     1      14.273   3.840  17.024  1.00  0.00     0.119 A 
ATOM      5  C   UNL     1      14.557   3.301  18.302  1.00  0.00    -0.003 A 
ATOM      6  C   UNL     1      13.706   3.625  19.396  1.00  0.00    -0.002 A 
ATOM      7  C   UNL     1      12.721   4.633  19.234  1.00  0.00     0.121 A 
ATOM      8  C   UNL     1      13.847   2.921  20.729  1.00  0.00     0.049 C 
ATOM      9  C   UNL     1      15.745   2.380  18.480  1.00  0.00     0.049 C 
ENDROOT
BRANCH   7  10
ATOM     10  O   UNL     1      11.960   5.098  20.312  1.00  0.00    -0.507 OA
ATOM     11  H   UNL     1      11.097   4.670  20.618  1.00  0.00     0.293 HD
ENDBRANCH   7  10
BRANCH   4  12
ATOM     12  O   UNL     1      14.971   3.453  15.876  1.00  0.00    -0.508 OA
ATOM     13  H   UNL     1      15.283   4.101  15.166  1.00  0.00     0.293 HD
ENDBRANCH   4  12
TORSDOF 2
ENDMDL
MODEL 2
REMARK VINA RESULT:    -3.951      1.109      2.889
REMARK INTER + INTRA:          -4.182
REMARK INTER:                  -4.182
REMARK INTRA:                   0.000
REMARK UNBOUND:                 0.000
REMARK SMILES Cc1cc(O)c(C)c(C)c1O
REMARK SMILES IDX 1 1 2 2 3 3 4 4 6 5 8 6 10 7 9 8 7 9 11 10 5 12
REMARK H PARENT 11 11 5 13
REMARK Flexibility Score: inf
ROOT
ATOM      1  C   UNL     1      12.951   3.633  21.514  1.00  0.00     0.048 C 
ATOM      2  C   UNL     1      13.360   3.794  20.075  1.00  0.00    -0.005 A 
ATOM      3  C   UNL     1      14.342   2.962  19.532  1.00  0.00     0.053 A 
ATOM      4  C   UNL     1      14.713   3.068  18.193  1.00  0.00     0.119 A 
ATOM      5  C   UNL     1      14.080   4.019  17.356  1.00  0.00    -0.003 A 
ATOM      6  C   UNL     1      13.170   4.951  17.929  1.00  0.00    -0.002 A 
ATOM      7  C   UNL     1      12.763   4.783  19.278  1.00  0.00     0.121 A 
ATOM      8  C   UNL     1      12.625   6.107  17.120  1.00  0.00     0.049 C 
ATOM      9  C   UNL     1      14.392   4.039  15.875  1.00  0.00     0.049 C 
ENDROOT
BRANCH   7  10
ATOM     10  O   UNL     1      11.760   5.576  19.848  1.00  0.00    -0.507 OA
ATOM     11  H   UNL     1      11.481   5.519  20.817  1.00  0.00     0.293 HD
ENDBRANCH   7  10
BRANCH   4  12
ATOM     12  O   UNL     1      15.724   2.220  17.732  1.00  0.00    -0.508 OA
ATOM     13  H   UNL     1      16.550   1.990  18.268  1.00  0.00     0.293 HD
ENDBRANCH   4  12
TORSDOF 2
ENDMDL
MODEL 3
REMARK VINA RESULT:    -3.932      1.136      3.304
REMARK INTER + INTRA:          -4.161
REMARK INTER:                  -4.161
REMARK INTRA:                   0.000
REMARK UNBOUND:                 0.000
REMARK SMILES Cc1cc(O)c(C)c(C)c1O
REMARK SMILES IDX 1 1 2 2 3 3 4 4 6 5 8 6 10 7 9 8 7 9 11 10 5 12
REMARK H PARENT 11 11 5 13
REMARK Flexibility Score: inf
ROOT
ATOM      1  C   UNL     1      13.494   3.325  20.723  1.00  0.00     0.048 C 
ATOM      2  C   UNL     1      13.151   4.150  19.513  1.00  0.00    -0.005 A 
ATOM      3  C   UNL     1      13.660   3.795  18.260  1.00  0.00     0.053 A 
ATOM      4  C   UNL     1      13.328   4.522  17.119  1.00  0.00     0.119 A 
ATOM      5  C   UNL     1      12.450   5.630  17.214  1.00  0.00    -0.003 A 
ATOM      6  C   UNL     1      12.029   6.072  18.500  1.00  0.00    -0.002 A 
ATOM      7  C   UNL     1      12.328   5.280  19.638  1.00  0.00     0.121 A 
ATOM      8  C   UNL     1      11.259   7.364  18.666  1.00  0.00     0.049 C 
ATOM      9  C   UNL     1      11.990   6.332  15.955  1.00  0.00     0.049 C 
ENDROOT
BRANCH   7  10
ATOM     10  O   UNL     1      11.812   5.585  20.903  1.00  0.00    -0.507 OA
ATOM     11  H   UNL     1      10.891   5.972  21.056  1.00  0.00     0.293 HD
ENDBRANCH   7  10
BRANCH   4  12
ATOM     12  O   UNL     1      13.900   4.122  15.907  1.00  0.00    -0.508 OA
ATOM     13  H   UNL     1      13.820   4.649  15.049  1.00  0.00     0.293 HD
ENDBRANCH   4  12
TORSDOF 2
ENDMDL
MODEL 4
REMARK VINA RESULT:    -3.915      1.217      3.398
REMARK INTER + INTRA:          -4.144
REMARK INTER:                  -4.144
REMARK INTRA:                   0.000
REMARK UNBOUND:                 0.000
REMARK SMILES Cc1cc(O)c(C)c(C)c1O
REMARK SMILES IDX 1 1 2 2 3 3 4 4 6 5 8 6 10 7 9 8 7 9 11 10 5 12
REMARK H PARENT 11 11 5 13
REMARK Flexibility Score: inf
ROOT
ATOM      1  C   UNL     1      14.470   3.992  15.935  1.00  0.00     0.048 C 
ATOM      2  C   UNL     1      14.147   3.900  17.401  1.00  0.00    -0.005 A 
ATOM      3  C   UNL     1      13.120   4.680  17.939  1.00  0.00     0.053 A 
ATOM      4  C   UNL     1      12.779   4.587  19.287  1.00  0.00     0.119 A 
ATOM      5  C   UNL     1      13.466   3.681  20.131  1.00  0.00    -0.003 A 
ATOM      6  C   UNL     1      14.593   2.977  19.621  1.00  0.00    -0.002 A 
ATOM      7  C   UNL     1      14.880   3.040  18.233  1.00  0.00     0.121 A 
ATOM      8  C   UNL     1      15.477   2.155  20.534  1.00  0.00     0.049 C 
ATOM      9  C   UNL     1      13.003   3.490  21.559  1.00  0.00     0.049 C 
ENDROOT
BRANCH   7  10
ATOM     10  O   UNL     1      15.880   2.251  17.653  1.00  0.00    -0.507 OA
ATOM     11  H   UNL     1      16.693   1.917  18.151  1.00  0.00     0.293 HD
ENDBRANCH   7  10
BRANCH   4  12
ATOM     12  O   UNL     1      11.759   5.421  19.755  1.00  0.00    -0.508 OA
ATOM     13  H   UNL     1      11.210   6.024  19.158  1.00  0.00     0.293 HD
ENDBRANCH   4  12
TORSDOF 2
ENDMDL
MODEL 5
REMARK VINA RESULT:    -3.901      0.970      3.247
REMARK INTER + INTRA:          -4.129
REMARK INTER:                  -4.129
REMARK INTRA:                   0.000
REMARK UNBOUND:                 0.000
REMARK SMILES Cc1cc(O)c(C)c(C)c1O
REMARK SMILES IDX 1 1 2 2 3 3 4 4 6 5 8 6 10 7 9 8 7 9 11 10 5 12
REMARK H PARENT 11 11 5 13
REMARK Flexibility Score: inf
ROOT
ATOM      1  C   UNL     1      11.678   6.262  16.148  1.00  0.00     0.048 C 
ATOM      2  C   UNL     1      12.226   5.532  17.343  1.00  0.00    -0.005 A 
ATOM      3  C   UNL     1      11.748   5.830  18.622  1.00  0.00     0.053 A 
ATOM      4  C   UNL     1      12.214   5.143  19.741  1.00  0.00     0.119 A 
ATOM      5  C   UNL     1      13.174   4.113  19.591  1.00  0.00    -0.003 A 
ATOM      6  C   UNL     1      13.757   3.889  18.312  1.00  0.00    -0.002 A 
ATOM      7  C   UNL     1      13.222   4.556  17.180  1.00  0.00     0.121 A 
ATOM      8  C   UNL     1      14.925   2.943  18.142  1.00  0.00     0.049 C 
ATOM      9  C   UNL     1      13.577   3.284  20.791  1.00  0.00     0.049 C 
ENDROOT
BRANCH   7  10
ATOM     10  O   UNL     1      13.652   4.261  15.881  1.00  0.00    -0.507 OA
ATOM     11  H   UNL     1      13.169   3.628  15.258  1.00  0.00     0.293 HD
ENDBRANCH   7  10
BRANCH   4  12
ATOM     12  O   UNL     1      11.709   5.520  20.989  1.00  0.00    -0.508 OA
ATOM     13  H   UNL     1      12.149   6.204  21.589  1.00  0.00     0.293 HD
ENDBRANCH   4  12
TORSDOF 2
ENDMDL
MODEL 6
REMARK VINA RESULT:    -3.866      2.378      3.811
REMARK INTER + INTRA:          -4.092
REMARK INTER:                  -4.092
REMARK INTRA:                   0.000
REMARK UNBOUND:                 0.000
REMARK SMILES Cc1cc(O)c(C)c(C)c1O
REMARK SMILES IDX 1 1 2 2 3 3 4 4 6 5 8 6 10 7 9 8 7 9 11 10 5 12
REMARK H PARENT 11 11 5 13
REMARK Flexibility Score: inf
ROOT
ATOM      1  C   UNL     1      11.110   8.795  16.631  1.00  0.00     0.048 C 
ATOM      2  C   UNL     1      11.887   7.521  16.821  1.00  0.00    -0.005 A 
ATOM      3  C   UNL     1      11.262   6.399  17.372  1.00  0.00     0.053 A 
ATOM      4  C   UNL     1      11.950   5.197  17.525  1.00  0.00     0.119 A 
ATOM      5  C   UNL     1      13.298   5.094  17.105  1.00  0.00    -0.003 A 
ATOM      6  C   UNL     1      13.978   6.262  16.660  1.00  0.00    -0.002 A 
ATOM      7  C   UNL     1      13.240   7.457  16.453  1.00  0.00     0.121 A 
ATOM      8  C   UNL     1      15.467   6.245  16.393  1.00  0.00     0.049 C 
ATOM      9  C   UNL     1      13.997   3.752  17.152  1.00  0.00     0.049 C 
ENDROOT
BRANCH   7  10
ATOM     10  O   UNL     1      13.823   8.591  15.875  1.00  0.00    -0.507 OA
ATOM     11  H   UNL     1      13.423   9.517  15.928  1.00  0.00     0.293 HD
ENDBRANCH   7  10
BRANCH   4  12
ATOM     12  O   UNL     1      11.265   4.129  18.111  1.00  0.00    -0.508 OA
ATOM     13  H   UNL     1      10.584   4.238  18.851  1.00  0.00     0.293 HD
ENDBRANCH   4  12
TORSDOF 2
ENDMDL
MODEL 7
REMARK VINA RESULT:    -3.859      1.056      4.510
REMARK INTER + INTRA:          -4.085
REMARK INTER:                  -4.085
REMARK INTRA:                   0.000
REMARK UNBOUND:                 0.000
REMARK SMILES Cc1cc(O)c(C)c(C)c1O
REMARK SMILES IDX 1 1 2 2 3 3 4 4 6 5 8 6 10 7 9 8 7 9 11 10 5 12
REMARK H PARENT 11 11 5 13
REMARK Flexibility Score: inf
ROOT
ATOM      1  C   UNL     1      14.907   2.910  18.138  1.00  0.00     0.048 C 
ATOM      2  C   UNL     1      13.868   3.990  18.265  1.00  0.00    -0.005 A 
ATOM      3  C   UNL     1      13.380   4.344  19.526  1.00  0.00     0.053 A 
ATOM      4  C   UNL     1      12.443   5.366  19.672  1.00  0.00     0.119 A 
ATOM      5  C   UNL     1      11.984   6.074  18.535  1.00  0.00    -0.003 A 
ATOM      6  C   UNL     1      12.380   5.638  17.239  1.00  0.00    -0.002 A 
ATOM      7  C   UNL     1      13.381   4.639  17.120  1.00  0.00     0.121 A 
ATOM      8  C   UNL     1      11.761   6.232  15.993  1.00  0.00     0.049 C 
ATOM      9  C   UNL     1      11.070   7.267  18.714  1.00  0.00     0.049 C 
ENDROOT
BRANCH   7  10
ATOM     10  O   UNL     1      13.917   4.280  15.877  1.00  0.00    -0.507 OA
ATOM     11  H   UNL     1      13.381   4.250  15.021  1.00  0.00     0.293 HD
ENDBRANCH   7  10
BRANCH   4  12
ATOM     12  O   UNL     1      11.982   5.641  20.962  1.00  0.00    -0.508 OA
ATOM     13  H   UNL     1      12.587   5.896  21.731  1.00  0.00     0.293 HD
ENDBRANCH   4  12
TORSDOF 2
ENDMDL
MODEL 8
REMARK VINA RESULT:    -3.825      2.985      4.941
REMARK INTER + INTRA:          -4.048
REMARK INTER:                  -4.048
REMARK INTRA:                   0.000
REMARK UNBOUND:                 0.000
REMARK SMILES Cc1cc(O)c(C)c(C)c1O
REMARK SMILES IDX 1 1 2 2 3 3 4 4 6 5 8 6 10 7 9 8 7 9 11 10 5 12
REMARK H PARENT 11 11 5 13
REMARK Flexibility Score: inf
ROOT
ATOM      1  C   UNL     1      15.825   5.383  16.136  1.00  0.00     0.048 C 
ATOM      2  C   UNL     1      14.562   6.186  16.279  1.00  0.00    -0.005 A 
ATOM      3  C   UNL     1      14.603   7.578  16.158  1.00  0.00     0.053 A 
ATOM      4  C   UNL     1      13.440   8.341  16.251  1.00  0.00     0.119 A 
ATOM      5  C   UNL     1      12.191   7.707  16.456  1.00  0.00    -0.003 A 
ATOM      6  C   UNL     1      12.156   6.306  16.705  1.00  0.00    -0.002 A 
ATOM      7  C   UNL     1      13.342   5.544  16.542  1.00  0.00     0.121 A 
ATOM      8  C   UNL     1      10.875   5.620  17.126  1.00  0.00     0.049 C 
ATOM      9  C   UNL     1      10.920   8.528  16.423  1.00  0.00     0.049 C 
ENDROOT
BRANCH   7  10
ATOM     10  O   UNL     1      13.335   4.146  16.625  1.00  0.00    -0.507 OA
ATOM     11  H   UNL     1      14.065   3.605  17.068  1.00  0.00     0.293 HD
ENDBRANCH   7  10
BRANCH   4  12
ATOM     12  O   UNL     1      13.567   9.729  16.148  1.00  0.00    -0.508 OA
ATOM     13  H   UNL     1      14.411  10.193  15.841  1.00  0.00     0.293 HD
ENDBRANCH   4  12
TORSDOF 2
ENDMDL
MODEL 9
REMARK VINA RESULT:    -3.813      1.207      4.096
REMARK INTER + INTRA:          -4.036
REMARK INTER:                  -4.036
REMARK INTRA:                   0.000
REMARK UNBOUND:                 0.000
REMARK SMILES Cc1cc(O)c(C)c(C)c1O
REMARK SMILES IDX 1 1 2 2 3 3 4 4 6 5 8 6 10 7 9 8 7 9 11 10 5 12
REMARK H PARENT 11 11 5 13
REMARK Flexibility Score: inf
ROOT
ATOM      1  C   UNL     1      14.555   2.463  20.651  1.00  0.00     0.048 C 
ATOM      2  C   UNL     1      13.997   3.349  19.572  1.00  0.00    -0.005 A 
ATOM      3  C   UNL     1      12.875   4.141  19.831  1.00  0.00     0.053 A 
ATOM      4  C   UNL     1      12.360   4.997  18.859  1.00  0.00     0.119 A 
ATOM      5  C   UNL     1      12.984   5.086  17.591  1.00  0.00    -0.003 A 
ATOM      6  C   UNL     1      14.048   4.194  17.277  1.00  0.00    -0.002 A 
ATOM      7  C   UNL     1      14.594   3.378  18.302  1.00  0.00     0.121 A 
ATOM      8  C   UNL     1      14.610   4.113  15.875  1.00  0.00     0.049 C 
ATOM      9  C   UNL     1      12.501   6.112  16.589  1.00  0.00     0.049 C 
ENDROOT
BRANCH   7  10
ATOM     10  O   UNL     1      15.735   2.596  18.089  1.00  0.00    -0.507 OA
ATOM     11  H   UNL     1      16.657   2.845  18.419  1.00  0.00     0.293 HD
ENDBRANCH   7  10
BRANCH   4  12
ATOM     12  O   UNL     1      11.218   5.735  19.186  1.00  0.00    -0.508 OA
ATOM     13  H   UNL     1      10.643   5.547  19.995  1.00  0.00     0.293 HD
ENDBRANCH   4  12
TORSDOF 2
ENDMDL
