MODEL 1
REMARK VINA RESULT:    -4.120      0.000      0.000
REMARK INTER + INTRA:          -4.120
REMARK INTER:                  -4.120
REMARK INTRA:                   0.000
REMARK UNBOUND:                 0.000
REMARK SMILES CC1=CC(=O)[C@H]2C[C@@H]1C2(C)C
REMARK SMILES IDX 1 1 2 2 3 3 4 4 5 5 6 6 7 7 8 8 9 9 10 10 11 11
REMARK H PARENT
REMARK Flexibility Score: inf
ROOT
ATOM      1  C   UNL     1      33.477  28.973  28.196  1.00  0.00     0.040 C 
ATOM      2  C   UNL     1      33.180  30.436  28.093  1.00  0.00    -0.066 C 
ATOM      3  C   UNL     1      33.916  31.274  27.309  1.00  0.00     0.047 C 
ATOM      4  C   UNL     1      33.501  32.714  27.309  1.00  0.00     0.159 C 
ATOM      5  O   UNL     1      34.125  33.593  26.660  1.00  0.00    -0.295 OA
ATOM      6  C   UNL     1      32.267  33.040  28.150  1.00  0.00     0.067 C 
ATOM      7  C   UNL     1      31.258  31.928  27.787  1.00  0.00     0.021 C 
ATOM      8  C   UNL     1      31.978  31.052  28.837  1.00  0.00     0.022 C 
ATOM      9  C   UNL     1      32.425  32.365  29.543  1.00  0.00    -0.019 C 
ATOM     10  C   UNL     1      31.376  32.871  30.565  1.00  0.00     0.012 C 
ATOM     11  C   UNL     1      33.823  32.396  30.223  1.00  0.00     0.012 C 
ENDROOT
TORSDOF 0
ENDMDL
MODEL 2
REMARK VINA RESULT:    -4.116      1.877      3.139
REMARK INTER + INTRA:          -4.116
REMARK INTER:                  -4.116
REMARK INTRA:                   0.000
REMARK UNBOUND:                 0.000
REMARK SMILES CC1=CC(=O)[C@H]2C[C@@H]1C2(C)C
REMARK SMILES IDX 1 1 2 2 3 3 4 4 5 5 6 6 7 7 8 8 9 9 10 10 11 11
REMARK H PARENT
REMARK Flexibility Score: inf
ROOT
ATOM      1  C   UNL     1      34.125  33.628  26.730  1.00  0.00     0.040 C 
ATOM      2  C   UNL     1      33.627  32.266  27.099  1.00  0.00    -0.066 C 
ATOM      3  C   UNL     1      33.608  31.233  26.209  1.00  0.00     0.047 C 
ATOM      4  C   UNL     1      33.081  29.927  26.722  1.00  0.00     0.159 C 
ATOM      5  O   UNL     1      32.972  28.911  25.988  1.00  0.00    -0.295 OA
ATOM      6  C   UNL     1      32.684  29.916  28.199  1.00  0.00     0.067 C 
ATOM      7  C   UNL     1      33.857  30.628  28.910  1.00  0.00     0.021 C 
ATOM      8  C   UNL     1      33.163  31.956  28.536  1.00  0.00     0.022 C 
ATOM      9  C   UNL     1      31.818  31.175  28.489  1.00  0.00    -0.019 C 
ATOM     10  C   UNL     1      31.125  31.108  29.873  1.00  0.00     0.012 C 
ATOM     11  C   UNL     1      30.758  31.600  27.433  1.00  0.00     0.012 C 
ENDROOT
TORSDOF 0
ENDMDL
MODEL 3
REMARK VINA RESULT:    -4.034     15.682     17.148
REMARK INTER + INTRA:          -4.034
REMARK INTER:                  -4.034
REMARK INTRA:                   0.000
REMARK UNBOUND:                 0.000
REMARK SMILES CC1=CC(=O)[C@H]2C[C@@H]1C2(C)C
REMARK SMILES IDX 1 1 2 2 3 3 4 4 5 5 6 6 7 7 8 8 9 9 10 10 11 11
REMARK H PARENT
REMARK Flexibility Score: inf
ROOT
ATOM      1  C   UNL     1      16.145  33.006  33.113  1.00  0.00     0.040 C 
ATOM      2  C   UNL     1      15.971  32.237  31.841  1.00  0.00    -0.066 C 
ATOM      3  C   UNL     1      14.859  31.490  31.590  1.00  0.00     0.047 C 
ATOM      4  C   UNL     1      14.827  30.773  30.273  1.00  0.00     0.159 C 
ATOM      5  O   UNL     1      13.876  30.019  29.942  1.00  0.00    -0.295 OA
ATOM      6  C   UNL     1      16.029  31.023  29.363  1.00  0.00     0.067 C 
ATOM      7  C   UNL     1      16.238  32.552  29.424  1.00  0.00     0.021 C 
ATOM      8  C   UNL     1      17.033  32.304  30.725  1.00  0.00     0.022 C 
ATOM      9  C   UNL     1      17.329  30.868  30.204  1.00  0.00    -0.019 C 
ATOM     10  C   UNL     1      18.600  30.812  29.320  1.00  0.00     0.012 C 
ATOM     11  C   UNL     1      17.403  29.711  31.240  1.00  0.00     0.012 C 
ENDROOT
TORSDOF 0
ENDMDL
MODEL 4
REMARK VINA RESULT:    -4.018     15.056     16.401
REMARK INTER + INTRA:          -4.018
REMARK INTER:                  -4.018
REMARK INTRA:                   0.000
REMARK UNBOUND:                 0.000
REMARK SMILES CC1=CC(=O)[C@H]2C[C@@H]1C2(C)C
REMARK SMILES IDX 1 1 2 2 3 3 4 4 5 5 6 6 7 7 8 8 9 9 10 10 11 11
REMARK H PARENT
REMARK Flexibility Score: inf
ROOT
ATOM      1  C   UNL     1      19.695  31.619  29.770  1.00  0.00     0.040 C 
ATOM      2  C   UNL     1      18.302  31.847  30.268  1.00  0.00    -0.066 C 
ATOM      3  C   UNL     1      18.048  32.468  31.455  1.00  0.00     0.047 C 
ATOM      4  C   UNL     1      16.603  32.624  31.824  1.00  0.00     0.159 C 
ATOM      5  O   UNL     1      16.239  33.142  32.911  1.00  0.00    -0.295 OA
ATOM      6  C   UNL     1      15.604  32.111  30.786  1.00  0.00     0.067 C 
ATOM      7  C   UNL     1      16.139  32.657  29.444  1.00  0.00     0.021 C 
ATOM      8  C   UNL     1      17.082  31.433  29.422  1.00  0.00     0.022 C 
ATOM      9  C   UNL     1      16.052  30.694  30.324  1.00  0.00    -0.019 C 
ATOM     10  C   UNL     1      14.959  29.970  29.501  1.00  0.00     0.012 C 
ATOM     11  C   UNL     1      16.591  29.706  31.397  1.00  0.00     0.012 C 
ENDROOT
TORSDOF 0
ENDMDL
MODEL 5
REMARK VINA RESULT:    -4.005     14.875     16.125
REMARK INTER + INTRA:          -4.005
REMARK INTER:                  -4.005
REMARK INTRA:                   0.000
REMARK UNBOUND:                 0.000
REMARK SMILES CC1=CC(=O)[C@H]2C[C@@H]1C2(C)C
REMARK SMILES IDX 1 1 2 2 3 3 4 4 5 5 6 6 7 7 8 8 9 9 10 10 11 11
REMARK H PARENT
REMARK Flexibility Score: inf
ROOT
ATOM      1  C   UNL     1      14.271  31.122  31.247  1.00  0.00     0.040 C 
ATOM      2  C   UNL     1      15.603  31.221  30.571  1.00  0.00    -0.066 C 
ATOM      3  C   UNL     1      16.251  30.127  30.079  1.00  0.00     0.047 C 
ATOM      4  C   UNL     1      17.579  30.381  29.430  1.00  0.00     0.159 C 
ATOM      5  O   UNL     1      18.294  29.451  28.975  1.00  0.00    -0.295 OA
ATOM      6  C   UNL     1      18.002  31.849  29.359  1.00  0.00     0.067 C 
ATOM      7  C   UNL     1      16.732  32.585  28.875  1.00  0.00     0.021 C 
ATOM      8  C   UNL     1      16.278  32.589  30.351  1.00  0.00     0.022 C 
ATOM      9  C   UNL     1      17.778  32.498  30.755  1.00  0.00    -0.019 C 
ATOM     10  C   UNL     1      18.444  33.892  30.871  1.00  0.00     0.012 C 
ATOM     11  C   UNL     1      18.150  31.673  32.019  1.00  0.00     0.012 C 
ENDROOT
TORSDOF 0
ENDMDL
MODEL 6
REMARK VINA RESULT:    -4.005     15.748     17.138
REMARK INTER + INTRA:          -4.005
REMARK INTER:                  -4.005
REMARK INTRA:                   0.000
REMARK UNBOUND:                 0.000
REMARK SMILES CC1=CC(=O)[C@H]2C[C@@H]1C2(C)C
REMARK SMILES IDX 1 1 2 2 3 3 4 4 5 5 6 6 7 7 8 8 9 9 10 10 11 11
REMARK H PARENT
REMARK Flexibility Score: inf
ROOT
ATOM      1  C   UNL     1      13.875  29.486  29.375  1.00  0.00     0.040 C 
ATOM      2  C   UNL     1      14.931  30.216  30.143  1.00  0.00    -0.066 C 
ATOM      3  C   UNL     1      14.626  31.104  31.132  1.00  0.00     0.047 C 
ATOM      4  C   UNL     1      15.789  31.761  31.813  1.00  0.00     0.159 C 
ATOM      5  O   UNL     1      15.639  32.629  32.712  1.00  0.00    -0.295 OA
ATOM      6  C   UNL     1      17.169  31.302  31.341  1.00  0.00     0.067 C 
ATOM      7  C   UNL     1      17.055  29.762  31.282  1.00  0.00     0.021 C 
ATOM      8  C   UNL     1      16.427  29.949  29.883  1.00  0.00     0.022 C 
ATOM      9  C   UNL     1      17.186  31.304  29.785  1.00  0.00    -0.019 C 
ATOM     10  C   UNL     1      18.615  31.139  29.211  1.00  0.00     0.012 C 
ATOM     11  C   UNL     1      16.494  32.482  29.042  1.00  0.00     0.012 C 
ENDROOT
TORSDOF 0
ENDMDL
MODEL 7
REMARK VINA RESULT:    -3.985     14.269     15.479
REMARK INTER + INTRA:          -3.985
REMARK INTER:                  -3.985
REMARK INTRA:                   0.000
REMARK UNBOUND:                 0.000
REMARK SMILES CC1=CC(=O)[C@H]2C[C@@H]1C2(C)C
REMARK SMILES IDX 1 1 2 2 3 3 4 4 5 5 6 6 7 7 8 8 9 9 10 10 11 11
REMARK H PARENT
REMARK Flexibility Score: inf
ROOT
ATOM      1  C   UNL     1      17.531  28.830  29.357  1.00  0.00     0.040 C 
ATOM      2  C   UNL     1      17.586  30.304  29.609  1.00  0.00    -0.066 C 
ATOM      3  C   UNL     1      18.659  31.064  29.247  1.00  0.00     0.047 C 
ATOM      4  C   UNL     1      18.572  32.526  29.566  1.00  0.00     0.159 C 
ATOM      5  O   UNL     1      19.513  33.325  29.322  1.00  0.00    -0.295 OA
ATOM      6  C   UNL     1      17.261  32.979  30.208  1.00  0.00     0.067 C 
ATOM      7  C   UNL     1      16.167  32.290  29.362  1.00  0.00     0.021 C 
ATOM      8  C   UNL     1      16.392  31.043  30.246  1.00  0.00     0.022 C 
ATOM      9  C   UNL     1      16.908  31.997  31.362  1.00  0.00    -0.019 C 
ATOM     10  C   UNL     1      15.763  32.528  32.260  1.00  0.00     0.012 C 
ATOM     11  C   UNL     1      18.058  31.497  32.282  1.00  0.00     0.012 C 
ENDROOT
TORSDOF 0
ENDMDL
MODEL 8
REMARK VINA RESULT:    -3.975     14.544     15.727
REMARK INTER + INTRA:          -3.975
REMARK INTER:                  -3.975
REMARK INTRA:                   0.000
REMARK UNBOUND:                 0.000
REMARK SMILES CC1=CC(=O)[C@H]2C[C@@H]1C2(C)C
REMARK SMILES IDX 1 1 2 2 3 3 4 4 5 5 6 6 7 7 8 8 9 9 10 10 11 11
REMARK H PARENT
REMARK Flexibility Score: inf
ROOT
ATOM      1  C   UNL     1      18.766  28.491  28.252  1.00  0.00     0.040 C 
ATOM      2  C   UNL     1      18.303  29.387  29.357  1.00  0.00    -0.066 C 
ATOM      3  C   UNL     1      18.117  28.935  30.630  1.00  0.00     0.047 C 
ATOM      4  C   UNL     1      17.649  29.948  31.631  1.00  0.00     0.159 C 
ATOM      5  O   UNL     1      17.400  29.647  32.826  1.00  0.00    -0.295 OA
ATOM      6  C   UNL     1      17.497  31.373  31.097  1.00  0.00     0.067 C 
ATOM      7  C   UNL     1      18.785  31.609  30.277  1.00  0.00     0.021 C 
ATOM      8  C   UNL     1      18.070  30.891  29.111  1.00  0.00     0.022 C 
ATOM      9  C   UNL     1      16.718  31.317  29.751  1.00  0.00    -0.019 C 
ATOM     10  C   UNL     1      16.257  32.719  29.279  1.00  0.00     0.012 C 
ATOM     11  C   UNL     1      15.511  30.343  29.637  1.00  0.00     0.012 C 
ENDROOT
TORSDOF 0
ENDMDL
MODEL 9
REMARK VINA RESULT:    -3.973      1.760      3.229
REMARK INTER + INTRA:          -3.973
REMARK INTER:                  -3.973
REMARK INTRA:                   0.000
REMARK UNBOUND:                 0.000
REMARK SMILES CC1=CC(=O)[C@H]2C[C@@H]1C2(C)C
REMARK SMILES IDX 1 1 2 2 3 3 4 4 5 5 6 6 7 7 8 8 9 9 10 10 11 11
REMARK H PARENT
REMARK Flexibility Score: inf
ROOT
ATOM      1  C   UNL     1      30.007  30.773  28.134  1.00  0.00     0.040 C 
ATOM      2  C   UNL     1      31.338  31.332  28.528  1.00  0.00    -0.066 C 
ATOM      3  C   UNL     1      31.613  31.723  29.805  1.00  0.00     0.047 C 
ATOM      4  C   UNL     1      32.989  32.266  30.049  1.00  0.00     0.159 C 
ATOM      5  O   UNL     1      33.351  32.699  31.173  1.00  0.00    -0.295 OA
ATOM      6  C   UNL     1      33.921  32.256  28.837  1.00  0.00     0.067 C 
ATOM      7  C   UNL     1      33.723  30.853  28.220  1.00  0.00     0.021 C 
ATOM      8  C   UNL     1      32.486  31.438  27.504  1.00  0.00     0.022 C 
ATOM      9  C   UNL     1      33.153  32.839  27.616  1.00  0.00    -0.019 C 
ATOM     10  C   UNL     1      34.090  33.144  26.421  1.00  0.00     0.012 C 
ATOM     11  C   UNL     1      32.235  34.074  27.844  1.00  0.00     0.012 C 
ENDROOT
TORSDOF 0
ENDMDL
