MODEL 1
REMARK VINA RESULT:    -1.220      0.000      0.000
REMARK INTER + INTRA:          -1.542
REMARK INTER:                  -1.434
REMARK INTRA:                  -0.108
REMARK UNBOUND:                -0.108
REMARK SMILES CCCCC(=O)[O-]
REMARK SMILES IDX 4 1 5 2 6 3 7 4 3 5 2 6 1 7
REMARK H PARENT
REMARK Flexibility Score: inf
ROOT
ATOM      1  C   UNL     1     -13.017 -21.246  83.949  1.00  0.00     0.053 C 
ENDROOT
BRANCH   1   2
ATOM      2  C   UNL     1     -13.293 -21.368  82.484  1.00  0.00     0.041 C 
ATOM      3  O   UNL     1     -13.645 -20.357  81.821  1.00  0.00    -0.550 OA
ATOM      4  O   UNL     1     -13.212 -22.606  81.861  1.00  0.00    -0.550 OA
ENDBRANCH   1   2
BRANCH   1   5
ATOM      5  C   UNL     1     -13.957 -22.151  84.750  1.00  0.00     0.006 C 
BRANCH   5   6
ATOM      6  C   UNL     1     -13.185 -23.296  85.415  1.00  0.00    -0.003 C 
ATOM      7  C   UNL     1     -13.539 -24.640  84.783  1.00  0.00     0.004 C 
ENDBRANCH   5   6
ENDBRANCH   1   5
TORSDOF 3
ENDMDL
MODEL 2
REMARK VINA RESULT:    -1.213      1.559      2.126
REMARK INTER + INTRA:          -1.534
REMARK INTER:                  -1.441
REMARK INTRA:                  -0.093
REMARK UNBOUND:                -0.108
REMARK SMILES CCCCC(=O)[O-]
REMARK SMILES IDX 4 1 5 2 6 3 7 4 3 5 2 6 1 7
REMARK H PARENT
REMARK Flexibility Score: inf
ROOT
ATOM      1  C   UNL     1     -13.168 -21.568  82.197  1.00  0.00     0.053 C 
ENDROOT
BRANCH   1   2
ATOM      2  C   UNL     1     -14.347 -20.936  81.527  1.00  0.00     0.041 C 
ATOM      3  O   UNL     1     -15.481 -21.479  81.597  1.00  0.00    -0.550 OA
ATOM      4  O   UNL     1     -14.185 -19.775  80.783  1.00  0.00    -0.550 OA
ENDBRANCH   1   2
BRANCH   1   5
ATOM      5  C   UNL     1     -13.023 -21.048  83.630  1.00  0.00     0.006 C 
BRANCH   5   6
ATOM      6  C   UNL     1     -13.095 -22.198  84.641  1.00  0.00    -0.003 C 
ATOM      7  C   UNL     1     -14.511 -22.366  85.185  1.00  0.00     0.004 C 
ENDBRANCH   5   6
ENDBRANCH   1   5
TORSDOF 3
ENDMDL
MODEL 3
REMARK VINA RESULT:    -1.127      2.521      3.882
REMARK INTER + INTRA:          -1.432
REMARK INTER:                  -1.385
REMARK INTRA:                  -0.047
REMARK UNBOUND:                -0.108
REMARK SMILES CCCCC(=O)[O-]
REMARK SMILES IDX 4 1 5 2 6 3 7 4 3 5 2 6 1 7
REMARK H PARENT
REMARK Flexibility Score: inf
ROOT
ATOM      1  C   UNL     1     -14.482 -22.539  83.671  1.00  0.00     0.053 C 
ENDROOT
BRANCH   1   2
ATOM      2  C   UNL     1     -14.206 -22.647  85.137  1.00  0.00     0.041 C 
ATOM      3  O   UNL     1     -13.105 -23.105  85.541  1.00  0.00    -0.550 OA
ATOM      4  O   UNL     1     -15.183 -22.290  86.057  1.00  0.00    -0.550 OA
ENDBRANCH   1   2
BRANCH   1   5
ATOM      5  C   UNL     1     -13.196 -22.218  82.905  1.00  0.00     0.006 C 
BRANCH   5   6
ATOM      6  C   UNL     1     -13.164 -20.746  82.474  1.00  0.00    -0.003 C 
ATOM      7  C   UNL     1     -14.097 -20.498  81.293  1.00  0.00     0.004 C 
ENDBRANCH   5   6
ENDBRANCH   1   5
TORSDOF 3
ENDMDL
MODEL 4
REMARK VINA RESULT:    -1.119      1.571      1.803
REMARK INTER + INTRA:          -1.423
REMARK INTER:                  -1.372
REMARK INTRA:                  -0.051
REMARK UNBOUND:                -0.108
REMARK SMILES CCCCC(=O)[O-]
REMARK SMILES IDX 4 1 5 2 6 3 7 4 3 5 2 6 1 7
REMARK H PARENT
REMARK Flexibility Score: inf
ROOT
ATOM      1  C   UNL     1     -14.062 -22.138  82.849  1.00  0.00     0.053 C 
ENDROOT
BRANCH   1   2
ATOM      2  C   UNL     1     -13.956 -20.940  81.959  1.00  0.00     0.041 C 
ATOM      3  O   UNL     1     -14.814 -20.742  81.060  1.00  0.00    -0.550 OA
ATOM      4  O   UNL     1     -12.881 -20.070  82.090  1.00  0.00    -0.550 OA
ENDBRANCH   1   2
BRANCH   1   5
ATOM      5  C   UNL     1     -13.516 -21.821  84.244  1.00  0.00     0.006 C 
BRANCH   5   6
ATOM      6  C   UNL     1     -14.378 -22.470  85.333  1.00  0.00    -0.003 C 
ATOM      7  C   UNL     1     -15.695 -22.986  84.759  1.00  0.00     0.004 C 
ENDBRANCH   5   6
ENDBRANCH   1   5
TORSDOF 3
ENDMDL
MODEL 5
REMARK VINA RESULT:    -1.075      1.670      2.350
REMARK INTER + INTRA:          -1.371
REMARK INTER:                  -1.264
REMARK INTRA:                  -0.107
REMARK UNBOUND:                -0.108
REMARK SMILES CCCCC(=O)[O-]
REMARK SMILES IDX 4 1 5 2 6 3 7 4 3 5 2 6 1 7
REMARK H PARENT
REMARK Flexibility Score: inf
ROOT
ATOM      1  C   UNL     1     -13.830 -21.903  84.261  1.00  0.00     0.053 C 
ENDROOT
BRANCH   1   2
ATOM      2  C   UNL     1     -13.607 -22.736  83.039  1.00  0.00     0.041 C 
ATOM      3  O   UNL     1     -14.040 -23.918  82.992  1.00  0.00    -0.550 OA
ATOM      4  O   UNL     1     -12.879 -22.226  81.972  1.00  0.00    -0.550 OA
ENDBRANCH   1   2
BRANCH   1   5
ATOM      5  C   UNL     1     -14.127 -22.792  85.471  1.00  0.00     0.006 C 
BRANCH   5   6
ATOM      6  C   UNL     1     -15.460 -22.407  86.123  1.00  0.00    -0.003 C 
ATOM      7  C   UNL     1     -16.639 -22.780  85.229  1.00  0.00     0.004 C 
ENDBRANCH   5   6
ENDBRANCH   1   5
TORSDOF 3
ENDMDL
MODEL 6
REMARK VINA RESULT:    -1.054      2.879      3.876
REMARK INTER + INTRA:          -1.347
REMARK INTER:                  -1.320
REMARK INTRA:                  -0.026
REMARK UNBOUND:                -0.108
REMARK SMILES CCCCC(=O)[O-]
REMARK SMILES IDX 4 1 5 2 6 3 7 4 3 5 2 6 1 7
REMARK H PARENT
REMARK Flexibility Score: inf
ROOT
ATOM      1  C   UNL     1     -14.356 -22.421  84.965  1.00  0.00     0.053 C 
ENDROOT
BRANCH   1   2
ATOM      2  C   UNL     1     -14.155 -23.675  85.753  1.00  0.00     0.041 C 
ATOM      3  O   UNL     1     -15.148 -24.358  86.122  1.00  0.00    -0.550 OA
ATOM      4  O   UNL     1     -12.875 -24.066  86.125  1.00  0.00    -0.550 OA
ENDBRANCH   1   2
BRANCH   1   5
ATOM      5  C   UNL     1     -13.116 -22.112  84.121  1.00  0.00     0.006 C 
BRANCH   5   6
ATOM      6  C   UNL     1     -13.490 -21.315  82.866  1.00  0.00    -0.003 C 
ATOM      7  C   UNL     1     -13.751 -22.241  81.682  1.00  0.00     0.004 C 
ENDBRANCH   5   6
ENDBRANCH   1   5
TORSDOF 3
ENDMDL
MODEL 7
REMARK VINA RESULT:    -1.052      2.622      3.274
REMARK INTER + INTRA:          -1.344
REMARK INTER:                  -1.262
REMARK INTRA:                  -0.082
REMARK UNBOUND:                -0.108
REMARK SMILES CCCCC(=O)[O-]
REMARK SMILES IDX 4 1 5 2 6 3 7 4 3 5 2 6 1 7
REMARK H PARENT
REMARK Flexibility Score: inf
ROOT
ATOM      1  C   UNL     1     -15.097 -22.503  85.511  1.00  0.00     0.053 C 
ENDROOT
BRANCH   1   2
ATOM      2  C   UNL     1     -13.689 -22.454  85.007  1.00  0.00     0.041 C 
ATOM      3  O   UNL     1     -12.875 -23.364  85.312  1.00  0.00    -0.550 OA
ATOM      4  O   UNL     1     -13.262 -21.377  84.240  1.00  0.00    -0.550 OA
ENDBRANCH   1   2
BRANCH   1   5
ATOM      5  C   UNL     1     -16.058 -22.882  84.381  1.00  0.00     0.006 C 
BRANCH   5   6
ATOM      6  C   UNL     1     -16.681 -24.262  84.629  1.00  0.00    -0.003 C 
ATOM      7  C   UNL     1     -16.601 -24.646  86.104  1.00  0.00     0.004 C 
ENDBRANCH   5   6
ENDBRANCH   1   5
TORSDOF 3
ENDMDL
MODEL 8
REMARK VINA RESULT:    -1.045      2.590      3.683
REMARK INTER + INTRA:          -1.336
REMARK INTER:                  -1.224
REMARK INTRA:                  -0.112
REMARK UNBOUND:                -0.108
REMARK SMILES CCCCC(=O)[O-]
REMARK SMILES IDX 4 1 5 2 6 3 7 4 3 5 2 6 1 7
REMARK H PARENT
REMARK Flexibility Score: inf
ROOT
ATOM      1  C   UNL     1     -15.765 -22.955  84.453  1.00  0.00     0.053 C 
ENDROOT
BRANCH   1   2
ATOM      2  C   UNL     1     -15.628 -24.437  84.310  1.00  0.00     0.041 C 
ATOM      3  O   UNL     1     -15.807 -25.189  85.305  1.00  0.00    -0.550 OA
ATOM      4  O   UNL     1     -15.254 -24.987  83.091  1.00  0.00    -0.550 OA
ENDBRANCH   1   2
BRANCH   1   5
ATOM      5  C   UNL     1     -14.740 -22.416  85.455  1.00  0.00     0.006 C 
BRANCH   5   6
ATOM      6  C   UNL     1     -13.335 -22.385  84.841  1.00  0.00    -0.003 C 
ATOM      7  C   UNL     1     -13.235 -21.329  83.745  1.00  0.00     0.004 C 
ENDBRANCH   5   6
ENDBRANCH   1   5
TORSDOF 3
ENDMDL
MODEL 9
REMARK VINA RESULT:    -0.937      8.128      8.520
REMARK INTER + INTRA:          -1.209
REMARK INTER:                  -1.153
REMARK INTRA:                  -0.056
REMARK UNBOUND:                -0.108
REMARK SMILES CCCCC(=O)[O-]
REMARK SMILES IDX 4 1 5 2 6 3 7 4 3 5 2 6 1 7
REMARK H PARENT
REMARK Flexibility Score: inf
ROOT
ATOM      1  C   UNL     1     -15.327 -13.884  85.100  1.00  0.00     0.053 C 
ENDROOT
BRANCH   1   2
ATOM      2  C   UNL     1     -13.885 -14.279  85.080  1.00  0.00     0.041 C 
ATOM      3  O   UNL     1     -13.188 -14.184  86.125  1.00  0.00    -0.550 OA
ATOM      4  O   UNL     1     -13.296 -14.705  83.896  1.00  0.00    -0.550 OA
ENDBRANCH   1   2
BRANCH   1   5
ATOM      5  C   UNL     1     -16.030 -14.355  83.824  1.00  0.00     0.006 C 
BRANCH   5   6
ATOM      6  C   UNL     1     -17.384 -14.997  84.148  1.00  0.00    -0.003 C 
ATOM      7  C   UNL     1     -17.690 -14.917  85.641  1.00  0.00     0.004 C 
ENDBRANCH   5   6
ENDBRANCH   1   5
TORSDOF 3
ENDMDL
