MODEL 1
REMARK VINA RESULT:    -2.159      0.000      0.000
REMARK INTER + INTRA:          -6.443
REMARK INTER:                  -3.295
REMARK INTRA:                  -3.148
REMARK UNBOUND:                -3.148
REMARK SMILES CC(=O)CCC=C(C)CCC=C(C)CCC=C(C)C
REMARK SMILES IDX 10 1 11 2 12 3 13 4 14 5 15 6 16 7 18 8 17 9 19 10 9 11 7 12
REMARK SMILES IDX 6 13 8 14 5 15 4 16 2 17 3 18 1 19
REMARK H PARENT
REMARK Flexibility Score: inf
ROOT
ATOM      1  C   UNL     1     122.361  88.276  56.129  1.00  0.00     0.032 C 
ENDROOT
BRANCH   1   2
ATOM      2  C   UNL     1     121.694  87.743  57.375  1.00  0.00    -0.028 C 
ATOM      3  C   UNL     1     120.441  88.054  57.777  1.00  0.00    -0.077 C 
ATOM      4  C   UNL     1     119.896  87.368  59.002  1.00  0.00     0.039 C 
BRANCH   3   5
ATOM      5  C   UNL     1     119.578  89.086  57.071  1.00  0.00     0.034 C 
BRANCH   5   6
ATOM      6  C   UNL     1     118.215  88.507  56.662  1.00  0.00     0.032 C 
BRANCH   6   7
ATOM      7  C   UNL     1     118.313  87.683  55.400  1.00  0.00    -0.028 C 
ATOM      8  C   UNL     1     117.844  85.520  56.572  1.00  0.00     0.039 C 
ATOM      9  C   UNL     1     118.119  86.348  55.338  1.00  0.00    -0.080 C 
ATOM     10  C   UNL     1     118.200  85.672  53.994  1.00  0.00     0.039 C 
ENDBRANCH   6   7
ENDBRANCH   5   6
ENDBRANCH   3   5
ENDBRANCH   1   2
BRANCH   1  11
ATOM     11  C   UNL     1     123.032  87.157  55.318  1.00  0.00     0.034 C 
BRANCH  11  12
ATOM     12  C   UNL     1     122.050  86.471  54.383  1.00  0.00    -0.077 C 
ATOM     13  C   UNL     1     121.674  85.180  54.530  1.00  0.00    -0.028 C 
ATOM     14  C   UNL     1     121.437  87.269  53.261  1.00  0.00     0.039 C 
BRANCH  13  15
ATOM     15  C   UNL     1     122.233  84.232  55.561  1.00  0.00     0.035 C 
BRANCH  15  16
ATOM     16  C   UNL     1     121.299  84.135  56.771  1.00  0.00     0.079 C 
BRANCH  16  17
ATOM     17  C   UNL     1     122.076  84.269  58.054  1.00  0.00     0.130 C 
ATOM     18  O   UNL     1     121.503  84.129  59.123  1.00  0.00    -0.300 OA
ATOM     19  C   UNL     1     123.547  84.564  58.048  1.00  0.00     0.087 C 
ENDBRANCH  16  17
ENDBRANCH  15  16
ENDBRANCH  13  15
ENDBRANCH  11  12
ENDBRANCH   1  11
TORSDOF 9
ENDMDL
MODEL 2
REMARK VINA RESULT:    -2.092      9.434     12.081
REMARK INTER + INTRA:          -6.340
REMARK INTER:                  -3.115
REMARK INTRA:                  -3.225
REMARK UNBOUND:                -3.148
REMARK SMILES CC(=O)CCC=C(C)CCC=C(C)CCC=C(C)C
REMARK SMILES IDX 10 1 11 2 12 3 13 4 14 5 15 6 16 7 18 8 17 9 19 10 9 11 7 12
REMARK SMILES IDX 6 13 8 14 5 15 4 16 2 17 3 18 1 19
REMARK H PARENT
REMARK Flexibility Score: inf
ROOT
ATOM      1  C   UNL     1     110.262  88.397  55.456  1.00  0.00     0.032 C 
ENDROOT
BRANCH   1   2
ATOM      2  C   UNL     1     111.071  87.125  55.546  1.00  0.00    -0.028 C 
ATOM      3  C   UNL     1     110.750  85.958  54.942  1.00  0.00    -0.077 C 
ATOM      4  C   UNL     1     111.711  84.805  55.066  1.00  0.00     0.039 C 
BRANCH   3   5
ATOM      5  C   UNL     1     109.453  85.751  54.180  1.00  0.00     0.034 C 
BRANCH   5   6
ATOM      6  C   UNL     1     108.704  84.497  54.657  1.00  0.00     0.032 C 
BRANCH   6   7
ATOM      7  C   UNL     1     107.213  84.729  54.729  1.00  0.00    -0.028 C 
ATOM      8  C   UNL     1     106.937  83.402  56.836  1.00  0.00     0.039 C 
ATOM      9  C   UNL     1     106.412  84.270  55.716  1.00  0.00    -0.080 C 
ATOM     10  C   UNL     1     104.949  84.626  55.677  1.00  0.00     0.039 C 
ENDBRANCH   6   7
ENDBRANCH   5   6
ENDBRANCH   3   5
ENDBRANCH   1   2
BRANCH   1  11
ATOM     11  C   UNL     1     109.473  88.662  56.747  1.00  0.00     0.034 C 
BRANCH  11  12
ATOM     12  C   UNL     1     108.168  87.886  56.781  1.00  0.00    -0.077 C 
ATOM     13  C   UNL     1     107.883  86.968  57.732  1.00  0.00    -0.028 C 
ATOM     14  C   UNL     1     107.124  88.173  55.732  1.00  0.00     0.039 C 
BRANCH  13  15
ATOM     15  C   UNL     1     108.835  86.525  58.815  1.00  0.00     0.035 C 
BRANCH  15  16
ATOM     16  C   UNL     1     109.635  85.299  58.364  1.00  0.00     0.079 C 
BRANCH  16  17
ATOM     17  C   UNL     1     111.063  85.395  58.834  1.00  0.00     0.130 C 
ATOM     18  O   UNL     1     111.720  84.375  58.976  1.00  0.00    -0.300 OA
ATOM     19  C   UNL     1     111.701  86.721  59.125  1.00  0.00     0.087 C 
ENDBRANCH  16  17
ENDBRANCH  15  16
ENDBRANCH  13  15
ENDBRANCH  11  12
ENDBRANCH   1  11
TORSDOF 9
ENDMDL
MODEL 3
REMARK VINA RESULT:    -2.091      1.544      3.416
REMARK INTER + INTRA:          -6.338
REMARK INTER:                  -3.050
REMARK INTRA:                  -3.288
REMARK UNBOUND:                -3.148
REMARK SMILES CC(=O)CCC=C(C)CCC=C(C)CCC=C(C)C
REMARK SMILES IDX 10 1 11 2 12 3 13 4 14 5 15 6 16 7 18 8 17 9 19 10 9 11 7 12
REMARK SMILES IDX 6 13 8 14 5 15 4 16 2 17 3 18 1 19
REMARK H PARENT
REMARK Flexibility Score: inf
ROOT
ATOM      1  C   UNL     1     122.000  88.003  55.072  1.00  0.00     0.032 C 
ENDROOT
BRANCH   1   2
ATOM      2  C   UNL     1     122.123  86.613  54.496  1.00  0.00    -0.028 C 
ATOM      3  C   UNL     1     121.082  85.799  54.208  1.00  0.00    -0.077 C 
ATOM      4  C   UNL     1     121.375  84.471  53.558  1.00  0.00     0.039 C 
BRANCH   3   5
ATOM      5  C   UNL     1     119.642  86.147  54.542  1.00  0.00     0.034 C 
BRANCH   5   6
ATOM      6  C   UNL     1     119.027  85.149  55.535  1.00  0.00     0.032 C 
BRANCH   6   7
ATOM      7  C   UNL     1     118.082  85.827  56.498  1.00  0.00    -0.028 C 
ATOM      8  C   UNL     1     118.513  84.187  58.342  1.00  0.00     0.039 C 
ATOM      9  C   UNL     1     117.863  85.425  57.769  1.00  0.00    -0.080 C 
ATOM     10  C   UNL     1     116.926  86.235  58.626  1.00  0.00     0.039 C 
ENDBRANCH   6   7
ENDBRANCH   5   6
ENDBRANCH   3   5
ENDBRANCH   1   2
BRANCH   1  11
ATOM     11  C   UNL     1     122.436  88.049  56.545  1.00  0.00     0.034 C 
BRANCH  11  12
ATOM     12  C   UNL     1     121.294  87.704  57.484  1.00  0.00    -0.077 C 
ATOM     13  C   UNL     1     121.325  86.642  58.322  1.00  0.00    -0.028 C 
ATOM     14  C   UNL     1     120.082  88.601  57.515  1.00  0.00     0.039 C 
BRANCH  13  15
ATOM     15  C   UNL     1     122.432  85.620  58.375  1.00  0.00     0.035 C 
BRANCH  15  16
ATOM     16  C   UNL     1     122.098  84.413  57.493  1.00  0.00     0.079 C 
BRANCH  16  17
ATOM     17  C   UNL     1     123.321  83.944  56.749  1.00  0.00     0.130 C 
ATOM     18  O   UNL     1     123.286  82.887  56.139  1.00  0.00    -0.300 OA
ATOM     19  C   UNL     1     124.583  84.755  56.733  1.00  0.00     0.087 C 
ENDBRANCH  16  17
ENDBRANCH  15  16
ENDBRANCH  13  15
ENDBRANCH  11  12
ENDBRANCH   1  11
TORSDOF 9
ENDMDL
MODEL 4
REMARK VINA RESULT:    -2.081     10.237     12.729
REMARK INTER + INTRA:          -6.324
REMARK INTER:                  -2.998
REMARK INTRA:                  -3.326
REMARK UNBOUND:                -3.148
REMARK SMILES CC(=O)CCC=C(C)CCC=C(C)CCC=C(C)C
REMARK SMILES IDX 10 1 11 2 12 3 13 4 14 5 15 6 16 7 18 8 17 9 19 10 9 11 7 12
REMARK SMILES IDX 6 13 8 14 5 15 4 16 2 17 3 18 1 19
REMARK H PARENT
REMARK Flexibility Score: inf
ROOT
ATOM      1  C   UNL     1     108.810  86.661  58.675  1.00  0.00     0.032 C 
ENDROOT
BRANCH   1   2
ATOM      2  C   UNL     1     107.843  87.164  57.630  1.00  0.00    -0.028 C 
ATOM      3  C   UNL     1     108.184  87.911  56.555  1.00  0.00    -0.077 C 
ATOM      4  C   UNL     1     107.107  88.261  55.562  1.00  0.00     0.039 C 
BRANCH   3   5
ATOM      5  C   UNL     1     109.589  88.440  56.327  1.00  0.00     0.034 C 
BRANCH   5   6
ATOM      6  C   UNL     1     109.953  88.469  54.835  1.00  0.00     0.032 C 
BRANCH   6   7
ATOM      7  C   UNL     1     110.559  87.162  54.379  1.00  0.00    -0.028 C 
ATOM      8  C   UNL     1     108.794  86.750  52.650  1.00  0.00     0.039 C 
ATOM      9  C   UNL     1     110.068  86.395  53.381  1.00  0.00    -0.080 C 
ATOM     10  C   UNL     1     110.814  85.141  53.007  1.00  0.00     0.039 C 
ENDBRANCH   6   7
ENDBRANCH   5   6
ENDBRANCH   3   5
ENDBRANCH   1   2
BRANCH   1  11
ATOM     11  C   UNL     1     109.049  85.148  58.549  1.00  0.00     0.034 C 
BRANCH  11  12
ATOM     12  C   UNL     1     109.980  84.817  57.395  1.00  0.00    -0.077 C 
ATOM     13  C   UNL     1     109.579  84.135  56.298  1.00  0.00    -0.028 C 
ATOM     14  C   UNL     1     111.407  85.299  57.453  1.00  0.00     0.039 C 
BRANCH  13  15
ATOM     15  C   UNL     1     108.207  83.537  56.110  1.00  0.00     0.035 C 
BRANCH  15  16
ATOM     16  C   UNL     1     107.359  84.410  55.179  1.00  0.00     0.079 C 
BRANCH  16  17
ATOM     17  C   UNL     1     105.996  84.651  55.773  1.00  0.00     0.130 C 
ATOM     18  O   UNL     1     105.783  84.345  56.936  1.00  0.00    -0.300 OA
ATOM     19  C   UNL     1     104.891  85.268  54.966  1.00  0.00     0.087 C 
ENDBRANCH  16  17
ENDBRANCH  15  16
ENDBRANCH  13  15
ENDBRANCH  11  12
ENDBRANCH   1  11
TORSDOF 9
ENDMDL
MODEL 5
REMARK VINA RESULT:    -2.056      2.259      5.862
REMARK INTER + INTRA:          -6.286
REMARK INTER:                  -3.499
REMARK INTRA:                  -2.787
REMARK UNBOUND:                -3.148
REMARK SMILES CC(=O)CCC=C(C)CCC=C(C)CCC=C(C)C
REMARK SMILES IDX 10 1 11 2 12 3 13 4 14 5 15 6 16 7 18 8 17 9 19 10 9 11 7 12
REMARK SMILES IDX 6 13 8 14 5 15 4 16 2 17 3 18 1 19
REMARK H PARENT
REMARK Flexibility Score: inf
ROOT
ATOM      1  C   UNL     1     121.854  83.878  55.223  1.00  0.00     0.032 C 
ENDROOT
BRANCH   1   2
ATOM      2  C   UNL     1     122.261  84.916  54.204  1.00  0.00    -0.028 C 
ATOM      3  C   UNL     1     123.230  85.842  54.386  1.00  0.00    -0.077 C 
ATOM      4  C   UNL     1     123.570  86.752  53.235  1.00  0.00     0.039 C 
BRANCH   3   5
ATOM      5  C   UNL     1     123.963  86.025  55.704  1.00  0.00     0.034 C 
BRANCH   5   6
ATOM      6  C   UNL     1     125.125  85.031  55.855  1.00  0.00     0.032 C 
BRANCH   6   7
ATOM      7  C   UNL     1     125.049  84.273  57.160  1.00  0.00    -0.028 C 
ATOM      8  C   UNL     1     124.870  82.036  56.047  1.00  0.00     0.039 C 
ATOM      9  C   UNL     1     124.965  82.929  57.263  1.00  0.00    -0.080 C 
ATOM     10  C   UNL     1     124.948  82.315  58.638  1.00  0.00     0.039 C 
ENDBRANCH   6   7
ENDBRANCH   5   6
ENDBRANCH   3   5
ENDBRANCH   1   2
BRANCH   1  11
ATOM     11  C   UNL     1     120.878  84.452  56.261  1.00  0.00     0.034 C 
BRANCH  11  12
ATOM     12  C   UNL     1     121.267  84.065  57.678  1.00  0.00    -0.077 C 
ATOM     13  C   UNL     1     121.619  84.972  58.618  1.00  0.00    -0.028 C 
ATOM     14  C   UNL     1     121.228  82.611  58.070  1.00  0.00     0.039 C 
BRANCH  13  15
ATOM     15  C   UNL     1     121.762  86.454  58.374  1.00  0.00     0.035 C 
BRANCH  15  16
ATOM     16  C   UNL     1     120.428  87.172  58.602  1.00  0.00     0.079 C 
BRANCH  16  17
ATOM     17  C   UNL     1     120.116  88.090  57.450  1.00  0.00     0.130 C 
ATOM     18  O   UNL     1     119.030  88.646  57.400  1.00  0.00    -0.300 OA
ATOM     19  C   UNL     1     121.117  88.344  56.361  1.00  0.00     0.087 C 
ENDBRANCH  16  17
ENDBRANCH  15  16
ENDBRANCH  13  15
ENDBRANCH  11  12
ENDBRANCH   1  11
TORSDOF 9
ENDMDL
MODEL 6
REMARK VINA RESULT:    -2.032      9.669     12.131
REMARK INTER + INTRA:          -6.249
REMARK INTER:                  -3.384
REMARK INTRA:                  -2.865
REMARK UNBOUND:                -3.148
REMARK SMILES CC(=O)CCC=C(C)CCC=C(C)CCC=C(C)C
REMARK SMILES IDX 10 1 11 2 12 3 13 4 14 5 15 6 16 7 18 8 17 9 19 10 9 11 7 12
REMARK SMILES IDX 6 13 8 14 5 15 4 16 2 17 3 18 1 19
REMARK H PARENT
REMARK Flexibility Score: inf
ROOT
ATOM      1  C   UNL     1     109.014  89.071  55.715  1.00  0.00     0.032 C 
ENDROOT
BRANCH   1   2
ATOM      2  C   UNL     1     109.797  88.516  56.881  1.00  0.00    -0.028 C 
ATOM      3  C   UNL     1     109.313  87.644  57.794  1.00  0.00    -0.077 C 
ATOM      4  C   UNL     1     110.254  87.124  58.850  1.00  0.00     0.039 C 
BRANCH   3   5
ATOM      5  C   UNL     1     107.862  87.194  57.822  1.00  0.00     0.034 C 
BRANCH   5   6
ATOM      6  C   UNL     1     107.738  85.678  58.036  1.00  0.00     0.032 C 
BRANCH   6   7
ATOM      7  C   UNL     1     106.807  85.045  57.030  1.00  0.00    -0.028 C 
ATOM      8  C   UNL     1     105.413  83.912  58.777  1.00  0.00     0.039 C 
ATOM      9  C   UNL     1     105.742  84.275  57.347  1.00  0.00    -0.080 C 
ATOM     10  C   UNL     1     104.875  83.754  56.231  1.00  0.00     0.039 C 
ENDBRANCH   6   7
ENDBRANCH   5   6
ENDBRANCH   3   5
ENDBRANCH   1   2
BRANCH   1  11
ATOM     11  C   UNL     1     109.316  88.311  54.414  1.00  0.00     0.034 C 
BRANCH  11  12
ATOM     12  C   UNL     1     108.371  87.138  54.213  1.00  0.00    -0.077 C 
ATOM     13  C   UNL     1     108.790  85.853  54.180  1.00  0.00    -0.028 C 
ATOM     14  C   UNL     1     106.894  87.411  54.078  1.00  0.00     0.039 C 
BRANCH  13  15
ATOM     15  C   UNL     1     110.232  85.415  54.243  1.00  0.00     0.035 C 
BRANCH  15  16
ATOM     16  C   UNL     1     110.593  84.943  55.655  1.00  0.00     0.079 C 
BRANCH  16  17
ATOM     17  C   UNL     1     111.960  85.438  56.047  1.00  0.00     0.130 C 
ATOM     18  O   UNL     1     112.577  84.866  56.933  1.00  0.00    -0.300 OA
ATOM     19  C   UNL     1     112.586  86.620  55.368  1.00  0.00     0.087 C 
ENDBRANCH  16  17
ENDBRANCH  15  16
ENDBRANCH  13  15
ENDBRANCH  11  12
ENDBRANCH   1  11
TORSDOF 9
ENDMDL
MODEL 7
REMARK VINA RESULT:    -2.016     10.292     12.748
REMARK INTER + INTRA:          -6.225
REMARK INTER:                  -3.286
REMARK INTRA:                  -2.939
REMARK UNBOUND:                -3.148
REMARK SMILES CC(=O)CCC=C(C)CCC=C(C)CCC=C(C)C
REMARK SMILES IDX 10 1 11 2 12 3 13 4 14 5 15 6 16 7 18 8 17 9 19 10 9 11 7 12
REMARK SMILES IDX 6 13 8 14 5 15 4 16 2 17 3 18 1 19
REMARK H PARENT
REMARK Flexibility Score: inf
ROOT
ATOM      1  C   UNL     1     111.441  86.429  58.209  1.00  0.00     0.032 C 
ENDROOT
BRANCH   1   2
ATOM      2  C   UNL     1     111.055  84.995  57.933  1.00  0.00    -0.028 C 
ATOM      3  C   UNL     1     110.853  84.469  56.703  1.00  0.00    -0.077 C 
ATOM      4  C   UNL     1     110.554  82.996  56.598  1.00  0.00     0.039 C 
BRANCH   3   5
ATOM      5  C   UNL     1     110.881  85.302  55.433  1.00  0.00     0.034 C 
BRANCH   5   6
ATOM      6  C   UNL     1     109.548  85.230  54.673  1.00  0.00     0.032 C 
BRANCH   6   7
ATOM      7  C   UNL     1     109.177  86.561  54.063  1.00  0.00    -0.028 C 
ATOM      8  C   UNL     1     106.712  86.154  54.251  1.00  0.00     0.039 C 
ATOM      9  C   UNL     1     107.911  87.002  53.895  1.00  0.00    -0.080 C 
ATOM     10  C   UNL     1     107.701  88.377  53.317  1.00  0.00     0.039 C 
ENDBRANCH   6   7
ENDBRANCH   5   6
ENDBRANCH   3   5
ENDBRANCH   1   2
BRANCH   1  11
ATOM     11  C   UNL     1     110.276  87.224  58.817  1.00  0.00     0.034 C 
BRANCH  11  12
ATOM     12  C   UNL     1     109.295  87.691  57.756  1.00  0.00    -0.077 C 
ATOM     13  C   UNL     1     108.051  87.176  57.626  1.00  0.00    -0.028 C 
ATOM     14  C   UNL     1     109.706  88.803  56.825  1.00  0.00     0.039 C 
BRANCH  13  15
ATOM     15  C   UNL     1     107.506  86.027  58.436  1.00  0.00     0.035 C 
BRANCH  15  16
ATOM     16  C   UNL     1     107.254  84.806  57.545  1.00  0.00     0.079 C 
BRANCH  16  17
ATOM     17  C   UNL     1     105.856  84.284  57.742  1.00  0.00     0.130 C 
ATOM     18  O   UNL     1     105.056  84.340  56.821  1.00  0.00    -0.300 OA
ATOM     19  C   UNL     1     105.423  83.687  59.049  1.00  0.00     0.087 C 
ENDBRANCH  16  17
ENDBRANCH  15  16
ENDBRANCH  13  15
ENDBRANCH  11  12
ENDBRANCH   1  11
TORSDOF 9
ENDMDL
MODEL 8
REMARK VINA RESULT:    -1.975      8.362     10.888
REMARK INTER + INTRA:          -6.162
REMARK INTER:                  -2.851
REMARK INTRA:                  -3.311
REMARK UNBOUND:                -3.148
REMARK SMILES CC(=O)CCC=C(C)CCC=C(C)CCC=C(C)C
REMARK SMILES IDX 10 1 11 2 12 3 13 4 14 5 15 6 16 7 18 8 17 9 19 10 9 11 7 12
REMARK SMILES IDX 6 13 8 14 5 15 4 16 2 17 3 18 1 19
REMARK H PARENT
REMARK Flexibility Score: inf
ROOT
ATOM      1  C   UNL     1     109.322  89.125  55.641  1.00  0.00     0.032 C 
ENDROOT
BRANCH   1   2
ATOM      2  C   UNL     1     109.926  88.601  56.922  1.00  0.00    -0.028 C 
ATOM      3  C   UNL     1     109.314  87.751  57.778  1.00  0.00    -0.077 C 
ATOM      4  C   UNL     1     110.090  87.259  58.971  1.00  0.00     0.039 C 
BRANCH   3   5
ATOM      5  C   UNL     1     107.873  87.300  57.606  1.00  0.00     0.034 C 
BRANCH   5   6
ATOM      6  C   UNL     1     107.681  85.833  58.017  1.00  0.00     0.032 C 
BRANCH   6   7
ATOM      7  C   UNL     1     107.798  84.900  56.835  1.00  0.00    -0.028 C 
ATOM      8  C   UNL     1     109.882  83.803  57.689  1.00  0.00     0.039 C 
ATOM      9  C   UNL     1     108.761  83.964  56.688  1.00  0.00    -0.080 C 
ATOM     10  C   UNL     1     108.716  83.072  55.474  1.00  0.00     0.039 C 
ENDBRANCH   6   7
ENDBRANCH   5   6
ENDBRANCH   3   5
ENDBRANCH   1   2
BRANCH   1  11
ATOM     11  C   UNL     1     110.045  88.572  54.403  1.00  0.00     0.034 C 
BRANCH  11  12
ATOM     12  C   UNL     1     109.762  87.094  54.197  1.00  0.00    -0.077 C 
ATOM     13  C   UNL     1     110.688  86.131  54.408  1.00  0.00    -0.028 C 
ATOM     14  C   UNL     1     108.379  86.672  53.772  1.00  0.00     0.039 C 
BRANCH  13  15
ATOM     15  C   UNL     1     112.127  86.387  54.779  1.00  0.00     0.035 C 
BRANCH  15  16
ATOM     16  C   UNL     1     112.403  85.940  56.218  1.00  0.00     0.079 C 
BRANCH  16  17
ATOM     17  C   UNL     1     113.214  86.977  56.950  1.00  0.00     0.130 C 
ATOM     18  O   UNL     1     113.568  86.765  58.099  1.00  0.00    -0.300 OA
ATOM     19  C   UNL     1     113.603  88.269  56.293  1.00  0.00     0.087 C 
ENDBRANCH  16  17
ENDBRANCH  15  16
ENDBRANCH  13  15
ENDBRANCH  11  12
ENDBRANCH   1  11
TORSDOF 9
ENDMDL
MODEL 9
REMARK VINA RESULT:    -1.937     10.311     13.061
REMARK INTER + INTRA:          -6.104
REMARK INTER:                  -3.334
REMARK INTRA:                  -2.770
REMARK UNBOUND:                -3.148
REMARK SMILES CC(=O)CCC=C(C)CCC=C(C)CCC=C(C)C
REMARK SMILES IDX 10 1 11 2 12 3 13 4 14 5 15 6 16 7 18 8 17 9 19 10 9 11 7 12
REMARK SMILES IDX 6 13 8 14 5 15 4 16 2 17 3 18 1 19
REMARK H PARENT
REMARK Flexibility Score: inf
ROOT
ATOM      1  C   UNL     1     109.199  86.341  53.606  1.00  0.00     0.032 C 
ENDROOT
BRANCH   1   2
ATOM      2  C   UNL     1     110.590  86.358  54.193  1.00  0.00    -0.028 C 
ATOM      3  C   UNL     1     111.124  87.385  54.893  1.00  0.00    -0.077 C 
ATOM      4  C   UNL     1     112.499  87.207  55.482  1.00  0.00     0.039 C 
BRANCH   3   5
ATOM      5  C   UNL     1     110.414  88.715  55.081  1.00  0.00     0.034 C 
BRANCH   5   6
ATOM      6  C   UNL     1     110.090  88.986  56.558  1.00  0.00     0.032 C 
BRANCH   6   7
ATOM      7  C   UNL     1     108.926  88.151  57.038  1.00  0.00    -0.028 C 
ATOM      8  C   UNL     1     110.355  86.679  58.475  1.00  0.00     0.039 C 
ATOM      9  C   UNL     1     109.024  87.133  57.921  1.00  0.00    -0.080 C 
ATOM     10  C   UNL     1     107.763  86.426  58.343  1.00  0.00     0.039 C 
ENDBRANCH   6   7
ENDBRANCH   5   6
ENDBRANCH   3   5
ENDBRANCH   1   2
BRANCH   1  11
ATOM     11  C   UNL     1     108.195  85.654  54.543  1.00  0.00     0.034 C 
BRANCH  11  12
ATOM     12  C   UNL     1     106.850  86.362  54.548  1.00  0.00    -0.077 C 
ATOM     13  C   UNL     1     105.701  85.755  54.923  1.00  0.00    -0.028 C 
ATOM     14  C   UNL     1     106.793  87.815  54.152  1.00  0.00     0.039 C 
BRANCH  13  15
ATOM     15  C   UNL     1     105.577  84.298  55.292  1.00  0.00     0.035 C 
BRANCH  15  16
ATOM     16  C   UNL     1     105.178  84.143  56.763  1.00  0.00     0.079 C 
BRANCH  16  17
ATOM     17  C   UNL     1     106.089  83.168  57.461  1.00  0.00     0.130 C 
ATOM     18  O   UNL     1     105.704  82.602  58.473  1.00  0.00    -0.300 OA
ATOM     19  C   UNL     1     107.462  82.870  56.935  1.00  0.00     0.087 C 
ENDBRANCH  16  17
ENDBRANCH  15  16
ENDBRANCH  13  15
ENDBRANCH  11  12
ENDBRANCH   1  11
TORSDOF 9
ENDMDL
