MODEL 1
REMARK VINA RESULT:    -5.398      0.000      0.000
REMARK INTER + INTRA:          -5.398
REMARK INTER:                  -5.398
REMARK INTRA:                   0.000
REMARK UNBOUND:                 0.000
REMARK SMILES CC(C)=C1CC[C@H](C)CC1=O
REMARK SMILES IDX 8 1 7 2 6 3 5 4 4 5 2 6 1 7 3 8 10 9 11 10 9 11
REMARK H PARENT
REMARK Flexibility Score: inf
ROOT
ATOM      1  C   UNL     1      51.536   5.711  20.585  1.00  0.00     0.008 C 
ATOM      2  C   UNL     1      50.487   4.622  20.339  1.00  0.00    -0.006 C 
ATOM      3  C   UNL     1      49.154   5.245  19.893  1.00  0.00     0.008 C 
ATOM      4  C   UNL     1      48.062   4.178  19.739  1.00  0.00     0.039 C 
ATOM      5  C   UNL     1      48.496   3.024  18.846  1.00  0.00    -0.006 C 
ATOM      6  C   UNL     1      47.594   2.347  18.073  1.00  0.00    -0.070 C 
ATOM      7  C   UNL     1      48.022   1.237  17.141  1.00  0.00     0.039 C 
ATOM      8  C   UNL     1      46.126   2.705  18.088  1.00  0.00     0.039 C 
ATOM      9  C   UNL     1      49.926   2.609  18.957  1.00  0.00     0.159 C 
ATOM     10  O   UNL     1      50.275   1.409  18.793  1.00  0.00    -0.295 OA
ATOM     11  C   UNL     1      50.981   3.628  19.277  1.00  0.00     0.084 C 
ENDROOT
TORSDOF 0
ENDMDL
MODEL 2
REMARK VINA RESULT:    -5.213      1.584      4.357
REMARK INTER + INTRA:          -5.213
REMARK INTER:                  -5.213
REMARK INTRA:                   0.000
REMARK UNBOUND:                 0.000
REMARK SMILES CC(C)=C1CC[C@H](C)CC1=O
REMARK SMILES IDX 8 1 7 2 6 3 5 4 4 5 2 6 1 7 3 8 10 9 11 10 9 11
REMARK H PARENT
REMARK Flexibility Score: inf
ROOT
ATOM      1  C   UNL     1      45.745   3.000  18.427  1.00  0.00     0.008 C 
ATOM      2  C   UNL     1      47.148   2.836  19.020  1.00  0.00    -0.006 C 
ATOM      3  C   UNL     1      48.077   2.127  18.021  1.00  0.00     0.008 C 
ATOM      4  C   UNL     1      49.459   1.862  18.635  1.00  0.00     0.039 C 
ATOM      5  C   UNL     1      50.084   3.118  19.226  1.00  0.00    -0.006 C 
ATOM      6  C   UNL     1      51.438   3.302  19.230  1.00  0.00    -0.070 C 
ATOM      7  C   UNL     1      52.067   4.569  19.763  1.00  0.00     0.039 C 
ATOM      8  C   UNL     1      52.372   2.256  18.665  1.00  0.00     0.039 C 
ATOM      9  C   UNL     1      49.145   4.067  19.896  1.00  0.00     0.159 C 
ATOM     10  O   UNL     1      49.509   4.761  20.883  1.00  0.00    -0.295 OA
ATOM     11  C   UNL     1      47.735   4.203  19.401  1.00  0.00     0.084 C 
ENDROOT
TORSDOF 0
ENDMDL
MODEL 3
REMARK VINA RESULT:    -5.202      1.536      2.412
REMARK INTER + INTRA:          -5.202
REMARK INTER:                  -5.202
REMARK INTRA:                   0.000
REMARK UNBOUND:                 0.000
REMARK SMILES CC(C)=C1CC[C@H](C)CC1=O
REMARK SMILES IDX 8 1 7 2 6 3 5 4 4 5 2 6 1 7 3 8 10 9 11 10 9 11
REMARK H PARENT
REMARK Flexibility Score: inf
ROOT
ATOM      1  C   UNL     1      52.104   4.921  20.907  1.00  0.00     0.008 C 
ATOM      2  C   UNL     1      51.002   4.596  19.894  1.00  0.00    -0.006 C 
ATOM      3  C   UNL     1      51.143   3.152  19.385  1.00  0.00     0.008 C 
ATOM      4  C   UNL     1      50.109   2.841  18.294  1.00  0.00     0.039 C 
ATOM      5  C   UNL     1      48.687   3.172  18.727  1.00  0.00    -0.006 C 
ATOM      6  C   UNL     1      47.621   2.450  18.271  1.00  0.00    -0.070 C 
ATOM      7  C   UNL     1      46.211   2.734  18.737  1.00  0.00     0.039 C 
ATOM      8  C   UNL     1      47.807   1.304  17.303  1.00  0.00     0.039 C 
ATOM      9  C   UNL     1      48.526   4.391  19.575  1.00  0.00     0.159 C 
ATOM     10  O   UNL     1      47.488   5.102  19.509  1.00  0.00    -0.295 OA
ATOM     11  C   UNL     1      49.616   4.795  20.525  1.00  0.00     0.084 C 
ENDROOT
TORSDOF 0
ENDMDL
MODEL 4
REMARK VINA RESULT:    -4.895      3.339      4.804
REMARK INTER + INTRA:          -4.895
REMARK INTER:                  -4.895
REMARK INTRA:                   0.000
REMARK UNBOUND:                 0.000
REMARK SMILES CC(C)=C1CC[C@H](C)CC1=O
REMARK SMILES IDX 8 1 7 2 6 3 5 4 4 5 2 6 1 7 3 8 10 9 11 10 9 11
REMARK H PARENT
REMARK Flexibility Score: inf
ROOT
ATOM      1  C   UNL     1      48.277   1.144  18.764  1.00  0.00     0.008 C 
ATOM      2  C   UNL     1      48.795   2.275  17.869  1.00  0.00    -0.006 C 
ATOM      3  C   UNL     1      50.273   2.569  18.171  1.00  0.00     0.008 C 
ATOM      4  C   UNL     1      50.782   3.766  17.356  1.00  0.00     0.039 C 
ATOM      5  C   UNL     1      50.507   3.616  15.866  1.00  0.00    -0.006 C 
ATOM      6  C   UNL     1      51.352   4.145  14.932  1.00  0.00    -0.070 C 
ATOM      7  C   UNL     1      51.119   3.955  13.450  1.00  0.00     0.039 C 
ATOM      8  C   UNL     1      52.585   4.918  15.340  1.00  0.00     0.039 C 
ATOM      9  C   UNL     1      49.213   2.966  15.498  1.00  0.00     0.159 C 
ATOM     10  O   UNL     1      48.592   3.289  14.451  1.00  0.00    -0.295 OA
ATOM     11  C   UNL     1      48.625   1.909  16.388  1.00  0.00     0.084 C 
ENDROOT
TORSDOF 0
ENDMDL
MODEL 5
REMARK VINA RESULT:    -4.761      2.607      3.861
REMARK INTER + INTRA:          -4.761
REMARK INTER:                  -4.761
REMARK INTRA:                   0.000
REMARK UNBOUND:                 0.000
REMARK SMILES CC(C)=C1CC[C@H](C)CC1=O
REMARK SMILES IDX 8 1 7 2 6 3 5 4 4 5 2 6 1 7 3 8 10 9 11 10 9 11
REMARK H PARENT
REMARK Flexibility Score: inf
ROOT
ATOM      1  C   UNL     1      50.766   3.886  13.757  1.00  0.00     0.008 C 
ATOM      2  C   UNL     1      50.538   3.363  15.179  1.00  0.00    -0.006 C 
ATOM      3  C   UNL     1      50.618   4.511  16.197  1.00  0.00     0.008 C 
ATOM      4  C   UNL     1      50.493   3.992  17.636  1.00  0.00     0.039 C 
ATOM      5  C   UNL     1      49.262   3.118  17.835  1.00  0.00    -0.006 C 
ATOM      6  C   UNL     1      48.605   3.080  19.033  1.00  0.00    -0.070 C 
ATOM      7  C   UNL     1      47.350   2.261  19.226  1.00  0.00     0.039 C 
ATOM      8  C   UNL     1      49.085   3.891  20.215  1.00  0.00     0.039 C 
ATOM      9  C   UNL     1      48.895   2.229  16.692  1.00  0.00     0.159 C 
ATOM     10  O   UNL     1      48.355   1.107  16.882  1.00  0.00    -0.295 OA
ATOM     11  C   UNL     1      49.174   2.665  15.283  1.00  0.00     0.084 C 
ENDROOT
TORSDOF 0
ENDMDL
MODEL 6
REMARK VINA RESULT:    -4.610      3.313      4.283
REMARK INTER + INTRA:          -4.610
REMARK INTER:                  -4.610
REMARK INTRA:                   0.000
REMARK UNBOUND:                 0.000
REMARK SMILES CC(C)=C1CC[C@H](C)CC1=O
REMARK SMILES IDX 8 1 7 2 6 3 5 4 4 5 2 6 1 7 3 8 10 9 11 10 9 11
REMARK H PARENT
REMARK Flexibility Score: inf
ROOT
ATOM      1  C   UNL     1      51.295   4.858  13.203  1.00  0.00     0.008 C 
ATOM      2  C   UNL     1      50.472   4.459  14.433  1.00  0.00    -0.006 C 
ATOM      3  C   UNL     1      49.701   3.156  14.168  1.00  0.00     0.008 C 
ATOM      4  C   UNL     1      48.792   2.794  15.351  1.00  0.00     0.039 C 
ATOM      5  C   UNL     1      49.540   2.774  16.677  1.00  0.00    -0.006 C 
ATOM      6  C   UNL     1      49.179   1.922  17.682  1.00  0.00    -0.070 C 
ATOM      7  C   UNL     1      49.949   1.853  18.981  1.00  0.00     0.039 C 
ATOM      8  C   UNL     1      48.009   0.977  17.526  1.00  0.00     0.039 C 
ATOM      9  C   UNL     1      50.602   3.810  16.848  1.00  0.00     0.159 C 
ATOM     10  O   UNL     1      50.861   4.302  17.979  1.00  0.00    -0.295 OA
ATOM     11  C   UNL     1      51.381   4.291  15.658  1.00  0.00     0.084 C 
ENDROOT
TORSDOF 0
ENDMDL
MODEL 7
REMARK VINA RESULT:    -4.585      0.959      4.017
REMARK INTER + INTRA:          -4.585
REMARK INTER:                  -4.585
REMARK INTRA:                   0.000
REMARK UNBOUND:                 0.000
REMARK SMILES CC(C)=C1CC[C@H](C)CC1=O
REMARK SMILES IDX 8 1 7 2 6 3 5 4 4 5 2 6 1 7 3 8 10 9 11 10 9 11
REMARK H PARENT
REMARK Flexibility Score: inf
ROOT
ATOM      1  C   UNL     1      46.237   2.666  18.866  1.00  0.00     0.008 C 
ATOM      2  C   UNL     1      47.662   3.203  18.700  1.00  0.00    -0.006 C 
ATOM      3  C   UNL     1      47.951   4.300  19.738  1.00  0.00     0.008 C 
ATOM      4  C   UNL     1      49.338   4.921  19.522  1.00  0.00     0.039 C 
ATOM      5  C   UNL     1      50.441   3.875  19.453  1.00  0.00    -0.006 C 
ATOM      6  C   UNL     1      51.705   4.146  19.896  1.00  0.00    -0.070 C 
ATOM      7  C   UNL     1      52.794   3.098  19.884  1.00  0.00     0.039 C 
ATOM      8  C   UNL     1      52.064   5.503  20.457  1.00  0.00     0.039 C 
ATOM      9  C   UNL     1      50.090   2.593  18.771  1.00  0.00     0.159 C 
ATOM     10  O   UNL     1      50.951   1.936  18.127  1.00  0.00    -0.295 OA
ATOM     11  C   UNL     1      48.685   2.067  18.838  1.00  0.00     0.084 C 
ENDROOT
TORSDOF 0
ENDMDL
MODEL 8
REMARK VINA RESULT:    -4.443      1.721      2.830
REMARK INTER + INTRA:          -4.443
REMARK INTER:                  -4.443
REMARK INTRA:                   0.000
REMARK UNBOUND:                 0.000
REMARK SMILES CC(C)=C1CC[C@H](C)CC1=O
REMARK SMILES IDX 8 1 7 2 6 3 5 4 4 5 2 6 1 7 3 8 10 9 11 10 9 11
REMARK H PARENT
REMARK Flexibility Score: inf
ROOT
ATOM      1  C   UNL     1      47.289   7.564  19.590  1.00  0.00     0.008 C 
ATOM      2  C   UNL     1      47.795   6.142  19.851  1.00  0.00    -0.006 C 
ATOM      3  C   UNL     1      46.996   5.122  19.023  1.00  0.00     0.008 C 
ATOM      4  C   UNL     1      47.420   3.684  19.348  1.00  0.00     0.039 C 
ATOM      5  C   UNL     1      48.924   3.479  19.233  1.00  0.00    -0.006 C 
ATOM      6  C   UNL     1      49.449   2.279  18.846  1.00  0.00    -0.070 C 
ATOM      7  C   UNL     1      50.938   2.080  18.674  1.00  0.00     0.039 C 
ATOM      8  C   UNL     1      48.559   1.098  18.534  1.00  0.00     0.039 C 
ATOM      9  C   UNL     1      49.778   4.621  19.677  1.00  0.00     0.159 C 
ATOM     10  O   UNL     1      50.910   4.430  20.195  1.00  0.00    -0.295 OA
ATOM     11  C   UNL     1      49.290   6.032  19.515  1.00  0.00     0.084 C 
ENDROOT
TORSDOF 0
ENDMDL
MODEL 9
REMARK VINA RESULT:    -4.312      7.489      8.153
REMARK INTER + INTRA:          -4.312
REMARK INTER:                  -4.312
REMARK INTRA:                   0.000
REMARK UNBOUND:                 0.000
REMARK SMILES CC(C)=C1CC[C@H](C)CC1=O
REMARK SMILES IDX 8 1 7 2 6 3 5 4 4 5 2 6 1 7 3 8 10 9 11 10 9 11
REMARK H PARENT
REMARK Flexibility Score: inf
ROOT
ATOM      1  C   UNL     1      53.192   5.931   8.903  1.00  0.00     0.008 C 
ATOM      2  C   UNL     1      53.086   5.679  10.410  1.00  0.00    -0.006 C 
ATOM      3  C   UNL     1      52.308   6.814  11.096  1.00  0.00     0.008 C 
ATOM      4  C   UNL     1      52.279   6.631  12.619  1.00  0.00     0.039 C 
ATOM      5  C   UNL     1      51.784   5.251  13.031  1.00  0.00    -0.006 C 
ATOM      6  C   UNL     1      51.090   5.064  14.193  1.00  0.00    -0.070 C 
ATOM      7  C   UNL     1      50.546   3.710  14.585  1.00  0.00     0.039 C 
ATOM      8  C   UNL     1      50.801   6.217  15.127  1.00  0.00     0.039 C 
ATOM      9  C   UNL     1      52.203   4.115  12.157  1.00  0.00     0.159 C 
ATOM     10  O   UNL     1      52.404   2.965  12.629  1.00  0.00    -0.295 OA
ATOM     11  C   UNL     1      52.398   4.333  10.684  1.00  0.00     0.084 C 
ENDROOT
TORSDOF 0
ENDMDL
