MODEL 1
REMARK VINA RESULT:    -5.920      0.000      0.000
REMARK INTER + INTRA:          -7.726
REMARK INTER:                  -7.477
REMARK INTRA:                  -0.249
REMARK UNBOUND:                -0.249
REMARK SMILES CC(C)=CCCC(C)=CCO
REMARK SMILES IDX 7 1 9 2 8 3 6 4 5 5 4 6 1 7 2 8 3 9 10 10 11 11
REMARK H PARENT 11 12
REMARK Flexibility Score: inf
ROOT
ATOM      1  C   UNL     1     -14.017   3.829 -20.381  1.00  0.00    -0.075 C 
ATOM      2  C   UNL     1     -13.780   2.538 -20.700  1.00  0.00    -0.000 C 
ATOM      3  C   UNL     1     -13.280   4.904 -21.137  1.00  0.00     0.039 C 
ENDROOT
BRANCH   1   4
ATOM      4  C   UNL     1     -14.947   4.239 -19.256  1.00  0.00     0.034 C 
BRANCH   4   5
ATOM      5  C   UNL     1     -14.834   5.742 -18.982  1.00  0.00     0.032 C 
BRANCH   5   6
ATOM      6  C   UNL     1     -15.512   6.102 -17.683  1.00  0.00    -0.028 C 
ATOM      7  C   UNL     1     -14.722   8.477 -17.742  1.00  0.00     0.039 C 
ATOM      8  C   UNL     1     -15.497   7.336 -17.131  1.00  0.00    -0.080 C 
ATOM      9  C   UNL     1     -16.234   7.590 -15.842  1.00  0.00     0.039 C 
ENDBRANCH   5   6
ENDBRANCH   4   5
ENDBRANCH   1   4
BRANCH   2  10
ATOM     10  C   UNL     1     -14.438   1.370 -20.015  1.00  0.00     0.183 C 
BRANCH  10  11
ATOM     11  O   UNL     1     -13.624   0.922 -18.968  1.00  0.00    -0.392 OA
ATOM     12  H   UNL     1     -14.057   0.101 -18.615  1.00  0.00     0.210 HD
ENDBRANCH  10  11
ENDBRANCH   2  10
TORSDOF 5
ENDMDL
MODEL 2
REMARK VINA RESULT:    -5.884      3.354      6.579
REMARK INTER + INTRA:          -7.680
REMARK INTER:                  -7.524
REMARK INTRA:                  -0.156
REMARK UNBOUND:                -0.249
REMARK SMILES CC(C)=CCCC(C)=CCO
REMARK SMILES IDX 7 1 9 2 8 3 6 4 5 5 4 6 1 7 2 8 3 9 10 10 11 11
REMARK H PARENT 11 12
REMARK Flexibility Score: inf
ROOT
ATOM      1  C   UNL     1     -15.596   7.794 -15.046  1.00  0.00    -0.075 C 
ATOM      2  C   UNL     1     -15.209   8.813 -14.247  1.00  0.00    -0.000 C 
ATOM      3  C   UNL     1     -15.926   6.468 -14.411  1.00  0.00     0.039 C 
ENDROOT
BRANCH   1   4
ATOM      4  C   UNL     1     -15.654   7.912 -16.556  1.00  0.00     0.034 C 
BRANCH   4   5
ATOM      5  C   UNL     1     -15.842   6.534 -17.199  1.00  0.00     0.032 C 
BRANCH   5   6
ATOM      6  C   UNL     1     -14.863   6.332 -18.329  1.00  0.00    -0.028 C 
ATOM      7  C   UNL     1     -15.780   4.082 -18.934  1.00  0.00     0.039 C 
ATOM      8  C   UNL     1     -14.845   5.248 -19.138  1.00  0.00    -0.080 C 
ATOM      9  C   UNL     1     -13.839   5.164 -20.257  1.00  0.00     0.039 C 
ENDBRANCH   5   6
ENDBRANCH   4   5
ENDBRANCH   1   4
BRANCH   2  10
ATOM     10  C   UNL     1     -14.838  10.181 -14.753  1.00  0.00     0.183 C 
BRANCH  10  11
ATOM     11  O   UNL     1     -13.594  10.124 -15.392  1.00  0.00    -0.392 OA
ATOM     12  H   UNL     1     -12.941   9.849 -14.697  1.00  0.00     0.210 HD
ENDBRANCH  10  11
ENDBRANCH   2  10
TORSDOF 5
ENDMDL
MODEL 3
REMARK VINA RESULT:    -5.757      2.489      5.686
REMARK INTER + INTRA:          -7.521
REMARK INTER:                  -7.271
REMARK INTRA:                  -0.249
REMARK UNBOUND:                -0.249
REMARK SMILES CC(C)=CCCC(C)=CCO
REMARK SMILES IDX 7 1 9 2 8 3 6 4 5 5 4 6 1 7 2 8 3 9 10 10 11 11
REMARK H PARENT 11 12
REMARK Flexibility Score: inf
ROOT
ATOM      1  C   UNL     1     -15.481   7.537 -17.149  1.00  0.00    -0.075 C 
ATOM      2  C   UNL     1     -15.792   8.113 -15.967  1.00  0.00    -0.000 C 
ATOM      3  C   UNL     1     -14.993   8.416 -18.271  1.00  0.00     0.039 C 
ENDROOT
BRANCH   1   4
ATOM      4  C   UNL     1     -15.660   6.056 -17.412  1.00  0.00     0.034 C 
BRANCH   4   5
ATOM      5  C   UNL     1     -15.134   5.686 -18.803  1.00  0.00     0.032 C 
BRANCH   5   6
ATOM      6  C   UNL     1     -15.184   4.192 -19.014  1.00  0.00    -0.028 C 
ATOM      7  C   UNL     1     -13.659   4.261 -20.999  1.00  0.00     0.039 C 
ATOM      8  C   UNL     1     -14.499   3.536 -19.978  1.00  0.00    -0.080 C 
ATOM      9  C   UNL     1     -14.600   2.036 -20.080  1.00  0.00     0.039 C 
ENDBRANCH   5   6
ENDBRANCH   4   5
ENDBRANCH   1   4
BRANCH   2  10
ATOM     10  C   UNL     1     -16.302   7.354 -14.772  1.00  0.00     0.183 C 
BRANCH  10  11
ATOM     11  O   UNL     1     -15.224   6.965 -13.968  1.00  0.00    -0.392 OA
ATOM     12  H   UNL     1     -15.593   6.845 -13.054  1.00  0.00     0.210 HD
ENDBRANCH  10  11
ENDBRANCH   2  10
TORSDOF 5
ENDMDL
MODEL 4
REMARK VINA RESULT:    -5.696      1.966      2.691
REMARK INTER + INTRA:          -7.443
REMARK INTER:                  -7.203
REMARK INTRA:                  -0.240
REMARK UNBOUND:                -0.249
REMARK SMILES CC(C)=CCCC(C)=CCO
REMARK SMILES IDX 7 1 9 2 8 3 6 4 5 5 4 6 1 7 2 8 3 9 10 10 11 11
REMARK H PARENT 11 12
REMARK Flexibility Score: inf
ROOT
ATOM      1  C   UNL     1     -13.965   2.718 -20.703  1.00  0.00    -0.075 C 
ATOM      2  C   UNL     1     -13.360   3.453 -21.662  1.00  0.00    -0.000 C 
ATOM      3  C   UNL     1     -14.369   1.303 -21.029  1.00  0.00     0.039 C 
ENDROOT
BRANCH   1   4
ATOM      4  C   UNL     1     -14.309   3.276 -19.336  1.00  0.00     0.034 C 
BRANCH   4   5
ATOM      5  C   UNL     1     -15.583   4.125 -19.404  1.00  0.00     0.032 C 
BRANCH   5   6
ATOM      6  C   UNL     1     -15.866   4.772 -18.070  1.00  0.00    -0.028 C 
ATOM      7  C   UNL     1     -14.722   6.913 -18.687  1.00  0.00     0.039 C 
ATOM      8  C   UNL     1     -15.512   6.037 -17.748  1.00  0.00    -0.080 C 
ATOM      9  C   UNL     1     -15.872   6.593 -16.394  1.00  0.00     0.039 C 
ENDBRANCH   5   6
ENDBRANCH   4   5
ENDBRANCH   1   4
BRANCH   2  10
ATOM     10  C   UNL     1     -12.920   4.880 -21.472  1.00  0.00     0.183 C 
BRANCH  10  11
ATOM     11  O   UNL     1     -11.789   5.131 -22.258  1.00  0.00    -0.392 OA
ATOM     12  H   UNL     1     -11.948   6.007 -22.697  1.00  0.00     0.210 HD
ENDBRANCH  10  11
ENDBRANCH   2  10
TORSDOF 5
ENDMDL
MODEL 5
REMARK VINA RESULT:    -5.602      2.633      4.509
REMARK INTER + INTRA:          -7.325
REMARK INTER:                  -7.008
REMARK INTRA:                  -0.317
REMARK UNBOUND:                -0.249
REMARK SMILES CC(C)=CCCC(C)=CCO
REMARK SMILES IDX 7 1 9 2 8 3 6 4 5 5 4 6 1 7 2 8 3 9 10 10 11 11
REMARK H PARENT 11 12
REMARK Flexibility Score: inf
ROOT
ATOM      1  C   UNL     1     -15.123   7.385 -17.557  1.00  0.00    -0.075 C 
ATOM      2  C   UNL     1     -14.862   6.452 -18.499  1.00  0.00    -0.000 C 
ATOM      3  C   UNL     1     -14.386   8.698 -17.622  1.00  0.00     0.039 C 
ENDROOT
BRANCH   1   4
ATOM      4  C   UNL     1     -16.079   7.144 -16.406  1.00  0.00     0.034 C 
BRANCH   4   5
ATOM      5  C   UNL     1     -15.673   7.973 -15.184  1.00  0.00     0.032 C 
BRANCH   5   6
ATOM      6  C   UNL     1     -16.777   8.923 -14.791  1.00  0.00    -0.028 C 
ATOM      7  C   UNL     1     -15.248  10.413 -13.482  1.00  0.00     0.039 C 
ATOM      8  C   UNL     1     -16.593  10.042 -14.053  1.00  0.00    -0.080 C 
ATOM      9  C   UNL     1     -17.766  10.936 -13.743  1.00  0.00     0.039 C 
ENDBRANCH   5   6
ENDBRANCH   4   5
ENDBRANCH   1   4
BRANCH   2  10
ATOM     10  C   UNL     1     -15.517   5.098 -18.542  1.00  0.00     0.183 C 
BRANCH  10  11
ATOM     11  O   UNL     1     -15.929   4.817 -19.850  1.00  0.00    -0.392 OA
ATOM     12  H   UNL     1     -16.140   5.693 -20.266  1.00  0.00     0.210 HD
ENDBRANCH  10  11
ENDBRANCH   2  10
TORSDOF 5
ENDMDL
MODEL 6
REMARK VINA RESULT:    -5.561      2.592      5.693
REMARK INTER + INTRA:          -7.272
REMARK INTER:                  -6.797
REMARK INTRA:                  -0.476
REMARK UNBOUND:                -0.249
REMARK SMILES CC(C)=CCCC(C)=CCO
REMARK SMILES IDX 7 1 9 2 8 3 6 4 5 5 4 6 1 7 2 8 3 9 10 10 11 11
REMARK H PARENT 11 12
REMARK Flexibility Score: inf
ROOT
ATOM      1  C   UNL     1     -15.445   5.239 -18.769  1.00  0.00    -0.075 C 
ATOM      2  C   UNL     1     -15.498   6.135 -17.759  1.00  0.00    -0.000 C 
ATOM      3  C   UNL     1     -16.271   3.983 -18.660  1.00  0.00     0.039 C 
ENDROOT
BRANCH   1   4
ATOM      4  C   UNL     1     -14.546   5.414 -19.976  1.00  0.00     0.034 C 
BRANCH   4   5
ATOM      5  C   UNL     1     -13.411   4.385 -19.959  1.00  0.00     0.032 C 
BRANCH   5   6
ATOM      6  C   UNL     1     -13.668   3.289 -20.964  1.00  0.00    -0.028 C 
ATOM      7  C   UNL     1     -13.706   1.486 -19.226  1.00  0.00     0.039 C 
ATOM      8  C   UNL     1     -13.835   1.985 -20.643  1.00  0.00    -0.080 C 
ATOM      9  C   UNL     1     -14.116   0.977 -21.728  1.00  0.00     0.039 C 
ENDBRANCH   5   6
ENDBRANCH   4   5
ENDBRANCH   1   4
BRANCH   2  10
ATOM     10  C   UNL     1     -14.714   7.420 -17.737  1.00  0.00     0.183 C 
BRANCH  10  11
ATOM     11  O   UNL     1     -15.436   8.422 -18.397  1.00  0.00    -0.392 OA
ATOM     12  H   UNL     1     -14.761   9.055 -18.756  1.00  0.00     0.210 HD
ENDBRANCH  10  11
ENDBRANCH   2  10
TORSDOF 5
ENDMDL
MODEL 7
REMARK VINA RESULT:    -5.510      2.038      3.025
REMARK INTER + INTRA:          -7.208
REMARK INTER:                  -6.992
REMARK INTRA:                  -0.216
REMARK UNBOUND:                -0.249
REMARK SMILES CC(C)=CCCC(C)=CCO
REMARK SMILES IDX 7 1 9 2 8 3 6 4 5 5 4 6 1 7 2 8 3 9 10 10 11 11
REMARK H PARENT 11 12
REMARK Flexibility Score: inf
ROOT
ATOM      1  C   UNL     1     -14.920   4.945 -19.309  1.00  0.00    -0.075 C 
ATOM      2  C   UNL     1     -14.078   4.568 -20.296  1.00  0.00    -0.000 C 
ATOM      3  C   UNL     1     -16.054   4.024 -18.939  1.00  0.00     0.039 C 
ENDROOT
BRANCH   1   4
ATOM      4  C   UNL     1     -14.808   6.281 -18.601  1.00  0.00     0.034 C 
BRANCH   4   5
ATOM      5  C   UNL     1     -15.719   6.318 -17.370  1.00  0.00     0.032 C 
BRANCH   5   6
ATOM      6  C   UNL     1     -15.617   7.650 -16.668  1.00  0.00    -0.028 C 
ATOM      7  C   UNL     1     -15.944   6.657 -14.392  1.00  0.00     0.039 C 
ATOM      8  C   UNL     1     -15.684   7.812 -15.327  1.00  0.00    -0.080 C 
ATOM      9  C   UNL     1     -15.540   9.189 -14.731  1.00  0.00     0.039 C 
ENDBRANCH   5   6
ENDBRANCH   4   5
ENDBRANCH   1   4
BRANCH   2  10
ATOM     10  C   UNL     1     -12.917   5.399 -20.771  1.00  0.00     0.183 C 
BRANCH  10  11
ATOM     11  O   UNL     1     -12.322   4.784 -21.880  1.00  0.00    -0.392 OA
ATOM     12  H   UNL     1     -11.342   4.853 -21.740  1.00  0.00     0.210 HD
ENDBRANCH  10  11
ENDBRANCH   2  10
TORSDOF 5
ENDMDL
MODEL 8
REMARK VINA RESULT:    -4.934      1.661      3.246
REMARK INTER + INTRA:          -6.481
REMARK INTER:                  -5.886
REMARK INTRA:                  -0.595
REMARK UNBOUND:                -0.249
REMARK SMILES CC(C)=CCCC(C)=CCO
REMARK SMILES IDX 7 1 9 2 8 3 6 4 5 5 4 6 1 7 2 8 3 9 10 10 11 11
REMARK H PARENT 11 12
REMARK Flexibility Score: inf
ROOT
ATOM      1  C   UNL     1     -13.831   1.328 -20.972  1.00  0.00    -0.075 C 
ATOM      2  C   UNL     1     -14.045   0.717 -19.786  1.00  0.00    -0.000 C 
ATOM      3  C   UNL     1     -14.324   0.655 -22.226  1.00  0.00     0.039 C 
ENDROOT
BRANCH   1   4
ATOM      4  C   UNL     1     -13.065   2.629 -21.098  1.00  0.00     0.034 C 
BRANCH   4   5
ATOM      5  C   UNL     1     -13.995   3.763 -21.541  1.00  0.00     0.032 C 
BRANCH   5   6
ATOM      6  C   UNL     1     -13.943   4.911 -20.563  1.00  0.00    -0.028 C 
ATOM      7  C   UNL     1     -15.899   4.081 -19.238  1.00  0.00     0.039 C 
ATOM      8  C   UNL     1     -14.773   5.048 -19.504  1.00  0.00    -0.080 C 
ATOM      9  C   UNL     1     -14.612   6.222 -18.573  1.00  0.00     0.039 C 
ENDBRANCH   5   6
ENDBRANCH   4   5
ENDBRANCH   1   4
BRANCH   2  10
ATOM     10  C   UNL     1     -13.592   1.274 -18.462  1.00  0.00     0.183 C 
BRANCH  10  11
ATOM     11  O   UNL     1     -12.770   0.342 -17.818  1.00  0.00    -0.392 OA
ATOM     12  H   UNL     1     -12.071   0.090 -18.476  1.00  0.00     0.210 HD
ENDBRANCH  10  11
ENDBRANCH   2  10
TORSDOF 5
ENDMDL
MODEL 9
REMARK VINA RESULT:    -4.705      8.449      9.409
REMARK INTER + INTRA:          -6.191
REMARK INTER:                  -5.769
REMARK INTRA:                  -0.423
REMARK UNBOUND:                -0.249
REMARK SMILES CC(C)=CCCC(C)=CCO
REMARK SMILES IDX 7 1 9 2 8 3 6 4 5 5 4 6 1 7 2 8 3 9 10 10 11 11
REMARK H PARENT 11 12
REMARK Flexibility Score: inf
ROOT
ATOM      1  C   UNL     1     -20.680  -0.907 -15.486  1.00  0.00    -0.075 C 
ATOM      2  C   UNL     1     -19.940  -1.741 -16.248  1.00  0.00    -0.000 C 
ATOM      3  C   UNL     1     -20.870  -1.240 -14.029  1.00  0.00     0.039 C 
ENDROOT
BRANCH   1   4
ATOM      4  C   UNL     1     -21.378   0.316 -16.048  1.00  0.00     0.034 C 
BRANCH   4   5
ATOM      5  C   UNL     1     -22.870   0.293 -15.704  1.00  0.00     0.032 C 
BRANCH   5   6
ATOM      6  C   UNL     1     -23.356   1.674 -15.335  1.00  0.00    -0.028 C 
ATOM      7  C   UNL     1     -23.102   1.281 -12.875  1.00  0.00     0.039 C 
ATOM      8  C   UNL     1     -23.434   2.142 -14.068  1.00  0.00    -0.080 C 
ATOM      9  C   UNL     1     -23.906   3.550 -13.818  1.00  0.00     0.039 C 
ENDBRANCH   5   6
ENDBRANCH   4   5
ENDBRANCH   1   4
BRANCH   2  10
ATOM     10  C   UNL     1     -19.685  -1.532 -17.717  1.00  0.00     0.183 C 
BRANCH  10  11
ATOM     11  O   UNL     1     -18.647  -2.372 -18.138  1.00  0.00    -0.392 OA
ATOM     12  H   UNL     1     -19.030  -2.945 -18.852  1.00  0.00     0.210 HD
ENDBRANCH  10  11
ENDBRANCH   2  10
TORSDOF 5
ENDMDL
