MODEL 1
REMARK VINA RESULT:    -6.291      0.000      0.000
REMARK INTER + INTRA:          -7.938
REMARK INTER:                  -7.578
REMARK INTRA:                  -0.360
REMARK UNBOUND:                -0.360
REMARK SMILES Oc1cc(O)c2c(c1)O[C@@H](c1ccc(O)c(O)c1)[C@H](O)C2
REMARK SMILES IDX 21 1 19 2 10 3 9 4 7 5 8 6 2 7 3 8 4 9 6 10 20 11 11 13
REMARK SMILES IDX 18 14 12 15 16 16 13 17 14 18 17 19 15 21 5 23 1 25
REMARK H PARENT 20 12 17 20 15 22 5 24 1 26
REMARK Flexibility Score: inf
ROOT
ATOM      1  C   UNL     1      17.246  -1.310 -14.952  1.00  0.00     0.079 C 
ATOM      2  C   UNL     1      17.842  -0.703 -16.236  1.00  0.00     0.164 C 
ATOM      3  C   UNL     1      19.132  -1.449 -16.616  1.00  0.00     0.232 C 
ATOM      4  O   UNL     1      18.860  -2.842 -16.764  1.00  0.00    -0.482 OA
ATOM      5  C   UNL     1      17.981  -3.526 -15.918  1.00  0.00     0.131 A 
ATOM      6  C   UNL     1      17.907  -4.919 -16.000  1.00  0.00     0.093 A 
ATOM      7  C   UNL     1      17.050  -5.630 -15.157  1.00  0.00     0.122 A 
ATOM      8  C   UNL     1      16.270  -4.944 -14.220  1.00  0.00     0.092 A 
ATOM      9  C   UNL     1      16.332  -3.549 -14.123  1.00  0.00     0.126 A 
ATOM     10  C   UNL     1      17.166  -2.820 -15.005  1.00  0.00     0.039 A 
ENDROOT
BRANCH   2  11
ATOM     11  O   UNL     1      18.122   0.658 -16.033  1.00  0.00    -0.389 OA
ATOM     12  H   UNL     1      19.110   0.748 -16.021  1.00  0.00     0.211 HD
ENDBRANCH   2  11
BRANCH   3  13
ATOM     13  C   UNL     1      19.718  -0.907 -17.898  1.00  0.00    -0.001 A 
ATOM     14  C   UNL     1      20.944  -0.220 -17.882  1.00  0.00     0.057 A 
ATOM     15  C   UNL     1      19.024  -1.040 -19.113  1.00  0.00     0.012 A 
ATOM     16  C   UNL     1      21.480   0.309 -19.065  1.00  0.00     0.157 A 
ATOM     17  C   UNL     1      19.557  -0.513 -20.293  1.00  0.00     0.050 A 
ATOM     18  C   UNL     1      20.783   0.160 -20.276  1.00  0.00     0.157 A 
BRANCH  16  19
ATOM     19  O   UNL     1      22.700   0.984 -19.041  1.00  0.00    -0.504 OA
ATOM     20  H   UNL     1      22.970   1.619 -19.782  1.00  0.00     0.293 HD
ENDBRANCH  16  19
BRANCH  18  21
ATOM     21  O   UNL     1      21.290   0.674 -21.468  1.00  0.00    -0.504 OA
ATOM     22  H   UNL     1      22.216   1.079 -21.530  1.00  0.00     0.293 HD
ENDBRANCH  18  21
ENDBRANCH   3  13
BRANCH   9  23
ATOM     23  O   UNL     1      15.564  -2.924 -13.138  1.00  0.00    -0.507 OA
ATOM     24  H   UNL     1      14.591  -3.143 -12.970  1.00  0.00     0.293 HD
ENDBRANCH   9  23
BRANCH   7  25
ATOM     25  O   UNL     1      16.987  -7.018 -15.254  1.00  0.00    -0.508 OA
ATOM     26  H   UNL     1      17.769  -7.604 -14.987  1.00  0.00     0.293 HD
ENDBRANCH   7  25
TORSDOF 6
ENDMDL
MODEL 2
REMARK VINA RESULT:    -5.937      8.966     12.451
REMARK INTER + INTRA:          -7.512
REMARK INTER:                  -7.165
REMARK INTRA:                  -0.347
REMARK UNBOUND:                -0.360
REMARK SMILES Oc1cc(O)c2c(c1)O[C@@H](c1ccc(O)c(O)c1)[C@H](O)C2
REMARK SMILES IDX 21 1 19 2 10 3 9 4 7 5 8 6 2 7 3 8 4 9 6 10 20 11 11 13
REMARK SMILES IDX 18 14 12 15 16 16 13 17 14 18 17 19 15 21 5 23 1 25
REMARK H PARENT 20 12 17 20 15 22 5 24 1 26
REMARK Flexibility Score: inf
ROOT
ATOM      1  C   UNL     1       8.181  -5.172  -9.793  1.00  0.00     0.079 C 
ATOM      2  C   UNL     1       9.222  -6.072 -10.486  1.00  0.00     0.164 C 
ATOM      3  C   UNL     1      10.634  -5.713  -9.994  1.00  0.00     0.232 C 
ATOM      4  O   UNL     1      10.695  -5.830  -8.573  1.00  0.00    -0.482 OA
ATOM      5  C   UNL     1       9.638  -5.439  -7.745  1.00  0.00     0.131 A 
ATOM      6  C   UNL     1       9.837  -5.403  -6.363  1.00  0.00     0.093 A 
ATOM      7  C   UNL     1       8.804  -5.002  -5.512  1.00  0.00     0.122 A 
ATOM      8  C   UNL     1       7.568  -4.625  -6.048  1.00  0.00     0.092 A 
ATOM      9  C   UNL     1       7.351  -4.654  -7.431  1.00  0.00     0.126 A 
ATOM     10  C   UNL     1       8.381  -5.102  -8.294  1.00  0.00     0.039 A 
ENDROOT
BRANCH   2  11
ATOM     11  O   UNL     1       9.146  -5.900 -11.878  1.00  0.00    -0.389 OA
ATOM     12  H   UNL     1       8.560  -5.115 -12.038  1.00  0.00     0.211 HD
ENDBRANCH   2  11
BRANCH   3  13
ATOM     13  C   UNL     1      11.675  -6.609 -10.622  1.00  0.00    -0.001 A 
ATOM     14  C   UNL     1      12.759  -6.052 -11.323  1.00  0.00     0.057 A 
ATOM     15  C   UNL     1      11.548  -8.006 -10.557  1.00  0.00     0.012 A 
ATOM     16  C   UNL     1      13.714  -6.880 -11.931  1.00  0.00     0.157 A 
ATOM     17  C   UNL     1      12.498  -8.832 -11.163  1.00  0.00     0.050 A 
ATOM     18  C   UNL     1      13.583  -8.277 -11.849  1.00  0.00     0.157 A 
BRANCH  16  19
ATOM     19  O   UNL     1      14.789  -6.319 -12.619  1.00  0.00    -0.504 OA
ATOM     20  H   UNL     1      15.747  -6.509 -12.351  1.00  0.00     0.293 HD
ENDBRANCH  16  19
BRANCH  18  21
ATOM     21  O   UNL     1      14.516  -9.125 -12.443  1.00  0.00    -0.504 OA
ATOM     22  H   UNL     1      15.458  -9.225 -12.084  1.00  0.00     0.293 HD
ENDBRANCH  18  21
ENDBRANCH   3  13
BRANCH   9  23
ATOM     23  O   UNL     1       6.112  -4.223  -7.911  1.00  0.00    -0.507 OA
ATOM     24  H   UNL     1       5.991  -3.383  -8.459  1.00  0.00     0.293 HD
ENDBRANCH   9  23
BRANCH   7  25
ATOM     25  O   UNL     1       9.020  -4.974  -4.136  1.00  0.00    -0.508 OA
ATOM     26  H   UNL     1       9.240  -5.815  -3.616  1.00  0.00     0.293 HD
ENDBRANCH   7  25
TORSDOF 6
ENDMDL
MODEL 3
REMARK VINA RESULT:    -5.839     15.938     17.968
REMARK INTER + INTRA:          -7.393
REMARK INTER:                  -7.043
REMARK INTRA:                  -0.350
REMARK UNBOUND:                -0.360
REMARK SMILES Oc1cc(O)c2c(c1)O[C@@H](c1ccc(O)c(O)c1)[C@H](O)C2
REMARK SMILES IDX 21 1 19 2 10 3 9 4 7 5 8 6 2 7 3 8 4 9 6 10 20 11 11 13
REMARK SMILES IDX 18 14 12 15 16 16 13 17 14 18 17 19 15 21 5 23 1 25
REMARK H PARENT 20 12 17 20 15 22 5 24 1 26
REMARK Flexibility Score: inf
ROOT
ATOM      1  C   UNL     1       4.525   8.128 -11.802  1.00  0.00     0.079 C 
ATOM      2  C   UNL     1       5.005   7.307 -10.590  1.00  0.00     0.164 C 
ATOM      3  C   UNL     1       4.178   6.016 -10.472  1.00  0.00     0.232 C 
ATOM      4  O   UNL     1       4.268   5.272 -11.686  1.00  0.00    -0.482 OA
ATOM      5  C   UNL     1       4.271   5.887 -12.942  1.00  0.00     0.131 A 
ATOM      6  C   UNL     1       4.170   5.093 -14.087  1.00  0.00     0.093 A 
ATOM      7  C   UNL     1       4.156   5.680 -15.354  1.00  0.00     0.122 A 
ATOM      8  C   UNL     1       4.232   7.072 -15.476  1.00  0.00     0.092 A 
ATOM      9  C   UNL     1       4.332   7.884 -14.339  1.00  0.00     0.126 A 
ATOM     10  C   UNL     1       4.392   7.290 -13.055  1.00  0.00     0.039 A 
ENDROOT
BRANCH   2  11
ATOM     11  O   UNL     1       4.868   8.067  -9.417  1.00  0.00    -0.389 OA
ATOM     12  H   UNL     1       4.757   9.011  -9.700  1.00  0.00     0.211 HD
ENDBRANCH   2  11
BRANCH   3  13
ATOM     13  C   UNL     1       4.654   5.165  -9.318  1.00  0.00    -0.001 A 
ATOM     14  C   UNL     1       5.858   4.449  -9.417  1.00  0.00     0.057 A 
ATOM     15  C   UNL     1       3.876   5.041  -8.155  1.00  0.00     0.012 A 
ATOM     16  C   UNL     1       6.291   3.635  -8.359  1.00  0.00     0.157 A 
ATOM     17  C   UNL     1       4.305   4.230  -7.101  1.00  0.00     0.050 A 
ATOM     18  C   UNL     1       5.511   3.528  -7.195  1.00  0.00     0.157 A 
BRANCH  16  19
ATOM     19  O   UNL     1       7.491   2.932  -8.462  1.00  0.00    -0.504 OA
ATOM     20  H   UNL     1       7.512   1.920  -8.488  1.00  0.00     0.293 HD
ENDBRANCH  16  19
BRANCH  18  21
ATOM     21  O   UNL     1       5.915   2.728  -6.128  1.00  0.00    -0.504 OA
ATOM     22  H   UNL     1       6.882   2.672  -5.831  1.00  0.00     0.293 HD
ENDBRANCH  18  21
ENDBRANCH   3  13
BRANCH   9  23
ATOM     23  O   UNL     1       4.360   9.268 -14.521  1.00  0.00    -0.507 OA
ATOM     24  H   UNL     1       4.941   9.726 -15.211  1.00  0.00     0.293 HD
ENDBRANCH   9  23
BRANCH   7  25
ATOM     25  O   UNL     1       4.056   4.873 -16.485  1.00  0.00    -0.508 OA
ATOM     26  H   UNL     1       3.623   5.206 -17.337  1.00  0.00     0.293 HD
ENDBRANCH   7  25
TORSDOF 6
ENDMDL
MODEL 4
REMARK VINA RESULT:    -5.836      1.321      2.748
REMARK INTER + INTRA:          -7.390
REMARK INTER:                  -7.068
REMARK INTRA:                  -0.323
REMARK UNBOUND:                -0.360
REMARK SMILES Oc1cc(O)c2c(c1)O[C@@H](c1ccc(O)c(O)c1)[C@H](O)C2
REMARK SMILES IDX 21 1 19 2 10 3 9 4 7 5 8 6 2 7 3 8 4 9 6 10 20 11 11 13
REMARK SMILES IDX 18 14 12 15 16 16 13 17 14 18 17 19 15 21 5 23 1 25
REMARK H PARENT 20 12 17 20 15 22 5 24 1 26
REMARK Flexibility Score: inf
ROOT
ATOM      1  C   UNL     1      18.458  -4.655 -17.277  1.00  0.00     0.079 C 
ATOM      2  C   UNL     1      19.379  -3.714 -18.076  1.00  0.00     0.164 C 
ATOM      3  C   UNL     1      18.789  -2.295 -18.094  1.00  0.00     0.232 C 
ATOM      4  O   UNL     1      18.594  -1.835 -16.757  1.00  0.00    -0.482 OA
ATOM      5  C   UNL     1      18.140  -2.677 -15.737  1.00  0.00     0.131 A 
ATOM      6  C   UNL     1      17.792  -2.120 -14.503  1.00  0.00     0.093 A 
ATOM      7  C   UNL     1      17.321  -2.933 -13.470  1.00  0.00     0.122 A 
ATOM      8  C   UNL     1      17.188  -4.311 -13.676  1.00  0.00     0.092 A 
ATOM      9  C   UNL     1      17.531  -4.886 -14.905  1.00  0.00     0.126 A 
ATOM     10  C   UNL     1      18.051  -4.071 -15.940  1.00  0.00     0.039 A 
ENDROOT
BRANCH   2  11
ATOM     11  O   UNL     1      19.516  -4.189 -19.391  1.00  0.00    -0.389 OA
ATOM     12  H   UNL     1      19.109  -5.093 -19.413  1.00  0.00     0.211 HD
ENDBRANCH   2  11
BRANCH   3  13
ATOM     13  C   UNL     1      19.693  -1.337 -18.833  1.00  0.00    -0.001 A 
ATOM     14  C   UNL     1      20.835  -0.812 -18.204  1.00  0.00     0.057 A 
ATOM     15  C   UNL     1      19.378  -0.921 -20.137  1.00  0.00     0.012 A 
ATOM     16  C   UNL     1      21.662   0.100 -18.876  1.00  0.00     0.157 A 
ATOM     17  C   UNL     1      20.202  -0.013 -20.809  1.00  0.00     0.050 A 
ATOM     18  C   UNL     1      21.344   0.500 -20.185  1.00  0.00     0.157 A 
BRANCH  16  19
ATOM     19  O   UNL     1      22.796   0.612 -18.246  1.00  0.00    -0.504 OA
ATOM     20  H   UNL     1      23.273   0.099 -17.514  1.00  0.00     0.293 HD
ENDBRANCH  16  19
BRANCH  18  21
ATOM     21  O   UNL     1      22.147   1.403 -20.879  1.00  0.00    -0.504 OA
ATOM     22  H   UNL     1      22.890   1.922 -20.425  1.00  0.00     0.293 HD
ENDBRANCH  18  21
ENDBRANCH   3  13
BRANCH   9  23
ATOM     23  O   UNL     1      17.335  -6.259 -15.066  1.00  0.00    -0.507 OA
ATOM     24  H   UNL     1      16.709  -6.654 -15.756  1.00  0.00     0.293 HD
ENDBRANCH   9  23
BRANCH   7  25
ATOM     25  O   UNL     1      16.980  -2.362 -12.247  1.00  0.00    -0.508 OA
ATOM     26  H   UNL     1      17.656  -1.850 -11.693  1.00  0.00     0.293 HD
ENDBRANCH   7  25
TORSDOF 6
ENDMDL
MODEL 5
REMARK VINA RESULT:    -5.773      6.865      9.182
REMARK INTER + INTRA:          -7.314
REMARK INTER:                  -6.959
REMARK INTRA:                  -0.355
REMARK UNBOUND:                -0.360
REMARK SMILES Oc1cc(O)c2c(c1)O[C@@H](c1ccc(O)c(O)c1)[C@H](O)C2
REMARK SMILES IDX 21 1 19 2 10 3 9 4 7 5 8 6 2 7 3 8 4 9 6 10 20 11 11 13
REMARK SMILES IDX 18 14 12 15 16 16 13 17 14 18 17 19 15 21 5 23 1 25
REMARK H PARENT 20 12 17 20 15 22 5 24 1 26
REMARK Flexibility Score: inf
ROOT
ATOM      1  C   UNL     1      16.344  -0.699  -9.686  1.00  0.00     0.079 C 
ATOM      2  C   UNL     1      17.667  -0.794  -8.902  1.00  0.00     0.164 C 
ATOM      3  C   UNL     1      17.769  -2.165  -8.215  1.00  0.00     0.232 C 
ATOM      4  O   UNL     1      17.653  -3.204  -9.186  1.00  0.00    -0.482 OA
ATOM      5  C   UNL     1      16.766  -3.122 -10.265  1.00  0.00     0.131 A 
ATOM      6  C   UNL     1      16.567  -4.249 -11.066  1.00  0.00     0.093 A 
ATOM      7  C   UNL     1      15.676  -4.202 -12.141  1.00  0.00     0.122 A 
ATOM      8  C   UNL     1      14.972  -3.023 -12.409  1.00  0.00     0.092 A 
ATOM      9  C   UNL     1      15.158  -1.884 -11.616  1.00  0.00     0.126 A 
ATOM     10  C   UNL     1      16.093  -1.914 -10.553  1.00  0.00     0.039 A 
ENDROOT
BRANCH   2  11
ATOM     11  O   UNL     1      17.723   0.226  -7.939  1.00  0.00    -0.389 OA
ATOM     12  H   UNL     1      16.812   0.309  -7.557  1.00  0.00     0.211 HD
ENDBRANCH   2  11
BRANCH   3  13
ATOM     13  C   UNL     1      19.078  -2.309  -7.474  1.00  0.00    -0.001 A 
ATOM     14  C   UNL     1      20.297  -2.099  -8.141  1.00  0.00     0.057 A 
ATOM     15  C   UNL     1      19.095  -2.701  -6.125  1.00  0.00     0.012 A 
ATOM     16  C   UNL     1      21.515  -2.258  -7.465  1.00  0.00     0.157 A 
ATOM     17  C   UNL     1      20.308  -2.859  -5.450  1.00  0.00     0.050 A 
ATOM     18  C   UNL     1      21.520  -2.638  -6.113  1.00  0.00     0.157 A 
BRANCH  16  19
ATOM     19  O   UNL     1      22.720  -2.042  -8.134  1.00  0.00    -0.504 OA
ATOM     20  H   UNL     1      22.894  -1.188  -8.650  1.00  0.00     0.293 HD
ENDBRANCH  16  19
BRANCH  18  21
ATOM     21  O   UNL     1      22.715  -2.803  -5.414  1.00  0.00    -0.504 OA
ATOM     22  H   UNL     1      23.613  -2.834  -5.882  1.00  0.00     0.293 HD
ENDBRANCH  18  21
ENDBRANCH   3  13
BRANCH   9  23
ATOM     23  O   UNL     1      14.395  -0.751 -11.905  1.00  0.00    -0.507 OA
ATOM     24  H   UNL     1      13.578  -0.481 -11.373  1.00  0.00     0.293 HD
ENDBRANCH   9  23
BRANCH   7  25
ATOM     25  O   UNL     1      15.491  -5.335 -12.930  1.00  0.00    -0.508 OA
ATOM     26  H   UNL     1      14.565  -5.687 -13.144  1.00  0.00     0.293 HD
ENDBRANCH   7  25
TORSDOF 6
ENDMDL
MODEL 6
REMARK VINA RESULT:    -5.637      8.953     13.005
REMARK INTER + INTRA:          -7.150
REMARK INTER:                  -7.505
REMARK INTRA:                   0.355
REMARK UNBOUND:                -0.360
REMARK SMILES Oc1cc(O)c2c(c1)O[C@@H](c1ccc(O)c(O)c1)[C@H](O)C2
REMARK SMILES IDX 21 1 19 2 10 3 9 4 7 5 8 6 2 7 3 8 4 9 6 10 20 11 11 13
REMARK SMILES IDX 18 14 12 15 16 16 13 17 14 18 17 19 15 21 5 23 1 25
REMARK H PARENT 20 12 17 20 15 22 5 24 1 26
REMARK Flexibility Score: inf
ROOT
ATOM      1  C   UNL     1       8.740  -8.398  -7.960  1.00  0.00     0.079 C 
ATOM      2  C   UNL     1      10.017  -8.245  -8.811  1.00  0.00     0.164 C 
ATOM      3  C   UNL     1      10.142  -6.797  -9.310  1.00  0.00     0.232 C 
ATOM      4  O   UNL     1      10.134  -5.900  -8.201  1.00  0.00    -0.482 OA
ATOM      5  C   UNL     1       9.312  -6.096  -7.087  1.00  0.00     0.131 A 
ATOM      6  C   UNL     1       9.215  -5.084  -6.128  1.00  0.00     0.093 A 
ATOM      7  C   UNL     1       8.390  -5.246  -5.013  1.00  0.00     0.122 A 
ATOM      8  C   UNL     1       7.649  -6.423  -4.861  1.00  0.00     0.092 A 
ATOM      9  C   UNL     1       7.732  -7.447  -5.812  1.00  0.00     0.126 A 
ATOM     10  C   UNL     1       8.601  -7.305  -6.921  1.00  0.00     0.039 A 
ENDROOT
BRANCH   2  11
ATOM     11  O   UNL     1       9.965  -9.123  -9.905  1.00  0.00    -0.389 OA
ATOM     12  H   UNL     1       9.522  -9.952  -9.587  1.00  0.00     0.211 HD
ENDBRANCH   2  11
BRANCH   3  13
ATOM     13  C   UNL     1      11.408  -6.603 -10.111  1.00  0.00    -0.001 A 
ATOM     14  C   UNL     1      12.184  -5.444  -9.940  1.00  0.00     0.057 A 
ATOM     15  C   UNL     1      11.799  -7.553 -11.069  1.00  0.00     0.012 A 
ATOM     16  C   UNL     1      13.345  -5.246 -10.700  1.00  0.00     0.157 A 
ATOM     17  C   UNL     1      12.956  -7.357 -11.828  1.00  0.00     0.050 A 
ATOM     18  C   UNL     1      13.733  -6.208 -11.647  1.00  0.00     0.157 A 
BRANCH  16  19
ATOM     19  O   UNL     1      14.112  -4.096 -10.519  1.00  0.00    -0.504 OA
ATOM     20  H   UNL     1      14.320  -3.470 -11.288  1.00  0.00     0.293 HD
ENDBRANCH  16  19
BRANCH  18  21
ATOM     21  O   UNL     1      14.883  -6.040 -12.418  1.00  0.00    -0.504 OA
ATOM     22  H   UNL     1      15.156  -5.137 -12.787  1.00  0.00     0.293 HD
ENDBRANCH  18  21
ENDBRANCH   3  13
BRANCH   9  23
ATOM     23  O   UNL     1       6.935  -8.579  -5.630  1.00  0.00    -0.507 OA
ATOM     24  H   UNL     1       6.352  -8.970  -6.358  1.00  0.00     0.293 HD
ENDBRANCH   9  23
BRANCH   7  25
ATOM     25  O   UNL     1       8.308  -4.228  -4.066  1.00  0.00    -0.508 OA
ATOM     26  H   UNL     1       8.090  -4.422  -3.096  1.00  0.00     0.293 HD
ENDBRANCH   7  25
TORSDOF 6
ENDMDL
MODEL 7
REMARK VINA RESULT:    -5.627      7.320     12.548
REMARK INTER + INTRA:          -7.139
REMARK INTER:                  -6.824
REMARK INTRA:                  -0.315
REMARK UNBOUND:                -0.360
REMARK SMILES Oc1cc(O)c2c(c1)O[C@@H](c1ccc(O)c(O)c1)[C@H](O)C2
REMARK SMILES IDX 21 1 19 2 10 3 9 4 7 5 8 6 2 7 3 8 4 9 6 10 20 11 11 13
REMARK SMILES IDX 18 14 12 15 16 16 13 17 14 18 17 19 15 21 5 23 1 25
REMARK H PARENT 20 12 17 20 15 22 5 24 1 26
REMARK Flexibility Score: inf
ROOT
ATOM      1  C   UNL     1      12.234  -7.563 -11.532  1.00  0.00     0.079 C 
ATOM      2  C   UNL     1      10.884  -7.032 -11.012  1.00  0.00     0.164 C 
ATOM      3  C   UNL     1      11.103  -6.218  -9.727  1.00  0.00     0.232 C 
ATOM      4  O   UNL     1      12.028  -5.161  -9.976  1.00  0.00    -0.482 OA
ATOM      5  C   UNL     1      13.148  -5.325 -10.797  1.00  0.00     0.131 A 
ATOM      6  C   UNL     1      14.109  -4.312 -10.845  1.00  0.00     0.093 A 
ATOM      7  C   UNL     1      15.245  -4.455 -11.644  1.00  0.00     0.122 A 
ATOM      8  C   UNL     1      15.427  -5.623 -12.393  1.00  0.00     0.092 A 
ATOM      9  C   UNL     1      14.475  -6.649 -12.356  1.00  0.00     0.126 A 
ATOM     10  C   UNL     1      13.300  -6.490 -11.581  1.00  0.00     0.039 A 
ENDROOT
BRANCH   2  11
ATOM     11  O   UNL     1      10.020  -8.108 -10.752  1.00  0.00    -0.389 OA
ATOM     12  H   UNL     1      10.590  -8.911 -10.631  1.00  0.00     0.211 HD
ENDBRANCH   2  11
BRANCH   3  13
ATOM     13  C   UNL     1       9.803  -5.645  -9.215  1.00  0.00    -0.001 A 
ATOM     14  C   UNL     1       9.441  -5.803  -7.867  1.00  0.00     0.057 A 
ATOM     15  C   UNL     1       8.918  -4.991 -10.089  1.00  0.00     0.012 A 
ATOM     16  C   UNL     1       8.222  -5.297  -7.392  1.00  0.00     0.157 A 
ATOM     17  C   UNL     1       7.703  -4.486  -9.618  1.00  0.00     0.050 A 
ATOM     18  C   UNL     1       7.350  -4.634  -8.273  1.00  0.00     0.157 A 
BRANCH  16  19
ATOM     19  O   UNL     1       7.873  -5.454  -6.051  1.00  0.00    -0.504 OA
ATOM     20  H   UNL     1       7.355  -6.262  -5.728  1.00  0.00     0.293 HD
ENDBRANCH  16  19
BRANCH  18  21
ATOM     21  O   UNL     1       6.132  -4.120  -7.831  1.00  0.00    -0.504 OA
ATOM     22  H   UNL     1       5.603  -4.555  -7.085  1.00  0.00     0.293 HD
ENDBRANCH  18  21
ENDBRANCH   3  13
BRANCH   9  23
ATOM     23  O   UNL     1      14.732  -7.810 -13.088  1.00  0.00    -0.507 OA
ATOM     24  H   UNL     1      14.164  -8.112 -13.868  1.00  0.00     0.293 HD
ENDBRANCH   9  23
BRANCH   7  25
ATOM     25  O   UNL     1      16.192  -3.433 -11.681  1.00  0.00    -0.508 OA
ATOM     26  H   UNL     1      16.089  -2.637 -12.298  1.00  0.00     0.293 HD
ENDBRANCH   7  25
TORSDOF 6
ENDMDL
MODEL 8
REMARK VINA RESULT:    -5.536      9.614     10.937
REMARK INTER + INTRA:          -7.029
REMARK INTER:                  -6.659
REMARK INTRA:                  -0.370
REMARK UNBOUND:                -0.360
REMARK SMILES Oc1cc(O)c2c(c1)O[C@@H](c1ccc(O)c(O)c1)[C@H](O)C2
REMARK SMILES IDX 21 1 19 2 10 3 9 4 7 5 8 6 2 7 3 8 4 9 6 10 20 11 11 13
REMARK SMILES IDX 18 14 12 15 16 16 13 17 14 18 17 19 15 21 5 23 1 25
REMARK H PARENT 20 12 17 20 15 22 5 24 1 26
REMARK Flexibility Score: inf
ROOT
ATOM      1  C   UNL     1       8.846   2.551 -20.311  1.00  0.00     0.079 C 
ATOM      2  C   UNL     1      10.330   2.878 -20.051  1.00  0.00     0.164 C 
ATOM      3  C   UNL     1      10.448   4.231 -19.332  1.00  0.00     0.232 C 
ATOM      4  O   UNL     1       9.692   4.206 -18.123  1.00  0.00    -0.482 OA
ATOM      5  C   UNL     1       8.450   3.569 -18.032  1.00  0.00     0.131 A 
ATOM      6  C   UNL     1       7.680   3.744 -16.879  1.00  0.00     0.093 A 
ATOM      7  C   UNL     1       6.430   3.133 -16.766  1.00  0.00     0.122 A 
ATOM      8  C   UNL     1       5.941   2.350 -17.818  1.00  0.00     0.092 A 
ATOM      9  C   UNL     1       6.697   2.165 -18.981  1.00  0.00     0.126 A 
ATOM     10  C   UNL     1       7.985   2.746 -19.081  1.00  0.00     0.039 A 
ENDROOT
BRANCH   2  11
ATOM     11  O   UNL     1      11.026   2.923 -21.269  1.00  0.00    -0.389 OA
ATOM     12  H   UNL     1      10.923   2.032 -21.691  1.00  0.00     0.211 HD
ENDBRANCH   2  11
BRANCH   3  13
ATOM     13  C   UNL     1      11.890   4.560 -19.022  1.00  0.00    -0.001 A 
ATOM     14  C   UNL     1      12.658   3.694 -18.226  1.00  0.00     0.057 A 
ATOM     15  C   UNL     1      12.463   5.757 -19.482  1.00  0.00     0.012 A 
ATOM     16  C   UNL     1      13.989   4.009 -17.912  1.00  0.00     0.157 A 
ATOM     17  C   UNL     1      13.789   6.072 -19.170  1.00  0.00     0.050 A 
ATOM     18  C   UNL     1      14.556   5.203 -18.388  1.00  0.00     0.157 A 
BRANCH  16  19
ATOM     19  O   UNL     1      14.746   3.140 -17.127  1.00  0.00    -0.504 OA
ATOM     20  H   UNL     1      14.844   3.277 -16.128  1.00  0.00     0.293 HD
ENDBRANCH  16  19
BRANCH  18  21
ATOM     21  O   UNL     1      15.875   5.542 -18.093  1.00  0.00    -0.504 OA
ATOM     22  H   UNL     1      16.618   4.853 -18.072  1.00  0.00     0.293 HD
ENDBRANCH  18  21
ENDBRANCH   3  13
BRANCH   9  23
ATOM     23  O   UNL     1       6.138   1.410 -20.015  1.00  0.00    -0.507 OA
ATOM     24  H   UNL     1       6.689   0.948 -20.726  1.00  0.00     0.293 HD
ENDBRANCH   9  23
BRANCH   7  25
ATOM     25  O   UNL     1       5.677   3.317 -15.608  1.00  0.00    -0.508 OA
ATOM     26  H   UNL     1       5.587   2.586 -14.913  1.00  0.00     0.293 HD
ENDBRANCH   7  25
TORSDOF 6
ENDMDL
MODEL 9
REMARK VINA RESULT:    -5.472     10.238     12.665
REMARK INTER + INTRA:          -6.951
REMARK INTER:                  -6.575
REMARK INTRA:                  -0.376
REMARK UNBOUND:                -0.360
REMARK SMILES Oc1cc(O)c2c(c1)O[C@@H](c1ccc(O)c(O)c1)[C@H](O)C2
REMARK SMILES IDX 21 1 19 2 10 3 9 4 7 5 8 6 2 7 3 8 4 9 6 10 20 11 11 13
REMARK SMILES IDX 18 14 12 15 16 16 13 17 14 18 17 19 15 21 5 23 1 25
REMARK H PARENT 20 12 17 20 15 22 5 24 1 26
REMARK Flexibility Score: inf
ROOT
ATOM      1  C   UNL     1       9.255   5.698 -17.626  1.00  0.00     0.079 C 
ATOM      2  C   UNL     1       8.122   4.654 -17.592  1.00  0.00     0.164 C 
ATOM      3  C   UNL     1       8.399   3.549 -18.623  1.00  0.00     0.232 C 
ATOM      4  O   UNL     1       9.672   2.958 -18.370  1.00  0.00    -0.482 OA
ATOM      5  C   UNL     1      10.779   3.711 -17.966  1.00  0.00     0.131 A 
ATOM      6  C   UNL     1      12.035   3.101 -17.919  1.00  0.00     0.093 A 
ATOM      7  C   UNL     1      13.160   3.832 -17.534  1.00  0.00     0.122 A 
ATOM      8  C   UNL     1      13.030   5.186 -17.202  1.00  0.00     0.092 A 
ATOM      9  C   UNL     1      11.780   5.814 -17.245  1.00  0.00     0.126 A 
ATOM     10  C   UNL     1      10.629   5.065 -17.592  1.00  0.00     0.039 A 
ENDROOT
BRANCH   2  11
ATOM     11  O   UNL     1       6.895   5.275 -17.877  1.00  0.00    -0.389 OA
ATOM     12  H   UNL     1       6.769   5.221 -18.859  1.00  0.00     0.211 HD
ENDBRANCH   2  11
BRANCH   3  13
ATOM     13  C   UNL     1       7.328   2.484 -18.584  1.00  0.00    -0.001 A 
ATOM     14  C   UNL     1       7.143   1.708 -17.426  1.00  0.00     0.057 A 
ATOM     15  C   UNL     1       6.539   2.223 -19.716  1.00  0.00     0.012 A 
ATOM     16  C   UNL     1       6.169   0.700 -17.394  1.00  0.00     0.157 A 
ATOM     17  C   UNL     1       5.568   1.218 -19.685  1.00  0.00     0.050 A 
ATOM     18  C   UNL     1       5.377   0.455 -18.528  1.00  0.00     0.157 A 
BRANCH  16  19
ATOM     19  O   UNL     1       5.988  -0.061 -16.239  1.00  0.00    -0.504 OA
ATOM     20  H   UNL     1       5.332   0.214 -15.519  1.00  0.00     0.293 HD
ENDBRANCH  16  19
BRANCH  18  21
ATOM     21  O   UNL     1       4.401  -0.540 -18.526  1.00  0.00    -0.504 OA
ATOM     22  H   UNL     1       4.110  -1.007 -17.675  1.00  0.00     0.293 HD
ENDBRANCH  18  21
ENDBRANCH   3  13
BRANCH   9  23
ATOM     23  O   UNL     1      11.720   7.177 -16.947  1.00  0.00    -0.507 OA
ATOM     24  H   UNL     1      11.422   7.537 -16.050  1.00  0.00     0.293 HD
ENDBRANCH   9  23
BRANCH   7  25
ATOM     25  O   UNL     1      14.405   3.207 -17.491  1.00  0.00    -0.508 OA
ATOM     26  H   UNL     1      14.543   2.276 -17.863  1.00  0.00     0.293 HD
ENDBRANCH   7  25
TORSDOF 6
ENDMDL
