MODEL 1
REMARK VINA RESULT:    -3.718      0.000      0.000
REMARK INTER + INTRA:         -12.670
REMARK INTER:                  -8.500
REMARK INTRA:                  -4.170
REMARK UNBOUND:                -4.170
REMARK SMILES CCCCCCCCCCCCCCCCCCCCCCCC(=O)[O-]
REMARK SMILES IDX 13 1 14 2 15 3 16 4 17 5 18 6 19 7 20 8 21 9 22 10 23 11
REMARK SMILES IDX 24 12 25 13 26 14 12 15 11 16 10 17 9 18 8 19 7 20 6 21 5 22
REMARK SMILES IDX 4 23 3 24 2 25 1 26
REMARK H PARENT
REMARK Flexibility Score: inf
ROOT
ATOM      1  C   UNL     1      10.011   5.493   1.155  1.00  0.00     0.000 C 
ENDROOT
BRANCH   1   2
ATOM      2  C   UNL     1       9.924   3.962   1.282  1.00  0.00     0.000 C 
BRANCH   2   3
ATOM      3  C   UNL     1       8.650   3.382   0.647  1.00  0.00     0.000 C 
BRANCH   3   4
ATOM      4  C   UNL     1       7.717   4.474   0.095  1.00  0.00     0.000 C 
BRANCH   4   5
ATOM      5  C   UNL     1       7.479   4.344  -1.418  1.00  0.00     0.000 C 
BRANCH   5   6
ATOM      6  C   UNL     1       8.413   3.314  -2.080  1.00  0.00     0.000 C 
BRANCH   6   7
ATOM      7  C   UNL     1       9.582   3.977  -2.828  1.00  0.00     0.000 C 
BRANCH   7   8
ATOM      8  C   UNL     1      10.953   3.517  -2.308  1.00  0.00     0.000 C 
BRANCH   8   9
ATOM      9  C   UNL     1      10.977   2.001  -2.082  1.00  0.00     0.000 C 
BRANCH   9  10
ATOM     10  C   UNL     1      12.221   1.583  -1.285  1.00  0.00     0.006 C 
BRANCH  10  11
ATOM     11  C   UNL     1      11.867   1.057   0.112  1.00  0.00     0.053 C 
BRANCH  11  12
ATOM     12  C   UNL     1      12.868   0.055   0.601  1.00  0.00     0.041 C 
ATOM     13  O   UNL     1      13.866  -0.240  -0.107  1.00  0.00    -0.550 OA
ATOM     14  O   UNL     1      12.682  -0.575   1.825  1.00  0.00    -0.550 OA
ENDBRANCH  11  12
ENDBRANCH  10  11
ENDBRANCH   9  10
ENDBRANCH   8   9
ENDBRANCH   7   8
ENDBRANCH   6   7
ENDBRANCH   5   6
ENDBRANCH   4   5
ENDBRANCH   3   4
ENDBRANCH   2   3
ENDBRANCH   1   2
BRANCH   1  15
ATOM     15  C   UNL     1      10.379   6.167   2.495  1.00  0.00     0.000 C 
BRANCH  15  16
ATOM     16  C   UNL     1       9.450   7.330   2.880  1.00  0.00     0.000 C 
BRANCH  16  17
ATOM     17  C   UNL     1       8.042   6.862   3.283  1.00  0.00     0.000 C 
BRANCH  17  18
ATOM     18  C   UNL     1       6.945   7.466   2.390  1.00  0.00    -0.000 C 
BRANCH  18  19
ATOM     19  C   UNL     1       7.518   8.348   1.266  1.00  0.00    -0.000 C 
BRANCH  19  20
ATOM     20  C   UNL     1       6.734   8.212  -0.049  1.00  0.00    -0.000 C 
BRANCH  20  21
ATOM     21  C   UNL     1       7.526   8.719  -1.264  1.00  0.00    -0.000 C 
BRANCH  21  22
ATOM     22  C   UNL     1       8.388   7.600  -1.862  1.00  0.00    -0.000 C 
BRANCH  22  23
ATOM     23  C   UNL     1       9.881   7.862  -1.609  1.00  0.00    -0.000 C 
BRANCH  23  24
ATOM     24  C   UNL     1      10.765   7.434  -2.792  1.00  0.00    -0.000 C 
BRANCH  24  25
ATOM     25  C   UNL     1      10.024   7.494  -4.135  1.00  0.00    -0.003 C 
ATOM     26  C   UNL     1      10.764   6.698  -5.207  1.00  0.00     0.004 C 
ENDBRANCH  24  25
ENDBRANCH  23  24
ENDBRANCH  22  23
ENDBRANCH  21  22
ENDBRANCH  20  21
ENDBRANCH  19  20
ENDBRANCH  18  19
ENDBRANCH  17  18
ENDBRANCH  16  17
ENDBRANCH  15  16
ENDBRANCH   1  15
TORSDOF 22
ENDMDL
MODEL 2
REMARK VINA RESULT:    -3.668      2.700      5.917
REMARK INTER + INTRA:         -12.556
REMARK INTER:                  -8.385
REMARK INTRA:                  -4.171
REMARK UNBOUND:                -4.170
REMARK SMILES CCCCCCCCCCCCCCCCCCCCCCCC(=O)[O-]
REMARK SMILES IDX 13 1 14 2 15 3 16 4 17 5 18 6 19 7 20 8 21 9 22 10 23 11
REMARK SMILES IDX 24 12 25 13 26 14 12 15 11 16 10 17 9 18 8 19 7 20 6 21 5 22
REMARK SMILES IDX 4 23 3 24 2 25 1 26
REMARK H PARENT
REMARK Flexibility Score: inf
ROOT
ATOM      1  C   UNL     1      12.085   1.373  -1.855  1.00  0.00     0.000 C 
ENDROOT
BRANCH   1   2
ATOM      2  C   UNL     1      11.525   1.722  -0.465  1.00  0.00     0.000 C 
BRANCH   2   3
ATOM      3  C   UNL     1      10.417   2.787  -0.519  1.00  0.00     0.000 C 
BRANCH   3   4
ATOM      4  C   UNL     1       9.835   3.101   0.871  1.00  0.00     0.000 C 
BRANCH   4   5
ATOM      5  C   UNL     1       8.475   3.813   0.799  1.00  0.00     0.000 C 
BRANCH   5   6
ATOM      6  C   UNL     1       8.069   4.173  -0.642  1.00  0.00     0.000 C 
BRANCH   6   7
ATOM      7  C   UNL     1       6.722   4.912  -0.706  1.00  0.00     0.000 C 
BRANCH   7   8
ATOM      8  C   UNL     1       6.888   6.440  -0.756  1.00  0.00     0.000 C 
BRANCH   8   9
ATOM      9  C   UNL     1       6.667   7.063   0.628  1.00  0.00     0.000 C 
BRANCH   9  10
ATOM     10  C   UNL     1       7.967   7.673   1.171  1.00  0.00     0.006 C 
BRANCH  10  11
ATOM     11  C   UNL     1       8.322   7.138   2.565  1.00  0.00     0.053 C 
BRANCH  11  12
ATOM     12  C   UNL     1       9.798   7.183   2.820  1.00  0.00     0.041 C 
ATOM     13  O   UNL     1      10.348   8.259   3.169  1.00  0.00    -0.550 OA
ATOM     14  O   UNL     1      10.570   6.041   2.642  1.00  0.00    -0.550 OA
ENDBRANCH  11  12
ENDBRANCH  10  11
ENDBRANCH   9  10
ENDBRANCH   8   9
ENDBRANCH   7   8
ENDBRANCH   6   7
ENDBRANCH   5   6
ENDBRANCH   4   5
ENDBRANCH   3   4
ENDBRANCH   2   3
ENDBRANCH   1   2
BRANCH   1  15
ATOM     15  C   UNL     1      11.006   1.466  -2.956  1.00  0.00     0.000 C 
BRANCH  15  16
ATOM     16  C   UNL     1      11.578   1.653  -4.372  1.00  0.00     0.000 C 
BRANCH  16  17
ATOM     17  C   UNL     1      11.270   3.038  -4.963  1.00  0.00     0.000 C 
BRANCH  17  18
ATOM     18  C   UNL     1      10.450   3.917  -4.003  1.00  0.00    -0.000 C 
BRANCH  18  19
ATOM     19  C   UNL     1       9.675   5.026  -4.737  1.00  0.00    -0.000 C 
BRANCH  19  20
ATOM     20  C   UNL     1       8.244   5.199  -4.202  1.00  0.00    -0.000 C 
BRANCH  20  21
ATOM     21  C   UNL     1       7.729   6.639  -4.348  1.00  0.00    -0.000 C 
BRANCH  21  22
ATOM     22  C   UNL     1       8.892   7.640  -4.348  1.00  0.00    -0.000 C 
BRANCH  22  23
ATOM     23  C   UNL     1       8.657   8.754  -3.317  1.00  0.00    -0.000 C 
BRANCH  23  24
ATOM     24  C   UNL     1       9.525   8.588  -2.059  1.00  0.00    -0.000 C 
BRANCH  24  25
ATOM     25  C   UNL     1      10.679   7.595  -2.264  1.00  0.00    -0.003 C 
ATOM     26  C   UNL     1      10.662   6.506  -1.195  1.00  0.00     0.004 C 
ENDBRANCH  24  25
ENDBRANCH  23  24
ENDBRANCH  22  23
ENDBRANCH  21  22
ENDBRANCH  20  21
ENDBRANCH  19  20
ENDBRANCH  18  19
ENDBRANCH  17  18
ENDBRANCH  16  17
ENDBRANCH  15  16
ENDBRANCH   1  15
TORSDOF 22
ENDMDL
MODEL 3
REMARK VINA RESULT:    -3.640      3.271      5.884
REMARK INTER + INTRA:         -12.492
REMARK INTER:                  -8.645
REMARK INTRA:                  -3.847
REMARK UNBOUND:                -4.170
REMARK SMILES CCCCCCCCCCCCCCCCCCCCCCCC(=O)[O-]
REMARK SMILES IDX 13 1 14 2 15 3 16 4 17 5 18 6 19 7 20 8 21 9 22 10 23 11
REMARK SMILES IDX 24 12 25 13 26 14 12 15 11 16 10 17 9 18 8 19 7 20 6 21 5 22
REMARK SMILES IDX 4 23 3 24 2 25 1 26
REMARK H PARENT
REMARK Flexibility Score: inf
ROOT
ATOM      1  C   UNL     1      10.318   2.748   0.591  1.00  0.00     0.000 C 
ENDROOT
BRANCH   1   2
ATOM      2  C   UNL     1      10.588   1.643  -0.445  1.00  0.00     0.000 C 
BRANCH   2   3
ATOM      3  C   UNL     1      12.062   1.575  -0.874  1.00  0.00     0.000 C 
BRANCH   3   4
ATOM      4  C   UNL     1      12.271   2.005  -2.337  1.00  0.00     0.000 C 
BRANCH   4   5
ATOM      5  C   UNL     1      11.089   1.624  -3.243  1.00  0.00     0.000 C 
BRANCH   5   6
ATOM      6  C   UNL     1      11.528   1.276  -4.677  1.00  0.00     0.000 C 
BRANCH   6   7
ATOM      7  C   UNL     1      11.363   2.459  -5.646  1.00  0.00     0.000 C 
BRANCH   7   8
ATOM      8  C   UNL     1      10.776   3.705  -4.963  1.00  0.00     0.000 C 
BRANCH   8   9
ATOM      9  C   UNL     1      10.790   4.910  -5.911  1.00  0.00     0.000 C 
BRANCH   9  10
ATOM     10  C   UNL     1       9.948   6.063  -5.346  1.00  0.00     0.006 C 
BRANCH  10  11
ATOM     11  C   UNL     1      10.445   7.435  -5.823  1.00  0.00     0.053 C 
BRANCH  11  12
ATOM     12  C   UNL     1      10.763   8.343  -4.674  1.00  0.00     0.041 C 
ATOM     13  O   UNL     1      11.929   8.386  -4.204  1.00  0.00    -0.550 OA
ATOM     14  O   UNL     1       9.762   9.119  -4.103  1.00  0.00    -0.550 OA
ENDBRANCH  11  12
ENDBRANCH  10  11
ENDBRANCH   9  10
ENDBRANCH   8   9
ENDBRANCH   7   8
ENDBRANCH   6   7
ENDBRANCH   5   6
ENDBRANCH   4   5
ENDBRANCH   3   4
ENDBRANCH   2   3
ENDBRANCH   1   2
BRANCH   1  15
ATOM     15  C   UNL     1       9.217   3.725   0.124  1.00  0.00     0.000 C 
BRANCH  15  16
ATOM     16  C   UNL     1       9.343   4.143  -1.351  1.00  0.00     0.000 C 
BRANCH  16  17
ATOM     17  C   UNL     1      10.318   5.313  -1.559  1.00  0.00     0.000 C 
BRANCH  17  18
ATOM     18  C   UNL     1       9.609   6.678  -1.541  1.00  0.00    -0.000 C 
BRANCH  18  19
ATOM     19  C   UNL     1       8.171   6.603  -2.085  1.00  0.00    -0.000 C 
BRANCH  19  20
ATOM     20  C   UNL     1       7.135   7.156  -1.093  1.00  0.00    -0.000 C 
BRANCH  20  21
ATOM     21  C   UNL     1       6.367   6.046  -0.361  1.00  0.00    -0.000 C 
BRANCH  21  22
ATOM     22  C   UNL     1       6.600   6.125   1.153  1.00  0.00    -0.000 C 
BRANCH  22  23
ATOM     23  C   UNL     1       7.175   7.494   1.550  1.00  0.00    -0.000 C 
BRANCH  23  24
ATOM     24  C   UNL     1       8.263   7.387   2.631  1.00  0.00    -0.000 C 
BRANCH  24  25
ATOM     25  C   UNL     1       9.664   7.175   2.040  1.00  0.00    -0.003 C 
ATOM     26  C   UNL     1      10.418   6.083   2.793  1.00  0.00     0.004 C 
ENDBRANCH  24  25
ENDBRANCH  23  24
ENDBRANCH  22  23
ENDBRANCH  21  22
ENDBRANCH  20  21
ENDBRANCH  19  20
ENDBRANCH  18  19
ENDBRANCH  17  18
ENDBRANCH  16  17
ENDBRANCH  15  16
ENDBRANCH   1  15
TORSDOF 22
ENDMDL
MODEL 4
REMARK VINA RESULT:    -3.607      2.853      6.348
REMARK INTER + INTRA:         -12.415
REMARK INTER:                  -8.431
REMARK INTRA:                  -3.985
REMARK UNBOUND:                -4.170
REMARK SMILES CCCCCCCCCCCCCCCCCCCCCCCC(=O)[O-]
REMARK SMILES IDX 13 1 14 2 15 3 16 4 17 5 18 6 19 7 20 8 21 9 22 10 23 11
REMARK SMILES IDX 24 12 25 13 26 14 12 15 11 16 10 17 9 18 8 19 7 20 6 21 5 22
REMARK SMILES IDX 4 23 3 24 2 25 1 26
REMARK H PARENT
REMARK Flexibility Score: inf
ROOT
ATOM      1  C   UNL     1      11.500   1.622  -0.258  1.00  0.00     0.000 C 
ENDROOT
BRANCH   1   2
ATOM      2  C   UNL     1      10.070   2.031  -0.652  1.00  0.00     0.000 C 
BRANCH   2   3
ATOM      3  C   UNL     1       9.445   3.037   0.328  1.00  0.00     0.000 C 
BRANCH   3   4
ATOM      4  C   UNL     1       8.290   3.834  -0.302  1.00  0.00     0.000 C 
BRANCH   4   5
ATOM      5  C   UNL     1       8.189   3.633  -1.823  1.00  0.00     0.000 C 
BRANCH   5   6
ATOM      6  C   UNL     1       6.971   4.346  -2.437  1.00  0.00     0.000 C 
BRANCH   6   7
ATOM      7  C   UNL     1       6.311   5.331  -1.458  1.00  0.00     0.000 C 
BRANCH   7   8
ATOM      8  C   UNL     1       6.326   6.778  -1.976  1.00  0.00     0.000 C 
BRANCH   8   9
ATOM      9  C   UNL     1       7.046   7.708  -0.992  1.00  0.00     0.000 C 
BRANCH   9  10
ATOM     10  C   UNL     1       6.507   7.523   0.434  1.00  0.00     0.006 C 
BRANCH  10  11
ATOM     11  C   UNL     1       7.623   7.565   1.487  1.00  0.00     0.053 C 
BRANCH  11  12
ATOM     12  C   UNL     1       7.380   6.584   2.594  1.00  0.00     0.041 C 
ATOM     13  O   UNL     1       7.868   6.785   3.736  1.00  0.00    -0.550 OA
ATOM     14  O   UNL     1       6.641   5.432   2.355  1.00  0.00    -0.550 OA
ENDBRANCH  11  12
ENDBRANCH  10  11
ENDBRANCH   9  10
ENDBRANCH   8   9
ENDBRANCH   7   8
ENDBRANCH   6   7
ENDBRANCH   5   6
ENDBRANCH   4   5
ENDBRANCH   3   4
ENDBRANCH   2   3
ENDBRANCH   1   2
BRANCH   1  15
ATOM     15  C   UNL     1      12.462   1.642  -1.466  1.00  0.00     0.000 C 
BRANCH  15  16
ATOM     16  C   UNL     1      11.866   2.297  -2.724  1.00  0.00     0.000 C 
BRANCH  16  17
ATOM     17  C   UNL     1      11.707   1.312  -3.893  1.00  0.00     0.000 C 
BRANCH  17  18
ATOM     18  C   UNL     1      11.436   2.024  -5.229  1.00  0.00    -0.000 C 
BRANCH  18  19
ATOM     19  C   UNL     1      10.699   3.363  -5.044  1.00  0.00    -0.000 C 
BRANCH  19  20
ATOM     20  C   UNL     1      11.115   4.415  -6.084  1.00  0.00    -0.000 C 
BRANCH  20  21
ATOM     21  C   UNL     1      10.555   5.810  -5.770  1.00  0.00    -0.000 C 
BRANCH  21  22
ATOM     22  C   UNL     1       9.569   5.754  -4.596  1.00  0.00    -0.000 C 
BRANCH  22  23
ATOM     23  C   UNL     1       9.560   7.081  -3.822  1.00  0.00    -0.000 C 
BRANCH  23  24
ATOM     24  C   UNL     1      10.832   7.286  -2.983  1.00  0.00    -0.000 C 
BRANCH  24  25
ATOM     25  C   UNL     1      11.057   6.158  -1.966  1.00  0.00    -0.003 C 
ATOM     26  C   UNL     1      10.490   6.529  -0.599  1.00  0.00     0.004 C 
ENDBRANCH  24  25
ENDBRANCH  23  24
ENDBRANCH  22  23
ENDBRANCH  21  22
ENDBRANCH  20  21
ENDBRANCH  19  20
ENDBRANCH  18  19
ENDBRANCH  17  18
ENDBRANCH  16  17
ENDBRANCH  15  16
ENDBRANCH   1  15
TORSDOF 22
ENDMDL
MODEL 5
REMARK VINA RESULT:    -3.542      3.122      6.090
REMARK INTER + INTRA:         -12.268
REMARK INTER:                  -7.935
REMARK INTRA:                  -4.332
REMARK UNBOUND:                -4.170
REMARK SMILES CCCCCCCCCCCCCCCCCCCCCCCC(=O)[O-]
REMARK SMILES IDX 13 1 14 2 15 3 16 4 17 5 18 6 19 7 20 8 21 9 22 10 23 11
REMARK SMILES IDX 24 12 25 13 26 14 12 15 11 16 10 17 9 18 8 19 7 20 6 21 5 22
REMARK SMILES IDX 4 23 3 24 2 25 1 26
REMARK H PARENT
REMARK Flexibility Score: inf
ROOT
ATOM      1  C   UNL     1      12.213   2.194  -1.569  1.00  0.00     0.000 C 
ENDROOT
BRANCH   1   2
ATOM      2  C   UNL     1      12.143   1.253  -2.785  1.00  0.00     0.000 C 
BRANCH   2   3
ATOM      3  C   UNL     1      10.983   1.591  -3.735  1.00  0.00     0.000 C 
BRANCH   3   4
ATOM      4  C   UNL     1      11.408   1.574  -5.214  1.00  0.00     0.000 C 
BRANCH   4   5
ATOM      5  C   UNL     1      11.324   2.960  -5.873  1.00  0.00     0.000 C 
BRANCH   5   6
ATOM      6  C   UNL     1      10.681   4.016  -4.955  1.00  0.00     0.000 C 
BRANCH   6   7
ATOM      7  C   UNL     1       9.936   5.105  -5.744  1.00  0.00     0.000 C 
BRANCH   7   8
ATOM      8  C   UNL     1       8.409   4.999  -5.599  1.00  0.00     0.000 C 
BRANCH   8   9
ATOM      9  C   UNL     1       7.818   6.298  -5.038  1.00  0.00     0.000 C 
BRANCH   9  10
ATOM     10  C   UNL     1       8.893   7.388  -4.924  1.00  0.00     0.006 C 
BRANCH  10  11
ATOM     11  C   UNL     1       8.954   8.000  -3.517  1.00  0.00     0.053 C 
BRANCH  11  12
ATOM     12  C   UNL     1      10.360   8.073  -3.002  1.00  0.00     0.041 C 
ATOM     13  O   UNL     1      11.322   7.728  -3.736  1.00  0.00    -0.550 OA
ATOM     14  O   UNL     1      10.603   8.494  -1.700  1.00  0.00    -0.550 OA
ENDBRANCH  11  12
ENDBRANCH  10  11
ENDBRANCH   9  10
ENDBRANCH   8   9
ENDBRANCH   7   8
ENDBRANCH   6   7
ENDBRANCH   5   6
ENDBRANCH   4   5
ENDBRANCH   3   4
ENDBRANCH   2   3
ENDBRANCH   1   2
BRANCH   1  15
ATOM     15  C   UNL     1      11.158   1.838  -0.499  1.00  0.00     0.000 C 
BRANCH  15  16
ATOM     16  C   UNL     1      10.050   2.894  -0.345  1.00  0.00     0.000 C 
BRANCH  16  17
ATOM     17  C   UNL     1      10.390   4.222  -1.041  1.00  0.00     0.000 C 
BRANCH  17  18
ATOM     18  C   UNL     1       9.264   4.701  -1.973  1.00  0.00    -0.000 C 
BRANCH  18  19
ATOM     19  C   UNL     1       8.097   3.700  -2.050  1.00  0.00    -0.000 C 
BRANCH  19  20
ATOM     20  C   UNL     1       6.742   4.347  -1.723  1.00  0.00    -0.000 C 
BRANCH  20  21
ATOM     21  C   UNL     1       6.889   5.752  -1.121  1.00  0.00    -0.000 C 
BRANCH  21  22
ATOM     22  C   UNL     1       6.554   5.745   0.376  1.00  0.00    -0.000 C 
BRANCH  22  23
ATOM     23  C   UNL     1       7.832   5.803   1.226  1.00  0.00    -0.000 C 
BRANCH  23  24
ATOM     24  C   UNL     1       8.727   7.001   0.868  1.00  0.00    -0.000 C 
BRANCH  24  25
ATOM     25  C   UNL     1       9.854   7.222   1.888  1.00  0.00    -0.003 C 
ATOM     26  C   UNL     1      10.352   5.895   2.453  1.00  0.00     0.004 C 
ENDBRANCH  24  25
ENDBRANCH  23  24
ENDBRANCH  22  23
ENDBRANCH  21  22
ENDBRANCH  20  21
ENDBRANCH  19  20
ENDBRANCH  18  19
ENDBRANCH  17  18
ENDBRANCH  16  17
ENDBRANCH  15  16
ENDBRANCH   1  15
TORSDOF 22
ENDMDL
MODEL 6
REMARK VINA RESULT:    -3.534      2.675      6.255
REMARK INTER + INTRA:         -12.250
REMARK INTER:                  -8.128
REMARK INTRA:                  -4.122
REMARK UNBOUND:                -4.170
REMARK SMILES CCCCCCCCCCCCCCCCCCCCCCCC(=O)[O-]
REMARK SMILES IDX 13 1 14 2 15 3 16 4 17 5 18 6 19 7 20 8 21 9 22 10 23 11
REMARK SMILES IDX 24 12 25 13 26 14 12 15 11 16 10 17 9 18 8 19 7 20 6 21 5 22
REMARK SMILES IDX 4 23 3 24 2 25 1 26
REMARK H PARENT
REMARK Flexibility Score: inf
ROOT
ATOM      1  C   UNL     1       8.510   3.687  -0.194  1.00  0.00     0.000 C 
ENDROOT
BRANCH   1   2
ATOM      2  C   UNL     1       8.032   3.809  -1.652  1.00  0.00     0.000 C 
BRANCH   2   3
ATOM      3  C   UNL     1       6.723   4.603  -1.787  1.00  0.00     0.000 C 
BRANCH   3   4
ATOM      4  C   UNL     1       6.605   5.317  -3.145  1.00  0.00     0.000 C 
BRANCH   4   5
ATOM      5  C   UNL     1       6.910   6.821  -3.055  1.00  0.00     0.000 C 
BRANCH   5   6
ATOM      6  C   UNL     1       6.227   7.494  -1.851  1.00  0.00     0.000 C 
BRANCH   6   7
ATOM      7  C   UNL     1       6.967   8.760  -1.388  1.00  0.00     0.000 C 
BRANCH   7   8
ATOM      8  C   UNL     1       7.709   8.557  -0.057  1.00  0.00     0.000 C 
BRANCH   8   9
ATOM      9  C   UNL     1       7.030   7.477   0.793  1.00  0.00     0.000 C 
BRANCH   9  10
ATOM     10  C   UNL     1       7.370   7.653   2.280  1.00  0.00     0.006 C 
BRANCH  10  11
ATOM     11  C   UNL     1       8.267   6.525   2.809  1.00  0.00     0.053 C 
BRANCH  11  12
ATOM     12  C   UNL     1       9.701   6.949   2.899  1.00  0.00     0.041 C 
ATOM     13  O   UNL     1      10.585   6.125   3.250  1.00  0.00    -0.550 OA
ATOM     14  O   UNL     1      10.057   8.264   2.624  1.00  0.00    -0.550 OA
ENDBRANCH  11  12
ENDBRANCH  10  11
ENDBRANCH   9  10
ENDBRANCH   8   9
ENDBRANCH   7   8
ENDBRANCH   6   7
ENDBRANCH   5   6
ENDBRANCH   4   5
ENDBRANCH   3   4
ENDBRANCH   2   3
ENDBRANCH   1   2
BRANCH   1  15
ATOM     15  C   UNL     1       9.753   4.560   0.084  1.00  0.00     0.000 C 
BRANCH  15  16
ATOM     16  C   UNL     1       9.831   5.826  -0.787  1.00  0.00     0.000 C 
BRANCH  16  17
ATOM     17  C   UNL     1      10.930   5.748  -1.858  1.00  0.00     0.000 C 
BRANCH  17  18
ATOM     18  C   UNL     1      10.635   6.649  -3.069  1.00  0.00    -0.000 C 
BRANCH  18  19
ATOM     19  C   UNL     1      10.414   5.844  -4.363  1.00  0.00    -0.000 C 
BRANCH  19  20
ATOM     20  C   UNL     1      10.219   4.343  -4.098  1.00  0.00    -0.000 C 
BRANCH  20  21
ATOM     21  C   UNL     1      10.969   3.462  -5.108  1.00  0.00    -0.000 C 
BRANCH  21  22
ATOM     22  C   UNL     1      11.540   2.212  -4.428  1.00  0.00    -0.000 C 
BRANCH  22  23
ATOM     23  C   UNL     1      11.927   2.507  -2.971  1.00  0.00    -0.000 C 
BRANCH  23  24
ATOM     24  C   UNL     1      11.265   1.540  -1.975  1.00  0.00    -0.000 C 
BRANCH  24  25
ATOM     25  C   UNL     1      11.825   1.683  -0.552  1.00  0.00    -0.003 C 
ATOM     26  C   UNL     1      12.737   0.510  -0.201  1.00  0.00     0.004 C 
ENDBRANCH  24  25
ENDBRANCH  23  24
ENDBRANCH  22  23
ENDBRANCH  21  22
ENDBRANCH  20  21
ENDBRANCH  19  20
ENDBRANCH  18  19
ENDBRANCH  17  18
ENDBRANCH  16  17
ENDBRANCH  15  16
ENDBRANCH   1  15
TORSDOF 22
ENDMDL
MODEL 7
REMARK VINA RESULT:    -3.532      2.844      6.011
REMARK INTER + INTRA:         -12.244
REMARK INTER:                  -8.254
REMARK INTRA:                  -3.990
REMARK UNBOUND:                -4.170
REMARK SMILES CCCCCCCCCCCCCCCCCCCCCCCC(=O)[O-]
REMARK SMILES IDX 13 1 14 2 15 3 16 4 17 5 18 6 19 7 20 8 21 9 22 10 23 11
REMARK SMILES IDX 24 12 25 13 26 14 12 15 11 16 10 17 9 18 8 19 7 20 6 21 5 22
REMARK SMILES IDX 4 23 3 24 2 25 1 26
REMARK H PARENT
REMARK Flexibility Score: inf
ROOT
ATOM      1  C   UNL     1      12.142   1.735  -1.159  1.00  0.00     0.000 C 
ENDROOT
BRANCH   1   2
ATOM      2  C   UNL     1      10.689   1.614  -0.666  1.00  0.00     0.000 C 
BRANCH   2   3
ATOM      3  C   UNL     1      10.377   2.552   0.510  1.00  0.00     0.000 C 
BRANCH   3   4
ATOM      4  C   UNL     1       9.117   3.401   0.268  1.00  0.00     0.000 C 
BRANCH   4   5
ATOM      5  C   UNL     1       9.165   4.172  -1.062  1.00  0.00     0.000 C 
BRANCH   5   6
ATOM      6  C   UNL     1       8.001   3.809  -2.001  1.00  0.00     0.000 C 
BRANCH   6   7
ATOM      7  C   UNL     1       6.672   4.447  -1.564  1.00  0.00     0.000 C 
BRANCH   7   8
ATOM      8  C   UNL     1       6.858   5.853  -0.972  1.00  0.00     0.000 C 
BRANCH   8   9
ATOM      9  C   UNL     1       6.266   5.939   0.440  1.00  0.00     0.000 C 
BRANCH   9  10
ATOM     10  C   UNL     1       6.961   7.035   1.262  1.00  0.00     0.006 C 
BRANCH  10  11
ATOM     11  C   UNL     1       8.490   6.948   1.172  1.00  0.00     0.053 C 
BRANCH  11  12
ATOM     12  C   UNL     1       9.098   6.476   2.458  1.00  0.00     0.041 C 
ATOM     13  O   UNL     1       8.516   6.695   3.551  1.00  0.00    -0.550 OA
ATOM     14  O   UNL     1      10.324   5.822   2.450  1.00  0.00    -0.550 OA
ENDBRANCH  11  12
ENDBRANCH  10  11
ENDBRANCH   9  10
ENDBRANCH   8   9
ENDBRANCH   7   8
ENDBRANCH   6   7
ENDBRANCH   5   6
ENDBRANCH   4   5
ENDBRANCH   3   4
ENDBRANCH   2   3
ENDBRANCH   1   2
BRANCH   1  15
ATOM     15  C   UNL     1      12.230   2.397  -2.551  1.00  0.00     0.000 C 
BRANCH  15  16
ATOM     16  C   UNL     1      11.760   1.489  -3.701  1.00  0.00     0.000 C 
BRANCH  16  17
ATOM     17  C   UNL     1      11.273   2.280  -4.926  1.00  0.00     0.000 C 
BRANCH  17  18
ATOM     18  C   UNL     1      10.739   3.673  -4.551  1.00  0.00    -0.000 C 
BRANCH  18  19
ATOM     19  C   UNL     1      10.718   4.638  -5.752  1.00  0.00    -0.000 C 
BRANCH  19  20
ATOM     20  C   UNL     1      10.655   6.112  -5.323  1.00  0.00    -0.000 C 
BRANCH  20  21
ATOM     21  C   UNL     1      10.316   6.280  -3.834  1.00  0.00    -0.000 C 
BRANCH  21  22
ATOM     22  C   UNL     1       9.128   7.231  -3.646  1.00  0.00    -0.000 C 
BRANCH  22  23
ATOM     23  C   UNL     1       8.606   7.733  -5.001  1.00  0.00    -0.000 C 
BRANCH  23  24
ATOM     24  C   UNL     1       7.104   7.465  -5.193  1.00  0.00    -0.000 C 
BRANCH  24  25
ATOM     25  C   UNL     1       6.698   6.046  -4.767  1.00  0.00    -0.003 C 
ATOM     26  C   UNL     1       7.020   5.031  -5.861  1.00  0.00     0.004 C 
ENDBRANCH  24  25
ENDBRANCH  23  24
ENDBRANCH  22  23
ENDBRANCH  21  22
ENDBRANCH  20  21
ENDBRANCH  19  20
ENDBRANCH  18  19
ENDBRANCH  17  18
ENDBRANCH  16  17
ENDBRANCH  15  16
ENDBRANCH   1  15
TORSDOF 22
ENDMDL
MODEL 8
REMARK VINA RESULT:    -3.516      3.378      5.788
REMARK INTER + INTRA:         -12.207
REMARK INTER:                  -7.887
REMARK INTRA:                  -4.320
REMARK UNBOUND:                -4.170
REMARK SMILES CCCCCCCCCCCCCCCCCCCCCCCC(=O)[O-]
REMARK SMILES IDX 13 1 14 2 15 3 16 4 17 5 18 6 19 7 20 8 21 9 22 10 23 11
REMARK SMILES IDX 24 12 25 13 26 14 12 15 11 16 10 17 9 18 8 19 7 20 6 21 5 22
REMARK SMILES IDX 4 23 3 24 2 25 1 26
REMARK H PARENT
REMARK Flexibility Score: inf
ROOT
ATOM      1  C   UNL     1      10.087   3.079   0.244  1.00  0.00     0.000 C 
ENDROOT
BRANCH   1   2
ATOM      2  C   UNL     1      10.424   1.795  -0.535  1.00  0.00     0.000 C 
BRANCH   2   3
ATOM      3  C   UNL     1      11.918   1.676  -0.872  1.00  0.00     0.000 C 
BRANCH   3   4
ATOM      4  C   UNL     1      12.235   2.126  -2.310  1.00  0.00     0.000 C 
BRANCH   4   5
ATOM      5  C   UNL     1      11.057   1.909  -3.274  1.00  0.00     0.000 C 
BRANCH   5   6
ATOM      6  C   UNL     1      11.509   1.748  -4.736  1.00  0.00     0.000 C 
BRANCH   6   7
ATOM      7  C   UNL     1      11.336   3.042  -5.551  1.00  0.00     0.000 C 
BRANCH   7   8
ATOM      8  C   UNL     1      10.466   4.083  -4.828  1.00  0.00     0.000 C 
BRANCH   8   9
ATOM      9  C   UNL     1      10.660   5.478  -5.434  1.00  0.00     0.000 C 
BRANCH   9  10
ATOM     10  C   UNL     1       9.317   6.074  -5.882  1.00  0.00     0.006 C 
BRANCH  10  11
ATOM     11  C   UNL     1       8.131   5.167  -5.527  1.00  0.00     0.053 C 
BRANCH  11  12
ATOM     12  C   UNL     1       7.103   5.890  -4.710  1.00  0.00     0.041 C 
ATOM     13  O   UNL     1       6.888   7.115  -4.903  1.00  0.00    -0.550 OA
ATOM     14  O   UNL     1       6.404   5.216  -3.716  1.00  0.00    -0.550 OA
ENDBRANCH  11  12
ENDBRANCH  10  11
ENDBRANCH   9  10
ENDBRANCH   8   9
ENDBRANCH   7   8
ENDBRANCH   6   7
ENDBRANCH   5   6
ENDBRANCH   4   5
ENDBRANCH   3   4
ENDBRANCH   2   3
ENDBRANCH   1   2
BRANCH   1  15
ATOM     15  C   UNL     1       8.893   3.837  -0.376  1.00  0.00     0.000 C 
BRANCH  15  16
ATOM     16  C   UNL     1       9.281   4.757  -1.546  1.00  0.00     0.000 C 
BRANCH  16  17
ATOM     17  C   UNL     1      10.674   5.386  -1.375  1.00  0.00     0.000 C 
BRANCH  17  18
ATOM     18  C   UNL     1      10.737   6.826  -1.910  1.00  0.00    -0.000 C 
BRANCH  18  19
ATOM     19  C   UNL     1       9.349   7.378  -2.285  1.00  0.00    -0.000 C 
BRANCH  19  20
ATOM     20  C   UNL     1       9.056   8.735  -1.627  1.00  0.00    -0.000 C 
BRANCH  20  21
ATOM     21  C   UNL     1       7.710   8.756  -0.889  1.00  0.00    -0.000 C 
BRANCH  21  22
ATOM     22  C   UNL     1       7.893   8.419   0.596  1.00  0.00    -0.000 C 
BRANCH  22  23
ATOM     23  C   UNL     1       7.379   7.004   0.906  1.00  0.00    -0.000 C 
BRANCH  23  24
ATOM     24  C   UNL     1       8.064   6.382   2.134  1.00  0.00    -0.000 C 
BRANCH  24  25
ATOM     25  C   UNL     1       9.450   6.984   2.406  1.00  0.00    -0.003 C 
ATOM     26  C   UNL     1      10.512   5.893   2.517  1.00  0.00     0.004 C 
ENDBRANCH  24  25
ENDBRANCH  23  24
ENDBRANCH  22  23
ENDBRANCH  21  22
ENDBRANCH  20  21
ENDBRANCH  19  20
ENDBRANCH  18  19
ENDBRANCH  17  18
ENDBRANCH  16  17
ENDBRANCH  15  16
ENDBRANCH   1  15
TORSDOF 22
ENDMDL
MODEL 9
REMARK VINA RESULT:    -3.511      2.894      6.048
REMARK INTER + INTRA:         -12.197
REMARK INTER:                  -7.925
REMARK INTRA:                  -4.271
REMARK UNBOUND:                -4.170
REMARK SMILES CCCCCCCCCCCCCCCCCCCCCCCC(=O)[O-]
REMARK SMILES IDX 13 1 14 2 15 3 16 4 17 5 18 6 19 7 20 8 21 9 22 10 23 11
REMARK SMILES IDX 24 12 25 13 26 14 12 15 11 16 10 17 9 18 8 19 7 20 6 21 5 22
REMARK SMILES IDX 4 23 3 24 2 25 1 26
REMARK H PARENT
REMARK Flexibility Score: inf
ROOT
ATOM      1  C   UNL     1      12.147   2.196  -1.659  1.00  0.00     0.000 C 
ENDROOT
BRANCH   1   2
ATOM      2  C   UNL     1      11.783   1.632  -3.043  1.00  0.00     0.000 C 
BRANCH   2   3
ATOM      3  C   UNL     1      11.227   2.702  -3.996  1.00  0.00     0.000 C 
BRANCH   3   4
ATOM      4  C   UNL     1      10.110   3.541  -3.352  1.00  0.00     0.000 C 
BRANCH   4   5
ATOM      5  C   UNL     1      10.381   5.053  -3.432  1.00  0.00     0.000 C 
BRANCH   5   6
ATOM      6  C   UNL     1      10.574   5.695  -2.046  1.00  0.00     0.000 C 
BRANCH   6   7
ATOM      7  C   UNL     1      10.315   7.211  -2.059  1.00  0.00     0.000 C 
BRANCH   7   8
ATOM      8  C   UNL     1       8.844   7.557  -2.341  1.00  0.00     0.000 C 
BRANCH   8   9
ATOM      9  C   UNL     1       7.938   7.080  -1.199  1.00  0.00     0.000 C 
BRANCH   9  10
ATOM     10  C   UNL     1       6.630   6.490  -1.745  1.00  0.00     0.006 C 
BRANCH  10  11
ATOM     11  C   UNL     1       6.603   4.958  -1.661  1.00  0.00     0.053 C 
BRANCH  11  12
ATOM     12  C   UNL     1       6.427   4.330  -3.010  1.00  0.00     0.041 C 
ATOM     13  O   UNL     1       5.924   3.181  -3.113  1.00  0.00    -0.550 OA
ATOM     14  O   UNL     1       6.847   5.002  -4.151  1.00  0.00    -0.550 OA
ENDBRANCH  11  12
ENDBRANCH  10  11
ENDBRANCH   9  10
ENDBRANCH   8   9
ENDBRANCH   7   8
ENDBRANCH   6   7
ENDBRANCH   5   6
ENDBRANCH   4   5
ENDBRANCH   3   4
ENDBRANCH   2   3
ENDBRANCH   1   2
BRANCH   1  15
ATOM     15  C   UNL     1      11.319   1.542  -0.530  1.00  0.00     0.000 C 
BRANCH  15  16
ATOM     16  C   UNL     1      10.751   2.547   0.486  1.00  0.00     0.000 C 
BRANCH  16  17
ATOM     17  C   UNL     1       9.313   2.979   0.159  1.00  0.00     0.000 C 
BRANCH  17  18
ATOM     18  C   UNL     1       8.873   4.214   0.965  1.00  0.00    -0.000 C 
BRANCH  18  19
ATOM     19  C   UNL     1      10.029   4.835   1.769  1.00  0.00    -0.000 C 
BRANCH  19  20
ATOM     20  C   UNL     1      10.197   6.338   1.497  1.00  0.00    -0.000 C 
BRANCH  20  21
ATOM     21  C   UNL     1       9.747   7.207   2.681  1.00  0.00    -0.000 C 
BRANCH  21  22
ATOM     22  C   UNL     1       9.016   8.463   2.193  1.00  0.00    -0.000 C 
BRANCH  22  23
ATOM     23  C   UNL     1       7.546   8.453   2.643  1.00  0.00    -0.000 C 
BRANCH  23  24
ATOM     24  C   UNL     1       7.276   7.429   3.758  1.00  0.00    -0.000 C 
BRANCH  24  25
ATOM     25  C   UNL     1       6.676   6.120   3.226  1.00  0.00    -0.003 C 
ATOM     26  C   UNL     1       5.914   6.354   1.925  1.00  0.00     0.004 C 
ENDBRANCH  24  25
ENDBRANCH  23  24
ENDBRANCH  22  23
ENDBRANCH  21  22
ENDBRANCH  20  21
ENDBRANCH  19  20
ENDBRANCH  18  19
ENDBRANCH  17  18
ENDBRANCH  16  17
ENDBRANCH  15  16
ENDBRANCH   1  15
TORSDOF 22
ENDMDL
