MODEL 1
REMARK VINA RESULT:    -4.361      0.000      0.000
REMARK INTER + INTRA:          -5.559
REMARK INTER:                  -5.381
REMARK INTRA:                  -0.178
REMARK UNBOUND:                -0.178
REMARK SMILES CCCCCC(=O)[O-]
REMARK SMILES IDX 4 1 5 2 6 3 7 4 8 5 3 6 2 7 1 8
REMARK H PARENT
REMARK Flexibility Score: inf
ROOT
ATOM      1  C   UNL     1     -23.297  36.270   7.354  1.00  0.00     0.006 C 
ENDROOT
BRANCH   1   2
ATOM      2  C   UNL     1     -23.545  37.707   7.831  1.00  0.00     0.053 C 
BRANCH   2   3
ATOM      3  C   UNL     1     -22.754  38.675   7.011  1.00  0.00     0.041 C 
ATOM      4  O   UNL     1     -22.040  39.547   7.574  1.00  0.00    -0.550 OA
ATOM      5  O   UNL     1     -22.764  38.584   5.625  1.00  0.00    -0.550 OA
ENDBRANCH   2   3
ENDBRANCH   1   2
BRANCH   1   6
ATOM      6  C   UNL     1     -21.824  35.841   7.527  1.00  0.00     0.000 C 
BRANCH   6   7
ATOM      7  C   UNL     1     -21.349  35.849   8.989  1.00  0.00    -0.003 C 
ATOM      8  C   UNL     1     -19.860  36.153   9.134  1.00  0.00     0.004 C 
ENDBRANCH   6   7
ENDBRANCH   1   6
TORSDOF 4
ENDMDL
MODEL 2
REMARK VINA RESULT:    -4.346      2.239      3.529
REMARK INTER + INTRA:          -5.541
REMARK INTER:                  -5.319
REMARK INTRA:                  -0.222
REMARK UNBOUND:                -0.178
REMARK SMILES CCCCCC(=O)[O-]
REMARK SMILES IDX 4 1 5 2 6 3 7 4 8 5 3 6 2 7 1 8
REMARK H PARENT
REMARK Flexibility Score: inf
ROOT
ATOM      1  C   UNL     1     -21.503  35.921   8.951  1.00  0.00     0.006 C 
ENDROOT
BRANCH   1   2
ATOM      2  C   UNL     1     -20.021  36.143   8.622  1.00  0.00     0.053 C 
BRANCH   2   3
ATOM      3  C   UNL     1     -19.816  36.207   7.142  1.00  0.00     0.041 C 
ATOM      4  O   UNL     1     -18.909  36.936   6.659  1.00  0.00    -0.550 OA
ATOM      5  O   UNL     1     -20.593  35.424   6.298  1.00  0.00    -0.550 OA
ENDBRANCH   2   3
ENDBRANCH   1   2
BRANCH   1   6
ATOM      6  C   UNL     1     -22.252  37.248   9.200  1.00  0.00     0.000 C 
BRANCH   6   7
ATOM      7  C   UNL     1     -23.310  37.567   8.132  1.00  0.00    -0.003 C 
ATOM      8  C   UNL     1     -23.760  36.336   7.349  1.00  0.00     0.004 C 
ENDBRANCH   6   7
ENDBRANCH   1   6
TORSDOF 4
ENDMDL
MODEL 3
REMARK VINA RESULT:    -4.304      1.613      1.957
REMARK INTER + INTRA:          -5.489
REMARK INTER:                  -5.244
REMARK INTRA:                  -0.245
REMARK UNBOUND:                -0.178
REMARK SMILES CCCCCC(=O)[O-]
REMARK SMILES IDX 4 1 5 2 6 3 7 4 8 5 3 6 2 7 1 8
REMARK H PARENT
REMARK Flexibility Score: inf
ROOT
ATOM      1  C   UNL     1     -22.345  36.375   6.216  1.00  0.00     0.006 C 
ENDROOT
BRANCH   1   2
ATOM      2  C   UNL     1     -23.518  36.241   7.196  1.00  0.00     0.053 C 
BRANCH   2   3
ATOM      3  C   UNL     1     -23.699  37.505   7.973  1.00  0.00     0.041 C 
ATOM      4  O   UNL     1     -24.591  37.582   8.859  1.00  0.00    -0.550 OA
ATOM      5  O   UNL     1     -22.852  38.584   7.754  1.00  0.00    -0.550 OA
ENDBRANCH   2   3
ENDBRANCH   1   2
BRANCH   1   6
ATOM      6  C   UNL     1     -21.150  35.478   6.608  1.00  0.00     0.000 C 
BRANCH   6   7
ATOM      7  C   UNL     1     -20.038  36.229   7.358  1.00  0.00    -0.003 C 
ATOM      8  C   UNL     1     -20.182  36.153   8.876  1.00  0.00     0.004 C 
ENDBRANCH   6   7
ENDBRANCH   1   6
TORSDOF 4
ENDMDL
MODEL 4
REMARK VINA RESULT:    -4.273     13.880     14.752
REMARK INTER + INTRA:          -5.451
REMARK INTER:                  -5.226
REMARK INTRA:                  -0.225
REMARK UNBOUND:                -0.178
REMARK SMILES CCCCCC(=O)[O-]
REMARK SMILES IDX 4 1 5 2 6 3 7 4 8 5 3 6 2 7 1 8
REMARK H PARENT
REMARK Flexibility Score: inf
ROOT
ATOM      1  C   UNL     1     -18.087  40.384  -5.042  1.00  0.00     0.006 C 
ENDROOT
BRANCH   1   2
ATOM      2  C   UNL     1     -17.697  40.463  -6.523  1.00  0.00     0.053 C 
BRANCH   2   3
ATOM      3  C   UNL     1     -18.227  41.718  -7.138  1.00  0.00     0.041 C 
ATOM      4  O   UNL     1     -18.144  42.811  -6.518  1.00  0.00    -0.550 OA
ATOM      5  O   UNL     1     -18.767  41.692  -8.418  1.00  0.00    -0.550 OA
ENDBRANCH   2   3
ENDBRANCH   1   2
BRANCH   1   6
ATOM      6  C   UNL     1     -16.878  40.066  -4.135  1.00  0.00     0.000 C 
BRANCH   6   7
ATOM      7  C   UNL     1     -15.857  41.213  -4.048  1.00  0.00    -0.003 C 
ATOM      8  C   UNL     1     -16.448  42.500  -3.480  1.00  0.00     0.004 C 
ENDBRANCH   6   7
ENDBRANCH   1   6
TORSDOF 4
ENDMDL
MODEL 5
REMARK VINA RESULT:    -4.272      1.585      2.424
REMARK INTER + INTRA:          -5.449
REMARK INTER:                  -5.208
REMARK INTRA:                  -0.240
REMARK UNBOUND:                -0.178
REMARK SMILES CCCCCC(=O)[O-]
REMARK SMILES IDX 4 1 5 2 6 3 7 4 8 5 3 6 2 7 1 8
REMARK H PARENT
REMARK Flexibility Score: inf
ROOT
ATOM      1  C   UNL     1     -21.285  35.782   9.006  1.00  0.00     0.006 C 
ENDROOT
BRANCH   1   2
ATOM      2  C   UNL     1     -22.014  36.974   9.640  1.00  0.00     0.053 C 
BRANCH   2   3
ATOM      3  C   UNL     1     -22.669  37.808   8.587  1.00  0.00     0.041 C 
ATOM      4  O   UNL     1     -22.111  38.858   8.172  1.00  0.00    -0.550 OA
ATOM      5  O   UNL     1     -23.874  37.401   8.027  1.00  0.00    -0.550 OA
ENDBRANCH   2   3
ENDBRANCH   1   2
BRANCH   1   6
ATOM      6  C   UNL     1     -19.879  36.160   8.494  1.00  0.00     0.000 C 
BRANCH   6   7
ATOM      7  C   UNL     1     -19.776  36.211   6.961  1.00  0.00    -0.003 C 
ATOM      8  C   UNL     1     -20.925  35.490   6.259  1.00  0.00     0.004 C 
ENDBRANCH   6   7
ENDBRANCH   1   6
TORSDOF 4
ENDMDL
MODEL 6
REMARK VINA RESULT:    -4.254     13.888     14.707
REMARK INTER + INTRA:          -5.426
REMARK INTER:                  -5.203
REMARK INTRA:                  -0.224
REMARK UNBOUND:                -0.178
REMARK SMILES CCCCCC(=O)[O-]
REMARK SMILES IDX 4 1 5 2 6 3 7 4 8 5 3 6 2 7 1 8
REMARK H PARENT
REMARK Flexibility Score: inf
ROOT
ATOM      1  C   UNL     1     -17.830  42.833  -4.143  1.00  0.00     0.006 C 
ENDROOT
BRANCH   1   2
ATOM      2  C   UNL     1     -17.863  43.695  -5.411  1.00  0.00     0.053 C 
BRANCH   2   3
ATOM      3  C   UNL     1     -18.420  42.916  -6.560  1.00  0.00     0.041 C 
ATOM      4  O   UNL     1     -17.901  41.817  -6.891  1.00  0.00    -0.550 OA
ATOM      5  O   UNL     1     -19.543  43.378  -7.234  1.00  0.00    -0.550 OA
ENDBRANCH   2   3
ENDBRANCH   1   2
BRANCH   1   6
ATOM      6  C   UNL     1     -16.390  42.574  -3.649  1.00  0.00     0.000 C 
BRANCH   6   7
ATOM      7  C   UNL     1     -15.792  41.255  -4.163  1.00  0.00    -0.003 C 
ATOM      8  C   UNL     1     -16.739  40.067  -4.008  1.00  0.00     0.004 C 
ENDBRANCH   6   7
ENDBRANCH   1   6
TORSDOF 4
ENDMDL
MODEL 7
REMARK VINA RESULT:    -4.233     13.259     14.367
REMARK INTER + INTRA:          -5.401
REMARK INTER:                  -5.127
REMARK INTRA:                  -0.274
REMARK UNBOUND:                -0.178
REMARK SMILES CCCCCC(=O)[O-]
REMARK SMILES IDX 4 1 5 2 6 3 7 4 8 5 3 6 2 7 1 8
REMARK H PARENT
REMARK Flexibility Score: inf
ROOT
ATOM      1  C   UNL     1     -17.157  40.091  -4.349  1.00  0.00     0.006 C 
ENDROOT
BRANCH   1   2
ATOM      2  C   UNL     1     -16.066  40.951  -3.699  1.00  0.00     0.053 C 
BRANCH   2   3
ATOM      3  C   UNL     1     -16.493  42.383  -3.640  1.00  0.00     0.041 C 
ATOM      4  O   UNL     1     -15.741  43.287  -4.091  1.00  0.00    -0.550 OA
ATOM      5  O   UNL     1     -17.742  42.716  -3.132  1.00  0.00    -0.550 OA
ENDBRANCH   2   3
ENDBRANCH   1   2
BRANCH   1   6
ATOM      6  C   UNL     1     -17.188  40.247  -5.885  1.00  0.00     0.000 C 
BRANCH   6   7
ATOM      7  C   UNL     1     -18.488  40.873  -6.413  1.00  0.00    -0.003 C 
ATOM      8  C   UNL     1     -18.318  42.324  -6.856  1.00  0.00     0.004 C 
ENDBRANCH   6   7
ENDBRANCH   1   6
TORSDOF 4
ENDMDL
MODEL 8
REMARK VINA RESULT:    -4.201      1.321      1.594
REMARK INTER + INTRA:          -5.362
REMARK INTER:                  -5.143
REMARK INTRA:                  -0.218
REMARK UNBOUND:                -0.178
REMARK SMILES CCCCCC(=O)[O-]
REMARK SMILES IDX 4 1 5 2 6 3 7 4 8 5 3 6 2 7 1 8
REMARK H PARENT
REMARK Flexibility Score: inf
ROOT
ATOM      1  C   UNL     1     -22.762  36.661   6.208  1.00  0.00     0.006 C 
ENDROOT
BRANCH   1   2
ATOM      2  C   UNL     1     -22.235  37.876   5.433  1.00  0.00     0.053 C 
BRANCH   2   3
ATOM      3  C   UNL     1     -21.841  38.968   6.374  1.00  0.00     0.041 C 
ATOM      4  O   UNL     1     -21.046  39.871   6.000  1.00  0.00    -0.550 OA
ATOM      5  O   UNL     1     -22.389  39.019   7.650  1.00  0.00    -0.550 OA
ENDBRANCH   2   3
ENDBRANCH   1   2
BRANCH   1   6
ATOM      6  C   UNL     1     -21.622  35.761   6.731  1.00  0.00     0.000 C 
BRANCH   6   7
ATOM      7  C   UNL     1     -21.643  35.566   8.256  1.00  0.00    -0.003 C 
ATOM      8  C   UNL     1     -20.439  36.193   8.957  1.00  0.00     0.004 C 
ENDBRANCH   6   7
ENDBRANCH   1   6
TORSDOF 4
ENDMDL
MODEL 9
REMARK VINA RESULT:    -4.184     13.453     14.023
REMARK INTER + INTRA:          -5.340
REMARK INTER:                  -5.130
REMARK INTRA:                  -0.211
REMARK UNBOUND:                -0.178
REMARK SMILES CCCCCC(=O)[O-]
REMARK SMILES IDX 4 1 5 2 6 3 7 4 8 5 3 6 2 7 1 8
REMARK H PARENT
REMARK Flexibility Score: inf
ROOT
ATOM      1  C   UNL     1     -17.818  42.347  -5.726  1.00  0.00     0.006 C 
ENDROOT
BRANCH   1   2
ATOM      2  C   UNL     1     -19.351  42.374  -5.725  1.00  0.00     0.053 C 
BRANCH   2   3
ATOM      3  C   UNL     1     -19.899  41.063  -5.260  1.00  0.00     0.041 C 
ATOM      4  O   UNL     1     -19.291  40.400  -4.378  1.00  0.00    -0.550 OA
ATOM      5  O   UNL     1     -21.106  40.595  -5.762  1.00  0.00    -0.550 OA
ENDBRANCH   2   3
ENDBRANCH   1   2
BRANCH   1   6
ATOM      6  C   UNL     1     -17.216  43.232  -4.613  1.00  0.00     0.000 C 
BRANCH   6   7
ATOM      7  C   UNL     1     -16.496  42.433  -3.514  1.00  0.00    -0.003 C 
ATOM      8  C   UNL     1     -15.891  41.127  -4.022  1.00  0.00     0.004 C 
ENDBRANCH   6   7
ENDBRANCH   1   6
TORSDOF 4
ENDMDL
