MODEL 1
REMARK VINA RESULT:    -4.247      0.000      0.000
REMARK INTER + INTRA:          -4.651
REMARK INTER:                  -4.620
REMARK INTRA:                  -0.032
REMARK UNBOUND:                -0.032
REMARK SMILES O=C([O-])c1ccc(O)cc1
REMARK SMILES IDX 7 1 6 2 9 3 5 4 10 5 4 6 8 7 2 9 1 10 3 11
REMARK H PARENT 8 8
REMARK Flexibility Score: inf
ROOT
ATOM      1  C   UNL     1       1.009  27.496  33.367  1.00  0.00     0.115 A 
ATOM      2  C   UNL     1       0.090  26.650  32.741  1.00  0.00     0.047 A 
ATOM      3  C   UNL     1       1.715  28.438  32.609  1.00  0.00     0.047 A 
ATOM      4  C   UNL     1      -0.124  26.740  31.362  1.00  0.00     0.014 A 
ATOM      5  C   UNL     1       1.505  28.531  31.230  1.00  0.00     0.014 A 
ATOM      6  C   UNL     1       0.581  27.682  30.592  1.00  0.00    -0.003 A 
ENDROOT
BRANCH   1   7
ATOM      7  O   UNL     1       1.211  27.395  34.743  1.00  0.00    -0.508 OA
ATOM      8  H   UNL     1       0.453  27.534  35.401  1.00  0.00     0.293 HD
ENDBRANCH   1   7
BRANCH   6   9
ATOM      9  C   UNL     1       0.353  27.776  29.133  1.00  0.00     0.071 C 
ATOM     10  O   UNL     1       0.244  26.734  28.433  1.00  0.00    -0.545 OA
ATOM     11  O   UNL     1       0.254  29.017  28.513  1.00  0.00    -0.545 OA
ENDBRANCH   6   9
TORSDOF 2
ENDMDL
MODEL 2
REMARK VINA RESULT:    -4.190      0.208      1.540
REMARK INTER + INTRA:          -4.589
REMARK INTER:                  -4.558
REMARK INTRA:                  -0.031
REMARK UNBOUND:                -0.032
REMARK SMILES O=C([O-])c1ccc(O)cc1
REMARK SMILES IDX 7 1 6 2 9 3 5 4 10 5 4 6 8 7 2 9 1 10 3 11
REMARK H PARENT 8 8
REMARK Flexibility Score: inf
ROOT
ATOM      1  C   UNL     1       1.140  27.515  33.353  1.00  0.00     0.115 A 
ATOM      2  C   UNL     1       1.920  28.315  32.513  1.00  0.00     0.047 A 
ATOM      3  C   UNL     1       0.118  26.727  32.810  1.00  0.00     0.047 A 
ATOM      4  C   UNL     1       1.681  28.332  31.135  1.00  0.00     0.014 A 
ATOM      5  C   UNL     1      -0.125  26.742  31.433  1.00  0.00     0.014 A 
ATOM      6  C   UNL     1       0.656  27.545  30.580  1.00  0.00    -0.003 A 
ENDROOT
BRANCH   1   7
ATOM      7  O   UNL     1       1.390  27.508  34.724  1.00  0.00    -0.508 OA
ATOM      8  H   UNL     1       1.041  26.769  35.322  1.00  0.00     0.293 HD
ENDBRANCH   1   7
BRANCH   6   9
ATOM      9  C   UNL     1       0.405  27.564  29.123  1.00  0.00     0.071 C 
ATOM     10  O   UNL     1       0.249  26.488  28.485  1.00  0.00    -0.545 OA
ATOM     11  O   UNL     1       0.336  28.771  28.435  1.00  0.00    -0.545 OA
ENDBRANCH   6   9
TORSDOF 2
ENDMDL
MODEL 3
REMARK VINA RESULT:    -3.681      1.410      4.209
REMARK INTER + INTRA:          -4.036
REMARK INTER:                  -4.000
REMARK INTRA:                  -0.036
REMARK UNBOUND:                -0.032
REMARK SMILES O=C([O-])c1ccc(O)cc1
REMARK SMILES IDX 7 1 6 2 9 3 5 4 10 5 4 6 8 7 2 9 1 10 3 11
REMARK H PARENT 8 8
REMARK Flexibility Score: inf
ROOT
ATOM      1  C   UNL     1       0.139  27.479  28.588  1.00  0.00     0.115 A 
ATOM      2  C   UNL     1       0.534  26.479  29.481  1.00  0.00     0.047 A 
ATOM      3  C   UNL     1      -0.125  28.769  29.063  1.00  0.00     0.047 A 
ATOM      4  C   UNL     1       0.665  26.763  30.844  1.00  0.00     0.014 A 
ATOM      5  C   UNL     1       0.004  29.057  30.426  1.00  0.00     0.014 A 
ATOM      6  C   UNL     1       0.401  28.055  31.331  1.00  0.00    -0.003 A 
ENDROOT
BRANCH   1   7
ATOM      7  O   UNL     1       0.014  27.181  27.232  1.00  0.00    -0.508 OA
ATOM      8  H   UNL     1      -0.065  27.911  26.535  1.00  0.00     0.293 HD
ENDBRANCH   1   7
BRANCH   6   9
ATOM      9  C   UNL     1       0.540  28.354  32.773  1.00  0.00     0.071 C 
ATOM     10  O   UNL     1       0.930  27.465  33.576  1.00  0.00    -0.545 OA
ATOM     11  O   UNL     1       0.243  29.621  33.263  1.00  0.00    -0.545 OA
ENDBRANCH   6   9
TORSDOF 2
ENDMDL
MODEL 4
REMARK VINA RESULT:    -3.636      1.446      4.378
REMARK INTER + INTRA:          -3.987
REMARK INTER:                  -3.952
REMARK INTRA:                  -0.035
REMARK UNBOUND:                -0.032
REMARK SMILES O=C([O-])c1ccc(O)cc1
REMARK SMILES IDX 7 1 6 2 9 3 5 4 10 5 4 6 8 7 2 9 1 10 3 11
REMARK H PARENT 8 8
REMARK Flexibility Score: inf
ROOT
ATOM      1  C   UNL     1       0.003  27.363  28.562  1.00  0.00     0.115 A 
ATOM      2  C   UNL     1      -0.125  28.689  28.983  1.00  0.00     0.047 A 
ATOM      3  C   UNL     1       0.257  26.356  29.503  1.00  0.00     0.047 A 
ATOM      4  C   UNL     1      -0.001  29.013  30.338  1.00  0.00     0.014 A 
ATOM      5  C   UNL     1       0.383  26.676  30.858  1.00  0.00     0.014 A 
ATOM      6  C   UNL     1       0.255  28.010  31.290  1.00  0.00    -0.003 A 
ENDROOT
BRANCH   1   7
ATOM      7  O   UNL     1      -0.124  27.055  27.209  1.00  0.00    -0.508 OA
ATOM      8  H   UNL     1       0.638  27.204  26.558  1.00  0.00     0.293 HD
ENDBRANCH   1   7
BRANCH   6   9
ATOM      9  C   UNL     1       0.386  28.355  32.723  1.00  0.00     0.071 C 
ATOM     10  O   UNL     1       0.932  27.553  33.527  1.00  0.00    -0.545 OA
ATOM     11  O   UNL     1      -0.090  29.570  33.202  1.00  0.00    -0.545 OA
ENDBRANCH   6   9
TORSDOF 2
ENDMDL
MODEL 5
REMARK VINA RESULT:    -1.890     18.522     18.946
REMARK INTER + INTRA:          -2.087
REMARK INTER:                  -2.058
REMARK INTRA:                  -0.028
REMARK UNBOUND:                -0.032
REMARK SMILES O=C([O-])c1ccc(O)cc1
REMARK SMILES IDX 7 1 6 2 9 3 5 4 10 5 4 6 8 7 2 9 1 10 3 11
REMARK H PARENT 8 8
REMARK Flexibility Score: inf
ROOT
ATOM      1  C   UNL     1      19.341  21.114  28.456  1.00  0.00     0.115 A 
ATOM      2  C   UNL     1      18.076  21.281  27.887  1.00  0.00     0.047 A 
ATOM      3  C   UNL     1      20.125  22.237  28.749  1.00  0.00     0.047 A 
ATOM      4  C   UNL     1      17.592  22.564  27.610  1.00  0.00     0.014 A 
ATOM      5  C   UNL     1      19.645  23.521  28.472  1.00  0.00     0.014 A 
ATOM      6  C   UNL     1      18.371  23.697  27.899  1.00  0.00    -0.003 A 
ENDROOT
BRANCH   1   7
ATOM      7  O   UNL     1      19.810  19.830  28.728  1.00  0.00    -0.508 OA
ATOM      8  H   UNL     1      19.226  19.139  29.183  1.00  0.00     0.293 HD
ENDBRANCH   1   7
BRANCH   6   9
ATOM      9  C   UNL     1      17.857  25.053  27.605  1.00  0.00     0.071 C 
ATOM     10  O   UNL     1      18.439  25.790  26.764  1.00  0.00    -0.545 OA
ATOM     11  O   UNL     1      16.724  25.533  28.251  1.00  0.00    -0.545 OA
ENDBRANCH   6   9
TORSDOF 2
ENDMDL
