MODEL 1
REMARK VINA RESULT:    -4.094      0.000      0.000
REMARK INTER + INTRA:          -6.758
REMARK INTER:                  -6.008
REMARK INTRA:                  -0.750
REMARK UNBOUND:                -0.750
REMARK SMILES O=C([O-])CCCCCCCC(=O)[O-]
REMARK SMILES IDX 7 1 6 2 5 3 4 4 2 5 1 6 3 7 8 8 9 9 10 10 11 11 12 12 13 13
REMARK H PARENT
REMARK Flexibility Score: inf
ROOT
ATOM      1  C   UNL     1     114.106 109.700 120.275  1.00  0.00     0.000 C 
ENDROOT
BRANCH   1   2
ATOM      2  C   UNL     1     112.891 110.644 120.304  1.00  0.00     0.000 C 
BRANCH   2   3
ATOM      3  C   UNL     1     111.945 110.351 121.481  1.00  0.00     0.006 C 
BRANCH   3   4
ATOM      4  C   UNL     1     111.834 111.529 122.458  1.00  0.00     0.053 C 
BRANCH   4   5
ATOM      5  C   UNL     1     111.556 112.798 121.715  1.00  0.00     0.041 C 
ATOM      6  O   UNL     1     110.489 112.929 121.060  1.00  0.00    -0.550 OA
ATOM      7  O   UNL     1     112.454 113.856 121.786  1.00  0.00    -0.550 OA
ENDBRANCH   4   5
ENDBRANCH   3   4
ENDBRANCH   2   3
ENDBRANCH   1   2
BRANCH   1   8
ATOM      8  C   UNL     1     114.533 109.244 121.680  1.00  0.00     0.000 C 
BRANCH   8   9
ATOM      9  C   UNL     1     115.806 109.949 122.172  1.00  0.00     0.006 C 
BRANCH   9  10
ATOM     10  C   UNL     1     115.462 111.235 122.927  1.00  0.00     0.053 C 
BRANCH  10  11
ATOM     11  C   UNL     1     116.087 112.420 122.260  1.00  0.00     0.041 C 
ATOM     12  O   UNL     1     115.597 112.877 121.194  1.00  0.00    -0.550 OA
ATOM     13  O   UNL     1     117.240 112.987 122.787  1.00  0.00    -0.550 OA
ENDBRANCH  10  11
ENDBRANCH   9  10
ENDBRANCH   8   9
ENDBRANCH   1   8
TORSDOF 8
ENDMDL
MODEL 2
REMARK VINA RESULT:    -4.055      0.253      4.116
REMARK INTER + INTRA:          -6.701
REMARK INTER:                  -5.950
REMARK INTRA:                  -0.750
REMARK UNBOUND:                -0.750
REMARK SMILES O=C([O-])CCCCCCCC(=O)[O-]
REMARK SMILES IDX 7 1 6 2 5 3 4 4 2 5 1 6 3 7 8 8 9 9 10 10 11 11 12 12 13 13
REMARK H PARENT
REMARK Flexibility Score: inf
ROOT
ATOM      1  C   UNL     1     114.158 109.622 120.345  1.00  0.00     0.000 C 
ENDROOT
BRANCH   1   2
ATOM      2  C   UNL     1     114.643 109.251 121.758  1.00  0.00     0.000 C 
BRANCH   2   3
ATOM      3  C   UNL     1     115.927 109.998 122.155  1.00  0.00     0.006 C 
BRANCH   3   4
ATOM      4  C   UNL     1     115.646 111.269 122.967  1.00  0.00     0.053 C 
BRANCH   4   5
ATOM      5  C   UNL     1     116.138 112.476 122.232  1.00  0.00     0.041 C 
ATOM      6  O   UNL     1     115.346 113.160 121.533  1.00  0.00    -0.550 OA
ATOM      7  O   UNL     1     117.463 112.875 122.360  1.00  0.00    -0.550 OA
ENDBRANCH   4   5
ENDBRANCH   3   4
ENDBRANCH   2   3
ENDBRANCH   1   2
BRANCH   1   8
ATOM      8  C   UNL     1     113.070 110.708 120.360  1.00  0.00     0.000 C 
BRANCH   8   9
ATOM      9  C   UNL     1     112.001 110.462 121.436  1.00  0.00     0.006 C 
BRANCH   9  10
ATOM     10  C   UNL     1     111.936 111.632 122.421  1.00  0.00     0.053 C 
BRANCH  10  11
ATOM     11  C   UNL     1     111.464 112.873 121.731  1.00  0.00     0.041 C 
ATOM     12  O   UNL     1     110.448 112.838 120.989  1.00  0.00    -0.550 OA
ATOM     13  O   UNL     1     112.175 114.058 121.869  1.00  0.00    -0.550 OA
ENDBRANCH  10  11
ENDBRANCH   9  10
ENDBRANCH   8   9
ENDBRANCH   1   8
TORSDOF 8
ENDMDL
MODEL 3
REMARK VINA RESULT:    -3.908      0.824      1.656
REMARK INTER + INTRA:          -6.486
REMARK INTER:                  -5.886
REMARK INTRA:                  -0.600
REMARK UNBOUND:                -0.750
REMARK SMILES O=C([O-])CCCCCCCC(=O)[O-]
REMARK SMILES IDX 7 1 6 2 5 3 4 4 2 5 1 6 3 7 8 8 9 9 10 10 11 11 12 12 13 13
REMARK H PARENT
REMARK Flexibility Score: inf
ROOT
ATOM      1  C   UNL     1     114.482 109.274 121.623  1.00  0.00     0.000 C 
ENDROOT
BRANCH   1   2
ATOM      2  C   UNL     1     113.488 110.315 121.077  1.00  0.00     0.000 C 
BRANCH   2   3
ATOM      3  C   UNL     1     112.086 110.169 121.692  1.00  0.00     0.006 C 
BRANCH   3   4
ATOM      4  C   UNL     1     111.702 111.361 122.578  1.00  0.00     0.053 C 
BRANCH   4   5
ATOM      5  C   UNL     1     111.500 112.587 121.744  1.00  0.00     0.041 C 
ATOM      6  O   UNL     1     112.108 113.653 122.024  1.00  0.00    -0.550 OA
ATOM      7  O   UNL     1     110.677 112.538 120.625  1.00  0.00    -0.550 OA
ENDBRANCH   4   5
ENDBRANCH   3   4
ENDBRANCH   2   3
ENDBRANCH   1   2
BRANCH   1   8
ATOM      8  C   UNL     1     115.658 109.918 122.376  1.00  0.00     0.000 C 
BRANCH   8   9
ATOM      9  C   UNL     1     115.447 111.419 122.633  1.00  0.00     0.006 C 
BRANCH   9  10
ATOM     10  C   UNL     1     116.762 112.189 122.484  1.00  0.00     0.053 C 
BRANCH  10  11
ATOM     11  C   UNL     1     116.648 113.217 121.403  1.00  0.00     0.041 C 
ATOM     12  O   UNL     1     117.658 113.880 121.050  1.00  0.00    -0.550 OA
ATOM     13  O   UNL     1     115.415 113.478 120.819  1.00  0.00    -0.550 OA
ENDBRANCH  10  11
ENDBRANCH   9  10
ENDBRANCH   8   9
ENDBRANCH   1   8
TORSDOF 8
ENDMDL
MODEL 4
REMARK VINA RESULT:    -3.880      0.859      4.588
REMARK INTER + INTRA:          -6.444
REMARK INTER:                  -5.807
REMARK INTRA:                  -0.638
REMARK UNBOUND:                -0.750
REMARK SMILES O=C([O-])CCCCCCCC(=O)[O-]
REMARK SMILES IDX 7 1 6 2 5 3 4 4 2 5 1 6 3 7 8 8 9 9 10 10 11 11 12 12 13 13
REMARK H PARENT
REMARK Flexibility Score: inf
ROOT
ATOM      1  C   UNL     1     114.247 109.265 121.234  1.00  0.00     0.000 C 
ENDROOT
BRANCH   1   2
ATOM      2  C   UNL     1     115.559 109.992 121.577  1.00  0.00     0.000 C 
BRANCH   2   3
ATOM      3  C   UNL     1     115.364 111.090 122.636  1.00  0.00     0.006 C 
BRANCH   3   4
ATOM      4  C   UNL     1     115.677 112.493 122.099  1.00  0.00     0.053 C 
BRANCH   4   5
ATOM      5  C   UNL     1     117.123 112.818 122.305  1.00  0.00     0.041 C 
ATOM      6  O   UNL     1     117.770 112.272 123.237  1.00  0.00    -0.550 OA
ATOM      7  O   UNL     1     117.770 113.689 121.437  1.00  0.00    -0.550 OA
ENDBRANCH   4   5
ENDBRANCH   3   4
ENDBRANCH   2   3
ENDBRANCH   1   2
BRANCH   1   8
ATOM      8  C   UNL     1     113.121 110.234 120.837  1.00  0.00     0.000 C 
BRANCH   8   9
ATOM      9  C   UNL     1     111.888 110.116 121.746  1.00  0.00     0.006 C 
BRANCH   9  10
ATOM     10  C   UNL     1     111.705 111.382 122.587  1.00  0.00     0.053 C 
BRANCH  10  11
ATOM     11  C   UNL     1     111.531 112.578 121.705  1.00  0.00     0.041 C 
ATOM     12  O   UNL     1     112.290 113.574 121.831  1.00  0.00    -0.550 OA
ATOM     13  O   UNL     1     110.498 112.613 120.776  1.00  0.00    -0.550 OA
ENDBRANCH  10  11
ENDBRANCH   9  10
ENDBRANCH   8   9
ENDBRANCH   1   8
TORSDOF 8
ENDMDL
MODEL 5
REMARK VINA RESULT:    -3.710      1.455      1.959
REMARK INTER + INTRA:          -6.194
REMARK INTER:                  -5.577
REMARK INTRA:                  -0.618
REMARK UNBOUND:                -0.750
REMARK SMILES O=C([O-])CCCCCCCC(=O)[O-]
REMARK SMILES IDX 7 1 6 2 5 3 4 4 2 5 1 6 3 7 8 8 9 9 10 10 11 11 12 12 13 13
REMARK H PARENT
REMARK Flexibility Score: inf
ROOT
ATOM      1  C   UNL     1     114.210 109.649 120.630  1.00  0.00     0.000 C 
ENDROOT
BRANCH   1   2
ATOM      2  C   UNL     1     113.156 109.502 121.741  1.00  0.00     0.000 C 
BRANCH   2   3
ATOM      3  C   UNL     1     111.914 110.373 121.495  1.00  0.00     0.006 C 
BRANCH   3   4
ATOM      4  C   UNL     1     111.787 111.523 122.503  1.00  0.00     0.053 C 
BRANCH   4   5
ATOM      5  C   UNL     1     111.755 112.839 121.791  1.00  0.00     0.041 C 
ATOM      6  O   UNL     1     112.816 113.499 121.629  1.00  0.00    -0.550 OA
ATOM      7  O   UNL     1     110.562 113.314 121.261  1.00  0.00    -0.550 OA
ENDBRANCH   4   5
ENDBRANCH   3   4
ENDBRANCH   2   3
ENDBRANCH   1   2
BRANCH   1   8
ATOM      8  C   UNL     1     115.073 110.911 120.798  1.00  0.00     0.000 C 
BRANCH   8   9
ATOM      9  C   UNL     1     115.584 111.094 122.236  1.00  0.00     0.006 C 
BRANCH   9  10
ATOM     10  C   UNL     1     116.728 110.122 122.537  1.00  0.00     0.053 C 
BRANCH  10  11
ATOM     11  C   UNL     1     118.051 110.791 122.340  1.00  0.00     0.041 C 
ATOM     12  O   UNL     1     118.127 112.048 122.312  1.00  0.00    -0.550 OA
ATOM     13  O   UNL     1     119.194 110.028 122.138  1.00  0.00    -0.550 OA
ENDBRANCH  10  11
ENDBRANCH   9  10
ENDBRANCH   8   9
ENDBRANCH   1   8
TORSDOF 8
ENDMDL
MODEL 6
REMARK VINA RESULT:    -3.690      1.162      1.675
REMARK INTER + INTRA:          -6.166
REMARK INTER:                  -5.564
REMARK INTRA:                  -0.602
REMARK UNBOUND:                -0.750
REMARK SMILES O=C([O-])CCCCCCCC(=O)[O-]
REMARK SMILES IDX 7 1 6 2 5 3 4 4 2 5 1 6 3 7 8 8 9 9 10 10 11 11 12 12 13 13
REMARK H PARENT
REMARK Flexibility Score: inf
ROOT
ATOM      1  C   UNL     1     113.352 109.767 120.973  1.00  0.00     0.000 C 
ENDROOT
BRANCH   1   2
ATOM      2  C   UNL     1     112.125 110.170 121.811  1.00  0.00     0.000 C 
BRANCH   2   3
ATOM      3  C   UNL     1     112.199 111.626 122.301  1.00  0.00     0.006 C 
BRANCH   3   4
ATOM      4  C   UNL     1     111.069 112.498 121.738  1.00  0.00     0.053 C 
BRANCH   4   5
ATOM      5  C   UNL     1     111.005 112.371 120.249  1.00  0.00     0.041 C 
ATOM      6  O   UNL     1     109.939 112.002 119.689  1.00  0.00    -0.550 OA
ATOM      7  O   UNL     1     112.109 112.707 119.474  1.00  0.00    -0.550 OA
ENDBRANCH   4   5
ENDBRANCH   3   4
ENDBRANCH   2   3
ENDBRANCH   1   2
BRANCH   1   8
ATOM      8  C   UNL     1     114.479 109.164 121.828  1.00  0.00     0.000 C 
BRANCH   8   9
ATOM      9  C   UNL     1     115.570 110.187 122.179  1.00  0.00     0.006 C 
BRANCH   9  10
ATOM     10  C   UNL     1     115.730 111.222 121.062  1.00  0.00     0.053 C 
BRANCH  10  11
ATOM     11  C   UNL     1     115.785 112.604 121.632  1.00  0.00     0.041 C 
ATOM     12  O   UNL     1     116.591 112.875 122.560  1.00  0.00    -0.550 OA
ATOM     13  O   UNL     1     114.911 113.581 121.172  1.00  0.00    -0.550 OA
ENDBRANCH  10  11
ENDBRANCH   9  10
ENDBRANCH   8   9
ENDBRANCH   1   8
TORSDOF 8
ENDMDL
MODEL 7
REMARK VINA RESULT:    -3.551      1.787      5.294
REMARK INTER + INTRA:          -5.961
REMARK INTER:                  -5.464
REMARK INTRA:                  -0.497
REMARK UNBOUND:                -0.750
REMARK SMILES O=C([O-])CCCCCCCC(=O)[O-]
REMARK SMILES IDX 7 1 6 2 5 3 4 4 2 5 1 6 3 7 8 8 9 9 10 10 11 11 12 12 13 13
REMARK H PARENT
REMARK Flexibility Score: inf
ROOT
ATOM      1  C   UNL     1     112.282 109.980 121.687  1.00  0.00     0.000 C 
ENDROOT
BRANCH   1   2
ATOM      2  C   UNL     1     113.750 109.554 121.509  1.00  0.00     0.000 C 
BRANCH   2   3
ATOM      3  C   UNL     1     114.738 110.607 122.038  1.00  0.00     0.006 C 
BRANCH   3   4
ATOM      4  C   UNL     1     116.022 109.984 122.602  1.00  0.00     0.053 C 
BRANCH   4   5
ATOM      5  C   UNL     1     117.225 110.647 122.010  1.00  0.00     0.041 C 
ATOM      6  O   UNL     1     118.373 110.166 122.201  1.00  0.00    -0.550 OA
ATOM      7  O   UNL     1     117.076 111.771 121.206  1.00  0.00    -0.550 OA
ENDBRANCH   4   5
ENDBRANCH   3   4
ENDBRANCH   2   3
ENDBRANCH   1   2
BRANCH   1   8
ATOM      8  C   UNL     1     112.141 111.306 122.454  1.00  0.00     0.000 C 
BRANCH   8   9
ATOM      9  C   UNL     1     111.281 112.336 121.706  1.00  0.00     0.006 C 
BRANCH   9  10
ATOM     10  C   UNL     1     111.877 112.651 120.332  1.00  0.00     0.053 C 
BRANCH  10  11
ATOM     11  C   UNL     1     110.852 112.461 119.259  1.00  0.00     0.041 C 
ATOM     12  O   UNL     1     109.711 112.013 119.545  1.00  0.00    -0.550 OA
ATOM     13  O   UNL     1     111.172 112.733 117.935  1.00  0.00    -0.550 OA
ENDBRANCH  10  11
ENDBRANCH   9  10
ENDBRANCH   8   9
ENDBRANCH   1   8
TORSDOF 8
ENDMDL
MODEL 8
REMARK VINA RESULT:    -3.485      1.942      2.492
REMARK INTER + INTRA:          -5.864
REMARK INTER:                  -5.403
REMARK INTRA:                  -0.461
REMARK UNBOUND:                -0.750
REMARK SMILES O=C([O-])CCCCCCCC(=O)[O-]
REMARK SMILES IDX 7 1 6 2 5 3 4 4 2 5 1 6 3 7 8 8 9 9 10 10 11 11 12 12 13 13
REMARK H PARENT
REMARK Flexibility Score: inf
ROOT
ATOM      1  C   UNL     1     112.567 110.023 121.760  1.00  0.00     0.000 C 
ENDROOT
BRANCH   1   2
ATOM      2  C   UNL     1     112.412 111.420 122.388  1.00  0.00     0.000 C 
BRANCH   2   3
ATOM      3  C   UNL     1     111.227 112.203 121.797  1.00  0.00     0.006 C 
BRANCH   3   4
ATOM      4  C   UNL     1     111.426 112.547 120.314  1.00  0.00     0.053 C 
BRANCH   4   5
ATOM      5  C   UNL     1     110.272 112.044 119.505  1.00  0.00     0.041 C 
ATOM      6  O   UNL     1     109.442 112.853 119.013  1.00  0.00    -0.550 OA
ATOM      7  O   UNL     1     110.141 110.684 119.250  1.00  0.00    -0.550 OA
ENDBRANCH   4   5
ENDBRANCH   3   4
ENDBRANCH   2   3
ENDBRANCH   1   2
BRANCH   1   8
ATOM      8  C   UNL     1     114.039 109.622 121.569  1.00  0.00     0.000 C 
BRANCH   8   9
ATOM      9  C   UNL     1     115.017 110.693 122.077  1.00  0.00     0.006 C 
BRANCH   9  10
ATOM     10  C   UNL     1     116.297 110.052 122.618  1.00  0.00     0.053 C 
BRANCH  10  11
ATOM     11  C   UNL     1     117.481 110.477 121.807  1.00  0.00     0.041 C 
ATOM     12  O   UNL     1     117.317 111.108 120.731  1.00  0.00    -0.550 OA
ATOM     13  O   UNL     1     118.763 110.133 122.215  1.00  0.00    -0.550 OA
ENDBRANCH  10  11
ENDBRANCH   9  10
ENDBRANCH   8   9
ENDBRANCH   1   8
TORSDOF 8
ENDMDL
