MODEL 1
REMARK VINA RESULT:    -7.675      0.000      0.000
REMARK INTER + INTRA:          -9.601
REMARK INTER:                  -9.470
REMARK INTRA:                  -0.131
REMARK UNBOUND:                -0.131
REMARK SMILES O=c1c(O)c(-c2cc(O)c(O)c(O)c2)oc2cc(O)cc(O)c12
REMARK SMILES IDX 5 1 3 2 2 3 1 4 23 5 21 6 20 7 18 8 17 9 16 10 15 11 6 12
REMARK SMILES IDX 7 13 8 14 14 15 10 16 12 17 9 18 11 20 13 22 4 24 22 26
REMARK SMILES IDX 19 28
REMARK H PARENT 9 19 11 21 13 23 4 25 22 27 19 29
REMARK Flexibility Score: inf
ROOT
ATOM      1  C   UNL     1     168.785 145.613 153.606  1.00  0.00     0.180 A 
ATOM      2  C   UNL     1     169.745 145.727 152.581  1.00  0.00     0.208 A 
ATOM      3  C   UNL     1     169.359 146.273 151.348  1.00  0.00     0.238 A 
ATOM      4  O   UNL     1     170.213 146.391 150.428  1.00  0.00    -0.285 OA
ATOM      5  C   UNL     1     168.022 146.677 151.152  1.00  0.00     0.111 A 
ATOM      6  C   UNL     1     167.551 147.234 149.938  1.00  0.00     0.134 A 
ATOM      7  C   UNL     1     166.203 147.603 149.820  1.00  0.00     0.093 A 
ATOM      8  C   UNL     1     165.319 147.425 150.886  1.00  0.00     0.123 A 
ATOM      9  C   UNL     1     165.779 146.877 152.087  1.00  0.00     0.094 A 
ATOM     10  C   UNL     1     167.118 146.504 152.228  1.00  0.00     0.146 A 
ATOM     11  O   UNL     1     167.530 145.990 153.380  1.00  0.00    -0.452 OA
ENDROOT
BRANCH   1  12
ATOM     12  C   UNL     1     169.119 145.064 154.940  1.00  0.00     0.029 A 
ATOM     13  C   UNL     1     170.144 145.622 155.724  1.00  0.00     0.062 A 
ATOM     14  C   UNL     1     170.430 145.103 156.996  1.00  0.00     0.162 A 
ATOM     15  C   UNL     1     168.364 144.002 155.459  1.00  0.00     0.062 A 
ATOM     16  C   UNL     1     169.682 144.025 157.496  1.00  0.00     0.200 A 
ATOM     17  C   UNL     1     168.646 143.478 156.728  1.00  0.00     0.162 A 
BRANCH  14  18
ATOM     18  O   UNL     1     171.453 145.659 157.764  1.00  0.00    -0.504 OA
ATOM     19  H   UNL     1     171.255 146.249 158.564  1.00  0.00     0.293 HD
ENDBRANCH  14  18
BRANCH  16  20
ATOM     20  O   UNL     1     169.950 143.488 158.757  1.00  0.00    -0.502 OA
ATOM     21  H   UNL     1     170.253 142.530 158.880  1.00  0.00     0.293 HD
ENDBRANCH  16  20
BRANCH  17  22
ATOM     22  O   UNL     1     167.900 142.414 157.232  1.00  0.00    -0.504 OA
ATOM     23  H   UNL     1     167.991 142.113 158.195  1.00  0.00     0.293 HD
ENDBRANCH  17  22
ENDBRANCH   1  12
BRANCH   2  24
ATOM     24  O   UNL     1     171.051 145.274 152.785  1.00  0.00    -0.502 OA
ATOM     25  H   UNL     1     171.816 145.902 152.998  1.00  0.00     0.293 HD
ENDBRANCH   2  24
BRANCH   6  26
ATOM     26  O   UNL     1     168.409 147.423 148.855  1.00  0.00    -0.507 OA
ATOM     27  H   UNL     1     169.379 147.134 148.887  1.00  0.00     0.293 HD
ENDBRANCH   6  26
BRANCH   8  28
ATOM     28  O   UNL     1     163.985 147.798 150.741  1.00  0.00    -0.508 OA
ATOM     29  H   UNL     1     163.460 148.197 151.510  1.00  0.00     0.293 HD
ENDBRANCH   8  28
TORSDOF 7
ENDMDL
MODEL 2
REMARK VINA RESULT:    -7.672      0.085      1.751
REMARK INTER + INTRA:          -9.597
REMARK INTER:                  -9.528
REMARK INTRA:                  -0.068
REMARK UNBOUND:                -0.131
REMARK SMILES O=c1c(O)c(-c2cc(O)c(O)c(O)c2)oc2cc(O)cc(O)c12
REMARK SMILES IDX 5 1 3 2 2 3 1 4 23 5 21 6 20 7 18 8 17 9 16 10 15 11 6 12
REMARK SMILES IDX 7 13 8 14 14 15 10 16 12 17 9 18 11 20 13 22 4 24 22 26
REMARK SMILES IDX 19 28
REMARK H PARENT 9 19 11 21 13 23 4 25 22 27 19 29
REMARK Flexibility Score: inf
ROOT
ATOM      1  C   UNL     1     168.678 145.607 153.616  1.00  0.00     0.180 A 
ATOM      2  C   UNL     1     169.659 145.723 152.611  1.00  0.00     0.208 A 
ATOM      3  C   UNL     1     169.300 146.281 151.374  1.00  0.00     0.238 A 
ATOM      4  O   UNL     1     170.172 146.400 150.472  1.00  0.00    -0.285 OA
ATOM      5  C   UNL     1     167.969 146.694 151.155  1.00  0.00     0.111 A 
ATOM      6  C   UNL     1     167.525 147.263 149.937  1.00  0.00     0.134 A 
ATOM      7  C   UNL     1     166.181 147.640 149.795  1.00  0.00     0.093 A 
ATOM      8  C   UNL     1     165.276 147.460 150.842  1.00  0.00     0.123 A 
ATOM      9  C   UNL     1     165.709 146.900 152.049  1.00  0.00     0.094 A 
ATOM     10  C   UNL     1     167.044 146.519 152.212  1.00  0.00     0.146 A 
ATOM     11  O   UNL     1     167.429 145.993 153.369  1.00  0.00    -0.452 OA
ENDROOT
BRANCH   1  12
ATOM     12  C   UNL     1     168.983 145.046 154.952  1.00  0.00     0.029 A 
ATOM     13  C   UNL     1     168.275 143.943 155.461  1.00  0.00     0.062 A 
ATOM     14  C   UNL     1     168.595 143.410 156.718  1.00  0.00     0.162 A 
ATOM     15  C   UNL     1     170.036 145.587 155.704  1.00  0.00     0.062 A 
ATOM     16  C   UNL     1     169.636 143.974 157.473  1.00  0.00     0.200 A 
ATOM     17  C   UNL     1     170.359 145.060 156.962  1.00  0.00     0.162 A 
BRANCH  14  18
ATOM     18  O   UNL     1     167.882 142.320 157.216  1.00  0.00    -0.504 OA
ATOM     19  H   UNL     1     167.275 141.766 156.623  1.00  0.00     0.293 HD
ENDBRANCH  14  18
BRANCH  16  20
ATOM     20  O   UNL     1     169.970 143.465 158.729  1.00  0.00    -0.502 OA
ATOM     21  H   UNL     1     170.921 143.217 158.974  1.00  0.00     0.293 HD
ENDBRANCH  16  20
BRANCH  17  22
ATOM     22  O   UNL     1     171.398 145.611 157.711  1.00  0.00    -0.504 OA
ATOM     23  H   UNL     1     171.891 146.440 157.403  1.00  0.00     0.293 HD
ENDBRANCH  17  22
ENDBRANCH   1  12
BRANCH   2  24
ATOM     24  O   UNL     1     170.957 145.260 152.836  1.00  0.00    -0.502 OA
ATOM     25  H   UNL     1     171.156 144.479 153.450  1.00  0.00     0.293 HD
ENDBRANCH   2  24
BRANCH   6  26
ATOM     26  O   UNL     1     168.405 147.454 148.872  1.00  0.00    -0.507 OA
ATOM     27  H   UNL     1     168.432 146.819 148.083  1.00  0.00     0.293 HD
ENDBRANCH   6  26
BRANCH   8  28
ATOM     28  O   UNL     1     163.947 147.842 150.675  1.00  0.00    -0.508 OA
ATOM     29  H   UNL     1     163.412 147.557 149.863  1.00  0.00     0.293 HD
ENDBRANCH   8  28
TORSDOF 7
ENDMDL
MODEL 3
REMARK VINA RESULT:    -7.283      0.923      2.008
REMARK INTER + INTRA:          -9.117
REMARK INTER:                  -8.798
REMARK INTRA:                  -0.319
REMARK UNBOUND:                -0.131
REMARK SMILES O=c1c(O)c(-c2cc(O)c(O)c(O)c2)oc2cc(O)cc(O)c12
REMARK SMILES IDX 5 1 3 2 2 3 1 4 23 5 21 6 20 7 18 8 17 9 16 10 15 11 6 12
REMARK SMILES IDX 7 13 8 14 14 15 10 16 12 17 9 18 11 20 13 22 4 24 22 26
REMARK SMILES IDX 19 28
REMARK H PARENT 9 19 11 21 13 23 4 25 22 27 19 29
REMARK Flexibility Score: inf
ROOT
ATOM      1  C   UNL     1     169.326 145.941 153.276  1.00  0.00     0.180 A 
ATOM      2  C   UNL     1     170.134 145.797 152.130  1.00  0.00     0.208 A 
ATOM      3  C   UNL     1     169.589 146.101 150.873  1.00  0.00     0.238 A 
ATOM      4  O   UNL     1     170.307 145.987 149.843  1.00  0.00    -0.285 OA
ATOM      5  C   UNL     1     168.247 146.523 150.778  1.00  0.00     0.111 A 
ATOM      6  C   UNL     1     167.622 146.846 149.550  1.00  0.00     0.134 A 
ATOM      7  C   UNL     1     166.278 147.249 149.539  1.00  0.00     0.093 A 
ATOM      8  C   UNL     1     165.550 147.336 150.726  1.00  0.00     0.123 A 
ATOM      9  C   UNL     1     166.163 147.020 151.943  1.00  0.00     0.094 A 
ATOM     10  C   UNL     1     167.500 146.617 151.977  1.00  0.00     0.146 A 
ATOM     11  O   UNL     1     168.059 146.327 153.146  1.00  0.00    -0.452 OA
ENDROOT
BRANCH   1  12
ATOM     12  C   UNL     1     169.833 145.657 154.637  1.00  0.00     0.029 A 
ATOM     13  C   UNL     1     169.551 144.441 155.284  1.00  0.00     0.062 A 
ATOM     14  C   UNL     1     170.061 144.181 156.564  1.00  0.00     0.162 A 
ATOM     15  C   UNL     1     170.659 146.594 155.276  1.00  0.00     0.062 A 
ATOM     16  C   UNL     1     170.868 145.135 157.204  1.00  0.00     0.200 A 
ATOM     17  C   UNL     1     171.169 146.340 156.556  1.00  0.00     0.162 A 
BRANCH  14  18
ATOM     18  O   UNL     1     169.770 142.974 157.200  1.00  0.00    -0.504 OA
ATOM     19  H   UNL     1     168.917 142.846 157.732  1.00  0.00     0.293 HD
ENDBRANCH  14  18
BRANCH  16  20
ATOM     20  O   UNL     1     171.383 144.901 158.480  1.00  0.00    -0.502 OA
ATOM     21  H   UNL     1     171.273 145.567 159.235  1.00  0.00     0.293 HD
ENDBRANCH  16  20
BRANCH  17  22
ATOM     22  O   UNL     1     171.978 147.281 157.191  1.00  0.00    -0.504 OA
ATOM     23  H   UNL     1     171.858 148.275 157.035  1.00  0.00     0.293 HD
ENDBRANCH  17  22
ENDBRANCH   1  12
BRANCH   2  24
ATOM     24  O   UNL     1     171.445 145.330 152.247  1.00  0.00    -0.502 OA
ATOM     25  H   UNL     1     172.175 145.868 152.699  1.00  0.00     0.293 HD
ENDBRANCH   2  24
BRANCH   6  26
ATOM     26  O   UNL     1     168.322 146.768 148.345  1.00  0.00    -0.507 OA
ATOM     27  H   UNL     1     168.433 145.891 147.850  1.00  0.00     0.293 HD
ENDBRANCH   6  26
BRANCH   8  28
ATOM     28  O   UNL     1     164.217 147.738 150.687  1.00  0.00    -0.508 OA
ATOM     29  H   UNL     1     163.919 148.532 150.134  1.00  0.00     0.293 HD
ENDBRANCH   8  28
TORSDOF 7
ENDMDL
MODEL 4
REMARK VINA RESULT:    -7.168      1.898      3.559
REMARK INTER + INTRA:          -8.975
REMARK INTER:                  -8.623
REMARK INTRA:                  -0.352
REMARK UNBOUND:                -0.131
REMARK SMILES O=c1c(O)c(-c2cc(O)c(O)c(O)c2)oc2cc(O)cc(O)c12
REMARK SMILES IDX 5 1 3 2 2 3 1 4 23 5 21 6 20 7 18 8 17 9 16 10 15 11 6 12
REMARK SMILES IDX 7 13 8 14 14 15 10 16 12 17 9 18 11 20 13 22 4 24 22 26
REMARK SMILES IDX 19 28
REMARK H PARENT 9 19 11 21 13 23 4 25 22 27 19 29
REMARK Flexibility Score: inf
ROOT
ATOM      1  C   UNL     1     169.627 145.899 153.595  1.00  0.00     0.180 A 
ATOM      2  C   UNL     1     168.237 146.130 153.586  1.00  0.00     0.208 A 
ATOM      3  C   UNL     1     167.595 146.357 152.359  1.00  0.00     0.238 A 
ATOM      4  O   UNL     1     166.350 146.553 152.338  1.00  0.00    -0.285 OA
ATOM      5  C   UNL     1     168.351 146.369 151.168  1.00  0.00     0.111 A 
ATOM      6  C   UNL     1     167.781 146.593 149.892  1.00  0.00     0.134 A 
ATOM      7  C   UNL     1     168.603 146.599 148.755  1.00  0.00     0.093 A 
ATOM      8  C   UNL     1     169.978 146.387 148.868  1.00  0.00     0.123 A 
ATOM      9  C   UNL     1     170.546 146.163 150.126  1.00  0.00     0.094 A 
ATOM     10  C   UNL     1     169.746 146.151 151.272  1.00  0.00     0.146 A 
ATOM     11  O   UNL     1     170.310 145.933 152.453  1.00  0.00    -0.452 OA
ENDROOT
BRANCH   1  12
ATOM     12  C   UNL     1     170.373 145.634 154.846  1.00  0.00     0.029 A 
ATOM     13  C   UNL     1     170.660 144.322 155.262  1.00  0.00     0.062 A 
ATOM     14  C   UNL     1     171.389 144.091 156.438  1.00  0.00     0.162 A 
ATOM     15  C   UNL     1     170.854 146.711 155.605  1.00  0.00     0.062 A 
ATOM     16  C   UNL     1     171.846 145.177 157.202  1.00  0.00     0.200 A 
ATOM     17  C   UNL     1     171.581 146.487 156.781  1.00  0.00     0.162 A 
BRANCH  14  18
ATOM     18  O   UNL     1     171.663 142.786 156.846  1.00  0.00    -0.504 OA
ATOM     19  H   UNL     1     172.123 142.123 156.232  1.00  0.00     0.293 HD
ENDBRANCH  14  18
BRANCH  16  20
ATOM     20  O   UNL     1     172.569 144.973 158.378  1.00  0.00    -0.502 OA
ATOM     21  H   UNL     1     172.355 145.470 159.235  1.00  0.00     0.293 HD
ENDBRANCH  16  20
BRANCH  17  22
ATOM     22  O   UNL     1     172.045 147.562 157.538  1.00  0.00    -0.504 OA
ATOM     23  H   UNL     1     171.655 147.776 158.449  1.00  0.00     0.293 HD
ENDBRANCH  17  22
ENDBRANCH   1  12
BRANCH   2  24
ATOM     24  O   UNL     1     167.520 146.162 154.784  1.00  0.00    -0.502 OA
ATOM     25  H   UNL     1     167.902 146.558 155.635  1.00  0.00     0.293 HD
ENDBRANCH   2  24
BRANCH   6  26
ATOM     26  O   UNL     1     166.410 146.810 149.745  1.00  0.00    -0.507 OA
ATOM     27  H   UNL     1     165.813 146.996 150.542  1.00  0.00     0.293 HD
ENDBRANCH   6  26
BRANCH   8  28
ATOM     28  O   UNL     1     170.771 146.399 147.724  1.00  0.00    -0.508 OA
ATOM     29  H   UNL     1     171.517 145.727 147.588  1.00  0.00     0.293 HD
ENDBRANCH   8  28
TORSDOF 7
ENDMDL
MODEL 5
REMARK VINA RESULT:    -7.148      1.758      3.172
REMARK INTER + INTRA:          -8.950
REMARK INTER:                  -8.599
REMARK INTRA:                  -0.351
REMARK UNBOUND:                -0.131
REMARK SMILES O=c1c(O)c(-c2cc(O)c(O)c(O)c2)oc2cc(O)cc(O)c12
REMARK SMILES IDX 5 1 3 2 2 3 1 4 23 5 21 6 20 7 18 8 17 9 16 10 15 11 6 12
REMARK SMILES IDX 7 13 8 14 14 15 10 16 12 17 9 18 11 20 13 22 4 24 22 26
REMARK SMILES IDX 19 28
REMARK H PARENT 9 19 11 21 13 23 4 25 22 27 19 29
REMARK Flexibility Score: inf
ROOT
ATOM      1  C   UNL     1     169.622 145.903 153.655  1.00  0.00     0.180 A 
ATOM      2  C   UNL     1     168.237 146.164 153.623  1.00  0.00     0.208 A 
ATOM      3  C   UNL     1     167.616 146.381 152.383  1.00  0.00     0.238 A 
ATOM      4  O   UNL     1     166.376 146.604 152.343  1.00  0.00    -0.285 OA
ATOM      5  C   UNL     1     168.387 146.354 151.203  1.00  0.00     0.111 A 
ATOM      6  C   UNL     1     167.839 146.566 149.915  1.00  0.00     0.134 A 
ATOM      7  C   UNL     1     168.675 146.532 148.789  1.00  0.00     0.093 A 
ATOM      8  C   UNL     1     170.044 146.292 148.925  1.00  0.00     0.123 A 
ATOM      9  C   UNL     1     170.591 146.080 150.194  1.00  0.00     0.094 A 
ATOM     10  C   UNL     1     169.775 146.108 151.329  1.00  0.00     0.146 A 
ATOM     11  O   UNL     1     170.319 145.900 152.522  1.00  0.00    -0.452 OA
ENDROOT
BRANCH   1  12
ATOM     12  C   UNL     1     170.345 145.646 154.920  1.00  0.00     0.029 A 
ATOM     13  C   UNL     1     170.984 146.684 155.621  1.00  0.00     0.062 A 
ATOM     14  C   UNL     1     171.643 146.426 156.831  1.00  0.00     0.162 A 
ATOM     15  C   UNL     1     170.347 144.353 155.465  1.00  0.00     0.062 A 
ATOM     16  C   UNL     1     171.659 145.123 157.356  1.00  0.00     0.200 A 
ATOM     17  C   UNL     1     171.007 144.089 156.672  1.00  0.00     0.162 A 
BRANCH  14  18
ATOM     18  O   UNL     1     172.280 147.461 157.516  1.00  0.00    -0.504 OA
ATOM     19  H   UNL     1     171.847 148.372 157.624  1.00  0.00     0.293 HD
ENDBRANCH  14  18
BRANCH  16  20
ATOM     20  O   UNL     1     172.313 144.840 158.556  1.00  0.00    -0.502 OA
ATOM     21  H   UNL     1     172.229 145.438 159.369  1.00  0.00     0.293 HD
ENDBRANCH  16  20
BRANCH  17  22
ATOM     22  O   UNL     1     171.017 142.799 157.201  1.00  0.00    -0.504 OA
ATOM     23  H   UNL     1     171.783 142.468 157.777  1.00  0.00     0.293 HD
ENDBRANCH  17  22
ENDBRANCH   1  12
BRANCH   2  24
ATOM     24  O   UNL     1     167.506 146.235 154.811  1.00  0.00    -0.502 OA
ATOM     25  H   UNL     1     167.689 146.934 155.520  1.00  0.00     0.293 HD
ENDBRANCH   2  24
BRANCH   6  26
ATOM     26  O   UNL     1     166.475 146.810 149.746  1.00  0.00    -0.507 OA
ATOM     27  H   UNL     1     165.909 147.200 150.489  1.00  0.00     0.293 HD
ENDBRANCH   6  26
BRANCH   8  28
ATOM     28  O   UNL     1     170.852 146.264 147.791  1.00  0.00    -0.508 OA
ATOM     29  H   UNL     1     170.860 145.468 147.165  1.00  0.00     0.293 HD
ENDBRANCH   8  28
TORSDOF 7
ENDMDL
MODEL 6
REMARK VINA RESULT:    -7.104      2.338      7.060
REMARK INTER + INTRA:          -8.896
REMARK INTER:                  -8.770
REMARK INTRA:                  -0.126
REMARK UNBOUND:                -0.131
REMARK SMILES O=c1c(O)c(-c2cc(O)c(O)c(O)c2)oc2cc(O)cc(O)c12
REMARK SMILES IDX 5 1 3 2 2 3 1 4 23 5 21 6 20 7 18 8 17 9 16 10 15 11 6 12
REMARK SMILES IDX 7 13 8 14 14 15 10 16 12 17 9 18 11 20 13 22 4 24 22 26
REMARK SMILES IDX 19 28
REMARK H PARENT 9 19 11 21 13 23 4 25 22 27 19 29
REMARK Flexibility Score: inf
ROOT
ATOM      1  C   UNL     1     169.776 145.953 153.251  1.00  0.00     0.180 A 
ATOM      2  C   UNL     1     170.618 144.830 153.128  1.00  0.00     0.208 A 
ATOM      3  C   UNL     1     171.517 144.537 154.166  1.00  0.00     0.238 A 
ATOM      4  O   UNL     1     172.266 143.529 154.070  1.00  0.00    -0.285 OA
ATOM      5  C   UNL     1     171.573 145.379 155.296  1.00  0.00     0.111 A 
ATOM      6  C   UNL     1     172.451 145.156 156.384  1.00  0.00     0.134 A 
ATOM      7  C   UNL     1     172.453 146.045 157.469  1.00  0.00     0.093 A 
ATOM      8  C   UNL     1     171.599 147.148 157.488  1.00  0.00     0.123 A 
ATOM      9  C   UNL     1     170.727 147.373 156.417  1.00  0.00     0.094 A 
ATOM     10  C   UNL     1     170.708 146.498 155.327  1.00  0.00     0.146 A 
ATOM     11  O   UNL     1     169.868 146.732 154.326  1.00  0.00    -0.452 OA
ENDROOT
BRANCH   1  12
ATOM     12  C   UNL     1     168.791 146.316 152.208  1.00  0.00     0.029 A 
ATOM     13  C   UNL     1     167.420 146.418 152.501  1.00  0.00     0.062 A 
ATOM     14  C   UNL     1     166.504 146.787 151.505  1.00  0.00     0.162 A 
ATOM     15  C   UNL     1     169.237 146.621 150.913  1.00  0.00     0.062 A 
ATOM     16  C   UNL     1     166.958 147.068 150.206  1.00  0.00     0.200 A 
ATOM     17  C   UNL     1     168.326 146.989 149.914  1.00  0.00     0.162 A 
BRANCH  14  18
ATOM     18  O   UNL     1     165.145 146.879 151.805  1.00  0.00    -0.504 OA
ATOM     19  H   UNL     1     164.739 146.382 152.590  1.00  0.00     0.293 HD
ENDBRANCH  14  18
BRANCH  16  20
ATOM     20  O   UNL     1     166.066 147.433 149.197  1.00  0.00    -0.502 OA
ATOM     21  H   UNL     1     165.203 147.925 149.394  1.00  0.00     0.293 HD
ENDBRANCH  16  20
BRANCH  17  22
ATOM     22  O   UNL     1     168.773 147.278 148.625  1.00  0.00    -0.504 OA
ATOM     23  H   UNL     1     169.174 146.562 148.030  1.00  0.00     0.293 HD
ENDBRANCH  17  22
ENDBRANCH   1  12
BRANCH   2  24
ATOM     24  O   UNL     1     170.578 144.041 151.975  1.00  0.00    -0.502 OA
ATOM     25  H   UNL     1     169.890 144.184 151.244  1.00  0.00     0.293 HD
ENDBRANCH   2  24
BRANCH   6  26
ATOM     26  O   UNL     1     173.319 144.063 156.394  1.00  0.00    -0.507 OA
ATOM     27  H   UNL     1     173.267 143.349 157.110  1.00  0.00     0.293 HD
ENDBRANCH   6  26
BRANCH   8  28
ATOM     28  O   UNL     1     171.621 148.016 158.577  1.00  0.00    -0.508 OA
ATOM     29  H   UNL     1     172.012 148.948 158.504  1.00  0.00     0.293 HD
ENDBRANCH   8  28
TORSDOF 7
ENDMDL
MODEL 7
REMARK VINA RESULT:    -6.988      1.429      7.332
REMARK INTER + INTRA:          -8.752
REMARK INTER:                  -8.584
REMARK INTRA:                  -0.168
REMARK UNBOUND:                -0.131
REMARK SMILES O=c1c(O)c(-c2cc(O)c(O)c(O)c2)oc2cc(O)cc(O)c12
REMARK SMILES IDX 5 1 3 2 2 3 1 4 23 5 21 6 20 7 18 8 17 9 16 10 15 11 6 12
REMARK SMILES IDX 7 13 8 14 14 15 10 16 12 17 9 18 11 20 13 22 4 24 22 26
REMARK SMILES IDX 19 28
REMARK H PARENT 9 19 11 21 13 23 4 25 22 27 19 29
REMARK Flexibility Score: inf
ROOT
ATOM      1  C   UNL     1     168.786 145.600 154.161  1.00  0.00     0.180 A 
ATOM      2  C   UNL     1     168.310 144.512 154.919  1.00  0.00     0.208 A 
ATOM      3  C   UNL     1     168.968 144.178 156.113  1.00  0.00     0.238 A 
ATOM      4  O   UNL     1     168.544 143.213 156.805  1.00  0.00    -0.285 OA
ATOM      5  C   UNL     1     170.096 144.920 156.519  1.00  0.00     0.111 A 
ATOM      6  C   UNL     1     170.816 144.647 157.707  1.00  0.00     0.134 A 
ATOM      7  C   UNL     1     171.935 145.427 158.037  1.00  0.00     0.093 A 
ATOM      8  C   UNL     1     172.347 146.470 157.205  1.00  0.00     0.123 A 
ATOM      9  C   UNL     1     171.638 146.746 156.031  1.00  0.00     0.094 A 
ATOM     10  C   UNL     1     170.520 145.982 155.685  1.00  0.00     0.146 A 
ATOM     11  O   UNL     1     169.863 146.268 154.567  1.00  0.00    -0.452 OA
ENDROOT
BRANCH   1  12
ATOM     12  C   UNL     1     168.137 146.024 152.900  1.00  0.00     0.029 A 
ATOM     13  C   UNL     1     166.790 146.429 152.872  1.00  0.00     0.062 A 
ATOM     14  C   UNL     1     166.199 146.851 151.673  1.00  0.00     0.162 A 
ATOM     15  C   UNL     1     168.891 146.080 151.719  1.00  0.00     0.062 A 
ATOM     16  C   UNL     1     166.957 146.881 150.491  1.00  0.00     0.200 A 
ATOM     17  C   UNL     1     168.305 146.499 150.517  1.00  0.00     0.162 A 
BRANCH  14  18
ATOM     18  O   UNL     1     164.861 147.245 151.653  1.00  0.00    -0.504 OA
ATOM     19  H   UNL     1     164.296 147.166 150.815  1.00  0.00     0.293 HD
ENDBRANCH  14  18
BRANCH  16  20
ATOM     20  O   UNL     1     166.390 147.293 149.284  1.00  0.00    -0.502 OA
ATOM     21  H   UNL     1     166.541 146.788 148.419  1.00  0.00     0.293 HD
ENDBRANCH  16  20
BRANCH  17  22
ATOM     22  O   UNL     1     169.056 146.539 149.343  1.00  0.00    -0.504 OA
ATOM     23  H   UNL     1     169.552 147.375 149.060  1.00  0.00     0.293 HD
ENDBRANCH  17  22
ENDBRANCH   1  12
BRANCH   2  24
ATOM     24  O   UNL     1     167.221 143.761 154.469  1.00  0.00    -0.502 OA
ATOM     25  H   UNL     1     167.272 142.759 154.333  1.00  0.00     0.293 HD
ENDBRANCH   2  24
BRANCH   6  26
ATOM     26  O   UNL     1     170.431 143.610 158.558  1.00  0.00    -0.507 OA
ATOM     27  H   UNL     1     169.609 143.681 159.145  1.00  0.00     0.293 HD
ENDBRANCH   6  26
BRANCH   8  28
ATOM     28  O   UNL     1     173.462 147.228 157.555  1.00  0.00    -0.508 OA
ATOM     29  H   UNL     1     173.869 147.898 156.914  1.00  0.00     0.293 HD
ENDBRANCH   8  28
TORSDOF 7
ENDMDL
MODEL 8
REMARK VINA RESULT:    -6.566      2.547      7.342
REMARK INTER + INTRA:          -8.232
REMARK INTER:                  -8.357
REMARK INTRA:                   0.125
REMARK UNBOUND:                -0.131
REMARK SMILES O=c1c(O)c(-c2cc(O)c(O)c(O)c2)oc2cc(O)cc(O)c12
REMARK SMILES IDX 5 1 3 2 2 3 1 4 23 5 21 6 20 7 18 8 17 9 16 10 15 11 6 12
REMARK SMILES IDX 7 13 8 14 14 15 10 16 12 17 9 18 11 20 13 22 4 24 22 26
REMARK SMILES IDX 19 28
REMARK H PARENT 9 19 11 21 13 23 4 25 22 27 19 29
REMARK Flexibility Score: inf
ROOT
ATOM      1  C   UNL     1     170.150 145.250 151.837  1.00  0.00     0.180 A 
ATOM      2  C   UNL     1     168.841 145.643 152.177  1.00  0.00     0.208 A 
ATOM      3  C   UNL     1     168.504 145.779 153.533  1.00  0.00     0.238 A 
ATOM      4  O   UNL     1     167.338 146.141 153.848  1.00  0.00    -0.285 OA
ATOM      5  C   UNL     1     169.470 145.503 154.523  1.00  0.00     0.111 A 
ATOM      6  C   UNL     1     169.211 145.614 155.910  1.00  0.00     0.134 A 
ATOM      7  C   UNL     1     170.224 145.312 156.833  1.00  0.00     0.093 A 
ATOM      8  C   UNL     1     171.486 144.904 156.397  1.00  0.00     0.123 A 
ATOM      9  C   UNL     1     171.749 144.795 155.028  1.00  0.00     0.094 A 
ATOM     10  C   UNL     1     170.754 145.092 154.092  1.00  0.00     0.146 A 
ATOM     11  O   UNL     1     171.031 144.984 152.798  1.00  0.00    -0.452 OA
ENDROOT
BRANCH   1  12
ATOM     12  C   UNL     1     170.587 145.102 150.430  1.00  0.00     0.029 A 
ATOM     13  C   UNL     1     170.130 145.975 149.427  1.00  0.00     0.062 A 
ATOM     14  C   UNL     1     170.574 145.834 148.104  1.00  0.00     0.162 A 
ATOM     15  C   UNL     1     171.518 144.108 150.097  1.00  0.00     0.062 A 
ATOM     16  C   UNL     1     171.489 144.821 147.777  1.00  0.00     0.200 A 
ATOM     17  C   UNL     1     171.963 143.961 148.776  1.00  0.00     0.162 A 
BRANCH  14  18
ATOM     18  O   UNL     1     170.109 146.701 147.115  1.00  0.00    -0.504 OA
ATOM     19  H   UNL     1     169.330 147.328 147.281  1.00  0.00     0.293 HD
ENDBRANCH  14  18
BRANCH  16  20
ATOM     20  O   UNL     1     171.941 144.657 146.467  1.00  0.00    -0.502 OA
ATOM     21  H   UNL     1     171.691 143.850 145.908  1.00  0.00     0.293 HD
ENDBRANCH  16  20
BRANCH  17  22
ATOM     22  O   UNL     1     172.879 142.962 148.449  1.00  0.00    -0.504 OA
ATOM     23  H   UNL     1     173.594 142.663 149.102  1.00  0.00     0.293 HD
ENDBRANCH  17  22
ENDBRANCH   1  12
BRANCH   2  24
ATOM     24  O   UNL     1     167.888 145.862 151.179  1.00  0.00    -0.502 OA
ATOM     25  H   UNL     1     167.631 145.147 150.509  1.00  0.00     0.293 HD
ENDBRANCH   2  24
BRANCH   6  26
ATOM     26  O   UNL     1     167.960 146.018 156.377  1.00  0.00    -0.507 OA
ATOM     27  H   UNL     1     167.155 146.073 155.764  1.00  0.00     0.293 HD
ENDBRANCH   6  26
BRANCH   8  28
ATOM     28  O   UNL     1     172.474 144.610 157.334  1.00  0.00    -0.508 OA
ATOM     29  H   UNL     1     173.406 145.000 157.262  1.00  0.00     0.293 HD
ENDBRANCH   8  28
TORSDOF 7
ENDMDL
MODEL 9
REMARK VINA RESULT:    -6.415      3.569      7.382
REMARK INTER + INTRA:          -8.046
REMARK INTER:                  -7.934
REMARK INTRA:                  -0.112
REMARK UNBOUND:                -0.131
REMARK SMILES O=c1c(O)c(-c2cc(O)c(O)c(O)c2)oc2cc(O)cc(O)c12
REMARK SMILES IDX 5 1 3 2 2 3 1 4 23 5 21 6 20 7 18 8 17 9 16 10 15 11 6 12
REMARK SMILES IDX 7 13 8 14 14 15 10 16 12 17 9 18 11 20 13 22 4 24 22 26
REMARK SMILES IDX 19 28
REMARK H PARENT 9 19 11 21 13 23 4 25 22 27 19 29
REMARK Flexibility Score: inf
ROOT
ATOM      1  C   UNL     1     170.781 144.192 151.719  1.00  0.00     0.180 A 
ATOM      2  C   UNL     1     171.083 143.118 150.859  1.00  0.00     0.208 A 
ATOM      3  C   UNL     1     172.237 142.356 151.103  1.00  0.00     0.238 A 
ATOM      4  O   UNL     1     172.510 141.386 150.347  1.00  0.00    -0.285 OA
ATOM      5  C   UNL     1     173.076 142.690 152.187  1.00  0.00     0.111 A 
ATOM      6  C   UNL     1     174.257 141.975 152.500  1.00  0.00     0.134 A 
ATOM      7  C   UNL     1     175.044 142.376 153.590  1.00  0.00     0.093 A 
ATOM      8  C   UNL     1     174.675 143.474 154.370  1.00  0.00     0.123 A 
ATOM      9  C   UNL     1     173.508 144.183 154.066  1.00  0.00     0.094 A 
ATOM     10  C   UNL     1     172.709 143.799 152.986  1.00  0.00     0.146 A 
ATOM     11  O   UNL     1     171.604 144.487 152.722  1.00  0.00    -0.452 OA
ENDROOT
BRANCH   1  12
ATOM     12  C   UNL     1     169.575 145.030 151.537  1.00  0.00     0.029 A 
ATOM     13  C   UNL     1     168.625 145.177 152.564  1.00  0.00     0.062 A 
ATOM     14  C   UNL     1     167.501 145.995 152.382  1.00  0.00     0.162 A 
ATOM     15  C   UNL     1     169.400 145.739 150.340  1.00  0.00     0.062 A 
ATOM     16  C   UNL     1     167.324 146.682 151.170  1.00  0.00     0.200 A 
ATOM     17  C   UNL     1     168.278 146.556 150.151  1.00  0.00     0.162 A 
BRANCH  14  18
ATOM     18  O   UNL     1     166.561 146.129 153.404  1.00  0.00    -0.504 OA
ATOM     19  H   UNL     1     166.089 145.324 153.800  1.00  0.00     0.293 HD
ENDBRANCH  14  18
BRANCH  16  20
ATOM     20  O   UNL     1     166.211 147.498 150.963  1.00  0.00    -0.502 OA
ATOM     21  H   UNL     1     166.216 148.485 151.193  1.00  0.00     0.293 HD
ENDBRANCH  16  20
BRANCH  17  22
ATOM     22  O   UNL     1     168.103 147.248 148.953  1.00  0.00    -0.504 OA
ATOM     23  H   UNL     1     167.293 147.836 148.794  1.00  0.00     0.293 HD
ENDBRANCH  17  22
ENDBRANCH   1  12
BRANCH   2  24
ATOM     24  O   UNL     1     170.262 142.839 149.763  1.00  0.00    -0.502 OA
ATOM     25  H   UNL     1     170.617 142.418 148.913  1.00  0.00     0.293 HD
ENDBRANCH   2  24
BRANCH   6  26
ATOM     26  O   UNL     1     174.654 140.875 151.739  1.00  0.00    -0.507 OA
ATOM     27  H   UNL     1     175.270 140.164 152.113  1.00  0.00     0.293 HD
ENDBRANCH   6  26
BRANCH   8  28
ATOM     28  O   UNL     1     175.474 143.852 155.446  1.00  0.00    -0.508 OA
ATOM     29  H   UNL     1     175.286 144.694 155.976  1.00  0.00     0.293 HD
ENDBRANCH   8  28
TORSDOF 7
ENDMDL
