MODEL 1
REMARK VINA RESULT:    -4.246      0.000      0.000
REMARK INTER + INTRA:          -5.444
REMARK INTER:                  -5.238
REMARK INTRA:                  -0.206
REMARK UNBOUND:                -0.206
REMARK SMILES CCCCCC(=O)[O-]
REMARK SMILES IDX 4 1 5 2 6 3 7 4 8 5 3 6 2 7 1 8
REMARK H PARENT
REMARK Flexibility Score: inf
ROOT
ATOM      1  C   UNL     1       3.448 -20.760   8.480  1.00  0.00     0.006 C 
ENDROOT
BRANCH   1   2
ATOM      2  C   UNL     1       3.367 -21.788   9.620  1.00  0.00     0.053 C 
BRANCH   2   3
ATOM      3  C   UNL     1       2.041 -22.484   9.653  1.00  0.00     0.041 C 
ATOM      4  O   UNL     1       1.320 -22.426  10.683  1.00  0.00    -0.550 OA
ATOM      5  O   UNL     1       1.618 -23.227   8.558  1.00  0.00    -0.550 OA
ENDBRANCH   2   3
ENDBRANCH   1   2
BRANCH   1   6
ATOM      6  C   UNL     1       4.125 -21.284   7.201  1.00  0.00     0.000 C 
BRANCH   6   7
ATOM      7  C   UNL     1       3.322 -20.967   5.931  1.00  0.00    -0.003 C 
ATOM      8  C   UNL     1       1.895 -20.549   6.273  1.00  0.00     0.004 C 
ENDBRANCH   6   7
ENDBRANCH   1   6
TORSDOF 4
ENDMDL
MODEL 2
REMARK VINA RESULT:    -4.048      1.292      1.832
REMARK INTER + INTRA:          -5.200
REMARK INTER:                  -5.114
REMARK INTRA:                  -0.086
REMARK UNBOUND:                -0.206
REMARK SMILES CCCCCC(=O)[O-]
REMARK SMILES IDX 4 1 5 2 6 3 7 4 8 5 3 6 2 7 1 8
REMARK H PARENT
REMARK Flexibility Score: inf
ROOT
ATOM      1  C   UNL     1       2.132 -21.624   7.911  1.00  0.00     0.006 C 
ENDROOT
BRANCH   1   2
ATOM      2  C   UNL     1       3.035 -21.313   9.115  1.00  0.00     0.053 C 
BRANCH   2   3
ATOM      3  C   UNL     1       2.742 -22.208  10.280  1.00  0.00     0.041 C 
ATOM      4  O   UNL     1       3.686 -22.728  10.933  1.00  0.00    -0.550 OA
ATOM      5  O   UNL     1       1.428 -22.495  10.625  1.00  0.00    -0.550 OA
ENDBRANCH   2   3
ENDBRANCH   1   2
BRANCH   1   6
ATOM      6  C   UNL     1       2.467 -20.817   6.644  1.00  0.00     0.000 C 
BRANCH   6   7
ATOM      7  C   UNL     1       3.947 -20.923   6.246  1.00  0.00    -0.003 C 
ATOM      8  C   UNL     1       4.125 -21.815   5.022  1.00  0.00     0.004 C 
ENDBRANCH   6   7
ENDBRANCH   1   6
TORSDOF 4
ENDMDL
MODEL 3
REMARK VINA RESULT:    -3.817     17.983     18.580
REMARK INTER + INTRA:          -4.916
REMARK INTER:                  -4.821
REMARK INTRA:                  -0.095
REMARK UNBOUND:                -0.206
REMARK SMILES CCCCCC(=O)[O-]
REMARK SMILES IDX 4 1 5 2 6 3 7 4 8 5 3 6 2 7 1 8
REMARK H PARENT
REMARK Flexibility Score: inf
ROOT
ATOM      1  C   UNL     1      -5.258  -9.749  19.629  1.00  0.00     0.006 C 
ENDROOT
BRANCH   1   2
ATOM      2  C   UNL     1      -5.314  -8.702  18.505  1.00  0.00     0.053 C 
BRANCH   2   3
ATOM      3  C   UNL     1      -3.952  -8.191  18.147  1.00  0.00     0.041 C 
ATOM      4  O   UNL     1      -3.673  -7.916  16.951  1.00  0.00    -0.550 OA
ATOM      5  O   UNL     1      -2.980  -8.051  19.130  1.00  0.00    -0.550 OA
ENDBRANCH   2   3
ENDBRANCH   1   2
BRANCH   1   6
ATOM      6  C   UNL     1      -6.624 -10.351  20.002  1.00  0.00     0.000 C 
BRANCH   6   7
ATOM      7  C   UNL     1      -7.778  -9.763  19.176  1.00  0.00    -0.003 C 
ATOM      8  C   UNL     1      -8.318 -10.785  18.181  1.00  0.00     0.004 C 
ENDBRANCH   6   7
ENDBRANCH   1   6
TORSDOF 4
ENDMDL
MODEL 4
REMARK VINA RESULT:    -3.807      2.407      3.731
REMARK INTER + INTRA:          -4.903
REMARK INTER:                  -4.770
REMARK INTRA:                  -0.133
REMARK UNBOUND:                -0.206
REMARK SMILES CCCCCC(=O)[O-]
REMARK SMILES IDX 4 1 5 2 6 3 7 4 8 5 3 6 2 7 1 8
REMARK H PARENT
REMARK Flexibility Score: inf
ROOT
ATOM      1  C   UNL     1       3.315 -21.154   8.775  1.00  0.00     0.006 C 
ENDROOT
BRANCH   1   2
ATOM      2  C   UNL     1       4.111 -21.156   7.460  1.00  0.00     0.053 C 
BRANCH   2   3
ATOM      3  C   UNL     1       3.226 -20.953   6.269  1.00  0.00     0.041 C 
ATOM      4  O   UNL     1       2.022 -20.618   6.423  1.00  0.00    -0.550 OA
ATOM      5  O   UNL     1       3.721 -21.168   4.989  1.00  0.00    -0.550 OA
ENDBRANCH   2   3
ENDBRANCH   1   2
BRANCH   1   6
ATOM      6  C   UNL     1       3.237 -22.525   9.469  1.00  0.00     0.000 C 
BRANCH   6   7
ATOM      7  C   UNL     1       2.666 -23.622   8.557  1.00  0.00    -0.003 C 
ATOM      8  C   UNL     1       3.676 -24.746   8.351  1.00  0.00     0.004 C 
ENDBRANCH   6   7
ENDBRANCH   1   6
TORSDOF 4
ENDMDL
MODEL 5
REMARK VINA RESULT:    -3.600      2.147      3.841
REMARK INTER + INTRA:          -4.648
REMARK INTER:                  -4.507
REMARK INTRA:                  -0.141
REMARK UNBOUND:                -0.206
REMARK SMILES CCCCCC(=O)[O-]
REMARK SMILES IDX 4 1 5 2 6 3 7 4 8 5 3 6 2 7 1 8
REMARK H PARENT
REMARK Flexibility Score: inf
ROOT
ATOM      1  C   UNL     1       4.125 -22.590   7.942  1.00  0.00     0.006 C 
ENDROOT
BRANCH   1   2
ATOM      2  C   UNL     1       3.746 -21.121   7.696  1.00  0.00     0.053 C 
BRANCH   2   3
ATOM      3  C   UNL     1       2.983 -20.945   6.419  1.00  0.00     0.041 C 
ATOM      4  O   UNL     1       3.573 -21.035   5.311  1.00  0.00    -0.550 OA
ATOM      5  O   UNL     1       1.627 -20.648   6.454  1.00  0.00    -0.550 OA
ENDBRANCH   2   3
ENDBRANCH   1   2
BRANCH   1   6
ATOM      6  C   UNL     1       3.622 -23.158   9.281  1.00  0.00     0.000 C 
BRANCH   6   7
ATOM      7  C   UNL     1       2.945 -22.096  10.160  1.00  0.00    -0.003 C 
ATOM      8  C   UNL     1       1.504 -22.483  10.477  1.00  0.00     0.004 C 
ENDBRANCH   6   7
ENDBRANCH   1   6
TORSDOF 4
ENDMDL
MODEL 6
REMARK VINA RESULT:    -3.527     18.143     18.725
REMARK INTER + INTRA:          -4.558
REMARK INTER:                  -4.465
REMARK INTRA:                  -0.093
REMARK UNBOUND:                -0.206
REMARK SMILES CCCCCC(=O)[O-]
REMARK SMILES IDX 4 1 5 2 6 3 7 4 8 5 3 6 2 7 1 8
REMARK H PARENT
REMARK Flexibility Score: inf
ROOT
ATOM      1  C   UNL     1      -5.684 -10.051  19.762  1.00  0.00     0.006 C 
ENDROOT
BRANCH   1   2
ATOM      2  C   UNL     1      -6.702  -9.388  18.821  1.00  0.00     0.053 C 
BRANCH   2   3
ATOM      3  C   UNL     1      -8.055 -10.022  18.923  1.00  0.00     0.041 C 
ATOM      4  O   UNL     1      -8.464 -10.793  18.015  1.00  0.00    -0.550 OA
ATOM      5  O   UNL     1      -8.879  -9.735  20.004  1.00  0.00    -0.550 OA
ENDBRANCH   2   3
ENDBRANCH   1   2
BRANCH   1   6
ATOM      6  C   UNL     1      -4.287  -9.406  19.739  1.00  0.00     0.000 C 
BRANCH   6   7
ATOM      7  C   UNL     1      -4.096  -8.443  18.557  1.00  0.00    -0.003 C 
ATOM      8  C   UNL     1      -2.884  -7.542  18.772  1.00  0.00     0.004 C 
ENDBRANCH   6   7
ENDBRANCH   1   6
TORSDOF 4
ENDMDL
MODEL 7
REMARK VINA RESULT:    -2.839     16.117     17.171
REMARK INTER + INTRA:          -3.709
REMARK INTER:                  -3.621
REMARK INTRA:                  -0.088
REMARK UNBOUND:                -0.206
REMARK SMILES CCCCCC(=O)[O-]
REMARK SMILES IDX 4 1 5 2 6 3 7 4 8 5 3 6 2 7 1 8
REMARK H PARENT
REMARK Flexibility Score: inf
ROOT
ATOM      1  C   UNL     1     -13.519 -18.904   5.984  1.00  0.00     0.006 C 
ENDROOT
BRANCH   1   2
ATOM      2  C   UNL     1     -15.049 -18.810   6.093  1.00  0.00     0.053 C 
BRANCH   2   3
ATOM      3  C   UNL     1     -15.482 -17.630   6.907  1.00  0.00     0.041 C 
ATOM      4  O   UNL     1     -15.748 -17.767   8.130  1.00  0.00    -0.550 OA
ATOM      5  O   UNL     1     -15.625 -16.386   6.307  1.00  0.00    -0.550 OA
ENDBRANCH   2   3
ENDBRANCH   1   2
BRANCH   1   6
ATOM      6  C   UNL     1     -12.935 -18.280   4.704  1.00  0.00     0.000 C 
BRANCH   6   7
ATOM      7  C   UNL     1     -11.568 -18.869   4.325  1.00  0.00    -0.003 C 
ATOM      8  C   UNL     1     -10.499 -18.474   5.340  1.00  0.00     0.004 C 
ENDBRANCH   6   7
ENDBRANCH   1   6
TORSDOF 4
ENDMDL
MODEL 8
REMARK VINA RESULT:    -2.765     15.097     16.209
REMARK INTER + INTRA:          -3.617
REMARK INTER:                  -3.502
REMARK INTRA:                  -0.115
REMARK UNBOUND:                -0.206
REMARK SMILES CCCCCC(=O)[O-]
REMARK SMILES IDX 4 1 5 2 6 3 7 4 8 5 3 6 2 7 1 8
REMARK H PARENT
REMARK Flexibility Score: inf
ROOT
ATOM      1  C   UNL     1     -13.967 -20.125   5.399  1.00  0.00     0.006 C 
ENDROOT
BRANCH   1   2
ATOM      2  C   UNL     1     -13.427 -21.168   4.407  1.00  0.00     0.053 C 
BRANCH   2   3
ATOM      3  C   UNL     1     -13.719 -22.568   4.850  1.00  0.00     0.041 C 
ATOM      4  O   UNL     1     -14.705 -22.804   5.598  1.00  0.00    -0.550 OA
ATOM      5  O   UNL     1     -12.883 -23.609   4.466  1.00  0.00    -0.550 OA
ENDBRANCH   2   3
ENDBRANCH   1   2
BRANCH   1   6
ATOM      6  C   UNL     1     -12.975 -18.998   5.735  1.00  0.00     0.000 C 
BRANCH   6   7
ATOM      7  C   UNL     1     -11.896 -18.815   4.658  1.00  0.00    -0.003 C 
ATOM      8  C   UNL     1     -10.546 -18.476   5.284  1.00  0.00     0.004 C 
ENDBRANCH   6   7
ENDBRANCH   1   6
TORSDOF 4
ENDMDL
MODEL 9
REMARK VINA RESULT:    -2.677     16.126     17.305
REMARK INTER + INTRA:          -3.509
REMARK INTER:                  -3.328
REMARK INTRA:                  -0.181
REMARK UNBOUND:                -0.206
REMARK SMILES CCCCCC(=O)[O-]
REMARK SMILES IDX 4 1 5 2 6 3 7 4 8 5 3 6 2 7 1 8
REMARK H PARENT
REMARK Flexibility Score: inf
ROOT
ATOM      1  C   UNL     1     -14.536 -18.721   5.549  1.00  0.00     0.006 C 
ENDROOT
BRANCH   1   2
ATOM      2  C   UNL     1     -13.093 -19.212   5.750  1.00  0.00     0.053 C 
BRANCH   2   3
ATOM      3  C   UNL     1     -12.130 -18.507   4.846  1.00  0.00     0.041 C 
ATOM      4  O   UNL     1     -12.527 -18.012   3.758  1.00  0.00    -0.550 OA
ATOM      5  O   UNL     1     -10.786 -18.426   5.188  1.00  0.00    -0.550 OA
ENDBRANCH   2   3
ENDBRANCH   1   2
BRANCH   1   6
ATOM      6  C   UNL     1     -15.137 -18.005   6.771  1.00  0.00     0.000 C 
BRANCH   6   7
ATOM      7  C   UNL     1     -15.863 -16.703   6.399  1.00  0.00    -0.003 C 
ATOM      8  C   UNL     1     -15.116 -15.952   5.302  1.00  0.00     0.004 C 
ENDBRANCH   6   7
ENDBRANCH   1   6
TORSDOF 4
ENDMDL
