MODEL 1
REMARK VINA RESULT:    -3.692      0.000      0.000
REMARK INTER + INTRA:          -5.415
REMARK INTER:                  -5.203
REMARK INTRA:                  -0.213
REMARK UNBOUND:                -0.213
REMARK SMILES CCCCCCCCC(=O)[O-]
REMARK SMILES IDX 6 1 7 2 8 3 9 4 10 5 11 6 5 7 4 8 3 9 2 10 1 11
REMARK H PARENT
REMARK Flexibility Score: inf
ROOT
ATOM      1  C   UNL     1      18.552  19.627 -10.925  1.00  0.00     0.000 C 
ENDROOT
BRANCH   1   2
ATOM      2  C   UNL     1      17.661  18.379 -10.999  1.00  0.00     0.006 C 
BRANCH   2   3
ATOM      3  C   UNL     1      16.180  18.764 -11.057  1.00  0.00     0.053 C 
BRANCH   3   4
ATOM      4  C   UNL     1      15.579  18.741  -9.687  1.00  0.00     0.041 C 
ATOM      5  O   UNL     1      14.871  19.702  -9.289  1.00  0.00    -0.550 OA
ATOM      6  O   UNL     1      15.762  17.635  -8.866  1.00  0.00    -0.550 OA
ENDBRANCH   3   4
ENDBRANCH   2   3
ENDBRANCH   1   2
BRANCH   1   7
ATOM      7  C   UNL     1      20.046  19.313 -11.120  1.00  0.00     0.000 C 
BRANCH   7   8
ATOM      8  C   UNL     1      20.982  20.532 -11.043  1.00  0.00    -0.000 C 
BRANCH   8   9
ATOM      9  C   UNL     1      22.367  20.192 -10.474  1.00  0.00    -0.000 C 
BRANCH   9  10
ATOM     10  C   UNL     1      22.734  21.134  -9.322  1.00  0.00    -0.003 C 
ATOM     11  C   UNL     1      22.512  22.593  -9.711  1.00  0.00     0.004 C 
ENDBRANCH   9  10
ENDBRANCH   8   9
ENDBRANCH   7   8
ENDBRANCH   1   7
TORSDOF 7
ENDMDL
MODEL 2
REMARK VINA RESULT:    -3.690     12.076     12.737
REMARK INTER + INTRA:          -5.413
REMARK INTER:                  -5.078
REMARK INTRA:                  -0.334
REMARK UNBOUND:                -0.213
REMARK SMILES CCCCCCCCC(=O)[O-]
REMARK SMILES IDX 6 1 7 2 8 3 9 4 10 5 11 6 5 7 4 8 3 9 2 10 1 11
REMARK H PARENT
REMARK Flexibility Score: inf
ROOT
ATOM      1  C   UNL     1      12.133  31.003 -10.835  1.00  0.00     0.000 C 
ENDROOT
BRANCH   1   2
ATOM      2  C   UNL     1      10.982  30.173 -10.247  1.00  0.00     0.006 C 
BRANCH   2   3
ATOM      3  C   UNL     1      11.473  28.789  -9.809  1.00  0.00     0.053 C 
BRANCH   3   4
ATOM      4  C   UNL     1      11.459  28.677  -8.317  1.00  0.00     0.041 C 
ATOM      5  O   UNL     1      12.429  29.109  -7.640  1.00  0.00    -0.550 OA
ATOM      6  O   UNL     1      10.353  28.139  -7.670  1.00  0.00    -0.550 OA
ENDBRANCH   3   4
ENDBRANCH   2   3
ENDBRANCH   1   2
BRANCH   1   7
ATOM      7  C   UNL     1      12.760  31.969  -9.813  1.00  0.00     0.000 C 
BRANCH   7   8
ATOM      8  C   UNL     1      14.294  32.077  -9.878  1.00  0.00    -0.000 C 
BRANCH   8   9
ATOM      9  C   UNL     1      14.937  32.330  -8.507  1.00  0.00    -0.000 C 
BRANCH   9  10
ATOM     10  C   UNL     1      16.347  32.911  -8.661  1.00  0.00    -0.003 C 
ATOM     11  C   UNL     1      16.366  34.052  -9.675  1.00  0.00     0.004 C 
ENDBRANCH   9  10
ENDBRANCH   8   9
ENDBRANCH   7   8
ENDBRANCH   1   7
TORSDOF 7
ENDMDL
MODEL 3
REMARK VINA RESULT:    -3.665     12.317     13.151
REMARK INTER + INTRA:          -5.378
REMARK INTER:                  -4.999
REMARK INTRA:                  -0.379
REMARK UNBOUND:                -0.213
REMARK SMILES CCCCCCCCC(=O)[O-]
REMARK SMILES IDX 6 1 7 2 8 3 9 4 10 5 11 6 5 7 4 8 3 9 2 10 1 11
REMARK H PARENT
REMARK Flexibility Score: inf
ROOT
ATOM      1  C   UNL     1      12.748  31.852  -9.606  1.00  0.00     0.000 C 
ENDROOT
BRANCH   1   2
ATOM      2  C   UNL     1      11.827  30.683  -9.983  1.00  0.00     0.006 C 
BRANCH   2   3
ATOM      3  C   UNL     1      11.934  29.548  -8.961  1.00  0.00     0.053 C 
BRANCH   3   4
ATOM      4  C   UNL     1      10.618  29.326  -8.285  1.00  0.00     0.041 C 
ATOM      5  O   UNL     1      10.329  28.193  -7.818  1.00  0.00    -0.550 OA
ATOM      6  O   UNL     1       9.730  30.382  -8.128  1.00  0.00    -0.550 OA
ENDBRANCH   3   4
ENDBRANCH   2   3
ENDBRANCH   1   2
BRANCH   1   7
ATOM      7  C   UNL     1      14.079  31.392  -8.984  1.00  0.00     0.000 C 
BRANCH   7   8
ATOM      8  C   UNL     1      14.908  32.508  -8.325  1.00  0.00    -0.000 C 
BRANCH   8   9
ATOM      9  C   UNL     1      16.290  32.692  -8.969  1.00  0.00    -0.000 C 
BRANCH   9  10
ATOM     10  C   UNL     1      16.411  34.072  -9.625  1.00  0.00    -0.003 C 
ATOM     11  C   UNL     1      15.596  34.143 -10.914  1.00  0.00     0.004 C 
ENDBRANCH   9  10
ENDBRANCH   8   9
ENDBRANCH   7   8
ENDBRANCH   1   7
TORSDOF 7
ENDMDL
MODEL 4
REMARK VINA RESULT:    -3.563     12.736     14.374
REMARK INTER + INTRA:          -5.234
REMARK INTER:                  -4.771
REMARK INTRA:                  -0.463
REMARK UNBOUND:                -0.213
REMARK SMILES CCCCCCCCC(=O)[O-]
REMARK SMILES IDX 6 1 7 2 8 3 9 4 10 5 11 6 5 7 4 8 3 9 2 10 1 11
REMARK H PARENT
REMARK Flexibility Score: inf
ROOT
ATOM      1  C   UNL     1      13.181  32.252 -10.166  1.00  0.00     0.000 C 
ENDROOT
BRANCH   1   2
ATOM      2  C   UNL     1      14.016  31.529  -9.100  1.00  0.00     0.006 C 
BRANCH   2   3
ATOM      3  C   UNL     1      14.962  32.503  -8.390  1.00  0.00     0.053 C 
BRANCH   3   4
ATOM      4  C   UNL     1      16.153  32.794  -9.246  1.00  0.00     0.041 C 
ATOM      5  O   UNL     1      16.762  31.857  -9.826  1.00  0.00    -0.550 OA
ATOM      6  O   UNL     1      16.563  34.107  -9.443  1.00  0.00    -0.550 OA
ENDBRANCH   3   4
ENDBRANCH   2   3
ENDBRANCH   1   2
BRANCH   1   7
ATOM      7  C   UNL     1      11.666  32.166  -9.903  1.00  0.00     0.000 C 
BRANCH   7   8
ATOM      8  C   UNL     1      11.094  30.738  -9.860  1.00  0.00    -0.000 C 
BRANCH   8   9
ATOM      9  C   UNL     1      10.100  30.524  -8.710  1.00  0.00    -0.000 C 
BRANCH   9  10
ATOM     10  C   UNL     1      10.404  29.225  -7.956  1.00  0.00    -0.003 C 
ATOM     11  C   UNL     1      11.880  28.853  -8.071  1.00  0.00     0.004 C 
ENDBRANCH   9  10
ENDBRANCH   8   9
ENDBRANCH   7   8
ENDBRANCH   1   7
TORSDOF 7
ENDMDL
MODEL 5
REMARK VINA RESULT:    -3.472     12.766     14.052
REMARK INTER + INTRA:          -5.105
REMARK INTER:                  -4.877
REMARK INTRA:                  -0.229
REMARK UNBOUND:                -0.213
REMARK SMILES CCCCCCCCC(=O)[O-]
REMARK SMILES IDX 6 1 7 2 8 3 9 4 10 5 11 6 5 7 4 8 3 9 2 10 1 11
REMARK H PARENT
REMARK Flexibility Score: inf
ROOT
ATOM      1  C   UNL     1      28.123  23.060  -2.862  1.00  0.00     0.000 C 
ENDROOT
BRANCH   1   2
ATOM      2  C   UNL     1      27.550  23.988  -1.782  1.00  0.00     0.006 C 
BRANCH   2   3
ATOM      3  C   UNL     1      28.631  24.925  -1.234  1.00  0.00     0.053 C 
BRANCH   3   4
ATOM      4  C   UNL     1      28.264  25.406   0.134  1.00  0.00     0.041 C 
ATOM      5  O   UNL     1      29.016  26.207   0.748  1.00  0.00    -0.550 OA
ATOM      6  O   UNL     1      27.065  25.008   0.712  1.00  0.00    -0.550 OA
ENDBRANCH   3   4
ENDBRANCH   2   3
ENDBRANCH   1   2
BRANCH   1   7
ATOM      7  C   UNL     1      27.973  21.568  -2.516  1.00  0.00     0.000 C 
BRANCH   7   8
ATOM      8  C   UNL     1      28.596  20.598  -3.535  1.00  0.00    -0.000 C 
BRANCH   8   9
ATOM      9  C   UNL     1      28.942  19.230  -2.929  1.00  0.00    -0.000 C 
BRANCH   9  10
ATOM     10  C   UNL     1      28.006  18.893  -1.762  1.00  0.00    -0.003 C 
ATOM     11  C   UNL     1      28.387  17.564  -1.116  1.00  0.00     0.004 C 
ENDBRANCH   9  10
ENDBRANCH   8   9
ENDBRANCH   7   8
ENDBRANCH   1   7
TORSDOF 7
ENDMDL
MODEL 6
REMARK VINA RESULT:    -3.358     12.182     13.184
REMARK INTER + INTRA:          -4.945
REMARK INTER:                  -4.557
REMARK INTRA:                  -0.388
REMARK UNBOUND:                -0.213
REMARK SMILES CCCCCCCCC(=O)[O-]
REMARK SMILES IDX 6 1 7 2 8 3 9 4 10 5 11 6 5 7 4 8 3 9 2 10 1 11
REMARK H PARENT
REMARK Flexibility Score: inf
ROOT
ATOM      1  C   UNL     1      28.367  22.855  -3.521  1.00  0.00     0.000 C 
ENDROOT
BRANCH   1   2
ATOM      2  C   UNL     1      28.809  21.392  -3.670  1.00  0.00     0.006 C 
BRANCH   2   3
ATOM      3  C   UNL     1      28.315  20.547  -2.492  1.00  0.00     0.053 C 
BRANCH   3   4
ATOM      4  C   UNL     1      28.291  19.098  -2.860  1.00  0.00     0.041 C 
ATOM      5  O   UNL     1      28.285  18.751  -4.070  1.00  0.00    -0.550 OA
ATOM      6  O   UNL     1      28.325  18.128  -1.866  1.00  0.00    -0.550 OA
ENDBRANCH   3   4
ENDBRANCH   2   3
ENDBRANCH   1   2
BRANCH   1   7
ATOM      7  C   UNL     1      27.265  23.046  -2.463  1.00  0.00     0.000 C 
BRANCH   7   8
ATOM      8  C   UNL     1      27.317  24.384  -1.704  1.00  0.00    -0.000 C 
BRANCH   8   9
ATOM      9  C   UNL     1      28.739  24.781  -1.282  1.00  0.00    -0.000 C 
BRANCH   9  10
ATOM     10  C   UNL     1      28.729  25.506   0.069  1.00  0.00    -0.003 C 
ATOM     11  C   UNL     1      27.490  25.141   0.881  1.00  0.00     0.004 C 
ENDBRANCH   9  10
ENDBRANCH   8   9
ENDBRANCH   7   8
ENDBRANCH   1   7
TORSDOF 7
ENDMDL
MODEL 7
REMARK VINA RESULT:    -3.257     12.408     13.069
REMARK INTER + INTRA:          -4.802
REMARK INTER:                  -4.587
REMARK INTRA:                  -0.215
REMARK UNBOUND:                -0.213
REMARK SMILES CCCCCCCCC(=O)[O-]
REMARK SMILES IDX 6 1 7 2 8 3 9 4 10 5 11 6 5 7 4 8 3 9 2 10 1 11
REMARK H PARENT
REMARK Flexibility Score: inf
ROOT
ATOM      1  C   UNL     1      29.112  20.012  -3.545  1.00  0.00     0.000 C 
ENDROOT
BRANCH   1   2
ATOM      2  C   UNL     1      29.114  18.727  -2.703  1.00  0.00     0.006 C 
BRANCH   2   3
ATOM      3  C   UNL     1      28.004  18.762  -1.648  1.00  0.00     0.053 C 
BRANCH   3   4
ATOM      4  C   UNL     1      28.058  17.537  -0.791  1.00  0.00     0.041 C 
ATOM      5  O   UNL     1      29.125  16.875  -0.696  1.00  0.00    -0.550 OA
ATOM      6  O   UNL     1      26.943  17.153  -0.056  1.00  0.00    -0.550 OA
ENDBRANCH   3   4
ENDBRANCH   2   3
ENDBRANCH   1   2
BRANCH   1   7
ATOM      7  C   UNL     1      28.224  21.119  -2.950  1.00  0.00     0.000 C 
BRANCH   7   8
ATOM      8  C   UNL     1      28.748  22.552  -3.153  1.00  0.00    -0.000 C 
BRANCH   8   9
ATOM      9  C   UNL     1      28.871  23.339  -1.841  1.00  0.00    -0.000 C 
BRANCH   9  10
ATOM     10  C   UNL     1      27.852  24.483  -1.789  1.00  0.00    -0.003 C 
ATOM     11  C   UNL     1      26.440  23.977  -2.072  1.00  0.00     0.004 C 
ENDBRANCH   9  10
ENDBRANCH   8   9
ENDBRANCH   7   8
ENDBRANCH   1   7
TORSDOF 7
ENDMDL
MODEL 8
REMARK VINA RESULT:    -2.112     12.028     13.295
REMARK INTER + INTRA:          -3.188
REMARK INTER:                  -2.930
REMARK INTRA:                  -0.258
REMARK UNBOUND:                -0.213
REMARK SMILES CCCCCCCCC(=O)[O-]
REMARK SMILES IDX 6 1 7 2 8 3 9 4 10 5 11 6 5 7 4 8 3 9 2 10 1 11
REMARK H PARENT
REMARK Flexibility Score: inf
ROOT
ATOM      1  C   UNL     1      27.978  21.075  -2.554  1.00  0.00     0.000 C 
ENDROOT
BRANCH   1   2
ATOM      2  C   UNL     1      28.003  22.460  -3.216  1.00  0.00     0.006 C 
BRANCH   2   3
ATOM      3  C   UNL     1      28.498  23.528  -2.235  1.00  0.00     0.053 C 
BRANCH   3   4
ATOM      4  C   UNL     1      27.349  24.120  -1.482  1.00  0.00     0.041 C 
ATOM      5  O   UNL     1      26.176  24.009  -1.924  1.00  0.00    -0.550 OA
ATOM      6  O   UNL     1      27.569  24.755  -0.266  1.00  0.00    -0.550 OA
ENDBRANCH   3   4
ENDBRANCH   2   3
ENDBRANCH   1   2
BRANCH   1   7
ATOM      7  C   UNL     1      28.350  19.938  -3.524  1.00  0.00     0.000 C 
BRANCH   7   8
ATOM      8  C   UNL     1      28.800  18.630  -2.850  1.00  0.00    -0.000 C 
BRANCH   8   9
ATOM      9  C   UNL     1      28.348  18.522  -1.387  1.00  0.00    -0.000 C 
BRANCH   9  10
ATOM     10  C   UNL     1      28.234  17.056  -0.954  1.00  0.00    -0.003 C 
ATOM     11  C   UNL     1      27.145  16.875   0.099  1.00  0.00     0.004 C 
ENDBRANCH   9  10
ENDBRANCH   8   9
ENDBRANCH   7   8
ENDBRANCH   1   7
TORSDOF 7
ENDMDL
