MODEL 1
REMARK VINA RESULT:    -7.601      0.000      0.000
REMARK INTER + INTRA:          -9.709
REMARK INTER:                  -9.378
REMARK INTRA:                  -0.331
REMARK UNBOUND:                -0.331
REMARK SMILES Oc1cc(O)c2cc(O)c(-c3cc(O)c(O)c(O)c3)[o+]c2c1
REMARK SMILES IDX 10 1 20 2 21 3 22 4 2 5 3 6 4 7 6 8 7 9 8 10 11 11 12 12
REMARK SMILES IDX 13 13 19 14 15 15 17 16 14 17 16 19 18 21 9 23 1 25 5 27
REMARK H PARENT 14 18 16 20 18 22 9 24 1 26 5 28
REMARK Flexibility Score: inf
ROOT
ATOM      1  C   UNL     1     -11.644 -29.035 -21.124  1.00  0.00     0.402 A 
ATOM      2  O   UNL     1     -11.464 -28.403 -22.284  1.00  0.00    -0.202 OA
ATOM      3  C   UNL     1     -10.274 -28.267 -22.861  1.00  0.00     0.368 A 
ATOM      4  C   UNL     1     -10.169 -27.585 -24.076  1.00  0.00     0.162 A 
ATOM      5  C   UNL     1      -8.923 -27.432 -24.693  1.00  0.00     0.128 A 
ATOM      6  C   UNL     1      -7.774 -27.963 -24.090  1.00  0.00     0.093 A 
ATOM      7  C   UNL     1      -7.865 -28.651 -22.871  1.00  0.00     0.136 A 
ATOM      8  C   UNL     1      -9.120 -28.805 -22.250  1.00  0.00     0.125 A 
ATOM      9  C   UNL     1      -9.270 -29.487 -21.039  1.00  0.00     0.078 A 
ATOM     10  C   UNL     1     -10.541 -29.618 -20.468  1.00  0.00     0.223 A 
ENDROOT
BRANCH   1  11
ATOM     11  C   UNL     1     -13.017 -29.115 -20.577  1.00  0.00     0.091 A 
ATOM     12  C   UNL     1     -13.749 -30.302 -20.718  1.00  0.00     0.068 A 
ATOM     13  C   UNL     1     -15.056 -30.396 -20.226  1.00  0.00     0.162 A 
ATOM     14  C   UNL     1     -13.627 -28.006 -19.967  1.00  0.00     0.068 A 
ATOM     15  C   UNL     1     -15.656 -29.296 -19.596  1.00  0.00     0.200 A 
ATOM     16  C   UNL     1     -14.935 -28.085 -19.473  1.00  0.00     0.162 A 
BRANCH  13  17
ATOM     17  O   UNL     1     -15.769 -31.586 -20.358  1.00  0.00    -0.504 OA
ATOM     18  H   UNL     1     -15.320 -32.489 -20.260  1.00  0.00     0.293 HD
ENDBRANCH  13  17
BRANCH  15  19
ATOM     19  O   UNL     1     -16.959 -29.445 -19.116  1.00  0.00    -0.502 OA
ATOM     20  H   UNL     1     -17.787 -29.349 -19.686  1.00  0.00     0.293 HD
ENDBRANCH  15  19
BRANCH  16  21
ATOM     21  O   UNL     1     -15.475 -26.943 -18.877  1.00  0.00    -0.504 OA
ATOM     22  H   UNL     1     -15.731 -26.109 -19.384  1.00  0.00     0.293 HD
ENDBRANCH  16  21
ENDBRANCH   1  11
BRANCH  10  23
ATOM     23  O   UNL     1     -10.706 -30.340 -19.287  1.00  0.00    -0.500 OA
ATOM     24  H   UNL     1     -10.288 -30.037 -18.415  1.00  0.00     0.294 HD
ENDBRANCH  10  23
BRANCH   5  25
ATOM     25  O   UNL     1      -8.836 -26.750 -25.904  1.00  0.00    -0.507 OA
ATOM     26  H   UNL     1      -7.984 -26.281 -26.189  1.00  0.00     0.293 HD
ENDBRANCH   5  25
BRANCH   7  27
ATOM     27  O   UNL     1      -6.715 -29.176 -22.280  1.00  0.00    -0.507 OA
ATOM     28  H   UNL     1      -6.359 -30.091 -22.534  1.00  0.00     0.293 HD
ENDBRANCH   7  27
TORSDOF 7
ENDMDL
MODEL 2
REMARK VINA RESULT:    -7.025      6.338     12.057
REMARK INTER + INTRA:          -8.999
REMARK INTER:                  -8.719
REMARK INTRA:                  -0.280
REMARK UNBOUND:                -0.331
REMARK SMILES Oc1cc(O)c2cc(O)c(-c3cc(O)c(O)c(O)c3)[o+]c2c1
REMARK SMILES IDX 10 1 20 2 21 3 22 4 2 5 3 6 4 7 6 8 7 9 8 10 11 11 12 12
REMARK SMILES IDX 13 13 19 14 15 15 17 16 14 17 16 19 18 21 9 23 1 25 5 27
REMARK H PARENT 14 18 16 20 18 22 9 24 1 26 5 28
REMARK Flexibility Score: inf
ROOT
ATOM      1  C   UNL     1      -5.129 -25.598 -27.843  1.00  0.00     0.402 A 
ATOM      2  O   UNL     1      -4.713 -26.436 -26.893  1.00  0.00    -0.202 OA
ATOM      3  C   UNL     1      -5.542 -27.137 -26.127  1.00  0.00     0.368 A 
ATOM      4  C   UNL     1      -5.025 -27.990 -25.148  1.00  0.00     0.162 A 
ATOM      5  C   UNL     1      -5.886 -28.732 -24.333  1.00  0.00     0.128 A 
ATOM      6  C   UNL     1      -7.274 -28.619 -24.497  1.00  0.00     0.093 A 
ATOM      7  C   UNL     1      -7.807 -27.768 -25.476  1.00  0.00     0.136 A 
ATOM      8  C   UNL     1      -6.939 -27.021 -26.296  1.00  0.00     0.125 A 
ATOM      9  C   UNL     1      -7.415 -26.163 -27.293  1.00  0.00     0.078 A 
ATOM     10  C   UNL     1      -6.510 -25.449 -28.085  1.00  0.00     0.223 A 
ENDROOT
BRANCH   1  11
ATOM     11  C   UNL     1      -4.109 -24.866 -28.626  1.00  0.00     0.091 A 
ATOM     12  C   UNL     1      -3.989 -23.477 -28.475  1.00  0.00     0.068 A 
ATOM     13  C   UNL     1      -3.045 -22.758 -29.218  1.00  0.00     0.162 A 
ATOM     14  C   UNL     1      -3.294 -25.523 -29.563  1.00  0.00     0.068 A 
ATOM     15  C   UNL     1      -2.216 -23.418 -30.137  1.00  0.00     0.200 A 
ATOM     16  C   UNL     1      -2.348 -24.816 -30.315  1.00  0.00     0.162 A 
BRANCH  13  17
ATOM     17  O   UNL     1      -2.923 -21.381 -29.049  1.00  0.00    -0.504 OA
ATOM     18  H   UNL     1      -3.721 -20.801 -28.818  1.00  0.00     0.293 HD
ENDBRANCH  13  17
BRANCH  15  19
ATOM     19  O   UNL     1      -1.286 -22.656 -30.847  1.00  0.00    -0.502 OA
ATOM     20  H   UNL     1      -1.475 -21.739 -31.225  1.00  0.00     0.293 HD
ENDBRANCH  15  19
BRANCH  16  21
ATOM     21  O   UNL     1      -1.573 -25.537 -31.227  1.00  0.00    -0.504 OA
ATOM     22  H   UNL     1      -0.836 -26.174 -30.963  1.00  0.00     0.293 HD
ENDBRANCH  16  21
ENDBRANCH   1  11
BRANCH  10  23
ATOM     23  O   UNL     1      -6.975 -24.630 -29.114  1.00  0.00    -0.500 OA
ATOM     24  H   UNL     1      -6.403 -23.893 -29.507  1.00  0.00     0.294 HD
ENDBRANCH  10  23
BRANCH   5  25
ATOM     25  O   UNL     1      -5.353 -29.577 -23.363  1.00  0.00    -0.507 OA
ATOM     26  H   UNL     1      -4.361 -29.588 -23.156  1.00  0.00     0.293 HD
ENDBRANCH   5  25
BRANCH   7  27
ATOM     27  O   UNL     1      -9.190 -27.664 -25.631  1.00  0.00    -0.507 OA
ATOM     28  H   UNL     1      -9.732 -26.981 -25.113  1.00  0.00     0.293 HD
ENDBRANCH   7  27
TORSDOF 7
ENDMDL
MODEL 3
REMARK VINA RESULT:    -7.014     12.006     13.966
REMARK INTER + INTRA:          -8.985
REMARK INTER:                  -8.606
REMARK INTRA:                  -0.379
REMARK UNBOUND:                -0.331
REMARK SMILES Oc1cc(O)c2cc(O)c(-c3cc(O)c(O)c(O)c3)[o+]c2c1
REMARK SMILES IDX 10 1 20 2 21 3 22 4 2 5 3 6 4 7 6 8 7 9 8 10 11 11 12 12
REMARK SMILES IDX 13 13 19 14 15 15 17 16 14 17 16 19 18 21 9 23 1 25 5 27
REMARK H PARENT 14 18 16 20 18 22 9 24 1 26 5 28
REMARK Flexibility Score: inf
ROOT
ATOM      1  C   UNL     1      -5.221 -20.902 -29.292  1.00  0.00     0.402 A 
ATOM      2  O   UNL     1      -4.027 -21.392 -29.624  1.00  0.00    -0.202 OA
ATOM      3  C   UNL     1      -3.843 -22.643 -30.035  1.00  0.00     0.368 A 
ATOM      4  C   UNL     1      -2.556 -23.082 -30.360  1.00  0.00     0.162 A 
ATOM      5  C   UNL     1      -2.347 -24.396 -30.791  1.00  0.00     0.128 A 
ATOM      6  C   UNL     1      -3.432 -25.278 -30.897  1.00  0.00     0.093 A 
ATOM      7  C   UNL     1      -4.729 -24.851 -30.576  1.00  0.00     0.136 A 
ATOM      8  C   UNL     1      -4.939 -23.527 -30.142  1.00  0.00     0.125 A 
ATOM      9  C   UNL     1      -6.210 -23.045 -29.815  1.00  0.00     0.078 A 
ATOM     10  C   UNL     1      -6.364 -21.720 -29.396  1.00  0.00     0.223 A 
ENDROOT
BRANCH   1  11
ATOM     11  C   UNL     1      -5.298 -19.495 -28.840  1.00  0.00     0.091 A 
ATOM     12  C   UNL     1      -5.268 -19.208 -27.469  1.00  0.00     0.068 A 
ATOM     13  C   UNL     1      -5.359 -17.886 -27.014  1.00  0.00     0.162 A 
ATOM     14  C   UNL     1      -5.460 -18.440 -29.754  1.00  0.00     0.068 A 
ATOM     15  C   UNL     1      -5.497 -16.832 -27.929  1.00  0.00     0.200 A 
ATOM     16  C   UNL     1      -5.555 -17.115 -29.314  1.00  0.00     0.162 A 
BRANCH  13  17
ATOM     17  O   UNL     1      -5.312 -17.611 -25.649  1.00  0.00    -0.504 OA
ATOM     18  H   UNL     1      -4.519 -17.142 -25.228  1.00  0.00     0.293 HD
ENDBRANCH  13  17
BRANCH  15  19
ATOM     19  O   UNL     1      -5.576 -15.532 -27.424  1.00  0.00    -0.502 OA
ATOM     20  H   UNL     1      -5.713 -15.310 -26.449  1.00  0.00     0.293 HD
ENDBRANCH  15  19
BRANCH  16  21
ATOM     21  O   UNL     1      -5.713 -16.119 -30.281  1.00  0.00    -0.504 OA
ATOM     22  H   UNL     1      -5.308 -15.197 -30.215  1.00  0.00     0.293 HD
ENDBRANCH  16  21
ENDBRANCH   1  11
BRANCH  10  23
ATOM     23  O   UNL     1      -7.636 -21.218 -29.118  1.00  0.00    -0.500 OA
ATOM     24  H   UNL     1      -8.407 -21.829 -28.877  1.00  0.00     0.294 HD
ENDBRANCH  10  23
BRANCH   5  25
ATOM     25  O   UNL     1      -1.059 -24.816 -31.110  1.00  0.00    -0.507 OA
ATOM     26  H   UNL     1      -0.826 -25.155 -32.036  1.00  0.00     0.293 HD
ENDBRANCH   5  25
BRANCH   7  27
ATOM     27  O   UNL     1      -5.802 -25.736 -30.686  1.00  0.00    -0.507 OA
ATOM     28  H   UNL     1      -6.533 -25.773 -29.984  1.00  0.00     0.293 HD
ENDBRANCH   7  27
TORSDOF 7
ENDMDL
MODEL 4
REMARK VINA RESULT:    -6.853      1.037      3.171
REMARK INTER + INTRA:          -8.787
REMARK INTER:                  -8.451
REMARK INTRA:                  -0.336
REMARK UNBOUND:                -0.331
REMARK SMILES Oc1cc(O)c2cc(O)c(-c3cc(O)c(O)c(O)c3)[o+]c2c1
REMARK SMILES IDX 10 1 20 2 21 3 22 4 2 5 3 6 4 7 6 8 7 9 8 10 11 11 12 12
REMARK SMILES IDX 13 13 19 14 15 15 17 16 14 17 16 19 18 21 9 23 1 25 5 27
REMARK H PARENT 14 18 16 20 18 22 9 24 1 26 5 28
REMARK Flexibility Score: inf
ROOT
ATOM      1  C   UNL     1     -12.429 -28.614 -22.205  1.00  0.00     0.402 A 
ATOM      2  O   UNL     1     -11.223 -28.983 -21.772  1.00  0.00    -0.202 OA
ATOM      3  C   UNL     1     -10.105 -28.766 -22.458  1.00  0.00     0.368 A 
ATOM      4  C   UNL     1      -8.880 -29.189 -21.935  1.00  0.00     0.162 A 
ATOM      5  C   UNL     1      -7.697 -28.969 -22.647  1.00  0.00     0.128 A 
ATOM      6  C   UNL     1      -7.739 -28.323 -23.891  1.00  0.00     0.093 A 
ATOM      7  C   UNL     1      -8.961 -27.891 -24.427  1.00  0.00     0.136 A 
ATOM      8  C   UNL     1     -10.152 -28.113 -23.709  1.00  0.00     0.125 A 
ATOM      9  C   UNL     1     -11.398 -27.698 -24.191  1.00  0.00     0.078 A 
ATOM     10  C   UNL     1     -12.550 -27.937 -23.435  1.00  0.00     0.223 A 
ENDROOT
BRANCH   1  11
ATOM     11  C   UNL     1     -13.602 -28.919 -21.355  1.00  0.00     0.091 A 
ATOM     12  C   UNL     1     -14.163 -27.908 -20.565  1.00  0.00     0.068 A 
ATOM     13  C   UNL     1     -15.261 -28.175 -19.738  1.00  0.00     0.162 A 
ATOM     14  C   UNL     1     -14.132 -30.218 -21.279  1.00  0.00     0.068 A 
ATOM     15  C   UNL     1     -15.805 -29.467 -19.680  1.00  0.00     0.200 A 
ATOM     16  C   UNL     1     -15.228 -30.501 -20.455  1.00  0.00     0.162 A 
BRANCH  13  17
ATOM     17  O   UNL     1     -15.821 -27.158 -18.967  1.00  0.00    -0.504 OA
ATOM     18  H   UNL     1     -15.246 -26.518 -18.434  1.00  0.00     0.293 HD
ENDBRANCH  13  17
BRANCH  15  19
ATOM     19  O   UNL     1     -16.904 -29.679 -18.845  1.00  0.00    -0.502 OA
ATOM     20  H   UNL     1     -17.133 -29.099 -18.051  1.00  0.00     0.293 HD
ENDBRANCH  15  19
BRANCH  16  21
ATOM     21  O   UNL     1     -15.702 -31.815 -20.432  1.00  0.00    -0.504 OA
ATOM     22  H   UNL     1     -16.632 -32.075 -20.141  1.00  0.00     0.293 HD
ENDBRANCH  16  21
ENDBRANCH   1  11
BRANCH  10  23
ATOM     23  O   UNL     1     -13.789 -27.481 -23.886  1.00  0.00    -0.500 OA
ATOM     24  H   UNL     1     -14.203 -27.828 -24.743  1.00  0.00     0.294 HD
ENDBRANCH  10  23
BRANCH   5  25
ATOM     25  O   UNL     1      -6.485 -29.397 -22.112  1.00  0.00    -0.507 OA
ATOM     26  H   UNL     1      -5.638 -28.849 -22.209  1.00  0.00     0.293 HD
ENDBRANCH   5  25
BRANCH   7  27
ATOM     27  O   UNL     1      -8.991 -27.248 -25.664  1.00  0.00    -0.507 OA
ATOM     28  H   UNL     1      -8.225 -27.331 -26.324  1.00  0.00     0.293 HD
ENDBRANCH   7  27
TORSDOF 7
ENDMDL
MODEL 5
REMARK VINA RESULT:    -6.841     12.763     14.065
REMARK INTER + INTRA:          -8.772
REMARK INTER:                  -8.405
REMARK INTRA:                  -0.367
REMARK UNBOUND:                -0.331
REMARK SMILES Oc1cc(O)c2cc(O)c(-c3cc(O)c(O)c(O)c3)[o+]c2c1
REMARK SMILES IDX 10 1 20 2 21 3 22 4 2 5 3 6 4 7 6 8 7 9 8 10 11 11 12 12
REMARK SMILES IDX 13 13 19 14 15 15 17 16 14 17 16 19 18 21 9 23 1 25 5 27
REMARK H PARENT 14 18 16 20 18 22 9 24 1 26 5 28
REMARK Flexibility Score: inf
ROOT
ATOM      1  C   UNL     1      -5.001 -20.788 -29.722  1.00  0.00     0.402 A 
ATOM      2  O   UNL     1      -4.190 -21.064 -28.700  1.00  0.00    -0.202 OA
ATOM      3  C   UNL     1      -3.395 -22.128 -28.669  1.00  0.00     0.368 A 
ATOM      4  C   UNL     1      -2.578 -22.349 -27.557  1.00  0.00     0.162 A 
ATOM      5  C   UNL     1      -1.738 -23.466 -27.510  1.00  0.00     0.128 A 
ATOM      6  C   UNL     1      -1.716 -24.370 -28.582  1.00  0.00     0.093 A 
ATOM      7  C   UNL     1      -2.529 -24.161 -29.705  1.00  0.00     0.136 A 
ATOM      8  C   UNL     1      -3.375 -23.035 -29.752  1.00  0.00     0.125 A 
ATOM      9  C   UNL     1      -4.202 -22.773 -30.849  1.00  0.00     0.078 A 
ATOM     10  C   UNL     1      -5.018 -21.636 -30.848  1.00  0.00     0.223 A 
ENDROOT
BRANCH   1  11
ATOM     11  C   UNL     1      -5.847 -19.577 -29.637  1.00  0.00     0.091 A 
ATOM     12  C   UNL     1      -5.395 -18.378 -30.205  1.00  0.00     0.068 A 
ATOM     13  C   UNL     1      -6.168 -17.213 -30.122  1.00  0.00     0.162 A 
ATOM     14  C   UNL     1      -7.072 -19.586 -28.948  1.00  0.00     0.068 A 
ATOM     15  C   UNL     1      -7.401 -17.229 -29.454  1.00  0.00     0.200 A 
ATOM     16  C   UNL     1      -7.853 -18.428 -28.855  1.00  0.00     0.162 A 
BRANCH  13  17
ATOM     17  O   UNL     1      -5.716 -16.031 -30.704  1.00  0.00    -0.504 OA
ATOM     18  H   UNL     1      -4.732 -15.791 -30.726  1.00  0.00     0.293 HD
ENDBRANCH  13  17
BRANCH  15  19
ATOM     19  O   UNL     1      -8.137 -16.042 -29.406  1.00  0.00    -0.502 OA
ATOM     20  H   UNL     1      -7.943 -15.281 -28.772  1.00  0.00     0.293 HD
ENDBRANCH  15  19
BRANCH  16  21
ATOM     21  O   UNL     1      -9.060 -18.514 -28.155  1.00  0.00    -0.504 OA
ATOM     22  H   UNL     1      -9.651 -19.331 -28.145  1.00  0.00     0.293 HD
ENDBRANCH  16  21
ENDBRANCH   1  11
BRANCH  10  23
ATOM     23  O   UNL     1      -5.807 -21.341 -31.959  1.00  0.00    -0.500 OA
ATOM     24  H   UNL     1      -6.783 -21.606 -32.004  1.00  0.00     0.294 HD
ENDBRANCH  10  23
BRANCH   5  25
ATOM     25  O   UNL     1      -0.931 -23.670 -26.394  1.00  0.00    -0.507 OA
ATOM     26  H   UNL     1      -1.314 -23.674 -25.456  1.00  0.00     0.293 HD
ENDBRANCH   5  25
BRANCH   7  27
ATOM     27  O   UNL     1      -2.499 -25.066 -30.766  1.00  0.00    -0.507 OA
ATOM     28  H   UNL     1      -3.047 -25.919 -30.752  1.00  0.00     0.293 HD
ENDBRANCH   7  27
TORSDOF 7
ENDMDL
MODEL 6
REMARK VINA RESULT:    -6.755      5.708      9.115
REMARK INTER + INTRA:          -8.666
REMARK INTER:                  -8.529
REMARK INTRA:                  -0.136
REMARK UNBOUND:                -0.331
REMARK SMILES Oc1cc(O)c2cc(O)c(-c3cc(O)c(O)c(O)c3)[o+]c2c1
REMARK SMILES IDX 10 1 20 2 21 3 22 4 2 5 3 6 4 7 6 8 7 9 8 10 11 11 12 12
REMARK SMILES IDX 13 13 19 14 15 15 17 16 14 17 16 19 18 21 9 23 1 25 5 27
REMARK H PARENT 14 18 16 20 18 22 9 24 1 26 5 28
REMARK Flexibility Score: inf
ROOT
ATOM      1  C   UNL     1      -5.127 -26.198 -26.542  1.00  0.00     0.402 A 
ATOM      2  O   UNL     1      -5.625 -26.129 -27.776  1.00  0.00    -0.202 OA
ATOM      3  C   UNL     1      -5.019 -25.489 -28.772  1.00  0.00     0.368 A 
ATOM      4  C   UNL     1      -5.611 -25.460 -30.037  1.00  0.00     0.162 A 
ATOM      5  C   UNL     1      -4.985 -24.788 -31.092  1.00  0.00     0.128 A 
ATOM      6  C   UNL     1      -3.760 -24.141 -30.881  1.00  0.00     0.093 A 
ATOM      7  C   UNL     1      -3.153 -24.164 -29.616  1.00  0.00     0.136 A 
ATOM      8  C   UNL     1      -3.783 -24.840 -28.554  1.00  0.00     0.125 A 
ATOM      9  C   UNL     1      -3.221 -24.902 -27.275  1.00  0.00     0.078 A 
ATOM     10  C   UNL     1      -3.886 -25.593 -26.256  1.00  0.00     0.223 A 
ENDROOT
BRANCH   1  11
ATOM     11  C   UNL     1      -5.899 -26.932 -25.515  1.00  0.00     0.091 A 
ATOM     12  C   UNL     1      -5.319 -28.034 -24.872  1.00  0.00     0.068 A 
ATOM     13  C   UNL     1      -6.035 -28.757 -23.910  1.00  0.00     0.162 A 
ATOM     14  C   UNL     1      -7.226 -26.585 -25.210  1.00  0.00     0.068 A 
ATOM     15  C   UNL     1      -7.352 -28.396 -23.590  1.00  0.00     0.200 A 
ATOM     16  C   UNL     1      -7.955 -27.301 -24.253  1.00  0.00     0.162 A 
BRANCH  13  17
ATOM     17  O   UNL     1      -5.444 -29.841 -23.265  1.00  0.00    -0.504 OA
ATOM     18  H   UNL     1      -5.999 -30.561 -22.818  1.00  0.00     0.293 HD
ENDBRANCH  13  17
BRANCH  15  19
ATOM     19  O   UNL     1      -8.020 -29.145 -22.618  1.00  0.00    -0.502 OA
ATOM     20  H   UNL     1      -7.720 -29.223 -21.658  1.00  0.00     0.293 HD
ENDBRANCH  15  19
BRANCH  16  21
ATOM     21  O   UNL     1      -9.268 -26.897 -24.001  1.00  0.00    -0.504 OA
ATOM     22  H   UNL     1      -9.515 -26.081 -23.461  1.00  0.00     0.293 HD
ENDBRANCH  16  21
ENDBRANCH   1  11
BRANCH  10  23
ATOM     23  O   UNL     1      -3.307 -25.702 -24.992  1.00  0.00    -0.500 OA
ATOM     24  H   UNL     1      -3.055 -24.883 -24.450  1.00  0.00     0.294 HD
ENDBRANCH  10  23
BRANCH   5  25
ATOM     25  O   UNL     1      -5.589 -24.768 -32.347  1.00  0.00    -0.507 OA
ATOM     26  H   UNL     1      -6.303 -24.088 -32.581  1.00  0.00     0.293 HD
ENDBRANCH   5  25
BRANCH   7  27
ATOM     27  O   UNL     1      -1.932 -23.518 -29.417  1.00  0.00    -0.507 OA
ATOM     28  H   UNL     1      -1.233 -23.466 -30.149  1.00  0.00     0.293 HD
ENDBRANCH   7  27
TORSDOF 7
ENDMDL
MODEL 7
REMARK VINA RESULT:    -6.739     11.967     14.058
REMARK INTER + INTRA:          -8.646
REMARK INTER:                  -8.266
REMARK INTRA:                  -0.380
REMARK UNBOUND:                -0.331
REMARK SMILES Oc1cc(O)c2cc(O)c(-c3cc(O)c(O)c(O)c3)[o+]c2c1
REMARK SMILES IDX 10 1 20 2 21 3 22 4 2 5 3 6 4 7 6 8 7 9 8 10 11 11 12 12
REMARK SMILES IDX 13 13 19 14 15 15 17 16 14 17 16 19 18 21 9 23 1 25 5 27
REMARK H PARENT 14 18 16 20 18 22 9 24 1 26 5 28
REMARK Flexibility Score: inf
ROOT
ATOM      1  C   UNL     1      -5.429 -21.030 -29.239  1.00  0.00     0.402 A 
ATOM      2  O   UNL     1      -5.377 -20.785 -27.929  1.00  0.00    -0.202 OA
ATOM      3  C   UNL     1      -5.837 -19.665 -27.380  1.00  0.00     0.368 A 
ATOM      4  C   UNL     1      -5.740 -19.482 -25.998  1.00  0.00     0.162 A 
ATOM      5  C   UNL     1      -6.217 -18.308 -25.407  1.00  0.00     0.128 A 
ATOM      6  C   UNL     1      -6.795 -17.310 -26.203  1.00  0.00     0.093 A 
ATOM      7  C   UNL     1      -6.901 -17.480 -27.591  1.00  0.00     0.136 A 
ATOM      8  C   UNL     1      -6.419 -18.662 -28.186  1.00  0.00     0.125 A 
ATOM      9  C   UNL     1      -6.504 -18.889 -29.564  1.00  0.00     0.078 A 
ATOM     10  C   UNL     1      -6.017 -20.084 -30.103  1.00  0.00     0.223 A 
ENDROOT
BRANCH   1  11
ATOM     11  C   UNL     1      -4.875 -22.310 -29.733  1.00  0.00     0.091 A 
ATOM     12  C   UNL     1      -3.528 -22.379 -30.114  1.00  0.00     0.068 A 
ATOM     13  C   UNL     1      -2.984 -23.573 -30.603  1.00  0.00     0.162 A 
ATOM     14  C   UNL     1      -5.685 -23.448 -29.885  1.00  0.00     0.068 A 
ATOM     15  C   UNL     1      -3.788 -24.715 -30.733  1.00  0.00     0.200 A 
ATOM     16  C   UNL     1      -5.156 -24.648 -30.376  1.00  0.00     0.162 A 
BRANCH  13  17
ATOM     17  O   UNL     1      -1.640 -23.634 -30.964  1.00  0.00    -0.504 OA
ATOM     18  H   UNL     1      -0.925 -23.919 -30.305  1.00  0.00     0.293 HD
ENDBRANCH  13  17
BRANCH  15  19
ATOM     19  O   UNL     1      -3.196 -25.883 -31.218  1.00  0.00    -0.502 OA
ATOM     20  H   UNL     1      -3.204 -26.766 -30.731  1.00  0.00     0.293 HD
ENDBRANCH  15  19
BRANCH  16  21
ATOM     21  O   UNL     1      -6.022 -25.737 -30.498  1.00  0.00    -0.504 OA
ATOM     22  H   UNL     1      -6.608 -25.906 -31.302  1.00  0.00     0.293 HD
ENDBRANCH  16  21
ENDBRANCH   1  11
BRANCH  10  23
ATOM     23  O   UNL     1      -6.145 -20.339 -31.468  1.00  0.00    -0.500 OA
ATOM     24  H   UNL     1      -5.341 -20.554 -32.046  1.00  0.00     0.294 HD
ENDBRANCH  10  23
BRANCH   5  25
ATOM     25  O   UNL     1      -6.113 -18.143 -24.028  1.00  0.00    -0.507 OA
ATOM     26  H   UNL     1      -6.929 -17.976 -23.451  1.00  0.00     0.293 HD
ENDBRANCH   5  25
BRANCH   7  27
ATOM     27  O   UNL     1      -7.478 -16.480 -28.375  1.00  0.00    -0.507 OA
ATOM     28  H   UNL     1      -8.427 -16.562 -28.725  1.00  0.00     0.293 HD
ENDBRANCH   7  27
TORSDOF 7
ENDMDL
MODEL 8
REMARK VINA RESULT:    -6.736      6.530     10.083
REMARK INTER + INTRA:          -8.642
REMARK INTER:                  -8.297
REMARK INTRA:                  -0.346
REMARK UNBOUND:                -0.331
REMARK SMILES Oc1cc(O)c2cc(O)c(-c3cc(O)c(O)c(O)c3)[o+]c2c1
REMARK SMILES IDX 10 1 20 2 21 3 22 4 2 5 3 6 4 7 6 8 7 9 8 10 11 11 12 12
REMARK SMILES IDX 13 13 19 14 15 15 17 16 14 17 16 19 18 21 9 23 1 25 5 27
REMARK H PARENT 14 18 16 20 18 22 9 24 1 26 5 28
REMARK Flexibility Score: inf
ROOT
ATOM      1  C   UNL     1      -4.592 -25.326 -26.691  1.00  0.00     0.402 A 
ATOM      2  O   UNL     1      -3.893 -25.703 -27.762  1.00  0.00    -0.202 OA
ATOM      3  C   UNL     1      -3.110 -24.876 -28.447  1.00  0.00     0.368 A 
ATOM      4  C   UNL     1      -2.413 -25.349 -29.563  1.00  0.00     0.162 A 
ATOM      5  C   UNL     1      -1.588 -24.489 -30.295  1.00  0.00     0.128 A 
ATOM      6  C   UNL     1      -1.457 -23.148 -29.908  1.00  0.00     0.093 A 
ATOM      7  C   UNL     1      -2.149 -22.660 -28.790  1.00  0.00     0.136 A 
ATOM      8  C   UNL     1      -2.981 -23.526 -28.053  1.00  0.00     0.125 A 
ATOM      9  C   UNL     1      -3.687 -23.096 -26.926  1.00  0.00     0.078 A 
ATOM     10  C   UNL     1      -4.494 -23.999 -26.226  1.00  0.00     0.223 A 
ENDROOT
BRANCH   1  11
ATOM     11  C   UNL     1      -5.438 -26.336 -26.016  1.00  0.00     0.091 A 
ATOM     12  C   UNL     1      -4.832 -27.349 -25.259  1.00  0.00     0.068 A 
ATOM     13  C   UNL     1      -5.609 -28.327 -24.627  1.00  0.00     0.162 A 
ATOM     14  C   UNL     1      -6.835 -26.338 -26.164  1.00  0.00     0.068 A 
ATOM     15  C   UNL     1      -7.005 -28.315 -24.756  1.00  0.00     0.200 A 
ATOM     16  C   UNL     1      -7.623 -27.312 -25.540  1.00  0.00     0.162 A 
BRANCH  13  17
ATOM     17  O   UNL     1      -4.998 -29.321 -23.864  1.00  0.00    -0.504 OA
ATOM     18  H   UNL     1      -5.235 -29.464 -22.890  1.00  0.00     0.293 HD
ENDBRANCH  13  17
BRANCH  15  19
ATOM     19  O   UNL     1      -7.734 -29.309 -24.099  1.00  0.00    -0.502 OA
ATOM     20  H   UNL     1      -7.433 -30.268 -24.013  1.00  0.00     0.293 HD
ENDBRANCH  15  19
BRANCH  16  21
ATOM     21  O   UNL     1      -9.006 -27.249 -25.730  1.00  0.00    -0.504 OA
ATOM     22  H   UNL     1      -9.562 -28.008 -26.095  1.00  0.00     0.293 HD
ENDBRANCH  16  21
ENDBRANCH   1  11
BRANCH  10  23
ATOM     23  O   UNL     1      -5.162 -23.590 -25.072  1.00  0.00    -0.500 OA
ATOM     24  H   UNL     1      -4.755 -23.709 -24.151  1.00  0.00     0.294 HD
ENDBRANCH  10  23
BRANCH   5  25
ATOM     25  O   UNL     1      -0.902 -24.977 -31.404  1.00  0.00    -0.507 OA
ATOM     26  H   UNL     1       0.107 -24.910 -31.475  1.00  0.00     0.293 HD
ENDBRANCH   5  25
BRANCH   7  27
ATOM     27  O   UNL     1      -2.011 -21.324 -28.413  1.00  0.00    -0.507 OA
ATOM     28  H   UNL     1      -1.872 -20.591 -29.100  1.00  0.00     0.293 HD
ENDBRANCH   7  27
TORSDOF 7
ENDMDL
MODEL 9
REMARK VINA RESULT:    -6.724      5.607      9.179
REMARK INTER + INTRA:          -8.628
REMARK INTER:                  -8.475
REMARK INTRA:                  -0.153
REMARK UNBOUND:                -0.331
REMARK SMILES Oc1cc(O)c2cc(O)c(-c3cc(O)c(O)c(O)c3)[o+]c2c1
REMARK SMILES IDX 10 1 20 2 21 3 22 4 2 5 3 6 4 7 6 8 7 9 8 10 11 11 12 12
REMARK SMILES IDX 13 13 19 14 15 15 17 16 14 17 16 19 18 21 9 23 1 25 5 27
REMARK H PARENT 14 18 16 20 18 22 9 24 1 26 5 28
REMARK Flexibility Score: inf
ROOT
ATOM      1  C   UNL     1      -5.008 -26.435 -26.116  1.00  0.00     0.402 A 
ATOM      2  O   UNL     1      -3.927 -25.803 -25.661  1.00  0.00    -0.202 OA
ATOM      3  C   UNL     1      -3.145 -25.052 -26.431  1.00  0.00     0.368 A 
ATOM      4  C   UNL     1      -2.025 -24.426 -25.877  1.00  0.00     0.162 A 
ATOM      5  C   UNL     1      -1.193 -23.635 -26.676  1.00  0.00     0.128 A 
ATOM      6  C   UNL     1      -1.482 -23.470 -28.038  1.00  0.00     0.093 A 
ATOM      7  C   UNL     1      -2.603 -24.091 -28.607  1.00  0.00     0.136 A 
ATOM      8  C   UNL     1      -3.441 -24.888 -27.802  1.00  0.00     0.125 A 
ATOM      9  C   UNL     1      -4.576 -25.524 -28.314  1.00  0.00     0.078 A 
ATOM     10  C   UNL     1      -5.379 -26.298 -27.469  1.00  0.00     0.223 A 
ENDROOT
BRANCH   1  11
ATOM     11  C   UNL     1      -5.795 -27.251 -25.164  1.00  0.00     0.091 A 
ATOM     12  C   UNL     1      -5.191 -28.345 -24.529  1.00  0.00     0.068 A 
ATOM     13  C   UNL     1      -5.919 -29.143 -23.638  1.00  0.00     0.162 A 
ATOM     14  C   UNL     1      -7.154 -26.987 -24.923  1.00  0.00     0.068 A 
ATOM     15  C   UNL     1      -7.269 -28.866 -23.381  1.00  0.00     0.200 A 
ATOM     16  C   UNL     1      -7.894 -27.779 -24.037  1.00  0.00     0.162 A 
BRANCH  13  17
ATOM     17  O   UNL     1      -5.305 -30.220 -23.001  1.00  0.00    -0.504 OA
ATOM     18  H   UNL     1      -4.745 -30.891 -23.513  1.00  0.00     0.293 HD
ENDBRANCH  13  17
BRANCH  15  19
ATOM     19  O   UNL     1      -7.948 -29.688 -22.478  1.00  0.00    -0.502 OA
ATOM     20  H   UNL     1      -8.387 -30.562 -22.728  1.00  0.00     0.293 HD
ENDBRANCH  15  19
BRANCH  16  21
ATOM     21  O   UNL     1      -9.240 -27.455 -23.847  1.00  0.00    -0.504 OA
ATOM     22  H   UNL     1      -9.706 -27.480 -22.952  1.00  0.00     0.293 HD
ENDBRANCH  16  21
ENDBRANCH   1  11
BRANCH  10  23
ATOM     23  O   UNL     1      -6.540 -26.895 -27.961  1.00  0.00    -0.500 OA
ATOM     24  H   UNL     1      -7.411 -26.383 -28.032  1.00  0.00     0.294 HD
ENDBRANCH  10  23
BRANCH   5  25
ATOM     25  O   UNL     1      -0.081 -23.019 -26.108  1.00  0.00    -0.507 OA
ATOM     26  H   UNL     1       0.308 -22.166 -26.494  1.00  0.00     0.293 HD
ENDBRANCH   5  25
BRANCH   7  27
ATOM     27  O   UNL     1      -2.883 -23.919 -29.963  1.00  0.00    -0.507 OA
ATOM     28  H   UNL     1      -3.662 -23.350 -30.276  1.00  0.00     0.293 HD
ENDBRANCH   7  27
TORSDOF 7
ENDMDL
