MODEL 1
REMARK VINA RESULT:    -4.408      0.000      0.000
REMARK INTER + INTRA:         -10.129
REMARK INTER:                  -8.017
REMARK INTRA:                  -2.112
REMARK UNBOUND:                -2.112
REMARK SMILES CCCCCCCCCCCCCCCC(=O)[O-]
REMARK SMILES IDX 9 1 10 2 11 3 12 4 13 5 14 6 15 7 16 8 17 9 18 10 8 11 7 12
REMARK SMILES IDX 6 13 5 14 4 15 3 16 2 17 1 18
REMARK H PARENT
REMARK Flexibility Score: inf
ROOT
ATOM      1  C   UNL     1      46.893 -39.744  -4.566  1.00  0.00     0.000 C 
ENDROOT
BRANCH   1   2
ATOM      2  C   UNL     1      48.328 -40.215  -4.862  1.00  0.00     0.000 C 
BRANCH   2   3
ATOM      3  C   UNL     1      48.752 -41.393  -3.959  1.00  0.00     0.000 C 
BRANCH   3   4
ATOM      4  C   UNL     1      49.979 -41.087  -3.081  1.00  0.00     0.000 C 
BRANCH   4   5
ATOM      5  C   UNL     1      50.560 -39.690  -3.332  1.00  0.00     0.000 C 
BRANCH   5   6
ATOM      6  C   UNL     1      52.083 -39.683  -3.135  1.00  0.00     0.006 C 
BRANCH   6   7
ATOM      7  C   UNL     1      52.574 -40.921  -2.373  1.00  0.00     0.053 C 
BRANCH   7   8
ATOM      8  C   UNL     1      53.992 -40.765  -1.918  1.00  0.00     0.041 C 
ATOM      9  O   UNL     1      54.443 -39.628  -1.621  1.00  0.00    -0.550 OA
ATOM     10  O   UNL     1      54.808 -41.884  -1.790  1.00  0.00    -0.550 OA
ENDBRANCH   7   8
ENDBRANCH   6   7
ENDBRANCH   5   6
ENDBRANCH   4   5
ENDBRANCH   3   4
ENDBRANCH   2   3
ENDBRANCH   1   2
BRANCH   1  11
ATOM     11  C   UNL     1      46.183 -40.620  -3.521  1.00  0.00     0.000 C 
BRANCH  11  12
ATOM     12  C   UNL     1      45.236 -39.808  -2.619  1.00  0.00    -0.000 C 
BRANCH  12  13
ATOM     13  C   UNL     1      45.622 -39.885  -1.134  1.00  0.00    -0.000 C 
BRANCH  13  14
ATOM     14  C   UNL     1      47.144 -39.884  -0.914  1.00  0.00    -0.000 C 
BRANCH  14  15
ATOM     15  C   UNL     1      47.640 -38.487  -0.513  1.00  0.00    -0.000 C 
BRANCH  15  16
ATOM     16  C   UNL     1      47.972 -37.610  -1.739  1.00  0.00    -0.000 C 
BRANCH  16  17
ATOM     17  C   UNL     1      47.217 -36.271  -1.762  1.00  0.00    -0.003 C 
ATOM     18  C   UNL     1      46.003 -36.285  -2.689  1.00  0.00     0.004 C 
ENDBRANCH  16  17
ENDBRANCH  15  16
ENDBRANCH  14  15
ENDBRANCH  13  14
ENDBRANCH  12  13
ENDBRANCH  11  12
ENDBRANCH   1  11
TORSDOF 14
ENDMDL
MODEL 2
REMARK VINA RESULT:    -4.322      1.578      2.281
REMARK INTER + INTRA:          -9.972
REMARK INTER:                  -7.356
REMARK INTRA:                  -2.616
REMARK UNBOUND:                -2.112
REMARK SMILES CCCCCCCCCCCCCCCC(=O)[O-]
REMARK SMILES IDX 9 1 10 2 11 3 12 4 13 5 14 6 15 7 16 8 17 9 18 10 8 11 7 12
REMARK SMILES IDX 6 13 5 14 4 15 3 16 2 17 1 18
REMARK H PARENT
REMARK Flexibility Score: inf
ROOT
ATOM      1  C   UNL     1      45.419 -38.417  -4.349  1.00  0.00     0.000 C 
ENDROOT
BRANCH   1   2
ATOM      2  C   UNL     1      46.523 -39.401  -4.773  1.00  0.00     0.000 C 
BRANCH   2   3
ATOM      3  C   UNL     1      46.661 -40.581  -3.787  1.00  0.00     0.000 C 
BRANCH   3   4
ATOM      4  C   UNL     1      48.110 -41.064  -3.602  1.00  0.00     0.000 C 
BRANCH   4   5
ATOM      5  C   UNL     1      48.982 -40.827  -4.841  1.00  0.00     0.000 C 
BRANCH   5   6
ATOM      6  C   UNL     1      50.466 -40.717  -4.459  1.00  0.00     0.006 C 
BRANCH   6   7
ATOM      7  C   UNL     1      50.782 -41.452  -3.149  1.00  0.00     0.053 C 
BRANCH   7   8
ATOM      8  C   UNL     1      52.091 -41.012  -2.570  1.00  0.00     0.041 C 
ATOM      9  O   UNL     1      52.537 -39.859  -2.808  1.00  0.00    -0.550 OA
ATOM     10  O   UNL     1      52.805 -41.868  -1.739  1.00  0.00    -0.550 OA
ENDBRANCH   7   8
ENDBRANCH   6   7
ENDBRANCH   5   6
ENDBRANCH   4   5
ENDBRANCH   3   4
ENDBRANCH   2   3
ENDBRANCH   1   2
BRANCH   1  11
ATOM     11  C   UNL     1      44.850 -38.725  -2.955  1.00  0.00     0.000 C 
BRANCH  11  12
ATOM     12  C   UNL     1      45.397 -37.776  -1.873  1.00  0.00    -0.000 C 
BRANCH  12  13
ATOM     13  C   UNL     1      46.080 -38.527  -0.719  1.00  0.00    -0.000 C 
BRANCH  13  14
ATOM     14  C   UNL     1      47.612 -38.545  -0.845  1.00  0.00    -0.000 C 
BRANCH  14  15
ATOM     15  C   UNL     1      48.118 -37.289  -1.569  1.00  0.00    -0.000 C 
BRANCH  15  16
ATOM     16  C   UNL     1      49.101 -37.628  -2.710  1.00  0.00    -0.000 C 
BRANCH  16  17
ATOM     17  C   UNL     1      49.010 -36.667  -3.908  1.00  0.00    -0.003 C 
ATOM     18  C   UNL     1      49.672 -37.219  -5.169  1.00  0.00     0.004 C 
ENDBRANCH  16  17
ENDBRANCH  15  16
ENDBRANCH  14  15
ENDBRANCH  13  14
ENDBRANCH  12  13
ENDBRANCH  11  12
ENDBRANCH   1  11
TORSDOF 14
ENDMDL
MODEL 3
REMARK VINA RESULT:    -4.303      1.829      3.924
REMARK INTER + INTRA:          -9.938
REMARK INTER:                  -7.596
REMARK INTRA:                  -2.342
REMARK UNBOUND:                -2.112
REMARK SMILES CCCCCCCCCCCCCCCC(=O)[O-]
REMARK SMILES IDX 9 1 10 2 11 3 12 4 13 5 14 6 15 7 16 8 17 9 18 10 8 11 7 12
REMARK SMILES IDX 6 13 5 14 4 15 3 16 2 17 1 18
REMARK H PARENT
REMARK Flexibility Score: inf
ROOT
ATOM      1  C   UNL     1      46.156 -40.054  -1.080  1.00  0.00     0.000 C 
ENDROOT
BRANCH   1   2
ATOM      2  C   UNL     1      45.591 -39.667  -2.458  1.00  0.00     0.000 C 
BRANCH   2   3
ATOM      3  C   UNL     1      46.112 -40.591  -3.581  1.00  0.00     0.000 C 
BRANCH   3   4
ATOM      4  C   UNL     1      46.960 -39.860  -4.637  1.00  0.00     0.000 C 
BRANCH   4   5
ATOM      5  C   UNL     1      48.372 -40.443  -4.779  1.00  0.00     0.000 C 
BRANCH   5   6
ATOM      6  C   UNL     1      48.731 -41.317  -3.568  1.00  0.00     0.006 C 
BRANCH   6   7
ATOM      7  C   UNL     1      49.843 -40.693  -2.713  1.00  0.00     0.053 C 
BRANCH   7   8
ATOM      8  C   UNL     1      51.148 -41.403  -2.897  1.00  0.00     0.041 C 
ATOM      9  O   UNL     1      51.175 -42.574  -3.358  1.00  0.00    -0.550 OA
ATOM     10  O   UNL     1      52.340 -40.757  -2.588  1.00  0.00    -0.550 OA
ENDBRANCH   7   8
ENDBRANCH   6   7
ENDBRANCH   5   6
ENDBRANCH   4   5
ENDBRANCH   3   4
ENDBRANCH   2   3
ENDBRANCH   1   2
BRANCH   1  11
ATOM     11  C   UNL     1      47.277 -39.112  -0.611  1.00  0.00     0.000 C 
BRANCH  11  12
ATOM     12  C   UNL     1      47.392 -37.852  -1.486  1.00  0.00    -0.000 C 
BRANCH  12  13
ATOM     13  C   UNL     1      48.660 -37.037  -1.186  1.00  0.00    -0.000 C 
BRANCH  13  14
ATOM     14  C   UNL     1      49.153 -36.233  -2.400  1.00  0.00    -0.000 C 
BRANCH  14  15
ATOM     15  C   UNL     1      49.265 -37.129  -3.643  1.00  0.00    -0.000 C 
BRANCH  15  16
ATOM     16  C   UNL     1      50.726 -37.518  -3.953  1.00  0.00    -0.000 C 
BRANCH  16  17
ATOM     17  C   UNL     1      51.072 -37.467  -5.451  1.00  0.00    -0.003 C 
ATOM     18  C   UNL     1      51.260 -38.851  -6.069  1.00  0.00     0.004 C 
ENDBRANCH  16  17
ENDBRANCH  15  16
ENDBRANCH  14  15
ENDBRANCH  13  14
ENDBRANCH  12  13
ENDBRANCH  11  12
ENDBRANCH   1  11
TORSDOF 14
ENDMDL
MODEL 4
REMARK VINA RESULT:    -4.272      3.597      6.527
REMARK INTER + INTRA:          -9.881
REMARK INTER:                  -8.239
REMARK INTRA:                  -1.642
REMARK UNBOUND:                -2.112
REMARK SMILES CCCCCCCCCCCCCCCC(=O)[O-]
REMARK SMILES IDX 9 1 10 2 11 3 12 4 13 5 14 6 15 7 16 8 17 9 18 10 8 11 7 12
REMARK SMILES IDX 6 13 5 14 4 15 3 16 2 17 1 18
REMARK H PARENT
REMARK Flexibility Score: inf
ROOT
ATOM      1  C   UNL     1      50.633 -38.536  -4.847  1.00  0.00     0.000 C 
ENDROOT
BRANCH   1   2
ATOM      2  C   UNL     1      49.550 -37.487  -5.153  1.00  0.00     0.000 C 
BRANCH   2   3
ATOM      3  C   UNL     1      49.193 -36.641  -3.911  1.00  0.00     0.000 C 
BRANCH   3   4
ATOM      4  C   UNL     1      49.306 -37.413  -2.585  1.00  0.00     0.000 C 
BRANCH   4   5
ATOM      5  C   UNL     1      47.980 -37.480  -1.817  1.00  0.00     0.000 C 
BRANCH   5   6
ATOM      6  C   UNL     1      47.156 -38.703  -2.243  1.00  0.00     0.006 C 
BRANCH   6   7
ATOM      7  C   UNL     1      45.704 -38.335  -2.579  1.00  0.00     0.053 C 
BRANCH   7   8
ATOM      8  C   UNL     1      45.346 -38.721  -3.981  1.00  0.00     0.041 C 
ATOM      9  O   UNL     1      44.142 -38.727  -4.351  1.00  0.00    -0.550 OA
ATOM     10  O   UNL     1      46.347 -39.043  -4.890  1.00  0.00    -0.550 OA
ENDBRANCH   7   8
ENDBRANCH   6   7
ENDBRANCH   5   6
ENDBRANCH   4   5
ENDBRANCH   3   4
ENDBRANCH   2   3
ENDBRANCH   1   2
BRANCH   1  11
ATOM     11  C   UNL     1      50.436 -39.842  -5.634  1.00  0.00     0.000 C 
BRANCH  11  12
ATOM     12  C   UNL     1      49.395 -40.770  -4.983  1.00  0.00    -0.000 C 
BRANCH  12  13
ATOM     13  C   UNL     1      49.664 -41.004  -3.488  1.00  0.00    -0.000 C 
BRANCH  13  14
ATOM     14  C   UNL     1      50.933 -41.833  -3.233  1.00  0.00    -0.000 C 
BRANCH  14  15
ATOM     15  C   UNL     1      51.943 -41.045  -2.386  1.00  0.00    -0.000 C 
BRANCH  15  16
ATOM     16  C   UNL     1      53.121 -41.923  -1.912  1.00  0.00    -0.000 C 
BRANCH  16  17
ATOM     17  C   UNL     1      54.462 -41.174  -1.849  1.00  0.00    -0.003 C 
ATOM     18  C   UNL     1      54.306 -39.658  -1.953  1.00  0.00     0.004 C 
ENDBRANCH  16  17
ENDBRANCH  15  16
ENDBRANCH  14  15
ENDBRANCH  13  14
ENDBRANCH  12  13
ENDBRANCH  11  12
ENDBRANCH   1  11
TORSDOF 14
ENDMDL
MODEL 5
REMARK VINA RESULT:    -4.243      1.583      2.726
REMARK INTER + INTRA:          -9.828
REMARK INTER:                  -7.541
REMARK INTRA:                  -2.287
REMARK UNBOUND:                -2.112
REMARK SMILES CCCCCCCCCCCCCCCC(=O)[O-]
REMARK SMILES IDX 9 1 10 2 11 3 12 4 13 5 14 6 15 7 16 8 17 9 18 10 8 11 7 12
REMARK SMILES IDX 6 13 5 14 4 15 3 16 2 17 1 18
REMARK H PARENT
REMARK Flexibility Score: inf
ROOT
ATOM      1  C   UNL     1      45.984 -40.222  -2.330  1.00  0.00     0.000 C 
ENDROOT
BRANCH   1   2
ATOM      2  C   UNL     1      46.685 -40.564  -3.657  1.00  0.00     0.000 C 
BRANCH   2   3
ATOM      3  C   UNL     1      48.164 -40.958  -3.449  1.00  0.00     0.000 C 
BRANCH   3   4
ATOM      4  C   UNL     1      49.037 -40.756  -4.700  1.00  0.00     0.000 C 
BRANCH   4   5
ATOM      5  C   UNL     1      50.521 -40.556  -4.367  1.00  0.00     0.000 C 
BRANCH   5   6
ATOM      6  C   UNL     1      50.790 -40.802  -2.876  1.00  0.00     0.006 C 
BRANCH   6   7
ATOM      7  C   UNL     1      51.959 -41.771  -2.650  1.00  0.00     0.053 C 
BRANCH   7   8
ATOM      8  C   UNL     1      53.203 -41.049  -2.234  1.00  0.00     0.041 C 
ATOM      9  O   UNL     1      54.191 -41.690  -1.790  1.00  0.00    -0.550 OA
ATOM     10  O   UNL     1      53.283 -39.668  -2.369  1.00  0.00    -0.550 OA
ENDBRANCH   7   8
ENDBRANCH   6   7
ENDBRANCH   5   6
ENDBRANCH   4   5
ENDBRANCH   3   4
ENDBRANCH   2   3
ENDBRANCH   1   2
BRANCH   1  11
ATOM     11  C   UNL     1      44.887 -39.158  -2.494  1.00  0.00     0.000 C 
BRANCH  11  12
ATOM     12  C   UNL     1      44.217 -39.211  -3.879  1.00  0.00    -0.000 C 
BRANCH  12  13
ATOM     13  C   UNL     1      44.211 -37.846  -4.585  1.00  0.00    -0.000 C 
BRANCH  13  14
ATOM     14  C   UNL     1      45.473 -37.019  -4.292  1.00  0.00    -0.000 C 
BRANCH  14  15
ATOM     15  C   UNL     1      46.551 -37.263  -5.359  1.00  0.00    -0.000 C 
BRANCH  15  16
ATOM     16  C   UNL     1      47.979 -37.181  -4.777  1.00  0.00    -0.000 C 
BRANCH  16  17
ATOM     17  C   UNL     1      48.017 -37.148  -3.240  1.00  0.00    -0.003 C 
ATOM     18  C   UNL     1      49.420 -37.351  -2.672  1.00  0.00     0.004 C 
ENDBRANCH  16  17
ENDBRANCH  15  16
ENDBRANCH  14  15
ENDBRANCH  13  14
ENDBRANCH  12  13
ENDBRANCH  11  12
ENDBRANCH   1  11
TORSDOF 14
ENDMDL
MODEL 6
REMARK VINA RESULT:    -4.242     10.882     12.897
REMARK INTER + INTRA:          -9.825
REMARK INTER:                  -8.149
REMARK INTRA:                  -1.676
REMARK UNBOUND:                -2.112
REMARK SMILES CCCCCCCCCCCCCCCC(=O)[O-]
REMARK SMILES IDX 9 1 10 2 11 3 12 4 13 5 14 6 15 7 16 8 17 9 18 10 8 11 7 12
REMARK SMILES IDX 6 13 5 14 4 15 3 16 2 17 1 18
REMARK H PARENT
REMARK Flexibility Score: inf
ROOT
ATOM      1  C   UNL     1      47.352 -37.874   7.115  1.00  0.00     0.000 C 
ENDROOT
BRANCH   1   2
ATOM      2  C   UNL     1      48.385 -36.785   6.778  1.00  0.00     0.000 C 
BRANCH   2   3
ATOM      3  C   UNL     1      49.276 -36.432   7.989  1.00  0.00     0.000 C 
BRANCH   3   4
ATOM      4  C   UNL     1      50.462 -37.393   8.183  1.00  0.00     0.000 C 
BRANCH   4   5
ATOM      5  C   UNL     1      51.398 -36.967   9.320  1.00  0.00     0.000 C 
BRANCH   5   6
ATOM      6  C   UNL     1      50.678 -36.038  10.308  1.00  0.00     0.006 C 
BRANCH   6   7
ATOM      7  C   UNL     1      51.525 -34.811  10.673  1.00  0.00     0.053 C 
BRANCH   7   8
ATOM      8  C   UNL     1      50.712 -33.765  11.372  1.00  0.00     0.041 C 
ATOM      9  O   UNL     1      51.163 -33.189  12.396  1.00  0.00    -0.550 OA
ATOM     10  O   UNL     1      49.468 -33.403  10.869  1.00  0.00    -0.550 OA
ENDBRANCH   7   8
ENDBRANCH   6   7
ENDBRANCH   5   6
ENDBRANCH   4   5
ENDBRANCH   3   4
ENDBRANCH   2   3
ENDBRANCH   1   2
BRANCH   1  11
ATOM     11  C   UNL     1      46.540 -37.553   8.381  1.00  0.00     0.000 C 
BRANCH  11  12
ATOM     12  C   UNL     1      46.501 -38.733   9.369  1.00  0.00    -0.000 C 
BRANCH  12  13
ATOM     13  C   UNL     1      47.801 -38.871  10.177  1.00  0.00    -0.000 C 
BRANCH  13  14
ATOM     14  C   UNL     1      48.227 -40.335  10.374  1.00  0.00    -0.000 C 
BRANCH  14  15
ATOM     15  C   UNL     1      49.486 -40.655   9.554  1.00  0.00    -0.000 C 
BRANCH  15  16
ATOM     16  C   UNL     1      49.147 -41.249   8.170  1.00  0.00    -0.000 C 
BRANCH  16  17
ATOM     17  C   UNL     1      49.948 -42.518   7.831  1.00  0.00    -0.003 C 
ATOM     18  C   UNL     1      49.117 -43.575   7.107  1.00  0.00     0.004 C 
ENDBRANCH  16  17
ENDBRANCH  15  16
ENDBRANCH  14  15
ENDBRANCH  13  14
ENDBRANCH  12  13
ENDBRANCH  11  12
ENDBRANCH   1  11
TORSDOF 14
ENDMDL
MODEL 7
REMARK VINA RESULT:    -4.231     11.278     13.226
REMARK INTER + INTRA:          -9.805
REMARK INTER:                  -7.571
REMARK INTRA:                  -2.235
REMARK UNBOUND:                -2.112
REMARK SMILES CCCCCCCCCCCCCCCC(=O)[O-]
REMARK SMILES IDX 9 1 10 2 11 3 12 4 13 5 14 6 15 7 16 8 17 9 18 10 8 11 7 12
REMARK SMILES IDX 6 13 5 14 4 15 3 16 2 17 1 18
REMARK H PARENT
REMARK Flexibility Score: inf
ROOT
ATOM      1  C   UNL     1      49.793 -40.156   7.846  1.00  0.00     0.000 C 
ENDROOT
BRANCH   1   2
ATOM      2  C   UNL     1      50.886 -39.137   7.476  1.00  0.00     0.000 C 
BRANCH   2   3
ATOM      3  C   UNL     1      50.724 -37.806   8.241  1.00  0.00     0.000 C 
BRANCH   3   4
ATOM      4  C   UNL     1      51.786 -37.588   9.333  1.00  0.00     0.000 C 
BRANCH   4   5
ATOM      5  C   UNL     1      51.292 -36.699  10.481  1.00  0.00     0.000 C 
BRANCH   5   6
ATOM      6  C   UNL     1      50.422 -35.550   9.952  1.00  0.00     0.006 C 
BRANCH   6   7
ATOM      7  C   UNL     1      51.017 -34.174  10.280  1.00  0.00     0.053 C 
BRANCH   7   8
ATOM      8  C   UNL     1      50.726 -33.767  11.691  1.00  0.00     0.041 C 
ATOM      9  O   UNL     1      49.582 -33.949  12.183  1.00  0.00    -0.550 OA
ATOM     10  O   UNL     1      51.732 -33.213  12.475  1.00  0.00    -0.550 OA
ENDBRANCH   7   8
ENDBRANCH   6   7
ENDBRANCH   5   6
ENDBRANCH   4   5
ENDBRANCH   3   4
ENDBRANCH   2   3
ENDBRANCH   1   2
BRANCH   1  11
ATOM     11  C   UNL     1      50.115 -40.933   9.133  1.00  0.00     0.000 C 
BRANCH  11  12
ATOM     12  C   UNL     1      49.007 -40.801  10.193  1.00  0.00    -0.000 C 
BRANCH  12  13
ATOM     13  C   UNL     1      49.283 -39.670  11.198  1.00  0.00    -0.000 C 
BRANCH  13  14
ATOM     14  C   UNL     1      48.110 -38.684  11.320  1.00  0.00    -0.000 C 
BRANCH  14  15
ATOM     15  C   UNL     1      47.717 -38.125   9.944  1.00  0.00    -0.000 C 
BRANCH  15  16
ATOM     16  C   UNL     1      46.392 -38.724   9.427  1.00  0.00    -0.000 C 
BRANCH  16  17
ATOM     17  C   UNL     1      46.278 -38.736   7.893  1.00  0.00    -0.003 C 
ATOM     18  C   UNL     1      47.105 -37.641   7.223  1.00  0.00     0.004 C 
ENDBRANCH  16  17
ENDBRANCH  15  16
ENDBRANCH  14  15
ENDBRANCH  13  14
ENDBRANCH  12  13
ENDBRANCH  11  12
ENDBRANCH   1  11
TORSDOF 14
ENDMDL
MODEL 8
REMARK VINA RESULT:    -4.190      1.450      2.535
REMARK INTER + INTRA:          -9.732
REMARK INTER:                  -7.276
REMARK INTRA:                  -2.456
REMARK UNBOUND:                -2.112
REMARK SMILES CCCCCCCCCCCCCCCC(=O)[O-]
REMARK SMILES IDX 9 1 10 2 11 3 12 4 13 5 14 6 15 7 16 8 17 9 18 10 8 11 7 12
REMARK SMILES IDX 6 13 5 14 4 15 3 16 2 17 1 18
REMARK H PARENT
REMARK Flexibility Score: inf
ROOT
ATOM      1  C   UNL     1      46.530 -39.520  -4.761  1.00  0.00     0.000 C 
ENDROOT
BRANCH   1   2
ATOM      2  C   UNL     1      46.606 -40.284  -3.427  1.00  0.00     0.000 C 
BRANCH   2   3
ATOM      3  C   UNL     1      48.003 -40.896  -3.186  1.00  0.00     0.000 C 
BRANCH   3   4
ATOM      4  C   UNL     1      48.823 -41.089  -4.474  1.00  0.00     0.000 C 
BRANCH   4   5
ATOM      5  C   UNL     1      50.308 -41.360  -4.203  1.00  0.00     0.000 C 
BRANCH   5   6
ATOM      6  C   UNL     1      50.732 -40.792  -2.841  1.00  0.00     0.006 C 
BRANCH   6   7
ATOM      7  C   UNL     1      52.051 -40.012  -2.924  1.00  0.00     0.053 C 
BRANCH   7   8
ATOM      8  C   UNL     1      53.156 -40.711  -2.195  1.00  0.00     0.041 C 
ATOM      9  O   UNL     1      54.153 -40.065  -1.780  1.00  0.00    -0.550 OA
ATOM     10  O   UNL     1      53.067 -42.076  -1.944  1.00  0.00    -0.550 OA
ENDBRANCH   7   8
ENDBRANCH   6   7
ENDBRANCH   5   6
ENDBRANCH   4   5
ENDBRANCH   3   4
ENDBRANCH   2   3
ENDBRANCH   1   2
BRANCH   1  11
ATOM     11  C   UNL     1      45.387 -38.492  -4.794  1.00  0.00     0.000 C 
BRANCH  11  12
ATOM     12  C   UNL     1      45.135 -37.849  -3.418  1.00  0.00    -0.000 C 
BRANCH  12  13
ATOM     13  C   UNL     1      45.452 -36.345  -3.402  1.00  0.00    -0.000 C 
BRANCH  13  14
ATOM     14  C   UNL     1      46.960 -36.054  -3.457  1.00  0.00    -0.000 C 
BRANCH  14  15
ATOM     15  C   UNL     1      47.701 -36.780  -2.323  1.00  0.00    -0.000 C 
BRANCH  15  16
ATOM     16  C   UNL     1      48.996 -37.462  -2.814  1.00  0.00    -0.000 C 
BRANCH  16  17
ATOM     17  C   UNL     1      49.631 -36.773  -4.034  1.00  0.00    -0.003 C 
ATOM     18  C   UNL     1      49.907 -37.736  -5.188  1.00  0.00     0.004 C 
ENDBRANCH  16  17
ENDBRANCH  15  16
ENDBRANCH  14  15
ENDBRANCH  13  14
ENDBRANCH  12  13
ENDBRANCH  11  12
ENDBRANCH   1  11
TORSDOF 14
ENDMDL
MODEL 9
REMARK VINA RESULT:    -4.150      1.536      2.571
REMARK INTER + INTRA:          -9.659
REMARK INTER:                  -7.351
REMARK INTRA:                  -2.307
REMARK UNBOUND:                -2.112
REMARK SMILES CCCCCCCCCCCCCCCC(=O)[O-]
REMARK SMILES IDX 9 1 10 2 11 3 12 4 13 5 14 6 15 7 16 8 17 9 18 10 8 11 7 12
REMARK SMILES IDX 6 13 5 14 4 15 3 16 2 17 1 18
REMARK H PARENT
REMARK Flexibility Score: inf
ROOT
ATOM      1  C   UNL     1      47.706 -40.281  -2.189  1.00  0.00     0.000 C 
ENDROOT
BRANCH   1   2
ATOM      2  C   UNL     1      46.907 -40.355  -3.502  1.00  0.00     0.000 C 
BRANCH   2   3
ATOM      3  C   UNL     1      47.822 -40.285  -4.745  1.00  0.00     0.000 C 
BRANCH   3   4
ATOM      4  C   UNL     1      49.075 -41.170  -4.640  1.00  0.00     0.000 C 
BRANCH   4   5
ATOM      5  C   UNL     1      50.376 -40.400  -4.899  1.00  0.00     0.000 C 
BRANCH   5   6
ATOM      6  C   UNL     1      51.040 -39.980  -3.580  1.00  0.00     0.006 C 
BRANCH   6   7
ATOM      7  C   UNL     1      51.373 -41.184  -2.689  1.00  0.00     0.053 C 
BRANCH   7   8
ATOM      8  C   UNL     1      52.805 -41.171  -2.252  1.00  0.00     0.041 C 
ATOM      9  O   UNL     1      53.379 -42.242  -1.922  1.00  0.00    -0.550 OA
ATOM     10  O   UNL     1      53.517 -39.977  -2.242  1.00  0.00    -0.550 OA
ENDBRANCH   7   8
ENDBRANCH   6   7
ENDBRANCH   5   6
ENDBRANCH   4   5
ENDBRANCH   3   4
ENDBRANCH   2   3
ENDBRANCH   1   2
BRANCH   1  11
ATOM     11  C   UNL     1      46.949 -39.546  -1.072  1.00  0.00     0.000 C 
BRANCH  11  12
ATOM     12  C   UNL     1      46.783 -38.043  -1.364  1.00  0.00    -0.000 C 
BRANCH  12  13
ATOM     13  C   UNL     1      48.047 -37.233  -1.033  1.00  0.00    -0.000 C 
BRANCH  13  14
ATOM     14  C   UNL     1      48.443 -36.262  -2.157  1.00  0.00    -0.000 C 
BRANCH  14  15
ATOM     15  C   UNL     1      49.186 -36.999  -3.282  1.00  0.00    -0.000 C 
BRANCH  15  16
ATOM     16  C   UNL     1      48.599 -36.683  -4.675  1.00  0.00    -0.000 C 
BRANCH  16  17
ATOM     17  C   UNL     1      47.171 -36.115  -4.627  1.00  0.00    -0.003 C 
ATOM     18  C   UNL     1      46.123 -37.082  -5.175  1.00  0.00     0.004 C 
ENDBRANCH  16  17
ENDBRANCH  15  16
ENDBRANCH  14  15
ENDBRANCH  13  14
ENDBRANCH  12  13
ENDBRANCH  11  12
ENDBRANCH   1  11
TORSDOF 14
ENDMDL
