MODEL 1
REMARK VINA RESULT:    -3.684      0.000      0.000
REMARK INTER + INTRA:          -5.533
REMARK INTER:                  -5.191
REMARK INTRA:                  -0.342
REMARK UNBOUND:                -0.342
REMARK SMILES C=CCCCCCCC(=O)[O-]
REMARK SMILES IDX 6 1 7 2 8 3 9 4 10 5 11 6 5 7 4 8 3 9 2 10 1 11
REMARK H PARENT
REMARK Flexibility Score: inf
ROOT
ATOM      1  C   UNL     1      -5.567 -10.704  17.850  1.00  0.00     0.000 C 
ENDROOT
BRANCH   1   2
ATOM      2  C   UNL     1      -5.380  -9.937  16.528  1.00  0.00     0.006 C 
BRANCH   2   3
ATOM      3  C   UNL     1      -6.180  -8.627  16.440  1.00  0.00     0.053 C 
BRANCH   3   4
ATOM      4  C   UNL     1      -6.314  -8.145  15.029  1.00  0.00     0.041 C 
ATOM      5  O   UNL     1      -7.447  -8.087  14.483  1.00  0.00    -0.550 OA
ATOM      6  O   UNL     1      -5.182  -7.792  14.305  1.00  0.00    -0.550 OA
ENDBRANCH   3   4
ENDBRANCH   2   3
ENDBRANCH   1   2
BRANCH   1   7
ATOM      7  C   UNL     1      -6.420  -9.930  18.870  1.00  0.00     0.000 C 
BRANCH   7   8
ATOM      8  C   UNL     1      -6.999 -10.839  19.971  1.00  0.00     0.004 C 
BRANCH   8   9
ATOM      9  C   UNL     1      -6.713 -12.337  19.764  1.00  0.00     0.027 C 
BRANCH   9  10
ATOM     10  C   UNL     1      -7.838 -13.216  20.243  1.00  0.00    -0.035 C 
ATOM     11  C   UNL     1      -9.067 -12.736  20.450  1.00  0.00     0.004 C 
ENDBRANCH   9  10
ENDBRANCH   8   9
ENDBRANCH   7   8
ENDBRANCH   1   7
TORSDOF 7
ENDMDL
MODEL 2
REMARK VINA RESULT:    -3.593     11.135     12.411
REMARK INTER + INTRA:          -5.405
REMARK INTER:                  -4.774
REMARK INTRA:                  -0.632
REMARK UNBOUND:                -0.342
REMARK SMILES C=CCCCCCCC(=O)[O-]
REMARK SMILES IDX 6 1 7 2 8 3 9 4 10 5 11 6 5 7 4 8 3 9 2 10 1 11
REMARK H PARENT
REMARK Flexibility Score: inf
ROOT
ATOM      1  C   UNL     1       6.065 -14.599  14.721  1.00  0.00     0.000 C 
ENDROOT
BRANCH   1   2
ATOM      2  C   UNL     1       6.103 -13.068  14.881  1.00  0.00     0.006 C 
BRANCH   2   3
ATOM      3  C   UNL     1       4.999 -12.326  14.110  1.00  0.00     0.053 C 
BRANCH   3   4
ATOM      4  C   UNL     1       5.537 -11.158  13.343  1.00  0.00     0.041 C 
ATOM      5  O   UNL     1       6.534 -11.302  12.587  1.00  0.00    -0.550 OA
ATOM      6  O   UNL     1       4.960  -9.904  13.490  1.00  0.00    -0.550 OA
ENDBRANCH   3   4
ENDBRANCH   2   3
ENDBRANCH   1   2
BRANCH   1   7
ATOM      7  C   UNL     1       5.623 -15.319  16.007  1.00  0.00     0.000 C 
BRANCH   7   8
ATOM      8  C   UNL     1       4.128 -15.688  15.997  1.00  0.00     0.004 C 
BRANCH   8   9
ATOM      9  C   UNL     1       3.541 -15.896  14.589  1.00  0.00     0.027 C 
BRANCH   9  10
ATOM     10  C   UNL     1       2.389 -14.972  14.297  1.00  0.00    -0.035 C 
ATOM     11  C   UNL     1       1.532 -14.592  15.248  1.00  0.00     0.004 C 
ENDBRANCH   9  10
ENDBRANCH   8   9
ENDBRANCH   7   8
ENDBRANCH   1   7
TORSDOF 7
ENDMDL
MODEL 3
REMARK VINA RESULT:    -3.487     12.232     13.714
REMARK INTER + INTRA:          -5.256
REMARK INTER:                  -4.984
REMARK INTRA:                  -0.272
REMARK UNBOUND:                -0.342
REMARK SMILES C=CCCCCCCC(=O)[O-]
REMARK SMILES IDX 6 1 7 2 8 3 9 4 10 5 11 6 5 7 4 8 3 9 2 10 1 11
REMARK H PARENT
REMARK Flexibility Score: inf
ROOT
ATOM      1  C   UNL     1       3.795 -18.787  18.059  1.00  0.00     0.000 C 
ENDROOT
BRANCH   1   2
ATOM      2  C   UNL     1       3.218 -19.409  19.344  1.00  0.00     0.006 C 
BRANCH   2   3
ATOM      3  C   UNL     1       2.476 -20.737  19.125  1.00  0.00     0.053 C 
BRANCH   3   4
ATOM      4  C   UNL     1       0.991 -20.572  19.216  1.00  0.00     0.041 C 
ATOM      5  O   UNL     1       0.486 -19.869  20.130  1.00  0.00    -0.550 OA
ATOM      6  O   UNL     1       0.163 -21.224  18.311  1.00  0.00    -0.550 OA
ENDBRANCH   3   4
ENDBRANCH   2   3
ENDBRANCH   1   2
BRANCH   1   7
ATOM      7  C   UNL     1       4.388 -17.387  18.290  1.00  0.00     0.000 C 
BRANCH   7   8
ATOM      8  C   UNL     1       4.092 -16.417  17.131  1.00  0.00     0.004 C 
BRANCH   8   9
ATOM      9  C   UNL     1       4.006 -17.095  15.751  1.00  0.00     0.027 C 
BRANCH   9  10
ATOM     10  C   UNL     1       3.575 -16.146  14.664  1.00  0.00    -0.035 C 
ATOM     11  C   UNL     1       2.519 -15.341  14.810  1.00  0.00     0.004 C 
ENDBRANCH   9  10
ENDBRANCH   8   9
ENDBRANCH   7   8
ENDBRANCH   1   7
TORSDOF 7
ENDMDL
MODEL 4
REMARK VINA RESULT:    -3.462     12.384     13.716
REMARK INTER + INTRA:          -5.221
REMARK INTER:                  -4.562
REMARK INTRA:                  -0.659
REMARK UNBOUND:                -0.342
REMARK SMILES C=CCCCCCCC(=O)[O-]
REMARK SMILES IDX 6 1 7 2 8 3 9 4 10 5 11 6 5 7 4 8 3 9 2 10 1 11
REMARK H PARENT
REMARK Flexibility Score: inf
ROOT
ATOM      1  C   UNL     1       4.730 -17.009  16.914  1.00  0.00     0.000 C 
ENDROOT
BRANCH   1   2
ATOM      2  C   UNL     1       3.641 -16.051  16.395  1.00  0.00     0.006 C 
BRANCH   2   3
ATOM      3  C   UNL     1       3.483 -16.045  14.866  1.00  0.00     0.053 C 
BRANCH   3   4
ATOM      4  C   UNL     1       2.954 -14.738  14.362  1.00  0.00     0.041 C 
ATOM      5  O   UNL     1       3.735 -13.769  14.170  1.00  0.00    -0.550 OA
ATOM      6  O   UNL     1       1.592 -14.581  14.136  1.00  0.00    -0.550 OA
ENDBRANCH   3   4
ENDBRANCH   2   3
ENDBRANCH   1   2
BRANCH   1   7
ATOM      7  C   UNL     1       4.585 -18.433  16.351  1.00  0.00     0.000 C 
BRANCH   7   8
ATOM      8  C   UNL     1       5.826 -18.887  15.560  1.00  0.00     0.004 C 
BRANCH   8   9
ATOM      9  C   UNL     1       5.602 -18.986  14.040  1.00  0.00     0.027 C 
BRANCH   9  10
ATOM     10  C   UNL     1       6.478 -18.043  13.261  1.00  0.00    -0.035 C 
ATOM     11  C   UNL     1       6.999 -16.945  13.815  1.00  0.00     0.004 C 
ENDBRANCH   9  10
ENDBRANCH   8   9
ENDBRANCH   7   8
ENDBRANCH   1   7
TORSDOF 7
ENDMDL
MODEL 5
REMARK VINA RESULT:    -3.453     11.184     12.482
REMARK INTER + INTRA:          -5.208
REMARK INTER:                  -4.684
REMARK INTRA:                  -0.524
REMARK UNBOUND:                -0.342
REMARK SMILES C=CCCCCCCC(=O)[O-]
REMARK SMILES IDX 6 1 7 2 8 3 9 4 10 5 11 6 5 7 4 8 3 9 2 10 1 11
REMARK H PARENT
REMARK Flexibility Score: inf
ROOT
ATOM      1  C   UNL     1       3.337 -13.173  15.446  1.00  0.00     0.000 C 
ENDROOT
BRANCH   1   2
ATOM      2  C   UNL     1       4.699 -12.460  15.530  1.00  0.00     0.006 C 
BRANCH   2   3
ATOM      3  C   UNL     1       5.574 -12.623  14.276  1.00  0.00     0.053 C 
BRANCH   3   4
ATOM      4  C   UNL     1       5.626 -11.369  13.460  1.00  0.00     0.041 C 
ATOM      5  O   UNL     1       4.742 -10.483  13.603  1.00  0.00    -0.550 OA
ATOM      6  O   UNL     1       6.630 -11.195  12.517  1.00  0.00    -0.550 OA
ENDBRANCH   3   4
ENDBRANCH   2   3
ENDBRANCH   1   2
BRANCH   1   7
ATOM      7  C   UNL     1       3.302 -14.262  14.360  1.00  0.00     0.000 C 
BRANCH   7   8
ATOM      8  C   UNL     1       2.613 -15.555  14.837  1.00  0.00     0.004 C 
BRANCH   8   9
ATOM      9  C   UNL     1       3.573 -16.586  15.458  1.00  0.00     0.027 C 
BRANCH   9  10
ATOM     10  C   UNL     1       4.847 -16.742  14.672  1.00  0.00    -0.035 C 
ATOM     11  C   UNL     1       5.089 -17.827  13.932  1.00  0.00     0.004 C 
ENDBRANCH   9  10
ENDBRANCH   8   9
ENDBRANCH   7   8
ENDBRANCH   1   7
TORSDOF 7
ENDMDL
MODEL 6
REMARK VINA RESULT:    -3.424     13.651     14.854
REMARK INTER + INTRA:          -5.167
REMARK INTER:                  -4.633
REMARK INTRA:                  -0.534
REMARK UNBOUND:                -0.342
REMARK SMILES C=CCCCCCCC(=O)[O-]
REMARK SMILES IDX 6 1 7 2 8 3 9 4 10 5 11 6 5 7 4 8 3 9 2 10 1 11
REMARK H PARENT
REMARK Flexibility Score: inf
ROOT
ATOM      1  C   UNL     1       7.336 -16.403  14.926  1.00  0.00     0.000 C 
ENDROOT
BRANCH   1   2
ATOM      2  C   UNL     1       7.781 -17.138  13.647  1.00  0.00     0.006 C 
BRANCH   2   3
ATOM      3  C   UNL     1       6.659 -17.919  12.946  1.00  0.00     0.053 C 
BRANCH   3   4
ATOM      4  C   UNL     1       6.328 -19.191  13.662  1.00  0.00     0.041 C 
ATOM      5  O   UNL     1       5.164 -19.388  14.101  1.00  0.00    -0.550 OA
ATOM      6  O   UNL     1       7.315 -20.144  13.877  1.00  0.00    -0.550 OA
ENDBRANCH   3   4
ENDBRANCH   2   3
ENDBRANCH   1   2
BRANCH   1   7
ATOM      7  C   UNL     1       6.090 -15.528  14.705  1.00  0.00     0.000 C 
BRANCH   7   8
ATOM      8  C   UNL     1       4.908 -15.942  15.602  1.00  0.00     0.004 C 
BRANCH   8   9
ATOM      9  C   UNL     1       3.621 -16.283  14.829  1.00  0.00     0.027 C 
BRANCH   9  10
ATOM     10  C   UNL     1       2.889 -15.059  14.349  1.00  0.00    -0.035 C 
ATOM     11  C   UNL     1       1.677 -14.737  14.809  1.00  0.00     0.004 C 
ENDBRANCH   9  10
ENDBRANCH   8   9
ENDBRANCH   7   8
ENDBRANCH   1   7
TORSDOF 7
ENDMDL
MODEL 7
REMARK VINA RESULT:    -3.405     11.939     15.291
REMARK INTER + INTRA:          -5.140
REMARK INTER:                  -4.761
REMARK INTRA:                  -0.379
REMARK UNBOUND:                -0.342
REMARK SMILES C=CCCCCCCC(=O)[O-]
REMARK SMILES IDX 6 1 7 2 8 3 9 4 10 5 11 6 5 7 4 8 3 9 2 10 1 11
REMARK H PARENT
REMARK Flexibility Score: inf
ROOT
ATOM      1  C   UNL     1     -11.106  -8.333   4.002  1.00  0.00     0.000 C 
ENDROOT
BRANCH   1   2
ATOM      2  C   UNL     1     -11.628  -7.418   5.126  1.00  0.00     0.006 C 
BRANCH   2   3
ATOM      3  C   UNL     1     -10.558  -6.505   5.744  1.00  0.00     0.053 C 
BRANCH   3   4
ATOM      4  C   UNL     1      -9.829  -7.175   6.868  1.00  0.00     0.041 C 
ATOM      5  O   UNL     1     -10.226  -8.287   7.307  1.00  0.00    -0.550 OA
ATOM      6  O   UNL     1      -8.733  -6.555   7.453  1.00  0.00    -0.550 OA
ENDBRANCH   3   4
ENDBRANCH   2   3
ENDBRANCH   1   2
BRANCH   1   7
ATOM      7  C   UNL     1     -11.902  -8.181   2.694  1.00  0.00     0.000 C 
BRANCH   7   8
ATOM      8  C   UNL     1     -11.040  -7.649   1.534  1.00  0.00     0.004 C 
BRANCH   8   9
ATOM      9  C   UNL     1      -9.663  -7.114   1.967  1.00  0.00     0.027 C 
BRANCH   9  10
ATOM     10  C   UNL     1      -8.630  -7.215   0.876  1.00  0.00    -0.035 C 
ATOM     11  C   UNL     1      -7.638  -8.108   0.927  1.00  0.00     0.004 C 
ENDBRANCH   9  10
ENDBRANCH   8   9
ENDBRANCH   7   8
ENDBRANCH   1   7
TORSDOF 7
ENDMDL
MODEL 8
REMARK VINA RESULT:    -3.388     12.620     14.119
REMARK INTER + INTRA:          -5.116
REMARK INTER:                  -4.361
REMARK INTRA:                  -0.754
REMARK UNBOUND:                -0.342
REMARK SMILES C=CCCCCCCC(=O)[O-]
REMARK SMILES IDX 6 1 7 2 8 3 9 4 10 5 11 6 5 7 4 8 3 9 2 10 1 11
REMARK H PARENT
REMARK Flexibility Score: inf
ROOT
ATOM      1  C   UNL     1       4.213 -16.183  16.065  1.00  0.00     0.000 C 
ENDROOT
BRANCH   1   2
ATOM      2  C   UNL     1       5.442 -17.061  15.766  1.00  0.00     0.006 C 
BRANCH   2   3
ATOM      3  C   UNL     1       5.904 -17.021  14.301  1.00  0.00     0.053 C 
BRANCH   3   4
ATOM      4  C   UNL     1       5.945 -18.387  13.688  1.00  0.00     0.041 C 
ATOM      5  O   UNL     1       5.121 -19.269  14.047  1.00  0.00    -0.550 OA
ATOM      6  O   UNL     1       6.917 -18.697  12.746  1.00  0.00    -0.550 OA
ENDBRANCH   3   4
ENDBRANCH   2   3
ENDBRANCH   1   2
BRANCH   1   7
ATOM      7  C   UNL     1       3.207 -16.153  14.901  1.00  0.00     0.000 C 
BRANCH   7   8
ATOM      8  C   UNL     1       2.873 -14.721  14.443  1.00  0.00     0.004 C 
BRANCH   8   9
ATOM      9  C   UNL     1       3.573 -13.620  15.258  1.00  0.00     0.027 C 
BRANCH   9  10
ATOM     10  C   UNL     1       4.626 -12.890  14.467  1.00  0.00    -0.035 C 
ATOM     11  C   UNL     1       5.913 -13.242  14.514  1.00  0.00     0.004 C 
ENDBRANCH   9  10
ENDBRANCH   8   9
ENDBRANCH   7   8
ENDBRANCH   1   7
TORSDOF 7
ENDMDL
MODEL 9
REMARK VINA RESULT:    -3.354     11.619     12.975
REMARK INTER + INTRA:          -5.068
REMARK INTER:                  -4.325
REMARK INTRA:                  -0.743
REMARK UNBOUND:                -0.342
REMARK SMILES C=CCCCCCCC(=O)[O-]
REMARK SMILES IDX 6 1 7 2 8 3 9 4 10 5 11 6 5 7 4 8 3 9 2 10 1 11
REMARK H PARENT
REMARK Flexibility Score: inf
ROOT
ATOM      1  C   UNL     1       3.407 -16.395  15.183  1.00  0.00     0.000 C 
ENDROOT
BRANCH   1   2
ATOM      2  C   UNL     1       4.837 -16.787  14.767  1.00  0.00     0.006 C 
BRANCH   2   3
ATOM      3  C   UNL     1       5.939 -15.937  15.420  1.00  0.00     0.053 C 
BRANCH   3   4
ATOM      4  C   UNL     1       6.722 -15.159  14.407  1.00  0.00     0.041 C 
ATOM      5  O   UNL     1       6.543 -13.919  14.283  1.00  0.00    -0.550 OA
ATOM      6  O   UNL     1       7.624 -15.812  13.577  1.00  0.00    -0.550 OA
ENDBRANCH   3   4
ENDBRANCH   2   3
ENDBRANCH   1   2
BRANCH   1   7
ATOM      7  C   UNL     1       2.859 -15.206  14.374  1.00  0.00     0.000 C 
BRANCH   7   8
ATOM      8  C   UNL     1       2.144 -14.166  15.258  1.00  0.00     0.004 C 
BRANCH   8   9
ATOM      9  C   UNL     1       2.686 -14.084  16.696  1.00  0.00     0.027 C 
BRANCH   9  10
ATOM     10  C   UNL     1       3.684 -12.971  16.878  1.00  0.00    -0.035 C 
ATOM     11  C   UNL     1       4.834 -13.157  17.532  1.00  0.00     0.004 C 
ENDBRANCH   9  10
ENDBRANCH   8   9
ENDBRANCH   7   8
ENDBRANCH   1   7
TORSDOF 7
ENDMDL
