MODEL 1
REMARK VINA RESULT:    -5.948      0.000      0.000
REMARK INTER + INTRA:          -7.154
REMARK INTER:                  -6.817
REMARK INTRA:                  -0.337
REMARK UNBOUND:                -0.337
REMARK SMILES COc1ccc(C(C)=O)c(O)c1
REMARK SMILES IDX 6 1 10 2 12 3 3 4 4 5 5 6 7 7 8 8 9 9 11 10 2 12 1 13
REMARK H PARENT 11 11
REMARK Flexibility Score: inf
ROOT
ATOM      1  C   UNL     1      76.412  13.035  45.253  1.00  0.00     0.059 A 
ATOM      2  C   UNL     1      77.442  13.245  46.199  1.00  0.00     0.130 A 
ATOM      3  C   UNL     1      78.088  14.489  46.268  1.00  0.00     0.093 A 
ATOM      4  C   UNL     1      77.733  15.531  45.393  1.00  0.00     0.122 A 
ATOM      5  C   UNL     1      76.728  15.313  44.449  1.00  0.00     0.047 A 
ATOM      6  C   UNL     1      76.076  14.081  44.375  1.00  0.00     0.019 A 
ENDROOT
BRANCH   1   7
ATOM      7  C   UNL     1      75.677  11.745  45.143  1.00  0.00     0.163 C 
ATOM      8  C   UNL     1      74.181  11.673  45.102  1.00  0.00     0.093 C 
ATOM      9  O   UNL     1      76.328  10.667  45.082  1.00  0.00    -0.294 OA
ENDBRANCH   1   7
BRANCH   2  10
ATOM     10  O   UNL     1      77.846  12.221  47.055  1.00  0.00    -0.507 OA
ATOM     11  H   UNL     1      77.937  11.263  46.737  1.00  0.00     0.293 HD
ENDBRANCH   2  10
BRANCH   4  12
ATOM     12  O   UNL     1      78.354  16.789  45.427  1.00  0.00    -0.497 OA
ATOM     13  C   UNL     1      79.762  16.989  45.481  1.00  0.00     0.278 C 
ENDBRANCH   4  12
TORSDOF 3
ENDMDL
MODEL 2
REMARK VINA RESULT:    -5.865      1.226      4.666
REMARK INTER + INTRA:          -7.059
REMARK INTER:                  -6.725
REMARK INTRA:                  -0.334
REMARK UNBOUND:                -0.337
REMARK SMILES COc1ccc(C(C)=O)c(O)c1
REMARK SMILES IDX 6 1 10 2 12 3 3 4 4 5 5 6 7 7 8 8 9 9 11 10 2 12 1 13
REMARK H PARENT 11 11
REMARK Flexibility Score: inf
ROOT
ATOM      1  C   UNL     1      78.005  15.250  45.046  1.00  0.00     0.059 A 
ATOM      2  C   UNL     1      78.081  14.374  46.155  1.00  0.00     0.130 A 
ATOM      3  C   UNL     1      77.172  13.311  46.272  1.00  0.00     0.093 A 
ATOM      4  C   UNL     1      76.172  13.113  45.304  1.00  0.00     0.122 A 
ATOM      5  C   UNL     1      76.089  13.990  44.222  1.00  0.00     0.047 A 
ATOM      6  C   UNL     1      76.990  15.049  44.093  1.00  0.00     0.019 A 
ENDROOT
BRANCH   1   7
ATOM      7  C   UNL     1      78.950  16.384  44.856  1.00  0.00     0.163 C 
ATOM      8  C   UNL     1      79.741  16.569  43.597  1.00  0.00     0.093 C 
ATOM      9  O   UNL     1      79.098  17.226  45.783  1.00  0.00    -0.294 OA
ENDBRANCH   1   7
BRANCH   2  10
ATOM     10  O   UNL     1      79.036  14.566  47.152  1.00  0.00    -0.507 OA
ATOM     11  H   UNL     1      79.975  14.192  47.072  1.00  0.00     0.293 HD
ENDBRANCH   2  10
BRANCH   4  12
ATOM     12  O   UNL     1      75.243  12.064  45.384  1.00  0.00    -0.497 OA
ATOM     13  C   UNL     1      75.408  10.795  44.760  1.00  0.00     0.278 C 
ENDBRANCH   4  12
TORSDOF 3
ENDMDL
MODEL 3
REMARK VINA RESULT:    -5.287      9.719     12.766
REMARK INTER + INTRA:          -6.396
REMARK INTER:                  -6.229
REMARK INTRA:                  -0.167
REMARK UNBOUND:                -0.337
REMARK SMILES COc1ccc(C(C)=O)c(O)c1
REMARK SMILES IDX 6 1 10 2 12 3 3 4 4 5 5 6 7 7 8 8 9 9 11 10 2 12 1 13
REMARK H PARENT 11 11
REMARK Flexibility Score: inf
ROOT
ATOM      1  C   UNL     1      69.361   5.540  45.346  1.00  0.00     0.059 A 
ATOM      2  C   UNL     1      69.853   4.974  46.545  1.00  0.00     0.130 A 
ATOM      3  C   UNL     1      69.821   3.582  46.729  1.00  0.00     0.093 A 
ATOM      4  C   UNL     1      69.289   2.740  45.737  1.00  0.00     0.122 A 
ATOM      5  C   UNL     1      68.788   3.304  44.563  1.00  0.00     0.047 A 
ATOM      6  C   UNL     1      68.818   4.687  44.368  1.00  0.00     0.019 A 
ENDROOT
BRANCH   1   7
ATOM      7  C   UNL     1      69.384   7.005  45.084  1.00  0.00     0.163 C 
ATOM      8  C   UNL     1      70.491   7.668  44.323  1.00  0.00     0.093 C 
ATOM      9  O   UNL     1      68.441   7.723  45.514  1.00  0.00    -0.294 OA
ENDBRANCH   1   7
BRANCH   2  10
ATOM     10  O   UNL     1      70.351   5.783  47.565  1.00  0.00    -0.507 OA
ATOM     11  H   UNL     1      70.756   6.692  47.376  1.00  0.00     0.293 HD
ENDBRANCH   2  10
BRANCH   4  12
ATOM     12  O   UNL     1      69.237   1.345  45.880  1.00  0.00    -0.497 OA
ATOM     13  C   UNL     1      69.999   0.428  45.103  1.00  0.00     0.278 C 
ENDBRANCH   4  12
TORSDOF 3
ENDMDL
MODEL 4
REMARK VINA RESULT:    -5.245      9.714     12.777
REMARK INTER + INTRA:          -6.348
REMARK INTER:                  -6.186
REMARK INTRA:                  -0.162
REMARK UNBOUND:                -0.337
REMARK SMILES COc1ccc(C(C)=O)c(O)c1
REMARK SMILES IDX 6 1 10 2 12 3 3 4 4 5 5 6 7 7 8 8 9 9 11 10 2 12 1 13
REMARK H PARENT 11 11
REMARK Flexibility Score: inf
ROOT
ATOM      1  C   UNL     1      69.419   5.769  45.307  1.00  0.00     0.059 A 
ATOM      2  C   UNL     1      68.998   4.782  44.385  1.00  0.00     0.130 A 
ATOM      3  C   UNL     1      69.070   3.423  44.732  1.00  0.00     0.093 A 
ATOM      4  C   UNL     1      69.572   3.028  45.984  1.00  0.00     0.122 A 
ATOM      5  C   UNL     1      70.004   4.005  46.883  1.00  0.00     0.047 A 
ATOM      6  C   UNL     1      69.932   5.359  46.551  1.00  0.00     0.019 A 
ENDROOT
BRANCH   1   7
ATOM      7  C   UNL     1      69.350   7.225  45.006  1.00  0.00     0.163 C 
ATOM      8  C   UNL     1      70.408   7.934  44.216  1.00  0.00     0.093 C 
ATOM      9  O   UNL     1      68.370   7.897  45.429  1.00  0.00    -0.294 OA
ENDBRANCH   1   7
BRANCH   2  10
ATOM     10  O   UNL     1      68.531   5.137  43.121  1.00  0.00    -0.507 OA
ATOM     11  H   UNL     1      69.005   5.829  42.551  1.00  0.00     0.293 HD
ENDBRANCH   2  10
BRANCH   4  12
ATOM     12  O   UNL     1      69.662   1.682  46.369  1.00  0.00    -0.497 OA
ATOM     13  C   UNL     1      69.869   0.599  45.467  1.00  0.00     0.278 C 
ENDBRANCH   4  12
TORSDOF 3
ENDMDL
MODEL 5
REMARK VINA RESULT:    -5.180      2.254      4.291
REMARK INTER + INTRA:          -6.274
REMARK INTER:                  -5.959
REMARK INTRA:                  -0.315
REMARK UNBOUND:                -0.337
REMARK SMILES COc1ccc(C(C)=O)c(O)c1
REMARK SMILES IDX 6 1 10 2 12 3 3 4 4 5 5 6 7 7 8 8 9 9 11 10 2 12 1 13
REMARK H PARENT 11 11
REMARK Flexibility Score: inf
ROOT
ATOM      1  C   UNL     1      78.245  14.617  45.635  1.00  0.00     0.059 A 
ATOM      2  C   UNL     1      77.549  13.621  46.360  1.00  0.00     0.130 A 
ATOM      3  C   UNL     1      78.150  13.017  47.476  1.00  0.00     0.093 A 
ATOM      4  C   UNL     1      79.448  13.380  47.876  1.00  0.00     0.122 A 
ATOM      5  C   UNL     1      80.138  14.350  47.147  1.00  0.00     0.047 A 
ATOM      6  C   UNL     1      79.549  14.960  46.038  1.00  0.00     0.019 A 
ENDROOT
BRANCH   1   7
ATOM      7  C   UNL     1      77.656  15.307  44.455  1.00  0.00     0.163 C 
ATOM      8  C   UNL     1      78.492  15.809  43.317  1.00  0.00     0.093 C 
ATOM      9  O   UNL     1      76.409  15.481  44.401  1.00  0.00    -0.294 OA
ENDBRANCH   1   7
BRANCH   2  10
ATOM     10  O   UNL     1      76.277  13.211  45.967  1.00  0.00    -0.507 OA
ATOM     11  H   UNL     1      75.522  13.872  45.822  1.00  0.00     0.293 HD
ENDBRANCH   2  10
BRANCH   4  12
ATOM     12  O   UNL     1      80.085  12.801  48.984  1.00  0.00    -0.497 OA
ATOM     13  C   UNL     1      79.693  11.571  49.584  1.00  0.00     0.278 C 
ENDBRANCH   4  12
TORSDOF 3
ENDMDL
MODEL 6
REMARK VINA RESULT:    -5.162      2.502      4.445
REMARK INTER + INTRA:          -6.254
REMARK INTER:                  -5.919
REMARK INTRA:                  -0.335
REMARK UNBOUND:                -0.337
REMARK SMILES COc1ccc(C(C)=O)c(O)c1
REMARK SMILES IDX 6 1 10 2 12 3 3 4 4 5 5 6 7 7 8 8 9 9 11 10 2 12 1 13
REMARK H PARENT 11 11
REMARK Flexibility Score: inf
ROOT
ATOM      1  C   UNL     1      78.317  14.336  46.125  1.00  0.00     0.059 A 
ATOM      2  C   UNL     1      79.686  14.663  46.263  1.00  0.00     0.130 A 
ATOM      3  C   UNL     1      80.466  14.020  47.236  1.00  0.00     0.093 A 
ATOM      4  C   UNL     1      79.898  13.059  48.091  1.00  0.00     0.122 A 
ATOM      5  C   UNL     1      78.542  12.752  47.964  1.00  0.00     0.047 A 
ATOM      6  C   UNL     1      77.758  13.383  46.996  1.00  0.00     0.019 A 
ENDROOT
BRANCH   1   7
ATOM      7  C   UNL     1      77.442  14.969  45.101  1.00  0.00     0.163 C 
ATOM      8  C   UNL     1      76.389  14.204  44.358  1.00  0.00     0.093 C 
ATOM      9  O   UNL     1      77.583  16.195  44.841  1.00  0.00    -0.294 OA
ENDBRANCH   1   7
BRANCH   2  10
ATOM     10  O   UNL     1      80.272  15.639  45.458  1.00  0.00    -0.507 OA
ATOM     11  H   UNL     1      81.098  16.148  45.750  1.00  0.00     0.293 HD
ENDBRANCH   2  10
BRANCH   4  12
ATOM     12  O   UNL     1      80.642  12.393  49.077  1.00  0.00    -0.497 OA
ATOM     13  C   UNL     1      80.098  11.446  49.991  1.00  0.00     0.278 C 
ENDBRANCH   4  12
TORSDOF 3
ENDMDL
MODEL 7
REMARK VINA RESULT:    -5.095      2.184      5.792
REMARK INTER + INTRA:          -6.176
REMARK INTER:                  -6.014
REMARK INTRA:                  -0.163
REMARK UNBOUND:                -0.337
REMARK SMILES COc1ccc(C(C)=O)c(O)c1
REMARK SMILES IDX 6 1 10 2 12 3 3 4 4 5 5 6 7 7 8 8 9 9 11 10 2 12 1 13
REMARK H PARENT 11 11
REMARK Flexibility Score: inf
ROOT
ATOM      1  C   UNL     1      75.643  12.201  45.009  1.00  0.00     0.059 A 
ATOM      2  C   UNL     1      74.246  12.188  45.231  1.00  0.00     0.130 A 
ATOM      3  C   UNL     1      73.481  11.086  44.820  1.00  0.00     0.093 A 
ATOM      4  C   UNL     1      74.085   9.995  44.172  1.00  0.00     0.122 A 
ATOM      5  C   UNL     1      75.460  10.019  43.938  1.00  0.00     0.047 A 
ATOM      6  C   UNL     1      76.233  11.108  44.347  1.00  0.00     0.019 A 
ENDROOT
BRANCH   1   7
ATOM      7  C   UNL     1      76.512  13.331  45.437  1.00  0.00     0.163 C 
ATOM      8  C   UNL     1      76.665  14.581  44.624  1.00  0.00     0.093 C 
ATOM      9  O   UNL     1      77.148  13.243  46.522  1.00  0.00    -0.294 OA
ENDBRANCH   1   7
BRANCH   2  10
ATOM     10  O   UNL     1      73.610  13.271  45.835  1.00  0.00    -0.507 OA
ATOM     11  H   UNL     1      73.697  13.457  46.828  1.00  0.00     0.293 HD
ENDBRANCH   2  10
BRANCH   4  12
ATOM     12  O   UNL     1      73.356   8.874  43.744  1.00  0.00    -0.497 OA
ATOM     13  C   UNL     1      71.934   8.807  43.704  1.00  0.00     0.278 C 
ENDBRANCH   4  12
TORSDOF 3
ENDMDL
MODEL 8
REMARK VINA RESULT:    -5.058      9.309     12.290
REMARK INTER + INTRA:          -6.134
REMARK INTER:                  -5.834
REMARK INTRA:                  -0.300
REMARK UNBOUND:                -0.337
REMARK SMILES COc1ccc(C(C)=O)c(O)c1
REMARK SMILES IDX 6 1 10 2 12 3 3 4 4 5 5 6 7 7 8 8 9 9 11 10 2 12 1 13
REMARK H PARENT 11 11
REMARK Flexibility Score: inf
ROOT
ATOM      1  C   UNL     1      69.456   3.508  45.693  1.00  0.00     0.059 A 
ATOM      2  C   UNL     1      68.859   4.061  44.535  1.00  0.00     0.130 A 
ATOM      3  C   UNL     1      68.869   5.450  44.337  1.00  0.00     0.093 A 
ATOM      4  C   UNL     1      69.454   6.306  45.287  1.00  0.00     0.122 A 
ATOM      5  C   UNL     1      70.025   5.758  46.436  1.00  0.00     0.047 A 
ATOM      6  C   UNL     1      70.025   4.376  46.642  1.00  0.00     0.019 A 
ENDROOT
BRANCH   1   7
ATOM      7  C   UNL     1      69.493   2.043  45.951  1.00  0.00     0.163 C 
ATOM      8  C   UNL     1      70.582   1.395  46.752  1.00  0.00     0.093 C 
ATOM      9  O   UNL     1      68.580   1.309  45.484  1.00  0.00    -0.294 OA
ENDBRANCH   1   7
BRANCH   2  10
ATOM     10  O   UNL     1      68.237   3.244  43.593  1.00  0.00    -0.507 OA
ATOM     11  H   UNL     1      68.682   3.005  42.715  1.00  0.00     0.293 HD
ENDBRANCH   2  10
BRANCH   4  12
ATOM     12  O   UNL     1      69.485   7.700  45.128  1.00  0.00    -0.497 OA
ATOM     13  C   UNL     1      70.358   8.389  44.239  1.00  0.00     0.278 C 
ENDBRANCH   4  12
TORSDOF 3
ENDMDL
MODEL 9
REMARK VINA RESULT:    -4.857      2.428      4.370
REMARK INTER + INTRA:          -5.904
REMARK INTER:                  -5.588
REMARK INTRA:                  -0.316
REMARK UNBOUND:                -0.337
REMARK SMILES COc1ccc(C(C)=O)c(O)c1
REMARK SMILES IDX 6 1 10 2 12 3 3 4 4 5 5 6 7 7 8 8 9 9 11 10 2 12 1 13
REMARK H PARENT 11 11
REMARK Flexibility Score: inf
ROOT
ATOM      1  C   UNL     1      79.860  13.679  47.313  1.00  0.00     0.059 A 
ATOM      2  C   UNL     1      78.575  13.099  47.190  1.00  0.00     0.130 A 
ATOM      3  C   UNL     1      77.607  13.708  46.376  1.00  0.00     0.093 A 
ATOM      4  C   UNL     1      77.894  14.900  45.689  1.00  0.00     0.122 A 
ATOM      5  C   UNL     1      79.156  15.479  45.828  1.00  0.00     0.047 A 
ATOM      6  C   UNL     1      80.129  14.880  46.632  1.00  0.00     0.019 A 
ENDROOT
BRANCH   1   7
ATOM      7  C   UNL     1      80.935  13.073  48.146  1.00  0.00     0.163 C 
ATOM      8  C   UNL     1      82.218  12.569  47.560  1.00  0.00     0.093 C 
ATOM      9  O   UNL     1      80.769  12.976  49.392  1.00  0.00    -0.294 OA
ENDBRANCH   1   7
BRANCH   2  10
ATOM     10  O   UNL     1      78.246  11.939  47.888  1.00  0.00    -0.507 OA
ATOM     11  H   UNL     1      77.333  11.808  48.308  1.00  0.00     0.293 HD
ENDBRANCH   2  10
BRANCH   4  12
ATOM     12  O   UNL     1      76.954  15.541  44.867  1.00  0.00    -0.497 OA
ATOM     13  C   UNL     1      76.001  14.863  44.055  1.00  0.00     0.278 C 
ENDBRANCH   4  12
TORSDOF 3
ENDMDL
