MODEL 1
REMARK VINA RESULT:    -3.023      0.000      0.000
REMARK INTER + INTRA:          -3.390
REMARK INTER:                  -3.377
REMARK INTRA:                  -0.013
REMARK UNBOUND:                -0.013
REMARK SMILES CCCC(=O)[O-]
REMARK SMILES IDX 3 1 4 2 5 3 6 4 2 5 1 6
REMARK H PARENT
REMARK Flexibility Score: inf
ROOT
ATOM      1  C   UNL     1      61.137  27.394  27.197  1.00  0.00     0.052 C 
ENDROOT
BRANCH   1   2
ATOM      2  C   UNL     1      61.047  28.694  27.935  1.00  0.00     0.041 C 
ATOM      3  O   UNL     1      60.301  28.797  28.945  1.00  0.00    -0.550 OA
ATOM      4  O   UNL     1      61.813  29.780  27.531  1.00  0.00    -0.550 OA
ENDBRANCH   1   2
BRANCH   1   5
ATOM      5  C   UNL     1      60.655  27.529  25.746  1.00  0.00     0.003 C 
ATOM      6  C   UNL     1      59.449  26.638  25.449  1.00  0.00     0.004 C 
ENDBRANCH   1   5
TORSDOF 2
ENDMDL
MODEL 2
REMARK VINA RESULT:    -2.991     14.943     15.926
REMARK INTER + INTRA:          -3.355
REMARK INTER:                  -3.317
REMARK INTRA:                  -0.037
REMARK UNBOUND:                -0.013
REMARK SMILES CCCC(=O)[O-]
REMARK SMILES IDX 3 1 4 2 5 3 6 4 2 5 1 6
REMARK H PARENT
REMARK Flexibility Score: inf
ROOT
ATOM      1  C   UNL     1      59.228  28.738  11.973  1.00  0.00     0.052 C 
ENDROOT
BRANCH   1   2
ATOM      2  C   UNL     1      59.783  28.673  10.583  1.00  0.00     0.041 C 
ATOM      3  O   UNL     1      59.276  29.372   9.666  1.00  0.00    -0.550 OA
ATOM      4  O   UNL     1      60.881  27.868  10.308  1.00  0.00    -0.550 OA
ENDBRANCH   1   2
BRANCH   1   5
ATOM      5  C   UNL     1      60.036  27.873  12.950  1.00  0.00     0.003 C 
ATOM      6  C   UNL     1      61.038  28.695  13.761  1.00  0.00     0.004 C 
ENDBRANCH   1   5
TORSDOF 2
ENDMDL
MODEL 3
REMARK VINA RESULT:    -2.989     14.717     15.607
REMARK INTER + INTRA:          -3.351
REMARK INTER:                  -3.297
REMARK INTRA:                  -0.054
REMARK UNBOUND:                -0.013
REMARK SMILES CCCC(=O)[O-]
REMARK SMILES IDX 3 1 4 2 5 3 6 4 2 5 1 6
REMARK H PARENT
REMARK Flexibility Score: inf
ROOT
ATOM      1  C   UNL     1      59.459  29.285  11.471  1.00  0.00     0.052 C 
ENDROOT
BRANCH   1   2
ATOM      2  C   UNL     1      59.270  28.310  12.592  1.00  0.00     0.041 C 
ATOM      3  O   UNL     1      58.175  27.703  12.723  1.00  0.00    -0.550 OA
ATOM      4  O   UNL     1      60.314  28.046  13.470  1.00  0.00    -0.550 OA
ENDBRANCH   1   2
BRANCH   1   5
ATOM      5  C   UNL     1      59.456  28.589  10.104  1.00  0.00     0.003 C 
ATOM      6  C   UNL     1      60.815  27.980   9.758  1.00  0.00     0.004 C 
ENDBRANCH   1   5
TORSDOF 2
ENDMDL
MODEL 4
REMARK VINA RESULT:    -2.988      1.767      2.377
REMARK INTER + INTRA:          -3.350
REMARK INTER:                  -3.289
REMARK INTRA:                  -0.062
REMARK UNBOUND:                -0.013
REMARK SMILES CCCC(=O)[O-]
REMARK SMILES IDX 3 1 4 2 5 3 6 4 2 5 1 6
REMARK H PARENT
REMARK Flexibility Score: inf
ROOT
ATOM      1  C   UNL     1      60.282  27.640  25.693  1.00  0.00     0.052 C 
ENDROOT
BRANCH   1   2
ATOM      2  C   UNL     1      60.931  27.570  27.040  1.00  0.00     0.041 C 
ATOM      3  O   UNL     1      61.780  26.673  27.288  1.00  0.00    -0.550 OA
ATOM      4  O   UNL     1      60.625  28.515  28.011  1.00  0.00    -0.550 OA
ENDBRANCH   1   2
BRANCH   1   5
ATOM      5  C   UNL     1      61.269  28.091  24.608  1.00  0.00     0.003 C 
ATOM      6  C   UNL     1      61.804  29.501  24.858  1.00  0.00     0.004 C 
ENDBRANCH   1   5
TORSDOF 2
ENDMDL
MODEL 5
REMARK VINA RESULT:    -2.957     14.232     15.169
REMARK INTER + INTRA:          -3.317
REMARK INTER:                  -3.282
REMARK INTRA:                  -0.035
REMARK UNBOUND:                -0.013
REMARK SMILES CCCC(=O)[O-]
REMARK SMILES IDX 3 1 4 2 5 3 6 4 2 5 1 6
REMARK H PARENT
REMARK Flexibility Score: inf
ROOT
ATOM      1  C   UNL     1      59.821  28.110  12.600  1.00  0.00     0.052 C 
ENDROOT
BRANCH   1   2
ATOM      2  C   UNL     1      59.526  29.236  11.658  1.00  0.00     0.041 C 
ATOM      3  O   UNL     1      59.596  30.429  12.055  1.00  0.00    -0.550 OA
ATOM      4  O   UNL     1      59.209  28.970  10.331  1.00  0.00    -0.550 OA
ENDBRANCH   1   2
BRANCH   1   5
ATOM      5  C   UNL     1      60.794  28.535  13.708  1.00  0.00     0.003 C 
ATOM      6  C   UNL     1      62.252  28.485  13.250  1.00  0.00     0.004 C 
ENDBRANCH   1   5
TORSDOF 2
ENDMDL
MODEL 6
REMARK VINA RESULT:    -2.950      2.281      3.120
REMARK INTER + INTRA:          -3.308
REMARK INTER:                  -3.247
REMARK INTRA:                  -0.061
REMARK UNBOUND:                -0.013
REMARK SMILES CCCC(=O)[O-]
REMARK SMILES IDX 3 1 4 2 5 3 6 4 2 5 1 6
REMARK H PARENT
REMARK Flexibility Score: inf
ROOT
ATOM      1  C   UNL     1      61.365  26.771  26.931  1.00  0.00     0.052 C 
ENDROOT
BRANCH   1   2
ATOM      2  C   UNL     1      60.415  27.044  25.806  1.00  0.00     0.041 C 
ATOM      3  O   UNL     1      59.388  26.329  25.657  1.00  0.00    -0.550 OA
ATOM      4  O   UNL     1      60.642  28.109  24.944  1.00  0.00    -0.550 OA
ENDBRANCH   1   2
BRANCH   1   5
ATOM      5  C   UNL     1      60.765  27.155  28.290  1.00  0.00     0.003 C 
ATOM      6  C   UNL     1      60.715  28.668  28.497  1.00  0.00     0.004 C 
ENDBRANCH   1   5
TORSDOF 2
ENDMDL
MODEL 7
REMARK VINA RESULT:    -2.923     13.467     14.411
REMARK INTER + INTRA:          -3.278
REMARK INTER:                  -3.272
REMARK INTRA:                  -0.006
REMARK UNBOUND:                -0.013
REMARK SMILES CCCC(=O)[O-]
REMARK SMILES IDX 3 1 4 2 5 3 6 4 2 5 1 6
REMARK H PARENT
REMARK Flexibility Score: inf
ROOT
ATOM      1  C   UNL     1      60.384  28.346  13.368  1.00  0.00     0.052 C 
ENDROOT
BRANCH   1   2
ATOM      2  C   UNL     1      59.152  28.217  12.528  1.00  0.00     0.041 C 
ATOM      3  O   UNL     1      59.121  28.712  11.370  1.00  0.00    -0.550 OA
ATOM      4  O   UNL     1      58.049  27.522  13.008  1.00  0.00    -0.550 OA
ENDBRANCH   1   2
BRANCH   1   5
ATOM      5  C   UNL     1      60.703  29.812  13.690  1.00  0.00     0.003 C 
ATOM      6  C   UNL     1      61.209  29.996  15.121  1.00  0.00     0.004 C 
ENDBRANCH   1   5
TORSDOF 2
ENDMDL
MODEL 8
REMARK VINA RESULT:    -2.917      2.748      3.337
REMARK INTER + INTRA:          -3.272
REMARK INTER:                  -3.261
REMARK INTRA:                  -0.011
REMARK UNBOUND:                -0.013
REMARK SMILES CCCC(=O)[O-]
REMARK SMILES IDX 3 1 4 2 5 3 6 4 2 5 1 6
REMARK H PARENT
REMARK Flexibility Score: inf
ROOT
ATOM      1  C   UNL     1      60.875  28.166  24.996  1.00  0.00     0.052 C 
ENDROOT
BRANCH   1   2
ATOM      2  C   UNL     1      60.328  27.030  25.804  1.00  0.00     0.041 C 
ATOM      3  O   UNL     1      60.889  26.691  26.880  1.00  0.00    -0.550 OA
ATOM      4  O   UNL     1      59.179  26.368  25.389  1.00  0.00    -0.550 OA
ENDBRANCH   1   2
BRANCH   1   5
ATOM      5  C   UNL     1      62.349  27.946  24.630  1.00  0.00     0.003 C 
ATOM      6  C   UNL     1      62.580  27.951  23.119  1.00  0.00     0.004 C 
ENDBRANCH   1   5
TORSDOF 2
ENDMDL
MODEL 9
REMARK VINA RESULT:    -2.902      2.496      3.360
REMARK INTER + INTRA:          -3.255
REMARK INTER:                  -3.194
REMARK INTRA:                  -0.061
REMARK UNBOUND:                -0.013
REMARK SMILES CCCC(=O)[O-]
REMARK SMILES IDX 3 1 4 2 5 3 6 4 2 5 1 6
REMARK H PARENT
REMARK Flexibility Score: inf
ROOT
ATOM      1  C   UNL     1      60.671  28.700  28.616  1.00  0.00     0.052 C 
ENDROOT
BRANCH   1   2
ATOM      2  C   UNL     1      61.234  27.356  28.272  1.00  0.00     0.041 C 
ATOM      3  O   UNL     1      61.975  26.752  29.092  1.00  0.00    -0.550 OA
ATOM      4  O   UNL     1      60.914  26.755  27.061  1.00  0.00    -0.550 OA
ENDBRANCH   1   2
BRANCH   1   5
ATOM      5  C   UNL     1      61.769  29.691  29.023  1.00  0.00     0.003 C 
ATOM      6  C   UNL     1      62.584  30.181  27.825  1.00  0.00     0.004 C 
ENDBRANCH   1   5
TORSDOF 2
ENDMDL
