MODEL 1
REMARK VINA RESULT:    -5.431      0.000      0.000
REMARK INTER + INTRA:          -6.898
REMARK INTER:                  -6.542
REMARK INTRA:                  -0.356
REMARK UNBOUND:                -0.356
REMARK SMILES COc1ccc([C@H]2CC(=O)c3c(O)cc(O)cc3O2)cc1O
REMARK SMILES IDX 7 1 8 2 9 3 10 4 11 5 12 6 14 7 15 8 17 9 18 10 19 11 6 12
REMARK SMILES IDX 3 13 21 14 4 15 20 16 5 17 2 18 1 19 22 20 13 22 16 24
REMARK H PARENT 22 21 13 23 16 25
REMARK Flexibility Score: inf
ROOT
ATOM      1  C   UNL     1     114.964 115.368 142.854  1.00  0.00     0.211 C 
ATOM      2  C   UNL     1     114.800 116.670 142.057  1.00  0.00     0.131 C 
ATOM      3  C   UNL     1     113.600 116.554 141.167  1.00  0.00     0.174 C 
ATOM      4  O   UNL     1     112.771 117.502 141.121  1.00  0.00    -0.294 OA
ATOM      5  C   UNL     1     113.387 115.294 140.414  1.00  0.00     0.102 A 
ATOM      6  C   UNL     1     112.546 115.177 139.276  1.00  0.00     0.133 A 
ATOM      7  C   UNL     1     112.363 113.924 138.680  1.00  0.00     0.093 A 
ATOM      8  C   UNL     1     113.041 112.799 139.153  1.00  0.00     0.123 A 
ATOM      9  C   UNL     1     113.907 112.918 140.244  1.00  0.00     0.093 A 
ATOM     10  C   UNL     1     114.074 114.151 140.879  1.00  0.00     0.138 A 
ATOM     11  O   UNL     1     114.937 114.236 141.980  1.00  0.00    -0.484 OA
ENDROOT
BRANCH   1  12
ATOM     12  C   UNL     1     116.250 115.383 143.642  1.00  0.00    -0.003 A 
ATOM     13  C   UNL     1     118.686 115.451 145.063  1.00  0.00     0.160 A 
ATOM     14  C   UNL     1     117.812 116.547 145.106  1.00  0.00     0.158 A 
ATOM     15  C   UNL     1     118.338 114.323 144.296  1.00  0.00     0.051 A 
ATOM     16  C   UNL     1     116.604 116.514 144.396  1.00  0.00     0.057 A 
ATOM     17  C   UNL     1     117.134 114.294 143.589  1.00  0.00     0.011 A 
BRANCH  13  18
ATOM     18  O   UNL     1     119.886 115.522 145.789  1.00  0.00    -0.493 OA
ATOM     19  C   UNL     1     120.049 115.051 147.123  1.00  0.00     0.278 C 
ENDBRANCH  13  18
BRANCH  14  20
ATOM     20  O   UNL     1     118.154 117.670 145.858  1.00  0.00    -0.504 OA
ATOM     21  H   UNL     1     118.203 117.636 146.870  1.00  0.00     0.293 HD
ENDBRANCH  14  20
ENDBRANCH   1  12
BRANCH   6  22
ATOM     22  O   UNL     1     111.905 116.269 138.685  1.00  0.00    -0.507 OA
ATOM     23  H   UNL     1     112.362 117.141 138.466  1.00  0.00     0.293 HD
ENDBRANCH   6  22
BRANCH   8  24
ATOM     24  O   UNL     1     112.852 111.569 138.527  1.00  0.00    -0.508 OA
ATOM     25  H   UNL     1     112.103 110.943 138.803  1.00  0.00     0.293 HD
ENDBRANCH   8  24
TORSDOF 5
ENDMDL
MODEL 2
REMARK VINA RESULT:    -5.246      1.636      2.929
REMARK INTER + INTRA:          -6.675
REMARK INTER:                  -6.353
REMARK INTRA:                  -0.323
REMARK UNBOUND:                -0.356
REMARK SMILES COc1ccc([C@H]2CC(=O)c3c(O)cc(O)cc3O2)cc1O
REMARK SMILES IDX 7 1 8 2 9 3 10 4 11 5 12 6 14 7 15 8 17 9 18 10 19 11 6 12
REMARK SMILES IDX 3 13 21 14 4 15 20 16 5 17 2 18 1 19 22 20 13 22 16 24
REMARK H PARENT 22 21 13 23 16 25
REMARK Flexibility Score: inf
ROOT
ATOM      1  C   UNL     1     115.789 114.106 142.360  1.00  0.00     0.211 C 
ATOM      2  C   UNL     1     114.847 112.992 142.842  1.00  0.00     0.131 C 
ATOM      3  C   UNL     1     114.196 112.351 141.654  1.00  0.00     0.174 C 
ATOM      4  O   UNL     1     114.148 111.095 141.578  1.00  0.00    -0.294 OA
ATOM      5  C   UNL     1     113.682 113.219 140.565  1.00  0.00     0.102 A 
ATOM      6  C   UNL     1     112.729 112.805 139.597  1.00  0.00     0.133 A 
ATOM      7  C   UNL     1     112.362 113.683 138.571  1.00  0.00     0.093 A 
ATOM      8  C   UNL     1     112.876 114.980 138.520  1.00  0.00     0.123 A 
ATOM      9  C   UNL     1     113.779 115.408 139.497  1.00  0.00     0.093 A 
ATOM     10  C   UNL     1     114.189 114.536 140.508  1.00  0.00     0.138 A 
ATOM     11  O   UNL     1     115.107 114.990 141.465  1.00  0.00    -0.484 OA
ENDROOT
BRANCH   1  12
ATOM     12  C   UNL     1     116.341 114.880 143.531  1.00  0.00    -0.003 A 
ATOM     13  C   UNL     1     117.424 116.277 145.730  1.00  0.00     0.160 A 
ATOM     14  C   UNL     1     118.032 116.363 144.469  1.00  0.00     0.158 A 
ATOM     15  C   UNL     1     116.276 115.478 145.887  1.00  0.00     0.051 A 
ATOM     16  C   UNL     1     117.496 115.664 143.378  1.00  0.00     0.057 A 
ATOM     17  C   UNL     1     115.744 114.784 144.798  1.00  0.00     0.011 A 
BRANCH  13  18
ATOM     18  O   UNL     1     117.991 116.992 146.797  1.00  0.00    -0.493 OA
ATOM     19  C   UNL     1     117.668 118.339 147.125  1.00  0.00     0.278 C 
ENDBRANCH  13  18
BRANCH  14  20
ATOM     20  O   UNL     1     119.175 117.145 144.309  1.00  0.00    -0.504 OA
ATOM     21  H   UNL     1     119.753 117.408 145.098  1.00  0.00     0.293 HD
ENDBRANCH  14  20
ENDBRANCH   1  12
BRANCH   6  22
ATOM     22  O   UNL     1     112.099 111.558 139.632  1.00  0.00    -0.507 OA
ATOM     23  H   UNL     1     112.022 110.987 140.460  1.00  0.00     0.293 HD
ENDBRANCH   6  22
BRANCH   8  24
ATOM     24  O   UNL     1     112.479 115.836 137.496  1.00  0.00    -0.508 OA
ATOM     25  H   UNL     1     111.627 116.382 137.562  1.00  0.00     0.293 HD
ENDBRANCH   8  24
TORSDOF 5
ENDMDL
MODEL 3
REMARK VINA RESULT:    -5.157      2.298      7.217
REMARK INTER + INTRA:          -6.569
REMARK INTER:                  -6.226
REMARK INTRA:                  -0.343
REMARK UNBOUND:                -0.356
REMARK SMILES COc1ccc([C@H]2CC(=O)c3c(O)cc(O)cc3O2)cc1O
REMARK SMILES IDX 7 1 8 2 9 3 10 4 11 5 12 6 14 7 15 8 17 9 18 10 19 11 6 12
REMARK SMILES IDX 3 13 21 14 4 15 20 16 5 17 2 18 1 19 22 20 13 22 16 24
REMARK H PARENT 22 21 13 23 16 25
REMARK Flexibility Score: inf
ROOT
ATOM      1  C   UNL     1     115.942 115.307 142.541  1.00  0.00     0.211 C 
ATOM      2  C   UNL     1     114.837 116.058 143.299  1.00  0.00     0.131 C 
ATOM      3  C   UNL     1     115.464 117.084 144.194  1.00  0.00     0.174 C 
ATOM      4  O   UNL     1     114.999 118.254 144.213  1.00  0.00    -0.294 OA
ATOM      5  C   UNL     1     116.660 116.705 144.986  1.00  0.00     0.102 A 
ATOM      6  C   UNL     1     117.117 117.414 146.129  1.00  0.00     0.133 A 
ATOM      7  C   UNL     1     118.298 117.011 146.763  1.00  0.00     0.093 A 
ATOM      8  C   UNL     1     119.000 115.888 146.323  1.00  0.00     0.123 A 
ATOM      9  C   UNL     1     118.529 115.159 145.227  1.00  0.00     0.093 A 
ATOM     10  C   UNL     1     117.375 115.566 144.554  1.00  0.00     0.138 A 
ATOM     11  O   UNL     1     116.936 114.824 143.450  1.00  0.00    -0.484 OA
ENDROOT
BRANCH   1  12
ATOM     12  C   UNL     1     115.362 114.161 141.750  1.00  0.00    -0.003 A 
ATOM     13  C   UNL     1     114.333 111.976 140.293  1.00  0.00     0.160 A 
ATOM     14  C   UNL     1     114.129 112.061 141.678  1.00  0.00     0.158 A 
ATOM     15  C   UNL     1     115.065 112.987 139.642  1.00  0.00     0.051 A 
ATOM     16  C   UNL     1     114.645 113.145 142.402  1.00  0.00     0.057 A 
ATOM     17  C   UNL     1     115.578 114.065 140.366  1.00  0.00     0.011 A 
BRANCH  13  18
ATOM     18  O   UNL     1     113.800 110.875 139.603  1.00  0.00    -0.493 OA
ATOM     19  C   UNL     1     112.556 110.885 138.911  1.00  0.00     0.278 C 
ENDBRANCH  13  18
BRANCH  14  20
ATOM     20  O   UNL     1     113.411 111.059 142.329  1.00  0.00    -0.504 OA
ATOM     21  H   UNL     1     113.829 110.161 142.544  1.00  0.00     0.293 HD
ENDBRANCH  14  20
ENDBRANCH   1  12
BRANCH   6  22
ATOM     22  O   UNL     1     116.423 118.491 146.687  1.00  0.00    -0.507 OA
ATOM     23  H   UNL     1     116.069 118.505 147.631  1.00  0.00     0.293 HD
ENDBRANCH   6  22
BRANCH   8  24
ATOM     24  O   UNL     1     120.163 115.501 146.987  1.00  0.00    -0.508 OA
ATOM     25  H   UNL     1     120.270 114.568 147.368  1.00  0.00     0.293 HD
ENDBRANCH   8  24
TORSDOF 5
ENDMDL
MODEL 4
REMARK VINA RESULT:    -5.099      4.369      5.711
REMARK INTER + INTRA:          -6.498
REMARK INTER:                  -6.136
REMARK INTRA:                  -0.362
REMARK UNBOUND:                -0.356
REMARK SMILES COc1ccc([C@H]2CC(=O)c3c(O)cc(O)cc3O2)cc1O
REMARK SMILES IDX 7 1 8 2 9 3 10 4 11 5 12 6 14 7 15 8 17 9 18 10 19 11 6 12
REMARK SMILES IDX 3 13 21 14 4 15 20 16 5 17 2 18 1 19 22 20 13 22 16 24
REMARK H PARENT 22 21 13 23 16 25
REMARK Flexibility Score: inf
ROOT
ATOM      1  C   UNL     1     115.987 116.827 144.140  1.00  0.00     0.211 C 
ATOM      2  C   UNL     1     114.617 117.513 144.249  1.00  0.00     0.131 C 
ATOM      3  C   UNL     1     113.890 116.973 145.444  1.00  0.00     0.174 C 
ATOM      4  O   UNL     1     113.327 117.773 146.237  1.00  0.00    -0.294 OA
ATOM      5  C   UNL     1     113.913 115.510 145.694  1.00  0.00     0.102 A 
ATOM      6  C   UNL     1     112.986 114.830 146.528  1.00  0.00     0.133 A 
ATOM      7  C   UNL     1     113.139 113.456 146.750  1.00  0.00     0.093 A 
ATOM      8  C   UNL     1     114.154 112.736 146.116  1.00  0.00     0.123 A 
ATOM      9  C   UNL     1     115.040 113.394 145.258  1.00  0.00     0.093 A 
ATOM     10  C   UNL     1     114.931 114.771 145.053  1.00  0.00     0.138 A 
ATOM     11  O   UNL     1     115.843 115.404 144.198  1.00  0.00    -0.484 OA
ENDROOT
BRANCH   1  12
ATOM     12  C   UNL     1     116.682 117.225 142.862  1.00  0.00    -0.003 A 
ATOM     13  C   UNL     1     118.023 118.016 140.510  1.00  0.00     0.160 A 
ATOM     14  C   UNL     1     118.612 117.089 141.382  1.00  0.00     0.158 A 
ATOM     15  C   UNL     1     116.762 118.553 140.827  1.00  0.00     0.051 A 
ATOM     16  C   UNL     1     117.947 116.700 142.553  1.00  0.00     0.057 A 
ATOM     17  C   UNL     1     116.101 118.164 141.995  1.00  0.00     0.011 A 
BRANCH  13  18
ATOM     18  O   UNL     1     118.721 118.379 139.347  1.00  0.00    -0.493 OA
ATOM     19  C   UNL     1     118.171 118.344 138.034  1.00  0.00     0.278 C 
ENDBRANCH  13  18
BRANCH  14  20
ATOM     20  O   UNL     1     119.865 116.559 141.077  1.00  0.00    -0.504 OA
ATOM     21  H   UNL     1     120.297 115.850 141.658  1.00  0.00     0.293 HD
ENDBRANCH  14  20
ENDBRANCH   1  12
BRANCH   6  22
ATOM     22  O   UNL     1     111.890 115.459 147.123  1.00  0.00    -0.507 OA
ATOM     23  H   UNL     1     111.869 115.765 148.085  1.00  0.00     0.293 HD
ENDBRANCH   6  22
BRANCH   8  24
ATOM     24  O   UNL     1     114.269 111.367 146.343  1.00  0.00    -0.508 OA
ATOM     25  H   UNL     1     113.570 110.856 146.870  1.00  0.00     0.293 HD
ENDBRANCH   8  24
TORSDOF 5
ENDMDL
MODEL 5
REMARK VINA RESULT:    -5.043      1.919      2.136
REMARK INTER + INTRA:          -6.431
REMARK INTER:                  -6.048
REMARK INTRA:                  -0.383
REMARK UNBOUND:                -0.356
REMARK SMILES COc1ccc([C@H]2CC(=O)c3c(O)cc(O)cc3O2)cc1O
REMARK SMILES IDX 7 1 8 2 9 3 10 4 11 5 12 6 14 7 15 8 17 9 18 10 19 11 6 12
REMARK SMILES IDX 3 13 21 14 4 15 20 16 5 17 2 18 1 19 22 20 13 22 16 24
REMARK H PARENT 22 21 13 23 16 25
REMARK Flexibility Score: inf
ROOT
ATOM      1  C   UNL     1     116.032 115.553 142.114  1.00  0.00     0.211 C 
ATOM      2  C   UNL     1     116.870 115.541 140.827  1.00  0.00     0.131 C 
ATOM      3  C   UNL     1     115.975 115.254 139.660  1.00  0.00     0.174 C 
ATOM      4  O   UNL     1     116.069 115.960 138.621  1.00  0.00    -0.294 OA
ATOM      5  C   UNL     1     114.954 114.184 139.788  1.00  0.00     0.102 A 
ATOM      6  C   UNL     1     114.319 113.553 138.686  1.00  0.00     0.133 A 
ATOM      7  C   UNL     1     113.319 112.601 138.919  1.00  0.00     0.093 A 
ATOM      8  C   UNL     1     112.980 112.223 140.219  1.00  0.00     0.123 A 
ATOM      9  C   UNL     1     113.635 112.808 141.307  1.00  0.00     0.093 A 
ATOM     10  C   UNL     1     114.608 113.788 141.098  1.00  0.00     0.138 A 
ATOM     11  O   UNL     1     115.237 114.367 142.209  1.00  0.00    -0.484 OA
ENDROOT
BRANCH   1  12
ATOM     12  C   UNL     1     116.919 115.680 143.328  1.00  0.00    -0.003 A 
ATOM     13  C   UNL     1     118.543 115.978 145.614  1.00  0.00     0.160 A 
ATOM     14  C   UNL     1     117.257 115.431 145.727  1.00  0.00     0.158 A 
ATOM     15  C   UNL     1     119.009 116.385 144.350  1.00  0.00     0.051 A 
ATOM     16  C   UNL     1     116.448 115.288 144.591  1.00  0.00     0.057 A 
ATOM     17  C   UNL     1     118.202 116.241 143.220  1.00  0.00     0.011 A 
BRANCH  13  18
ATOM     18  O   UNL     1     119.322 116.104 146.776  1.00  0.00    -0.493 OA
ATOM     19  C   UNL     1     120.393 115.234 147.125  1.00  0.00     0.278 C 
ENDBRANCH  13  18
BRANCH  14  20
ATOM     20  O   UNL     1     116.786 115.033 146.978  1.00  0.00    -0.504 OA
ATOM     21  H   UNL     1     116.481 114.083 147.152  1.00  0.00     0.293 HD
ENDBRANCH  14  20
ENDBRANCH   1  12
BRANCH   6  22
ATOM     22  O   UNL     1     114.666 113.807 137.356  1.00  0.00    -0.507 OA
ATOM     23  H   UNL     1     115.447 113.377 136.885  1.00  0.00     0.293 HD
ENDBRANCH   6  22
BRANCH   8  24
ATOM     24  O   UNL     1     111.993 111.260 140.419  1.00  0.00    -0.508 OA
ATOM     25  H   UNL     1     112.226 110.308 140.680  1.00  0.00     0.293 HD
ENDBRANCH   8  24
TORSDOF 5
ENDMDL
MODEL 6
REMARK VINA RESULT:    -5.025     15.769     17.444
REMARK INTER + INTRA:          -6.410
REMARK INTER:                  -6.049
REMARK INTRA:                  -0.361
REMARK UNBOUND:                -0.356
REMARK SMILES COc1ccc([C@H]2CC(=O)c3c(O)cc(O)cc3O2)cc1O
REMARK SMILES IDX 7 1 8 2 9 3 10 4 11 5 12 6 14 7 15 8 17 9 18 10 19 11 6 12
REMARK SMILES IDX 3 13 21 14 4 15 20 16 5 17 2 18 1 19 22 20 13 22 16 24
REMARK H PARENT 22 21 13 23 16 25
REMARK Flexibility Score: inf
ROOT
ATOM      1  C   UNL     1     131.840 116.103 138.731  1.00  0.00     0.211 C 
ATOM      2  C   UNL     1     131.343 117.446 139.286  1.00  0.00     0.131 C 
ATOM      3  C   UNL     1     131.606 117.496 140.761  1.00  0.00     0.174 C 
ATOM      4  O   UNL     1     132.125 118.529 141.261  1.00  0.00    -0.294 OA
ATOM      5  C   UNL     1     131.307 116.296 141.582  1.00  0.00     0.102 A 
ATOM      6  C   UNL     1     131.140 116.317 142.992  1.00  0.00     0.133 A 
ATOM      7  C   UNL     1     130.927 115.115 143.678  1.00  0.00     0.093 A 
ATOM      8  C   UNL     1     130.819 113.906 142.989  1.00  0.00     0.123 A 
ATOM      9  C   UNL     1     130.937 113.887 141.596  1.00  0.00     0.093 A 
ATOM     10  C   UNL     1     131.189 115.068 140.894  1.00  0.00     0.138 A 
ATOM     11  O   UNL     1     131.317 115.015 139.500  1.00  0.00    -0.484 OA
ENDROOT
BRANCH   1  12
ATOM     12  C   UNL     1     131.450 115.947 137.282  1.00  0.00    -0.003 A 
ATOM     13  C   UNL     1     130.659 115.691 134.587  1.00  0.00     0.160 A 
ATOM     14  C   UNL     1     131.211 116.894 135.050  1.00  0.00     0.158 A 
ATOM     15  C   UNL     1     130.495 114.619 135.484  1.00  0.00     0.051 A 
ATOM     16  C   UNL     1     131.600 117.022 136.391  1.00  0.00     0.057 A 
ATOM     17  C   UNL     1     130.883 114.749 136.819  1.00  0.00     0.011 A 
BRANCH  13  18
ATOM     18  O   UNL     1     130.283 115.603 133.237  1.00  0.00    -0.493 OA
ATOM     19  C   UNL     1     129.079 115.000 132.774  1.00  0.00     0.278 C 
ENDBRANCH  13  18
BRANCH  14  20
ATOM     20  O   UNL     1     131.369 117.962 134.168  1.00  0.00    -0.504 OA
ATOM     21  H   UNL     1     132.287 118.291 133.892  1.00  0.00     0.293 HD
ENDBRANCH  14  20
ENDBRANCH   1  12
BRANCH   6  22
ATOM     22  O   UNL     1     131.141 117.494 143.744  1.00  0.00    -0.507 OA
ATOM     23  H   UNL     1     130.509 117.676 144.509  1.00  0.00     0.293 HD
ENDBRANCH   6  22
BRANCH   8  24
ATOM     24  O   UNL     1     130.590 112.729 143.698  1.00  0.00    -0.508 OA
ATOM     25  H   UNL     1     131.353 112.182 144.079  1.00  0.00     0.293 HD
ENDBRANCH   8  24
TORSDOF 5
ENDMDL
MODEL 7
REMARK VINA RESULT:    -4.857     14.393     17.835
REMARK INTER + INTRA:          -6.207
REMARK INTER:                  -5.847
REMARK INTRA:                  -0.360
REMARK UNBOUND:                -0.356
REMARK SMILES COc1ccc([C@H]2CC(=O)c3c(O)cc(O)cc3O2)cc1O
REMARK SMILES IDX 7 1 8 2 9 3 10 4 11 5 12 6 14 7 15 8 17 9 18 10 19 11 6 12
REMARK SMILES IDX 3 13 21 14 4 15 20 16 5 17 2 18 1 19 22 20 13 22 16 24
REMARK H PARENT 22 21 13 23 16 25
REMARK Flexibility Score: inf
ROOT
ATOM      1  C   UNL     1     130.240 122.853 142.334  1.00  0.00     0.211 C 
ATOM      2  C   UNL     1     131.473 122.413 143.138  1.00  0.00     0.131 C 
ATOM      3  C   UNL     1     131.094 121.273 144.034  1.00  0.00     0.174 C 
ATOM      4  O   UNL     1     131.838 120.258 144.089  1.00  0.00    -0.294 OA
ATOM      5  C   UNL     1     129.816 121.347 144.784  1.00  0.00     0.102 A 
ATOM      6  C   UNL     1     129.514 120.559 145.926  1.00  0.00     0.133 A 
ATOM      7  C   UNL     1     128.250 120.659 146.518  1.00  0.00     0.093 A 
ATOM      8  C   UNL     1     127.303 121.565 146.037  1.00  0.00     0.123 A 
ATOM      9  C   UNL     1     127.612 122.376 144.941  1.00  0.00     0.093 A 
ATOM     10  C   UNL     1     128.853 122.265 144.310  1.00  0.00     0.138 A 
ATOM     11  O   UNL     1     129.127 123.081 143.205  1.00  0.00    -0.484 OA
ENDROOT
BRANCH   1  12
ATOM     12  C   UNL     1     130.539 124.100 141.539  1.00  0.00    -0.003 A 
ATOM     13  C   UNL     1     131.079 126.395 139.991  1.00  0.00     0.160 A 
ATOM     14  C   UNL     1     129.762 126.084 140.359  1.00  0.00     0.158 A 
ATOM     15  C   UNL     1     132.125 125.544 140.395  1.00  0.00     0.051 A 
ATOM     16  C   UNL     1     129.494 124.940 141.124  1.00  0.00     0.057 A 
ATOM     17  C   UNL     1     131.855 124.405 141.157  1.00  0.00     0.011 A 
BRANCH  13  18
ATOM     18  O   UNL     1     131.306 127.550 139.225  1.00  0.00    -0.493 OA
ATOM     19  C   UNL     1     131.573 128.838 139.771  1.00  0.00     0.278 C 
ENDBRANCH  13  18
BRANCH  14  20
ATOM     20  O   UNL     1     128.721 126.919 139.956  1.00  0.00    -0.504 OA
ATOM     21  H   UNL     1     128.788 127.485 139.118  1.00  0.00     0.293 HD
ENDBRANCH  14  20
ENDBRANCH   1  12
BRANCH   6  22
ATOM     22  O   UNL     1     130.438 119.698 146.525  1.00  0.00    -0.507 OA
ATOM     23  H   UNL     1     130.855 118.906 146.059  1.00  0.00     0.293 HD
ENDBRANCH   6  22
BRANCH   8  24
ATOM     24  O   UNL     1     126.059 121.654 146.658  1.00  0.00    -0.508 OA
ATOM     25  H   UNL     1     125.494 120.831 146.833  1.00  0.00     0.293 HD
ENDBRANCH   8  24
TORSDOF 5
ENDMDL
MODEL 8
REMARK VINA RESULT:    -4.813      2.420      7.295
REMARK INTER + INTRA:          -6.154
REMARK INTER:                  -5.816
REMARK INTRA:                  -0.338
REMARK UNBOUND:                -0.356
REMARK SMILES COc1ccc([C@H]2CC(=O)c3c(O)cc(O)cc3O2)cc1O
REMARK SMILES IDX 7 1 8 2 9 3 10 4 11 5 12 6 14 7 15 8 17 9 18 10 19 11 6 12
REMARK SMILES IDX 3 13 21 14 4 15 20 16 5 17 2 18 1 19 22 20 13 22 16 24
REMARK H PARENT 22 21 13 23 16 25
REMARK Flexibility Score: inf
ROOT
ATOM      1  C   UNL     1     115.686 113.743 143.881  1.00  0.00     0.211 C 
ATOM      2  C   UNL     1     117.106 114.264 143.611  1.00  0.00     0.131 C 
ATOM      3  C   UNL     1     117.523 115.160 144.737  1.00  0.00     0.174 C 
ATOM      4  O   UNL     1     118.665 115.017 145.249  1.00  0.00    -0.294 OA
ATOM      5  C   UNL     1     116.551 116.151 145.260  1.00  0.00     0.102 A 
ATOM      6  C   UNL     1     116.909 117.291 146.028  1.00  0.00     0.133 A 
ATOM      7  C   UNL     1     115.904 118.126 146.531  1.00  0.00     0.093 A 
ATOM      8  C   UNL     1     114.560 117.888 146.238  1.00  0.00     0.123 A 
ATOM      9  C   UNL     1     114.207 116.793 145.443  1.00  0.00     0.093 A 
ATOM     10  C   UNL     1     115.189 115.924 144.964  1.00  0.00     0.138 A 
ATOM     11  O   UNL     1     114.802 114.827 144.182  1.00  0.00    -0.484 OA
ENDROOT
BRANCH   1  12
ATOM     12  C   UNL     1     115.168 112.966 142.696  1.00  0.00    -0.003 A 
ATOM     13  C   UNL     1     114.140 111.556 140.480  1.00  0.00     0.160 A 
ATOM     14  C   UNL     1     114.781 112.790 140.297  1.00  0.00     0.158 A 
ATOM     15  C   UNL     1     114.008 111.036 141.781  1.00  0.00     0.051 A 
ATOM     16  C   UNL     1     115.287 113.493 141.400  1.00  0.00     0.057 A 
ATOM     17  C   UNL     1     114.513 111.738 142.878  1.00  0.00     0.011 A 
BRANCH  13  18
ATOM     18  O   UNL     1     113.648 110.883 139.350  1.00  0.00    -0.493 OA
ATOM     19  C   UNL     1     112.295 110.933 138.910  1.00  0.00     0.278 C 
ENDBRANCH  13  18
BRANCH  14  20
ATOM     20  O   UNL     1     114.909 113.314 139.012  1.00  0.00    -0.504 OA
ATOM     21  H   UNL     1     114.190 113.179 138.310  1.00  0.00     0.293 HD
ENDBRANCH  14  20
ENDBRANCH   1  12
BRANCH   6  22
ATOM     22  O   UNL     1     118.234 117.651 146.287  1.00  0.00    -0.507 OA
ATOM     23  H   UNL     1     118.525 118.581 146.550  1.00  0.00     0.293 HD
ENDBRANCH   6  22
BRANCH   8  24
ATOM     24  O   UNL     1     113.585 118.747 146.738  1.00  0.00    -0.508 OA
ATOM     25  H   UNL     1     113.830 119.590 147.245  1.00  0.00     0.293 HD
ENDBRANCH   8  24
TORSDOF 5
ENDMDL
MODEL 9
REMARK VINA RESULT:    -4.751     15.527     16.386
REMARK INTER + INTRA:          -6.079
REMARK INTER:                  -5.735
REMARK INTRA:                  -0.344
REMARK UNBOUND:                -0.356
REMARK SMILES COc1ccc([C@H]2CC(=O)c3c(O)cc(O)cc3O2)cc1O
REMARK SMILES IDX 7 1 8 2 9 3 10 4 11 5 12 6 14 7 15 8 17 9 18 10 19 11 6 12
REMARK SMILES IDX 3 13 21 14 4 15 20 16 5 17 2 18 1 19 22 20 13 22 16 24
REMARK H PARENT 22 21 13 23 16 25
REMARK Flexibility Score: inf
ROOT
ATOM      1  C   UNL     1     131.675 117.463 142.069  1.00  0.00     0.211 C 
ATOM      2  C   UNL     1     130.916 116.517 143.012  1.00  0.00     0.131 C 
ATOM      3  C   UNL     1     131.123 115.103 142.561  1.00  0.00     0.174 C 
ATOM      4  O   UNL     1     131.422 114.221 143.410  1.00  0.00    -0.294 OA
ATOM      5  C   UNL     1     131.034 114.794 141.112  1.00  0.00     0.102 A 
ATOM      6  C   UNL     1     130.826 113.492 140.586  1.00  0.00     0.133 A 
ATOM      7  C   UNL     1     130.826 113.301 139.199  1.00  0.00     0.093 A 
ATOM      8  C   UNL     1     130.969 114.381 138.327  1.00  0.00     0.123 A 
ATOM      9  C   UNL     1     131.127 115.672 138.840  1.00  0.00     0.093 A 
ATOM     10  C   UNL     1     131.170 115.880 140.221  1.00  0.00     0.138 A 
ATOM     11  O   UNL     1     131.345 117.184 140.705  1.00  0.00    -0.484 OA
ENDROOT
BRANCH   1  12
ATOM     12  C   UNL     1     131.362 118.903 142.393  1.00  0.00    -0.003 A 
ATOM     13  C   UNL     1     130.726 121.594 142.949  1.00  0.00     0.160 A 
ATOM     14  C   UNL     1     129.953 120.558 143.493  1.00  0.00     0.158 A 
ATOM     15  C   UNL     1     131.814 121.275 142.116  1.00  0.00     0.051 A 
ATOM     16  C   UNL     1     130.267 119.220 143.212  1.00  0.00     0.057 A 
ATOM     17  C   UNL     1     132.125 119.942 141.838  1.00  0.00     0.011 A 
BRANCH  13  18
ATOM     18  O   UNL     1     130.379 122.920 143.255  1.00  0.00    -0.493 OA
ATOM     19  C   UNL     1     129.867 123.855 142.312  1.00  0.00     0.278 C 
ENDBRANCH  13  18
BRANCH  14  20
ATOM     20  O   UNL     1     128.868 120.867 144.313  1.00  0.00    -0.504 OA
ATOM     21  H   UNL     1     128.415 120.161 144.883  1.00  0.00     0.293 HD
ENDBRANCH  14  20
ENDBRANCH   1  12
BRANCH   6  22
ATOM     22  O   UNL     1     130.583 112.374 141.389  1.00  0.00    -0.507 OA
ATOM     23  H   UNL     1     129.664 112.079 141.683  1.00  0.00     0.293 HD
ENDBRANCH   6  22
BRANCH   8  24
ATOM     24  O   UNL     1     130.946 114.162 136.952  1.00  0.00    -0.508 OA
ATOM     25  H   UNL     1     131.739 113.756 136.467  1.00  0.00     0.293 HD
ENDBRANCH   8  24
TORSDOF 5
ENDMDL
