MODEL 1
REMARK VINA RESULT:    -5.598      0.000      0.000
REMARK INTER + INTRA:         -12.436
REMARK INTER:                 -10.506
REMARK INTRA:                  -1.930
REMARK UNBOUND:                -1.930
REMARK SMILES O=C([O-])CCCCCCCCCCCCCCC(=O)[O-]
REMARK SMILES IDX 10 1 9 2 8 3 7 4 6 5 5 6 4 7 2 8 1 9 3 10 11 11 12 12 13 13
REMARK SMILES IDX 14 14 15 15 16 16 17 17 18 18 19 19 20 20
REMARK H PARENT
REMARK Flexibility Score: inf
ROOT
ATOM      1  C   UNL     1     104.627 108.504 229.362  1.00  0.00     0.000 C 
ENDROOT
BRANCH   1   2
ATOM      2  C   UNL     1     105.037 107.700 228.116  1.00  0.00     0.000 C 
BRANCH   2   3
ATOM      3  C   UNL     1     104.906 106.182 228.325  1.00  0.00     0.000 C 
BRANCH   3   4
ATOM      4  C   UNL     1     104.138 105.494 227.182  1.00  0.00     0.000 C 
BRANCH   4   5
ATOM      5  C   UNL     1     102.687 105.157 227.566  1.00  0.00     0.000 C 
BRANCH   5   6
ATOM      6  C   UNL     1     102.589 104.363 228.877  1.00  0.00     0.006 C 
BRANCH   6   7
ATOM      7  C   UNL     1     101.152 103.899 229.129  1.00  0.00     0.053 C 
BRANCH   7   8
ATOM      8  C   UNL     1     101.132 102.753 230.092  1.00  0.00     0.041 C 
ATOM      9  O   UNL     1     102.212 102.245 230.494  1.00  0.00    -0.550 OA
ATOM     10  O   UNL     1      99.921 102.213 230.504  1.00  0.00    -0.550 OA
ENDBRANCH   7   8
ENDBRANCH   6   7
ENDBRANCH   5   6
ENDBRANCH   4   5
ENDBRANCH   3   4
ENDBRANCH   2   3
ENDBRANCH   1   2
BRANCH   1  11
ATOM     11  C   UNL     1     104.155 107.607 230.521  1.00  0.00     0.000 C 
BRANCH  11  12
ATOM     12  C   UNL     1     102.687 107.805 230.951  1.00  0.00     0.000 C 
BRANCH  12  13
ATOM     13  C   UNL     1     102.060 106.624 231.714  1.00  0.00     0.000 C 
BRANCH  13  14
ATOM     14  C   UNL     1     103.110 105.645 232.266  1.00  0.00     0.000 C 
BRANCH  14  15
ATOM     15  C   UNL     1     103.593 106.030 233.673  1.00  0.00     0.000 C 
BRANCH  15  16
ATOM     16  C   UNL     1     105.122 105.988 233.811  1.00  0.00     0.006 C 
BRANCH  16  17
ATOM     17  C   UNL     1     105.759 105.269 232.619  1.00  0.00     0.053 C 
BRANCH  17  18
ATOM     18  C   UNL     1     106.865 104.371 233.077  1.00  0.00     0.041 C 
ATOM     19  O   UNL     1     107.896 104.857 233.612  1.00  0.00    -0.550 OA
ATOM     20  O   UNL     1     106.735 102.993 232.959  1.00  0.00    -0.550 OA
ENDBRANCH  17  18
ENDBRANCH  16  17
ENDBRANCH  15  16
ENDBRANCH  14  15
ENDBRANCH  13  14
ENDBRANCH  12  13
ENDBRANCH  11  12
ENDBRANCH   1  11
TORSDOF 15
ENDMDL
MODEL 2
REMARK VINA RESULT:    -5.532      2.283      4.562
REMARK INTER + INTRA:         -12.314
REMARK INTER:                  -9.915
REMARK INTRA:                  -2.399
REMARK UNBOUND:                -1.930
REMARK SMILES O=C([O-])CCCCCCCCCCCCCCC(=O)[O-]
REMARK SMILES IDX 10 1 9 2 8 3 7 4 6 5 5 6 4 7 2 8 1 9 3 10 11 11 12 12 13 13
REMARK SMILES IDX 14 14 15 15 16 16 17 17 18 18 19 19 20 20
REMARK H PARENT
REMARK Flexibility Score: inf
ROOT
ATOM      1  C   UNL     1     103.335 105.713 226.976  1.00  0.00     0.000 C 
ENDROOT
BRANCH   1   2
ATOM      2  C   UNL     1     102.001 105.040 227.344  1.00  0.00     0.000 C 
BRANCH   2   3
ATOM      3  C   UNL     1     101.797 104.928 228.865  1.00  0.00     0.000 C 
BRANCH   3   4
ATOM      4  C   UNL     1     101.428 103.501 229.307  1.00  0.00     0.000 C 
BRANCH   4   5
ATOM      5  C   UNL     1     102.278 103.013 230.492  1.00  0.00     0.000 C 
BRANCH   5   6
ATOM      6  C   UNL     1     103.616 102.401 230.051  1.00  0.00     0.006 C 
BRANCH   6   7
ATOM      7  C   UNL     1     104.703 102.647 231.100  1.00  0.00     0.053 C 
BRANCH   7   8
ATOM      8  C   UNL     1     105.677 101.511 231.123  1.00  0.00     0.041 C 
ATOM      9  O   UNL     1     105.280 100.333 230.923  1.00  0.00    -0.550 OA
ATOM     10  O   UNL     1     107.014 101.748 231.415  1.00  0.00    -0.550 OA
ENDBRANCH   7   8
ENDBRANCH   6   7
ENDBRANCH   5   6
ENDBRANCH   4   5
ENDBRANCH   3   4
ENDBRANCH   2   3
ENDBRANCH   1   2
BRANCH   1  11
ATOM     11  C   UNL     1     104.547 105.034 227.638  1.00  0.00     0.000 C 
BRANCH  11  12
ATOM     12  C   UNL     1     105.130 105.771 228.861  1.00  0.00     0.000 C 
BRANCH  12  13
ATOM     13  C   UNL     1     104.834 107.281 228.922  1.00  0.00     0.000 C 
BRANCH  13  14
ATOM     14  C   UNL     1     104.277 107.726 230.284  1.00  0.00     0.000 C 
BRANCH  14  15
ATOM     15  C   UNL     1     104.674 106.775 231.424  1.00  0.00     0.000 C 
BRANCH  15  16
ATOM     16  C   UNL     1     103.462 106.109 232.092  1.00  0.00     0.006 C 
BRANCH  16  17
ATOM     17  C   UNL     1     102.186 106.918 231.845  1.00  0.00     0.053 C 
BRANCH  17  18
ATOM     18  C   UNL     1     101.047 106.358 232.636  1.00  0.00     0.041 C 
ATOM     19  O   UNL     1     100.146 105.688 232.064  1.00  0.00    -0.550 OA
ATOM     20  O   UNL     1     101.005 106.532 234.013  1.00  0.00    -0.550 OA
ENDBRANCH  17  18
ENDBRANCH  16  17
ENDBRANCH  15  16
ENDBRANCH  14  15
ENDBRANCH  13  14
ENDBRANCH  12  13
ENDBRANCH  11  12
ENDBRANCH   1  11
TORSDOF 15
ENDMDL
MODEL 3
REMARK VINA RESULT:    -5.514      2.273      4.346
REMARK INTER + INTRA:         -12.280
REMARK INTER:                  -9.885
REMARK INTRA:                  -2.396
REMARK UNBOUND:                -1.930
REMARK SMILES O=C([O-])CCCCCCCCCCCCCCC(=O)[O-]
REMARK SMILES IDX 10 1 9 2 8 3 7 4 6 5 5 6 4 7 2 8 1 9 3 10 11 11 12 12 13 13
REMARK SMILES IDX 14 14 15 15 16 16 17 17 18 18 19 19 20 20
REMARK H PARENT
REMARK Flexibility Score: inf
ROOT
ATOM      1  C   UNL     1     103.133 105.425 226.736  1.00  0.00     0.000 C 
ENDROOT
BRANCH   1   2
ATOM      2  C   UNL     1     104.598 105.104 227.079  1.00  0.00     0.000 C 
BRANCH   2   3
ATOM      3  C   UNL     1     104.979 105.539 228.504  1.00  0.00     0.000 C 
BRANCH   3   4
ATOM      4  C   UNL     1     105.932 104.545 229.190  1.00  0.00     0.000 C 
BRANCH   4   5
ATOM      5  C   UNL     1     106.439 105.055 230.549  1.00  0.00     0.000 C 
BRANCH   5   6
ATOM      6  C   UNL     1     107.327 104.034 231.274  1.00  0.00     0.006 C 
BRANCH   6   7
ATOM      7  C   UNL     1     106.476 103.008 232.029  1.00  0.00     0.053 C 
BRANCH   7   8
ATOM      8  C   UNL     1     106.586 101.661 231.386  1.00  0.00     0.041 C 
ATOM      9  O   UNL     1     107.715 101.192 231.089  1.00  0.00    -0.550 OA
ATOM     10  O   UNL     1     105.437 100.947 231.068  1.00  0.00    -0.550 OA
ENDBRANCH   7   8
ENDBRANCH   6   7
ENDBRANCH   5   6
ENDBRANCH   4   5
ENDBRANCH   3   4
ENDBRANCH   2   3
ENDBRANCH   1   2
BRANCH   1  11
ATOM     11  C   UNL     1     102.208 105.372 227.966  1.00  0.00     0.000 C 
BRANCH  11  12
ATOM     12  C   UNL     1     101.306 104.124 228.058  1.00  0.00     0.000 C 
BRANCH  12  13
ATOM     13  C   UNL     1     101.164 103.518 229.466  1.00  0.00     0.000 C 
BRANCH  13  14
ATOM     14  C   UNL     1     102.478 102.915 229.991  1.00  0.00     0.000 C 
BRANCH  14  15
ATOM     15  C   UNL     1     103.003 103.638 231.241  1.00  0.00     0.000 C 
BRANCH  15  16
ATOM     16  C   UNL     1     102.263 104.954 231.522  1.00  0.00     0.006 C 
BRANCH  16  17
ATOM     17  C   UNL     1     103.251 106.079 231.844  1.00  0.00     0.053 C 
BRANCH  17  18
ATOM     18  C   UNL     1     103.607 106.065 233.297  1.00  0.00     0.041 C 
ATOM     19  O   UNL     1     102.704 106.000 234.171  1.00  0.00    -0.550 OA
ATOM     20  O   UNL     1     104.941 106.073 233.685  1.00  0.00    -0.550 OA
ENDBRANCH  17  18
ENDBRANCH  16  17
ENDBRANCH  15  16
ENDBRANCH  14  15
ENDBRANCH  13  14
ENDBRANCH  12  13
ENDBRANCH  11  12
ENDBRANCH   1  11
TORSDOF 15
ENDMDL
MODEL 4
REMARK VINA RESULT:    -5.513      2.425      5.084
REMARK INTER + INTRA:         -12.277
REMARK INTER:                 -10.165
REMARK INTRA:                  -2.112
REMARK UNBOUND:                -1.930
REMARK SMILES O=C([O-])CCCCCCCCCCCCCCC(=O)[O-]
REMARK SMILES IDX 10 1 9 2 8 3 7 4 6 5 5 6 4 7 2 8 1 9 3 10 11 11 12 12 13 13
REMARK SMILES IDX 14 14 15 15 16 16 17 17 18 18 19 19 20 20
REMARK H PARENT
REMARK Flexibility Score: inf
ROOT
ATOM      1  C   UNL     1     102.758 107.592 230.952  1.00  0.00     0.000 C 
ENDROOT
BRANCH   1   2
ATOM      2  C   UNL     1     104.049 107.730 230.127  1.00  0.00     0.000 C 
BRANCH   2   3
ATOM      3  C   UNL     1     105.216 106.922 230.720  1.00  0.00     0.000 C 
BRANCH   3   4
ATOM      4  C   UNL     1     105.249 106.976 232.258  1.00  0.00     0.000 C 
BRANCH   4   5
ATOM      5  C   UNL     1     105.100 105.587 232.900  1.00  0.00     0.000 C 
BRANCH   5   6
ATOM      6  C   UNL     1     105.335 104.443 231.903  1.00  0.00     0.006 C 
BRANCH   6   7
ATOM      7  C   UNL     1     106.457 103.519 232.384  1.00  0.00     0.053 C 
BRANCH   7   8
ATOM      8  C   UNL     1     106.442 102.233 231.618  1.00  0.00     0.041 C 
ATOM      9  O   UNL     1     107.523 101.666 231.312  1.00  0.00    -0.550 OA
ATOM     10  O   UNL     1     105.235 101.689 231.198  1.00  0.00    -0.550 OA
ENDBRANCH   7   8
ENDBRANCH   6   7
ENDBRANCH   5   6
ENDBRANCH   4   5
ENDBRANCH   3   4
ENDBRANCH   2   3
ENDBRANCH   1   2
BRANCH   1  11
ATOM     11  C   UNL     1     101.732 106.648 230.301  1.00  0.00     0.000 C 
BRANCH  11  12
ATOM     12  C   UNL     1     102.045 105.143 230.431  1.00  0.00     0.000 C 
BRANCH  12  13
ATOM     13  C   UNL     1     102.716 104.503 229.202  1.00  0.00     0.000 C 
BRANCH  13  14
ATOM     14  C   UNL     1     102.176 105.054 227.872  1.00  0.00     0.000 C 
BRANCH  14  15
ATOM     15  C   UNL     1     103.295 105.386 226.872  1.00  0.00     0.000 C 
BRANCH  15  16
ATOM     16  C   UNL     1     104.694 105.059 227.414  1.00  0.00     0.006 C 
BRANCH  16  17
ATOM     17  C   UNL     1     105.546 104.364 226.348  1.00  0.00     0.053 C 
BRANCH  17  18
ATOM     18  C   UNL     1     106.810 103.834 226.949  1.00  0.00     0.041 C 
ATOM     19  O   UNL     1     107.859 103.760 226.256  1.00  0.00    -0.550 OA
ATOM     20  O   UNL     1     106.842 103.469 228.288  1.00  0.00    -0.550 OA
ENDBRANCH  17  18
ENDBRANCH  16  17
ENDBRANCH  15  16
ENDBRANCH  14  15
ENDBRANCH  13  14
ENDBRANCH  12  13
ENDBRANCH  11  12
ENDBRANCH   1  11
TORSDOF 15
ENDMDL
MODEL 5
REMARK VINA RESULT:    -5.502      2.341      4.007
REMARK INTER + INTRA:         -12.256
REMARK INTER:                  -9.864
REMARK INTRA:                  -2.391
REMARK UNBOUND:                -1.930
REMARK SMILES O=C([O-])CCCCCCCCCCCCCCC(=O)[O-]
REMARK SMILES IDX 10 1 9 2 8 3 7 4 6 5 5 6 4 7 2 8 1 9 3 10 11 11 12 12 13 13
REMARK SMILES IDX 14 14 15 15 16 16 17 17 18 18 19 19 20 20
REMARK H PARENT
REMARK Flexibility Score: inf
ROOT
ATOM      1  C   UNL     1     103.518 105.141 227.204  1.00  0.00     0.000 C 
ENDROOT
BRANCH   1   2
ATOM      2  C   UNL     1     104.255 106.250 227.973  1.00  0.00     0.000 C 
BRANCH   2   3
ATOM      3  C   UNL     1     105.097 105.701 229.137  1.00  0.00     0.000 C 
BRANCH   3   4
ATOM      4  C   UNL     1     104.364 105.785 230.487  1.00  0.00     0.000 C 
BRANCH   4   5
ATOM      5  C   UNL     1     103.873 107.207 230.804  1.00  0.00     0.000 C 
BRANCH   5   6
ATOM      6  C   UNL     1     102.409 107.242 231.265  1.00  0.00     0.006 C 
BRANCH   6   7
ATOM      7  C   UNL     1     102.188 106.307 232.458  1.00  0.00     0.053 C 
BRANCH   7   8
ATOM      8  C   UNL     1     100.808 106.477 233.008  1.00  0.00     0.041 C 
ATOM      9  O   UNL     1     100.631 107.075 234.102  1.00  0.00    -0.550 OA
ATOM     10  O   UNL     1      99.720 105.929 232.340  1.00  0.00    -0.550 OA
ENDBRANCH   7   8
ENDBRANCH   6   7
ENDBRANCH   5   6
ENDBRANCH   4   5
ENDBRANCH   3   4
ENDBRANCH   2   3
ENDBRANCH   1   2
BRANCH   1  11
ATOM     11  C   UNL     1     101.989 105.216 227.369  1.00  0.00     0.000 C 
BRANCH  11  12
ATOM     12  C   UNL     1     101.347 104.026 228.111  1.00  0.00     0.000 C 
BRANCH  12  13
ATOM     13  C   UNL     1     100.969 104.293 229.579  1.00  0.00     0.000 C 
BRANCH  13  14
ATOM     14  C   UNL     1     101.483 103.203 230.535  1.00  0.00     0.000 C 
BRANCH  14  15
ATOM     15  C   UNL     1     102.757 102.517 230.019  1.00  0.00     0.000 C 
BRANCH  15  16
ATOM     16  C   UNL     1     103.736 102.154 231.144  1.00  0.00     0.006 C 
BRANCH  16  17
ATOM     17  C   UNL     1     105.043 101.594 230.574  1.00  0.00     0.053 C 
BRANCH  17  18
ATOM     18  C   UNL     1     106.210 102.052 231.391  1.00  0.00     0.041 C 
ATOM     19  O   UNL     1     107.296 101.414 231.359  1.00  0.00    -0.550 OA
ATOM     20  O   UNL     1     106.116 103.212 232.148  1.00  0.00    -0.550 OA
ENDBRANCH  17  18
ENDBRANCH  16  17
ENDBRANCH  15  16
ENDBRANCH  14  15
ENDBRANCH  13  14
ENDBRANCH  12  13
ENDBRANCH  11  12
ENDBRANCH   1  11
TORSDOF 15
ENDMDL
MODEL 6
REMARK VINA RESULT:    -5.467      1.283      5.821
REMARK INTER + INTRA:         -12.192
REMARK INTER:                  -9.874
REMARK INTRA:                  -2.317
REMARK UNBOUND:                -1.930
REMARK SMILES O=C([O-])CCCCCCCCCCCCCCC(=O)[O-]
REMARK SMILES IDX 10 1 9 2 8 3 7 4 6 5 5 6 4 7 2 8 1 9 3 10 11 11 12 12 13 13
REMARK SMILES IDX 14 14 15 15 16 16 17 17 18 18 19 19 20 20
REMARK H PARENT
REMARK Flexibility Score: inf
ROOT
ATOM      1  C   UNL     1     102.574 107.707 230.739  1.00  0.00     0.000 C 
ENDROOT
BRANCH   1   2
ATOM      2  C   UNL     1     102.172 107.028 232.060  1.00  0.00     0.000 C 
BRANCH   2   3
ATOM      3  C   UNL     1     103.057 105.815 232.392  1.00  0.00     0.000 C 
BRANCH   3   4
ATOM      4  C   UNL     1     103.808 105.979 233.725  1.00  0.00     0.000 C 
BRANCH   4   5
ATOM      5  C   UNL     1     105.335 105.988 233.544  1.00  0.00     0.000 C 
BRANCH   5   6
ATOM      6  C   UNL     1     105.805 105.062 232.412  1.00  0.00     0.006 C 
BRANCH   6   7
ATOM      7  C   UNL     1     107.240 104.585 232.655  1.00  0.00     0.053 C 
BRANCH   7   8
ATOM      8  C   UNL     1     107.952 104.386 231.355  1.00  0.00     0.041 C 
ATOM      9  O   UNL     1     109.185 104.628 231.265  1.00  0.00    -0.550 OA
ATOM     10  O   UNL     1     107.246 103.982 230.229  1.00  0.00    -0.550 OA
ENDBRANCH   7   8
ENDBRANCH   6   7
ENDBRANCH   5   6
ENDBRANCH   4   5
ENDBRANCH   3   4
ENDBRANCH   2   3
ENDBRANCH   1   2
BRANCH   1  11
ATOM     11  C   UNL     1     104.060 108.106 230.703  1.00  0.00     0.000 C 
BRANCH  11  12
ATOM     12  C   UNL     1     104.725 108.046 229.312  1.00  0.00     0.000 C 
BRANCH  12  13
ATOM     13  C   UNL     1     105.427 106.717 228.977  1.00  0.00     0.000 C 
BRANCH  13  14
ATOM     14  C   UNL     1     104.536 105.758 228.170  1.00  0.00     0.000 C 
BRANCH  14  15
ATOM     15  C   UNL     1     103.958 104.624 229.030  1.00  0.00     0.000 C 
BRANCH  15  16
ATOM     16  C   UNL     1     102.437 104.476 228.877  1.00  0.00     0.006 C 
BRANCH  16  17
ATOM     17  C   UNL     1     101.934 103.222 229.598  1.00  0.00     0.053 C 
BRANCH  17  18
ATOM     18  C   UNL     1     100.583 103.465 230.193  1.00  0.00     0.041 C 
ATOM     19  O   UNL     1     100.188 104.641 230.410  1.00  0.00    -0.550 OA
ATOM     20  O   UNL     1      99.739 102.395 230.461  1.00  0.00    -0.550 OA
ENDBRANCH  17  18
ENDBRANCH  16  17
ENDBRANCH  15  16
ENDBRANCH  14  15
ENDBRANCH  13  14
ENDBRANCH  12  13
ENDBRANCH  11  12
ENDBRANCH   1  11
TORSDOF 15
ENDMDL
MODEL 7
REMARK VINA RESULT:    -5.437      2.230      3.512
REMARK INTER + INTRA:         -12.134
REMARK INTER:                  -9.901
REMARK INTRA:                  -2.233
REMARK UNBOUND:                -1.930
REMARK SMILES O=C([O-])CCCCCCCCCCCCCCC(=O)[O-]
REMARK SMILES IDX 10 1 9 2 8 3 7 4 6 5 5 6 4 7 2 8 1 9 3 10 11 11 12 12 13 13
REMARK SMILES IDX 14 14 15 15 16 16 17 17 18 18 19 19 20 20
REMARK H PARENT
REMARK Flexibility Score: inf
ROOT
ATOM      1  C   UNL     1     104.461 104.985 227.836  1.00  0.00     0.000 C 
ENDROOT
BRANCH   1   2
ATOM      2  C   UNL     1     103.161 105.507 227.199  1.00  0.00     0.000 C 
BRANCH   2   3
ATOM      3  C   UNL     1     101.916 104.761 227.707  1.00  0.00     0.000 C 
BRANCH   3   4
ATOM      4  C   UNL     1     101.239 105.479 228.889  1.00  0.00     0.000 C 
BRANCH   4   5
ATOM      5  C   UNL     1     101.715 104.949 230.251  1.00  0.00     0.000 C 
BRANCH   5   6
ATOM      6  C   UNL     1     100.805 105.383 231.409  1.00  0.00     0.006 C 
BRANCH   6   7
ATOM      7  C   UNL     1     101.372 106.617 232.118  1.00  0.00     0.053 C 
BRANCH   7   8
ATOM      8  C   UNL     1     101.232 106.480 233.601  1.00  0.00     0.041 C 
ATOM      9  O   UNL     1     100.238 106.978 234.192  1.00  0.00    -0.550 OA
ATOM     10  O   UNL     1     102.225 105.846 234.337  1.00  0.00    -0.550 OA
ENDBRANCH   7   8
ENDBRANCH   6   7
ENDBRANCH   5   6
ENDBRANCH   4   5
ENDBRANCH   3   4
ENDBRANCH   2   3
ENDBRANCH   1   2
BRANCH   1  11
ATOM     11  C   UNL     1     105.343 106.114 228.399  1.00  0.00     0.000 C 
BRANCH  11  12
ATOM     12  C   UNL     1     104.638 107.475 228.578  1.00  0.00     0.000 C 
BRANCH  12  13
ATOM     13  C   UNL     1     104.103 107.758 229.993  1.00  0.00     0.000 C 
BRANCH  13  14
ATOM     14  C   UNL     1     105.192 107.650 231.075  1.00  0.00     0.000 C 
BRANCH  14  15
ATOM     15  C   UNL     1     104.914 106.522 232.082  1.00  0.00     0.000 C 
BRANCH  15  16
ATOM     16  C   UNL     1     105.862 105.326 231.912  1.00  0.00     0.006 C 
BRANCH  16  17
ATOM     17  C   UNL     1     105.096 104.080 231.460  1.00  0.00     0.053 C 
BRANCH  17  18
ATOM     18  C   UNL     1     105.850 102.839 231.824  1.00  0.00     0.041 C 
ATOM     19  O   UNL     1     106.778 102.887 232.673  1.00  0.00    -0.550 OA
ATOM     20  O   UNL     1     105.495 101.620 231.261  1.00  0.00    -0.550 OA
ENDBRANCH  17  18
ENDBRANCH  16  17
ENDBRANCH  15  16
ENDBRANCH  14  15
ENDBRANCH  13  14
ENDBRANCH  12  13
ENDBRANCH  11  12
ENDBRANCH   1  11
TORSDOF 15
ENDMDL
MODEL 8
REMARK VINA RESULT:    -5.397      1.987      3.713
REMARK INTER + INTRA:         -12.059
REMARK INTER:                  -9.810
REMARK INTRA:                  -2.249
REMARK UNBOUND:                -1.930
REMARK SMILES O=C([O-])CCCCCCCCCCCCCCC(=O)[O-]
REMARK SMILES IDX 10 1 9 2 8 3 7 4 6 5 5 6 4 7 2 8 1 9 3 10 11 11 12 12 13 13
REMARK SMILES IDX 14 14 15 15 16 16 17 17 18 18 19 19 20 20
REMARK H PARENT
REMARK Flexibility Score: inf
ROOT
ATOM      1  C   UNL     1     104.926 107.844 231.440  1.00  0.00     0.000 C 
ENDROOT
BRANCH   1   2
ATOM      2  C   UNL     1     104.986 106.643 232.400  1.00  0.00     0.000 C 
BRANCH   2   3
ATOM      3  C   UNL     1     103.634 105.920 232.525  1.00  0.00     0.000 C 
BRANCH   3   4
ATOM      4  C   UNL     1     102.490 106.687 231.839  1.00  0.00     0.000 C 
BRANCH   4   5
ATOM      5  C   UNL     1     101.127 105.997 232.018  1.00  0.00     0.000 C 
BRANCH   5   6
ATOM      6  C   UNL     1     100.721 105.159 230.797  1.00  0.00     0.006 C 
BRANCH   6   7
ATOM      7  C   UNL     1     101.107 105.866 229.495  1.00  0.00     0.053 C 
BRANCH   7   8
ATOM      8  C   UNL     1     101.177 104.885 228.367  1.00  0.00     0.041 C 
ATOM      9  O   UNL     1     101.282 103.653 228.604  1.00  0.00    -0.550 OA
ATOM     10  O   UNL     1     101.180 105.336 227.053  1.00  0.00    -0.550 OA
ENDBRANCH   7   8
ENDBRANCH   6   7
ENDBRANCH   5   6
ENDBRANCH   4   5
ENDBRANCH   3   4
ENDBRANCH   2   3
ENDBRANCH   1   2
BRANCH   1  11
ATOM     11  C   UNL     1     105.653 107.580 230.110  1.00  0.00     0.000 C 
BRANCH  11  12
ATOM     12  C   UNL     1     104.764 107.634 228.850  1.00  0.00     0.000 C 
BRANCH  12  13
ATOM     13  C   UNL     1     104.597 106.297 228.106  1.00  0.00     0.000 C 
BRANCH  13  14
ATOM     14  C   UNL     1     104.926 105.079 228.985  1.00  0.00     0.000 C 
BRANCH  14  15
ATOM     15  C   UNL     1     106.098 104.252 228.434  1.00  0.00     0.000 C 
BRANCH  15  16
ATOM     16  C   UNL     1     106.687 103.287 229.474  1.00  0.00     0.006 C 
BRANCH  16  17
ATOM     17  C   UNL     1     107.055 104.028 230.762  1.00  0.00     0.053 C 
BRANCH  17  18
ATOM     18  C   UNL     1     106.704 103.203 231.961  1.00  0.00     0.041 C 
ATOM     19  O   UNL     1     106.270 102.030 231.818  1.00  0.00    -0.550 OA
ATOM     20  O   UNL     1     106.904 103.713 233.237  1.00  0.00    -0.550 OA
ENDBRANCH  17  18
ENDBRANCH  16  17
ENDBRANCH  15  16
ENDBRANCH  14  15
ENDBRANCH  13  14
ENDBRANCH  12  13
ENDBRANCH  11  12
ENDBRANCH   1  11
TORSDOF 15
ENDMDL
MODEL 9
REMARK VINA RESULT:    -5.372      2.392      5.054
REMARK INTER + INTRA:         -12.013
REMARK INTER:                  -9.501
REMARK INTRA:                  -2.512
REMARK UNBOUND:                -1.930
REMARK SMILES O=C([O-])CCCCCCCCCCCCCCC(=O)[O-]
REMARK SMILES IDX 10 1 9 2 8 3 7 4 6 5 5 6 4 7 2 8 1 9 3 10 11 11 12 12 13 13
REMARK SMILES IDX 14 14 15 15 16 16 17 17 18 18 19 19 20 20
REMARK H PARENT
REMARK Flexibility Score: inf
ROOT
ATOM      1  C   UNL     1     101.523 104.984 229.221  1.00  0.00     0.000 C 
ENDROOT
BRANCH   1   2
ATOM      2  C   UNL     1     101.027 103.696 229.900  1.00  0.00     0.000 C 
BRANCH   2   3
ATOM      3  C   UNL     1     102.138 102.642 230.047  1.00  0.00     0.000 C 
BRANCH   3   4
ATOM      4  C   UNL     1     103.326 103.151 230.884  1.00  0.00     0.000 C 
BRANCH   4   5
ATOM      5  C   UNL     1     104.605 102.330 230.650  1.00  0.00     0.000 C 
BRANCH   5   6
ATOM      6  C   UNL     1     105.728 102.687 231.634  1.00  0.00     0.006 C 
BRANCH   6   7
ATOM      7  C   UNL     1     107.068 102.110 231.168  1.00  0.00     0.053 C 
BRANCH   7   8
ATOM      8  C   UNL     1     107.890 103.167 230.501  1.00  0.00     0.041 C 
ATOM      9  O   UNL     1     108.229 103.038 229.295  1.00  0.00    -0.550 OA
ATOM     10  O   UNL     1     108.327 104.269 231.225  1.00  0.00    -0.550 OA
ENDBRANCH   7   8
ENDBRANCH   6   7
ENDBRANCH   5   6
ENDBRANCH   4   5
ENDBRANCH   3   4
ENDBRANCH   2   3
ENDBRANCH   1   2
BRANCH   1  11
ATOM     11  C   UNL     1     101.943 104.762 227.756  1.00  0.00     0.000 C 
BRANCH  11  12
ATOM     12  C   UNL     1     103.151 105.596 227.283  1.00  0.00     0.000 C 
BRANCH  12  13
ATOM     13  C   UNL     1     104.480 104.826 227.175  1.00  0.00     0.000 C 
BRANCH  13  14
ATOM     14  C   UNL     1     105.410 105.069 228.375  1.00  0.00     0.000 C 
BRANCH  14  15
ATOM     15  C   UNL     1     105.029 106.326 229.173  1.00  0.00     0.000 C 
BRANCH  15  16
ATOM     16  C   UNL     1     105.434 106.239 230.651  1.00  0.00     0.006 C 
BRANCH  16  17
ATOM     17  C   UNL     1     104.308 106.741 231.559  1.00  0.00     0.053 C 
BRANCH  17  18
ATOM     18  C   UNL     1     104.476 106.211 232.948  1.00  0.00     0.041 C 
ATOM     19  O   UNL     1     103.471 106.035 233.686  1.00  0.00    -0.550 OA
ATOM     20  O   UNL     1     105.739 105.862 233.410  1.00  0.00    -0.550 OA
ENDBRANCH  17  18
ENDBRANCH  16  17
ENDBRANCH  15  16
ENDBRANCH  14  15
ENDBRANCH  13  14
ENDBRANCH  12  13
ENDBRANCH  11  12
ENDBRANCH   1  11
TORSDOF 15
ENDMDL
