MODEL 1
REMARK VINA RESULT:     6.591      0.000      0.000
REMARK INTER + INTRA:          10.961
REMARK INTER:                  11.985
REMARK INTRA:                  -1.024
REMARK UNBOUND:                -1.024
REMARK SMILES CCCCCCCCCCCCCC[C@H](C)C(=O)[O-]
REMARK SMILES IDX 9 1 10 2 11 3 12 4 13 5 14 6 15 7 16 8 17 9 18 10 19 11 8 12
REMARK SMILES IDX 7 13 6 14 5 15 4 16 3 17 2 18 1 19
REMARK H PARENT
REMARK Flexibility Score: inf
ROOT
ATOM      1  C   UNL     1      15.650  14.066 -12.916  1.00  0.00     0.000 C 
ENDROOT
BRANCH   1   2
ATOM      2  C   UNL     1      16.402  15.378 -13.194  1.00  0.00     0.000 C 
BRANCH   2   3
ATOM      3  C   UNL     1      17.918  15.168 -13.357  1.00  0.00     0.000 C 
BRANCH   3   4
ATOM      4  C   UNL     1      18.742  16.258 -12.649  1.00  0.00     0.000 C 
BRANCH   4   5
ATOM      5  C   UNL     1      17.889  17.478 -12.261  1.00  0.00     0.001 C 
BRANCH   5   6
ATOM      6  C   UNL     1      18.662  18.522 -11.432  1.00  0.00     0.009 C 
BRANCH   6   7
ATOM      7  C   UNL     1      18.479  19.979 -11.924  1.00  0.00     0.032 C 
ATOM      8  C   UNL     1      17.615  20.017 -13.190  1.00  0.00     0.014 C 
BRANCH   7   9
ATOM      9  C   UNL     1      19.795  20.653 -12.203  1.00  0.00     0.044 C 
ATOM     10  O   UNL     1      20.857  19.979 -12.284  1.00  0.00    -0.550 OA
ATOM     11  O   UNL     1      19.839  22.026 -12.413  1.00  0.00    -0.550 OA
ENDBRANCH   7   9
ENDBRANCH   6   7
ENDBRANCH   5   6
ENDBRANCH   4   5
ENDBRANCH   3   4
ENDBRANCH   2   3
ENDBRANCH   1   2
BRANCH   1  12
ATOM     12  C   UNL     1      14.852  14.107 -11.602  1.00  0.00     0.000 C 
BRANCH  12  13
ATOM     13  C   UNL     1      15.296  15.253 -10.678  1.00  0.00    -0.000 C 
BRANCH  13  14
ATOM     14  C   UNL     1      14.516  15.285  -9.354  1.00  0.00    -0.000 C 
BRANCH  14  15
ATOM     15  C   UNL     1      15.321  16.006  -8.262  1.00  0.00    -0.000 C 
BRANCH  15  16
ATOM     16  C   UNL     1      14.530  16.182  -6.953  1.00  0.00    -0.000 C 
BRANCH  16  17
ATOM     17  C   UNL     1      14.278  17.645  -6.533  1.00  0.00    -0.000 C 
BRANCH  17  18
ATOM     18  C   UNL     1      12.935  17.896  -5.826  1.00  0.00    -0.003 C 
ATOM     19  C   UNL     1      12.100  16.627  -5.669  1.00  0.00     0.004 C 
ENDBRANCH  17  18
ENDBRANCH  16  17
ENDBRANCH  15  16
ENDBRANCH  14  15
ENDBRANCH  13  14
ENDBRANCH  12  13
ENDBRANCH   1  12
TORSDOF 14
ENDMDL
MODEL 2
REMARK VINA RESULT:     6.709      7.815     12.824
REMARK INTER + INTRA:          11.176
REMARK INTER:                  11.987
REMARK INTRA:                  -0.812
REMARK UNBOUND:                -1.024
REMARK SMILES CCCCCCCCCCCCCC[C@H](C)C(=O)[O-]
REMARK SMILES IDX 9 1 10 2 11 3 12 4 13 5 14 6 15 7 16 8 17 9 18 10 19 11 8 12
REMARK SMILES IDX 7 13 6 14 5 15 4 16 3 17 2 18 1 19
REMARK H PARENT
REMARK Flexibility Score: inf
ROOT
ATOM      1  C   UNL     1      10.578  14.438  -2.309  1.00  0.00     0.000 C 
ENDROOT
BRANCH   1   2
ATOM      2  C   UNL     1      10.572  13.664  -0.981  1.00  0.00     0.000 C 
BRANCH   2   3
ATOM      3  C   UNL     1      11.986  13.260  -0.525  1.00  0.00     0.000 C 
BRANCH   3   4
ATOM      4  C   UNL     1      12.138  13.288   1.006  1.00  0.00     0.000 C 
BRANCH   4   5
ATOM      5  C   UNL     1      10.832  13.676   1.719  1.00  0.00     0.001 C 
BRANCH   5   6
ATOM      6  C   UNL     1      10.629  15.199   1.832  1.00  0.00     0.009 C 
BRANCH   6   7
ATOM      7  C   UNL     1       9.168  15.621   2.125  1.00  0.00     0.032 C 
ATOM      8  C   UNL     1       8.205  14.463   1.840  1.00  0.00     0.014 C 
BRANCH   7   9
ATOM      9  C   UNL     1       8.752  16.821   1.319  1.00  0.00     0.044 C 
ATOM     10  O   UNL     1       7.629  17.361   1.504  1.00  0.00    -0.550 OA
ATOM     11  O   UNL     1       9.628  17.366   0.387  1.00  0.00    -0.550 OA
ENDBRANCH   7   9
ENDBRANCH   6   7
ENDBRANCH   5   6
ENDBRANCH   4   5
ENDBRANCH   3   4
ENDBRANCH   2   3
ENDBRANCH   1   2
BRANCH   1  12
ATOM     12  C   UNL     1      10.661  13.512  -3.534  1.00  0.00     0.000 C 
BRANCH  12  13
ATOM     13  C   UNL     1      10.847  14.287  -4.849  1.00  0.00    -0.000 C 
BRANCH  13  14
ATOM     14  C   UNL     1      11.536  15.646  -4.646  1.00  0.00    -0.000 C 
BRANCH  14  15
ATOM     15  C   UNL     1      11.709  16.378  -5.986  1.00  0.00    -0.000 C 
BRANCH  15  16
ATOM     16  C   UNL     1      12.729  17.528  -5.912  1.00  0.00    -0.000 C 
BRANCH  16  17
ATOM     17  C   UNL     1      14.194  17.121  -6.176  1.00  0.00    -0.000 C 
BRANCH  17  18
ATOM     18  C   UNL     1      14.440  16.417  -7.521  1.00  0.00    -0.003 C 
ATOM     19  C   UNL     1      15.382  15.220  -7.402  1.00  0.00     0.004 C 
ENDBRANCH  17  18
ENDBRANCH  16  17
ENDBRANCH  15  16
ENDBRANCH  14  15
ENDBRANCH  13  14
ENDBRANCH  12  13
ENDBRANCH   1  12
TORSDOF 14
ENDMDL
MODEL 3
REMARK VINA RESULT:     7.756      7.401     12.296
REMARK INTER + INTRA:          13.080
REMARK INTER:                  13.635
REMARK INTRA:                  -0.555
REMARK UNBOUND:                -1.024
REMARK SMILES CCCCCCCCCCCCCC[C@H](C)C(=O)[O-]
REMARK SMILES IDX 9 1 10 2 11 3 12 4 13 5 14 6 15 7 16 8 17 9 18 10 19 11 8 12
REMARK SMILES IDX 7 13 6 14 5 15 4 16 3 17 2 18 1 19
REMARK H PARENT
REMARK Flexibility Score: inf
ROOT
ATOM      1  C   UNL     1      10.922  14.830  -3.337  1.00  0.00     0.000 C 
ENDROOT
BRANCH   1   2
ATOM      2  C   UNL     1      11.200  13.527  -2.571  1.00  0.00     0.000 C 
BRANCH   2   3
ATOM      3  C   UNL     1      10.868  13.640  -1.071  1.00  0.00     0.000 C 
BRANCH   3   4
ATOM      4  C   UNL     1      12.045  13.212  -0.177  1.00  0.00     0.000 C 
BRANCH   4   5
ATOM      5  C   UNL     1      11.647  13.105   1.305  1.00  0.00     0.001 C 
BRANCH   5   6
ATOM      6  C   UNL     1      11.588  14.469   2.019  1.00  0.00     0.009 C 
BRANCH   6   7
ATOM      7  C   UNL     1      10.163  15.065   2.125  1.00  0.00     0.032 C 
ATOM      8  C   UNL     1       9.126  14.088   1.556  1.00  0.00     0.014 C 
BRANCH   7   9
ATOM      9  C   UNL     1      10.044  16.383   1.410  1.00  0.00     0.044 C 
ATOM     10  O   UNL     1      10.970  16.790   0.657  1.00  0.00    -0.550 OA
ATOM     11  O   UNL     1       8.890  17.144   1.547  1.00  0.00    -0.550 OA
ENDBRANCH   7   9
ENDBRANCH   6   7
ENDBRANCH   5   6
ENDBRANCH   4   5
ENDBRANCH   3   4
ENDBRANCH   2   3
ENDBRANCH   1   2
BRANCH   1  12
ATOM     12  C   UNL     1      10.748  14.603  -4.849  1.00  0.00     0.000 C 
BRANCH  12  13
ATOM     13  C   UNL     1      11.112  15.845  -5.678  1.00  0.00    -0.000 C 
BRANCH  13  14
ATOM     14  C   UNL     1      12.328  16.599  -5.117  1.00  0.00    -0.000 C 
BRANCH  14  15
ATOM     15  C   UNL     1      12.904  17.564  -6.166  1.00  0.00    -0.000 C 
BRANCH  15  16
ATOM     16  C   UNL     1      14.418  17.384  -6.375  1.00  0.00    -0.000 C 
BRANCH  16  17
ATOM     17  C   UNL     1      14.840  16.020  -6.959  1.00  0.00    -0.000 C 
BRANCH  17  18
ATOM     18  C   UNL     1      15.370  16.066  -8.402  1.00  0.00    -0.003 C 
ATOM     19  C   UNL     1      14.415  15.425  -9.408  1.00  0.00     0.004 C 
ENDBRANCH  17  18
ENDBRANCH  16  17
ENDBRANCH  15  16
ENDBRANCH  14  15
ENDBRANCH  13  14
ENDBRANCH  12  13
ENDBRANCH   1  12
TORSDOF 14
ENDMDL
MODEL 4
REMARK VINA RESULT:     7.910      3.863      7.330
REMARK INTER + INTRA:          13.360
REMARK INTER:                  14.413
REMARK INTRA:                  -1.053
REMARK UNBOUND:                -1.024
REMARK SMILES CCCCCCCCCCCCCC[C@H](C)C(=O)[O-]
REMARK SMILES IDX 9 1 10 2 11 3 12 4 13 5 14 6 15 7 16 8 17 9 18 10 19 11 8 12
REMARK SMILES IDX 7 13 6 14 5 15 4 16 3 17 2 18 1 19
REMARK H PARENT
REMARK Flexibility Score: inf
ROOT
ATOM      1  C   UNL     1      15.843  15.099 -12.726  1.00  0.00     0.000 C 
ENDROOT
BRANCH   1   2
ATOM      2  C   UNL     1      15.436  14.473 -11.383  1.00  0.00     0.000 C 
BRANCH   2   3
ATOM      3  C   UNL     1      14.665  15.454 -10.482  1.00  0.00     0.000 C 
BRANCH   3   4
ATOM      4  C   UNL     1      15.455  15.833  -9.217  1.00  0.00     0.000 C 
BRANCH   4   5
ATOM      5  C   UNL     1      14.848  15.226  -7.941  1.00  0.00     0.001 C 
BRANCH   5   6
ATOM      6  C   UNL     1      14.831  16.204  -6.750  1.00  0.00     0.009 C 
BRANCH   6   7
ATOM      7  C   UNL     1      13.693  17.253  -6.811  1.00  0.00     0.032 C 
ATOM      8  C   UNL     1      14.232  18.652  -6.489  1.00  0.00     0.014 C 
BRANCH   7   9
ATOM      9  C   UNL     1      12.569  16.925  -5.867  1.00  0.00     0.044 C 
ATOM     10  O   UNL     1      11.433  16.606  -6.308  1.00  0.00    -0.550 OA
ATOM     11  O   UNL     1      12.793  16.934  -4.495  1.00  0.00    -0.550 OA
ENDBRANCH   7   9
ENDBRANCH   6   7
ENDBRANCH   5   6
ENDBRANCH   4   5
ENDBRANCH   3   4
ENDBRANCH   2   3
ENDBRANCH   1   2
BRANCH   1  12
ATOM     12  C   UNL     1      17.168  14.534 -13.266  1.00  0.00     0.000 C 
BRANCH  12  13
ATOM     13  C   UNL     1      18.304  15.570 -13.246  1.00  0.00    -0.000 C 
BRANCH  13  14
ATOM     14  C   UNL     1      17.824  16.971 -12.839  1.00  0.00    -0.000 C 
BRANCH  14  15
ATOM     15  C   UNL     1      18.638  17.504 -11.649  1.00  0.00    -0.000 C 
BRANCH  15  16
ATOM     16  C   UNL     1      18.325  18.975 -11.321  1.00  0.00    -0.000 C 
BRANCH  16  17
ATOM     17  C   UNL     1      18.368  19.937 -12.527  1.00  0.00    -0.000 C 
BRANCH  17  18
ATOM     18  C   UNL     1      19.269  21.171 -12.342  1.00  0.00    -0.003 C 
ATOM     19  C   UNL     1      20.752  20.815 -12.246  1.00  0.00     0.004 C 
ENDBRANCH  17  18
ENDBRANCH  16  17
ENDBRANCH  15  16
ENDBRANCH  14  15
ENDBRANCH  13  14
ENDBRANCH  12  13
ENDBRANCH   1  12
TORSDOF 14
ENDMDL
MODEL 5
REMARK VINA RESULT:     8.041      6.049     10.182
REMARK INTER + INTRA:          13.598
REMARK INTER:                  13.440
REMARK INTRA:                   0.157
REMARK UNBOUND:                -1.024
REMARK SMILES CCCCCCCCCCCCCC[C@H](C)C(=O)[O-]
REMARK SMILES IDX 9 1 10 2 11 3 12 4 13 5 14 6 15 7 16 8 17 9 18 10 19 11 8 12
REMARK SMILES IDX 7 13 6 14 5 15 4 16 3 17 2 18 1 19
REMARK H PARENT
REMARK Flexibility Score: inf
ROOT
ATOM      1  C   UNL     1      11.076  14.137  -1.274  1.00  0.00     0.000 C 
ENDROOT
BRANCH   1   2
ATOM      2  C   UNL     1      10.369  13.643  -2.546  1.00  0.00     0.000 C 
BRANCH   2   3
ATOM      3  C   UNL     1      11.197  13.896  -3.819  1.00  0.00     0.000 C 
BRANCH   3   4
ATOM      4  C   UNL     1      10.898  15.267  -4.451  1.00  0.00     0.000 C 
BRANCH   4   5
ATOM      5  C   UNL     1      11.813  15.574  -5.648  1.00  0.00     0.001 C 
BRANCH   5   6
ATOM      6  C   UNL     1      12.386  17.004  -5.626  1.00  0.00     0.009 C 
BRANCH   6   7
ATOM      7  C   UNL     1      13.855  17.104  -6.105  1.00  0.00     0.032 C 
ATOM      8  C   UNL     1      14.204  18.549  -6.480  1.00  0.00     0.014 C 
BRANCH   7   9
ATOM      9  C   UNL     1      14.128  16.208  -7.282  1.00  0.00     0.044 C 
ATOM     10  O   UNL     1      13.321  16.152  -8.248  1.00  0.00    -0.550 OA
ATOM     11  O   UNL     1      15.301  15.463  -7.328  1.00  0.00    -0.550 OA
ENDBRANCH   7   9
ENDBRANCH   6   7
ENDBRANCH   5   6
ENDBRANCH   4   5
ENDBRANCH   3   4
ENDBRANCH   2   3
ENDBRANCH   1   2
BRANCH   1  12
ATOM     12  C   UNL     1      12.257  13.240  -0.867  1.00  0.00     0.000 C 
BRANCH  12  13
ATOM     13  C   UNL     1      12.303  12.974   0.647  1.00  0.00    -0.000 C 
BRANCH  13  14
ATOM     14  C   UNL     1      11.571  14.052   1.462  1.00  0.00    -0.000 C 
BRANCH  14  15
ATOM     15  C   UNL     1      10.211  13.534   1.958  1.00  0.00    -0.000 C 
BRANCH  15  16
ATOM     16  C   UNL     1       9.034  14.416   1.503  1.00  0.00    -0.000 C 
BRANCH  16  17
ATOM     17  C   UNL     1       8.996  15.827   2.125  1.00  0.00    -0.000 C 
BRANCH  17  18
ATOM     18  C   UNL     1       9.781  16.900   1.350  1.00  0.00    -0.003 C 
ATOM     19  C   UNL     1      11.263  16.934   1.718  1.00  0.00     0.004 C 
ENDBRANCH  17  18
ENDBRANCH  16  17
ENDBRANCH  15  16
ENDBRANCH  14  15
ENDBRANCH  13  14
ENDBRANCH  12  13
ENDBRANCH   1  12
TORSDOF 14
ENDMDL
MODEL 6
REMARK VINA RESULT:     8.105      3.261      6.871
REMARK INTER + INTRA:          13.714
REMARK INTER:                  14.860
REMARK INTRA:                  -1.147
REMARK UNBOUND:                -1.024
REMARK SMILES CCCCCCCCCCCCCC[C@H](C)C(=O)[O-]
REMARK SMILES IDX 9 1 10 2 11 3 12 4 13 5 14 6 15 7 16 8 17 9 18 10 19 11 8 12
REMARK SMILES IDX 7 13 6 14 5 15 4 16 3 17 2 18 1 19
REMARK H PARENT
REMARK Flexibility Score: inf
ROOT
ATOM      1  C   UNL     1      17.350  14.030 -13.236  1.00  0.00     0.000 C 
ENDROOT
BRANCH   1   2
ATOM      2  C   UNL     1      15.928  14.488 -12.872  1.00  0.00     0.000 C 
BRANCH   2   3
ATOM      3  C   UNL     1      15.082  13.359 -12.258  1.00  0.00     0.000 C 
BRANCH   3   4
ATOM      4  C   UNL     1      14.688  13.649 -10.798  1.00  0.00     0.000 C 
BRANCH   4   5
ATOM      5  C   UNL     1      14.861  15.131 -10.427  1.00  0.00     0.001 C 
BRANCH   5   6
ATOM      6  C   UNL     1      14.040  15.549  -9.191  1.00  0.00     0.009 C 
BRANCH   6   7
ATOM      7  C   UNL     1      14.898  16.062  -8.009  1.00  0.00     0.032 C 
ATOM      8  C   UNL     1      15.688  14.910  -7.376  1.00  0.00     0.014 C 
BRANCH   7   9
ATOM      9  C   UNL     1      14.062  16.729  -6.950  1.00  0.00     0.044 C 
ATOM     10  O   UNL     1      12.903  16.310  -6.689  1.00  0.00    -0.550 OA
ATOM     11  O   UNL     1      14.585  17.792  -6.224  1.00  0.00    -0.550 OA
ENDBRANCH   7   9
ENDBRANCH   6   7
ENDBRANCH   5   6
ENDBRANCH   4   5
ENDBRANCH   3   4
ENDBRANCH   2   3
ENDBRANCH   1   2
BRANCH   1  12
ATOM     12  C   UNL     1      18.338  15.203 -13.359  1.00  0.00     0.000 C 
BRANCH  12  13
ATOM     13  C   UNL     1      17.735  16.534 -12.882  1.00  0.00    -0.000 C 
BRANCH  13  14
ATOM     14  C   UNL     1      18.804  17.546 -12.441  1.00  0.00    -0.000 C 
BRANCH  14  15
ATOM     15  C   UNL     1      18.457  18.146 -11.069  1.00  0.00    -0.000 C 
BRANCH  15  16
ATOM     16  C   UNL     1      18.116  19.644 -11.140  1.00  0.00    -0.000 C 
BRANCH  16  17
ATOM     17  C   UNL     1      18.464  20.332 -12.477  1.00  0.00    -0.000 C 
BRANCH  17  18
ATOM     18  C   UNL     1      19.566  21.403 -12.389  1.00  0.00    -0.003 C 
ATOM     19  C   UNL     1      20.967  20.806 -12.272  1.00  0.00     0.004 C 
ENDBRANCH  17  18
ENDBRANCH  16  17
ENDBRANCH  15  16
ENDBRANCH  14  15
ENDBRANCH  13  14
ENDBRANCH  12  13
ENDBRANCH   1  12
TORSDOF 14
ENDMDL
MODEL 7
REMARK VINA RESULT:     8.872      6.402     10.652
REMARK INTER + INTRA:          15.109
REMARK INTER:                  14.963
REMARK INTRA:                   0.145
REMARK UNBOUND:                -1.024
REMARK SMILES CCCCCCCCCCCCCC[C@H](C)C(=O)[O-]
REMARK SMILES IDX 9 1 10 2 11 3 12 4 13 5 14 6 15 7 16 8 17 9 18 10 19 11 8 12
REMARK SMILES IDX 7 13 6 14 5 15 4 16 3 17 2 18 1 19
REMARK H PARENT
REMARK Flexibility Score: inf
ROOT
ATOM      1  C   UNL     1      11.688  14.017  -1.185  1.00  0.00     0.000 C 
ENDROOT
BRANCH   1   2
ATOM      2  C   UNL     1      10.509  14.155  -2.163  1.00  0.00     0.000 C 
BRANCH   2   3
ATOM      3  C   UNL     1      10.568  13.129  -3.309  1.00  0.00     0.000 C 
BRANCH   3   4
ATOM      4  C   UNL     1      10.970  13.769  -4.650  1.00  0.00     0.000 C 
BRANCH   4   5
ATOM      5  C   UNL     1      11.291  15.267  -4.512  1.00  0.00     0.001 C 
BRANCH   5   6
ATOM      6  C   UNL     1      11.904  15.877  -5.787  1.00  0.00     0.009 C 
BRANCH   6   7
ATOM      7  C   UNL     1      12.737  17.158  -5.535  1.00  0.00     0.032 C 
ATOM      8  C   UNL     1      11.889  18.411  -5.785  1.00  0.00     0.014 C 
BRANCH   7   9
ATOM      9  C   UNL     1      13.967  17.213  -6.400  1.00  0.00     0.044 C 
ATOM     10  O   UNL     1      14.318  16.213  -7.082  1.00  0.00    -0.550 OA
ATOM     11  O   UNL     1      14.705  18.388  -6.480  1.00  0.00    -0.550 OA
ENDBRANCH   7   9
ENDBRANCH   6   7
ENDBRANCH   5   6
ENDBRANCH   4   5
ENDBRANCH   3   4
ENDBRANCH   2   3
ENDBRANCH   1   2
BRANCH   1  12
ATOM     12  C   UNL     1      11.313  13.239   0.088  1.00  0.00     0.000 C 
BRANCH  12  13
ATOM     13  C   UNL     1      11.347  14.118   1.348  1.00  0.00    -0.000 C 
BRANCH  13  14
ATOM     14  C   UNL     1      11.779  15.563   1.054  1.00  0.00    -0.000 C 
BRANCH  14  15
ATOM     15  C   UNL     1      11.204  16.530   2.101  1.00  0.00    -0.000 C 
BRANCH  15  16
ATOM     16  C   UNL     1       9.666  16.564   2.103  1.00  0.00    -0.000 C 
BRANCH  16  17
ATOM     17  C   UNL     1       8.980  15.211   1.822  1.00  0.00    -0.000 C 
BRANCH  17  18
ATOM     18  C   UNL     1       7.448  15.271   1.702  1.00  0.00    -0.003 C 
ATOM     19  C   UNL     1       6.767  13.970   2.125  1.00  0.00     0.004 C 
ENDBRANCH  17  18
ENDBRANCH  16  17
ENDBRANCH  15  16
ENDBRANCH  14  15
ENDBRANCH  13  14
ENDBRANCH  12  13
ENDBRANCH   1  12
TORSDOF 14
ENDMDL
MODEL 8
REMARK VINA RESULT:     9.344      4.461      7.292
REMARK INTER + INTRA:          15.967
REMARK INTER:                  16.593
REMARK INTRA:                  -0.626
REMARK UNBOUND:                -1.024
REMARK SMILES CCCCCCCCCCCCCC[C@H](C)C(=O)[O-]
REMARK SMILES IDX 9 1 10 2 11 3 12 4 13 5 14 6 15 7 16 8 17 9 18 10 19 11 8 12
REMARK SMILES IDX 7 13 6 14 5 15 4 16 3 17 2 18 1 19
REMARK H PARENT
REMARK Flexibility Score: inf
ROOT
ATOM      1  C   UNL     1      19.391  19.617 -12.124  1.00  0.00     0.000 C 
ENDROOT
BRANCH   1   2
ATOM      2  C   UNL     1      19.604  21.136 -12.224  1.00  0.00     0.000 C 
BRANCH   2   3
ATOM      3  C   UNL     1      18.562  21.821 -13.127  1.00  0.00     0.000 C 
BRANCH   3   4
ATOM      4  C   UNL     1      18.721  23.351 -13.149  1.00  0.00     0.000 C 
BRANCH   4   5
ATOM      5  C   UNL     1      17.782  24.025 -14.165  1.00  0.00     0.001 C 
BRANCH   5   6
ATOM      6  C   UNL     1      18.227  25.448 -14.554  1.00  0.00     0.009 C 
BRANCH   6   7
ATOM      7  C   UNL     1      18.859  25.548 -15.964  1.00  0.00     0.032 C 
ATOM      8  C   UNL     1      20.348  25.182 -15.914  1.00  0.00     0.014 C 
BRANCH   7   9
ATOM      9  C   UNL     1      18.707  26.922 -16.557  1.00  0.00     0.044 C 
ATOM     10  O   UNL     1      19.444  27.295 -17.509  1.00  0.00    -0.550 OA
ATOM     11  O   UNL     1      17.719  27.776 -16.082  1.00  0.00    -0.550 OA
ENDBRANCH   7   9
ENDBRANCH   6   7
ENDBRANCH   5   6
ENDBRANCH   4   5
ENDBRANCH   3   4
ENDBRANCH   2   3
ENDBRANCH   1   2
BRANCH   1  12
ATOM     12  C   UNL     1      18.230  19.242 -11.187  1.00  0.00     0.000 C 
BRANCH  12  13
ATOM     13  C   UNL     1      18.244  17.755 -10.796  1.00  0.00    -0.000 C 
BRANCH  13  14
ATOM     14  C   UNL     1      18.840  16.857 -11.891  1.00  0.00    -0.000 C 
BRANCH  14  15
ATOM     15  C   UNL     1      17.856  16.693 -13.060  1.00  0.00    -0.000 C 
BRANCH  15  16
ATOM     16  C   UNL     1      16.736  15.680 -12.761  1.00  0.00    -0.000 C 
BRANCH  16  17
ATOM     17  C   UNL     1      17.023  14.235 -13.217  1.00  0.00    -0.000 C 
BRANCH  17  18
ATOM     18  C   UNL     1      18.418  14.009 -13.824  1.00  0.00    -0.003 C 
ATOM     19  C   UNL     1      19.359  13.253 -12.888  1.00  0.00     0.004 C 
ENDBRANCH  17  18
ENDBRANCH  16  17
ENDBRANCH  15  16
ENDBRANCH  14  15
ENDBRANCH  13  14
ENDBRANCH  12  13
ENDBRANCH   1  12
TORSDOF 14
ENDMDL
