MODEL 1
REMARK VINA RESULT:    -4.814      0.000      0.000
REMARK INTER + INTRA:         -14.309
REMARK INTER:                 -10.444
REMARK INTRA:                  -3.865
REMARK UNBOUND:                -3.865
REMARK SMILES CCCCCCCCCCCCCCCCCCCCCC(=O)[O-]
REMARK SMILES IDX 12 1 11 2 10 3 9 4 8 5 7 6 6 7 5 8 4 9 3 10 2 11 1 12 13 13
REMARK SMILES IDX 14 14 15 15 16 16 17 17 18 18 19 19 20 20 21 21 22 22 23 23
REMARK SMILES IDX 24 24
REMARK H PARENT
REMARK Flexibility Score: inf
ROOT
ATOM      1  C   UNL     1     252.163 258.689 246.891  1.00  0.00     0.000 C 
ENDROOT
BRANCH   1   2
ATOM      2  C   UNL     1     250.886 259.545 246.956  1.00  0.00     0.000 C 
BRANCH   2   3
ATOM      3  C   UNL     1     249.645 258.713 247.315  1.00  0.00     0.000 C 
BRANCH   3   4
ATOM      4  C   UNL     1     250.045 257.284 247.714  1.00  0.00    -0.000 C 
BRANCH   4   5
ATOM      5  C   UNL     1     249.209 256.210 247.001  1.00  0.00    -0.000 C 
BRANCH   5   6
ATOM      6  C   UNL     1     249.625 256.018 245.531  1.00  0.00    -0.000 C 
BRANCH   6   7
ATOM      7  C   UNL     1     250.646 254.885 245.345  1.00  0.00    -0.000 C 
BRANCH   7   8
ATOM      8  C   UNL     1     252.079 255.408 245.136  1.00  0.00    -0.000 C 
BRANCH   8   9
ATOM      9  C   UNL     1     253.005 255.084 246.321  1.00  0.00    -0.000 C 
BRANCH   9  10
ATOM     10  C   UNL     1     252.524 253.869 247.129  1.00  0.00    -0.000 C 
BRANCH  10  11
ATOM     11  C   UNL     1     252.165 254.272 248.565  1.00  0.00    -0.003 C 
ATOM     12  C   UNL     1     250.927 253.526 249.055  1.00  0.00     0.004 C 
ENDBRANCH  10  11
ENDBRANCH   9  10
ENDBRANCH   8   9
ENDBRANCH   7   8
ENDBRANCH   6   7
ENDBRANCH   5   6
ENDBRANCH   4   5
ENDBRANCH   3   4
ENDBRANCH   2   3
ENDBRANCH   1   2
BRANCH   1  13
ATOM     13  C   UNL     1     253.340 259.448 246.255  1.00  0.00     0.000 C 
BRANCH  13  14
ATOM     14  C   UNL     1     253.486 260.883 246.803  1.00  0.00     0.000 C 
BRANCH  14  15
ATOM     15  C   UNL     1     254.129 260.953 248.202  1.00  0.00     0.000 C 
BRANCH  15  16
ATOM     16  C   UNL     1     255.616 260.555 248.255  1.00  0.00     0.000 C 
BRANCH  16  17
ATOM     17  C   UNL     1     255.905 259.164 248.859  1.00  0.00     0.000 C 
BRANCH  17  18
ATOM     18  C   UNL     1     254.730 258.519 249.614  1.00  0.00     0.000 C 
BRANCH  18  19
ATOM     19  C   UNL     1     254.536 257.034 249.256  1.00  0.00     0.000 C 
BRANCH  19  20
ATOM     20  C   UNL     1     255.766 256.427 248.562  1.00  0.00     0.006 C 
BRANCH  20  21
ATOM     21  C   UNL     1     255.889 254.911 248.777  1.00  0.00     0.053 C 
BRANCH  21  22
ATOM     22  C   UNL     1     255.898 254.587 250.239  1.00  0.00     0.041 C 
ATOM     23  O   UNL     1     255.015 253.831 250.725  1.00  0.00    -0.550 OA
ATOM     24  O   UNL     1     256.850 255.159 251.073  1.00  0.00    -0.550 OA
ENDBRANCH  21  22
ENDBRANCH  20  21
ENDBRANCH  19  20
ENDBRANCH  18  19
ENDBRANCH  17  18
ENDBRANCH  16  17
ENDBRANCH  15  16
ENDBRANCH  14  15
ENDBRANCH  13  14
ENDBRANCH   1  13
TORSDOF 20
ENDMDL
MODEL 2
REMARK VINA RESULT:    -4.709      1.466      1.819
REMARK INTER + INTRA:         -14.081
REMARK INTER:                 -10.818
REMARK INTRA:                  -3.262
REMARK UNBOUND:                -3.865
REMARK SMILES CCCCCCCCCCCCCCCCCCCCCC(=O)[O-]
REMARK SMILES IDX 12 1 11 2 10 3 9 4 8 5 7 6 6 7 5 8 4 9 3 10 2 11 1 12 13 13
REMARK SMILES IDX 14 14 15 15 16 16 17 17 18 18 19 19 20 20 21 21 22 22 23 23
REMARK SMILES IDX 24 24
REMARK H PARENT
REMARK Flexibility Score: inf
ROOT
ATOM      1  C   UNL     1     251.913 259.652 247.096  1.00  0.00     0.000 C 
ENDROOT
BRANCH   1   2
ATOM      2  C   UNL     1     250.406 259.353 247.165  1.00  0.00     0.000 C 
BRANCH   2   3
ATOM      3  C   UNL     1     250.118 257.919 247.639  1.00  0.00     0.000 C 
BRANCH   3   4
ATOM      4  C   UNL     1     248.800 257.404 247.044  1.00  0.00    -0.000 C 
BRANCH   4   5
ATOM      5  C   UNL     1     248.986 256.734 245.673  1.00  0.00    -0.000 C 
BRANCH   5   6
ATOM      6  C   UNL     1     249.596 255.325 245.783  1.00  0.00    -0.000 C 
BRANCH   6   7
ATOM      7  C   UNL     1     250.936 255.197 245.041  1.00  0.00    -0.000 C 
BRANCH   7   8
ATOM      8  C   UNL     1     252.111 254.901 245.991  1.00  0.00    -0.000 C 
BRANCH   8   9
ATOM      9  C   UNL     1     251.671 254.150 247.259  1.00  0.00    -0.000 C 
BRANCH   9  10
ATOM     10  C   UNL     1     252.196 252.707 247.303  1.00  0.00    -0.000 C 
BRANCH  10  11
ATOM     11  C   UNL     1     251.059 251.718 247.587  1.00  0.00    -0.003 C 
ATOM     12  C   UNL     1     249.969 251.806 246.521  1.00  0.00     0.004 C 
ENDBRANCH  10  11
ENDBRANCH   9  10
ENDBRANCH   8   9
ENDBRANCH   7   8
ENDBRANCH   6   7
ENDBRANCH   5   6
ENDBRANCH   4   5
ENDBRANCH   3   4
ENDBRANCH   2   3
ENDBRANCH   1   2
BRANCH   1  13
ATOM     13  C   UNL     1     252.714 258.478 246.510  1.00  0.00     0.000 C 
BRANCH  13  14
ATOM     14  C   UNL     1     254.063 258.923 245.905  1.00  0.00     0.000 C 
BRANCH  14  15
ATOM     15  C   UNL     1     254.393 260.409 246.145  1.00  0.00     0.000 C 
BRANCH  15  16
ATOM     16  C   UNL     1     255.449 260.673 247.235  1.00  0.00     0.000 C 
BRANCH  16  17
ATOM     17  C   UNL     1     254.898 260.785 248.673  1.00  0.00     0.000 C 
BRANCH  17  18
ATOM     18  C   UNL     1     255.446 259.747 249.669  1.00  0.00     0.000 C 
BRANCH  18  19
ATOM     19  C   UNL     1     254.743 258.383 249.554  1.00  0.00     0.000 C 
BRANCH  19  20
ATOM     20  C   UNL     1     255.634 257.309 248.911  1.00  0.00     0.006 C 
BRANCH  20  21
ATOM     21  C   UNL     1     254.857 256.048 248.505  1.00  0.00     0.053 C 
BRANCH  21  22
ATOM     22  C   UNL     1     255.796 254.981 248.035  1.00  0.00     0.041 C 
ATOM     23  O   UNL     1     255.401 254.105 247.219  1.00  0.00    -0.550 OA
ATOM     24  O   UNL     1     257.091 254.923 248.536  1.00  0.00    -0.550 OA
ENDBRANCH  21  22
ENDBRANCH  20  21
ENDBRANCH  19  20
ENDBRANCH  18  19
ENDBRANCH  17  18
ENDBRANCH  16  17
ENDBRANCH  15  16
ENDBRANCH  14  15
ENDBRANCH  13  14
ENDBRANCH   1  13
TORSDOF 20
ENDMDL
MODEL 3
REMARK VINA RESULT:    -4.677      2.914      5.102
REMARK INTER + INTRA:         -14.011
REMARK INTER:                 -11.108
REMARK INTRA:                  -2.904
REMARK UNBOUND:                -3.865
REMARK SMILES CCCCCCCCCCCCCCCCCCCCCC(=O)[O-]
REMARK SMILES IDX 12 1 11 2 10 3 9 4 8 5 7 6 6 7 5 8 4 9 3 10 2 11 1 12 13 13
REMARK SMILES IDX 14 14 15 15 16 16 17 17 18 18 19 19 20 20 21 21 22 22 23 23
REMARK SMILES IDX 24 24
REMARK H PARENT
REMARK Flexibility Score: inf
ROOT
ATOM      1  C   UNL     1     257.147 261.641 245.368  1.00  0.00     0.000 C 
ENDROOT
BRANCH   1   2
ATOM      2  C   UNL     1     256.062 260.762 244.723  1.00  0.00     0.000 C 
BRANCH   2   3
ATOM      3  C   UNL     1     254.788 260.687 245.580  1.00  0.00     0.000 C 
BRANCH   3   4
ATOM      4  C   UNL     1     254.150 259.293 245.485  1.00  0.00    -0.000 C 
BRANCH   4   5
ATOM      5  C   UNL     1     253.084 259.051 246.565  1.00  0.00    -0.000 C 
BRANCH   5   6
ATOM      6  C   UNL     1     252.763 257.557 246.752  1.00  0.00    -0.000 C 
BRANCH   6   7
ATOM      7  C   UNL     1     252.400 257.203 248.203  1.00  0.00    -0.000 C 
BRANCH   7   8
ATOM      8  C   UNL     1     253.622 256.757 249.027  1.00  0.00    -0.000 C 
BRANCH   8   9
ATOM      9  C   UNL     1     254.904 256.671 248.181  1.00  0.00    -0.000 C 
BRANCH   9  10
ATOM     10  C   UNL     1     256.177 256.629 249.042  1.00  0.00    -0.000 C 
BRANCH  10  11
ATOM     11  C   UNL     1     257.082 255.464 248.626  1.00  0.00    -0.003 C 
ATOM     12  C   UNL     1     256.265 254.298 248.073  1.00  0.00     0.004 C 
ENDBRANCH  10  11
ENDBRANCH   9  10
ENDBRANCH   8   9
ENDBRANCH   7   8
ENDBRANCH   6   7
ENDBRANCH   5   6
ENDBRANCH   4   5
ENDBRANCH   3   4
ENDBRANCH   2   3
ENDBRANCH   1   2
BRANCH   1  13
ATOM     13  C   UNL     1     258.554 261.308 244.845  1.00  0.00     0.000 C 
BRANCH  13  14
ATOM     14  C   UNL     1     259.654 261.562 245.898  1.00  0.00     0.000 C 
BRANCH  14  15
ATOM     15  C   UNL     1     260.092 260.295 246.658  1.00  0.00     0.000 C 
BRANCH  15  16
ATOM     16  C   UNL     1     259.353 260.044 247.986  1.00  0.00     0.000 C 
BRANCH  16  17
ATOM     17  C   UNL     1     259.035 261.308 248.812  1.00  0.00     0.000 C 
BRANCH  17  18
ATOM     18  C   UNL     1     257.541 261.551 249.092  1.00  0.00     0.000 C 
BRANCH  18  19
ATOM     19  C   UNL     1     256.671 260.318 248.789  1.00  0.00     0.000 C 
BRANCH  19  20
ATOM     20  C   UNL     1     255.227 260.473 249.293  1.00  0.00     0.006 C 
BRANCH  20  21
ATOM     21  C   UNL     1     255.140 261.171 250.659  1.00  0.00     0.053 C 
BRANCH  21  22
ATOM     22  C   UNL     1     255.254 260.171 251.767  1.00  0.00     0.041 C 
ATOM     23  O   UNL     1     255.641 260.534 252.911  1.00  0.00    -0.550 OA
ATOM     24  O   UNL     1     254.984 258.829 251.526  1.00  0.00    -0.550 OA
ENDBRANCH  21  22
ENDBRANCH  20  21
ENDBRANCH  19  20
ENDBRANCH  18  19
ENDBRANCH  17  18
ENDBRANCH  16  17
ENDBRANCH  15  16
ENDBRANCH  14  15
ENDBRANCH  13  14
ENDBRANCH   1  13
TORSDOF 20
ENDMDL
MODEL 4
REMARK VINA RESULT:    -4.645      3.042      7.001
REMARK INTER + INTRA:         -13.941
REMARK INTER:                 -10.448
REMARK INTRA:                  -3.492
REMARK UNBOUND:                -3.865
REMARK SMILES CCCCCCCCCCCCCCCCCCCCCC(=O)[O-]
REMARK SMILES IDX 12 1 11 2 10 3 9 4 8 5 7 6 6 7 5 8 4 9 3 10 2 11 1 12 13 13
REMARK SMILES IDX 14 14 15 15 16 16 17 17 18 18 19 19 20 20 21 21 22 22 23 23
REMARK SMILES IDX 24 24
REMARK H PARENT
REMARK Flexibility Score: inf
ROOT
ATOM      1  C   UNL     1     256.921 255.450 248.960  1.00  0.00     0.000 C 
ENDROOT
BRANCH   1   2
ATOM      2  C   UNL     1     256.089 256.672 248.537  1.00  0.00     0.000 C 
BRANCH   2   3
ATOM      3  C   UNL     1     254.863 256.883 249.440  1.00  0.00     0.000 C 
BRANCH   3   4
ATOM      4  C   UNL     1     253.606 257.148 248.598  1.00  0.00    -0.000 C 
BRANCH   4   5
ATOM      5  C   UNL     1     253.867 257.044 247.087  1.00  0.00    -0.000 C 
BRANCH   5   6
ATOM      6  C   UNL     1     253.613 258.371 246.351  1.00  0.00    -0.000 C 
BRANCH   6   7
ATOM      7  C   UNL     1     252.365 259.107 246.864  1.00  0.00    -0.000 C 
BRANCH   7   8
ATOM      8  C   UNL     1     252.641 260.588 247.185  1.00  0.00    -0.000 C 
BRANCH   8   9
ATOM      9  C   UNL     1     254.143 260.892 247.318  1.00  0.00    -0.000 C 
BRANCH   9  10
ATOM     10  C   UNL     1     254.623 260.864 248.777  1.00  0.00    -0.000 C 
BRANCH  10  11
ATOM     11  C   UNL     1     256.074 260.375 248.868  1.00  0.00    -0.003 C 
ATOM     12  C   UNL     1     256.955 261.391 249.592  1.00  0.00     0.004 C 
ENDBRANCH  10  11
ENDBRANCH   9  10
ENDBRANCH   8   9
ENDBRANCH   7   8
ENDBRANCH   6   7
ENDBRANCH   5   6
ENDBRANCH   4   5
ENDBRANCH   3   4
ENDBRANCH   2   3
ENDBRANCH   1   2
BRANCH   1  13
ATOM     13  C   UNL     1     256.429 254.152 248.299  1.00  0.00     0.000 C 
BRANCH  13  14
ATOM     14  C   UNL     1     255.554 253.299 249.242  1.00  0.00     0.000 C 
BRANCH  14  15
ATOM     15  C   UNL     1     254.072 253.231 248.826  1.00  0.00     0.000 C 
BRANCH  15  16
ATOM     16  C   UNL     1     253.820 253.292 247.307  1.00  0.00     0.000 C 
BRANCH  16  17
ATOM     17  C   UNL     1     252.423 253.800 246.891  1.00  0.00     0.000 C 
BRANCH  17  18
ATOM     18  C   UNL     1     251.437 254.034 248.049  1.00  0.00     0.000 C 
BRANCH  18  19
ATOM     19  C   UNL     1     250.097 254.628 247.579  1.00  0.00     0.000 C 
BRANCH  19  20
ATOM     20  C   UNL     1     250.246 256.049 247.012  1.00  0.00     0.006 C 
BRANCH  20  21
ATOM     21  C   UNL     1     249.651 256.197 245.603  1.00  0.00     0.053 C 
BRANCH  21  22
ATOM     22  C   UNL     1     248.332 256.903 245.661  1.00  0.00     0.041 C 
ATOM     23  O   UNL     1     247.750 257.065 246.767  1.00  0.00    -0.550 OA
ATOM     24  O   UNL     1     247.723 257.338 244.491  1.00  0.00    -0.550 OA
ENDBRANCH  21  22
ENDBRANCH  20  21
ENDBRANCH  19  20
ENDBRANCH  18  19
ENDBRANCH  17  18
ENDBRANCH  16  17
ENDBRANCH  15  16
ENDBRANCH  14  15
ENDBRANCH  13  14
ENDBRANCH   1  13
TORSDOF 20
ENDMDL
MODEL 5
REMARK VINA RESULT:    -4.602      1.950      6.601
REMARK INTER + INTRA:         -13.847
REMARK INTER:                 -11.620
REMARK INTRA:                  -2.227
REMARK UNBOUND:                -3.865
REMARK SMILES CCCCCCCCCCCCCCCCCCCCCC(=O)[O-]
REMARK SMILES IDX 12 1 11 2 10 3 9 4 8 5 7 6 6 7 5 8 4 9 3 10 2 11 1 12 13 13
REMARK SMILES IDX 14 14 15 15 16 16 17 17 18 18 19 19 20 20 21 21 22 22 23 23
REMARK SMILES IDX 24 24
REMARK H PARENT
REMARK Flexibility Score: inf
ROOT
ATOM      1  C   UNL     1     250.894 258.124 247.163  1.00  0.00     0.000 C 
ENDROOT
BRANCH   1   2
ATOM      2  C   UNL     1     251.923 259.225 246.858  1.00  0.00     0.000 C 
BRANCH   2   3
ATOM      3  C   UNL     1     253.302 258.651 246.499  1.00  0.00     0.000 C 
BRANCH   3   4
ATOM      4  C   UNL     1     254.378 259.746 246.548  1.00  0.00    -0.000 C 
BRANCH   4   5
ATOM      5  C   UNL     1     254.050 260.859 247.556  1.00  0.00    -0.000 C 
BRANCH   5   6
ATOM      6  C   UNL     1     254.881 260.748 248.847  1.00  0.00    -0.000 C 
BRANCH   6   7
ATOM      7  C   UNL     1     256.278 260.154 248.608  1.00  0.00    -0.000 C 
BRANCH   7   8
ATOM      8  C   UNL     1     257.400 261.196 248.773  1.00  0.00    -0.000 C 
BRANCH   8   9
ATOM      9  C   UNL     1     258.722 260.747 248.128  1.00  0.00    -0.000 C 
BRANCH   9  10
ATOM     10  C   UNL     1     258.962 261.399 246.758  1.00  0.00    -0.000 C 
BRANCH  10  11
ATOM     11  C   UNL     1     257.634 261.691 246.049  1.00  0.00    -0.003 C 
ATOM     12  C   UNL     1     257.723 261.380 244.557  1.00  0.00     0.004 C 
ENDBRANCH  10  11
ENDBRANCH   9  10
ENDBRANCH   8   9
ENDBRANCH   7   8
ENDBRANCH   6   7
ENDBRANCH   5   6
ENDBRANCH   4   5
ENDBRANCH   3   4
ENDBRANCH   2   3
ENDBRANCH   1   2
BRANCH   1  13
ATOM     13  C   UNL     1     249.460 258.674 247.251  1.00  0.00     0.000 C 
BRANCH  13  14
ATOM     14  C   UNL     1     248.393 257.596 246.967  1.00  0.00     0.000 C 
BRANCH  14  15
ATOM     15  C   UNL     1     248.807 256.580 245.884  1.00  0.00     0.000 C 
BRANCH  15  16
ATOM     16  C   UNL     1     248.994 255.136 246.385  1.00  0.00     0.000 C 
BRANCH  16  17
ATOM     17  C   UNL     1     250.231 254.400 245.827  1.00  0.00     0.000 C 
BRANCH  17  18
ATOM     18  C   UNL     1     251.072 255.201 244.817  1.00  0.00     0.000 C 
BRANCH  18  19
ATOM     19  C   UNL     1     252.542 255.344 245.248  1.00  0.00     0.000 C 
BRANCH  19  20
ATOM     20  C   UNL     1     252.797 254.818 246.669  1.00  0.00     0.006 C 
BRANCH  20  21
ATOM     21  C   UNL     1     254.105 254.020 246.788  1.00  0.00     0.053 C 
BRANCH  21  22
ATOM     22  C   UNL     1     254.991 254.619 247.837  1.00  0.00     0.041 C 
ATOM     23  O   UNL     1     255.577 253.876 248.669  1.00  0.00    -0.550 OA
ATOM     24  O   UNL     1     255.129 255.998 247.927  1.00  0.00    -0.550 OA
ENDBRANCH  21  22
ENDBRANCH  20  21
ENDBRANCH  19  20
ENDBRANCH  18  19
ENDBRANCH  17  18
ENDBRANCH  16  17
ENDBRANCH  15  16
ENDBRANCH  14  15
ENDBRANCH  13  14
ENDBRANCH   1  13
TORSDOF 20
ENDMDL
MODEL 6
REMARK VINA RESULT:    -4.593      1.616      5.497
REMARK INTER + INTRA:         -13.828
REMARK INTER:                 -10.112
REMARK INTRA:                  -3.716
REMARK UNBOUND:                -3.865
REMARK SMILES CCCCCCCCCCCCCCCCCCCCCC(=O)[O-]
REMARK SMILES IDX 12 1 11 2 10 3 9 4 8 5 7 6 6 7 5 8 4 9 3 10 2 11 1 12 13 13
REMARK SMILES IDX 14 14 15 15 16 16 17 17 18 18 19 19 20 20 21 21 22 22 23 23
REMARK SMILES IDX 24 24
REMARK H PARENT
REMARK Flexibility Score: inf
ROOT
ATOM      1  C   UNL     1     249.758 258.301 246.943  1.00  0.00     0.000 C 
ENDROOT
BRANCH   1   2
ATOM      2  C   UNL     1     251.127 258.989 247.082  1.00  0.00     0.000 C 
BRANCH   2   3
ATOM      3  C   UNL     1     252.233 258.006 247.498  1.00  0.00     0.000 C 
BRANCH   3   4
ATOM      4  C   UNL     1     253.406 258.057 246.509  1.00  0.00    -0.000 C 
BRANCH   4   5
ATOM      5  C   UNL     1     253.727 259.484 246.035  1.00  0.00    -0.000 C 
BRANCH   5   6
ATOM      6  C   UNL     1     254.847 260.141 246.861  1.00  0.00    -0.000 C 
BRANCH   6   7
ATOM      7  C   UNL     1     254.312 260.969 248.039  1.00  0.00    -0.000 C 
BRANCH   7   8
ATOM      8  C   UNL     1     255.000 260.616 249.371  1.00  0.00    -0.000 C 
BRANCH   8   9
ATOM      9  C   UNL     1     255.531 259.173 249.397  1.00  0.00    -0.000 C 
BRANCH   9  10
ATOM     10  C   UNL     1     254.693 258.252 250.296  1.00  0.00    -0.000 C 
BRANCH  10  11
ATOM     11  C   UNL     1     254.856 256.784 249.883  1.00  0.00    -0.003 C 
ATOM     12  C   UNL     1     255.889 256.635 248.769  1.00  0.00     0.004 C 
ENDBRANCH  10  11
ENDBRANCH   9  10
ENDBRANCH   8   9
ENDBRANCH   7   8
ENDBRANCH   6   7
ENDBRANCH   5   6
ENDBRANCH   4   5
ENDBRANCH   3   4
ENDBRANCH   2   3
ENDBRANCH   1   2
BRANCH   1  13
ATOM     13  C   UNL     1     249.682 256.988 247.741  1.00  0.00     0.000 C 
BRANCH  13  14
ATOM     14  C   UNL     1     249.336 255.774 246.854  1.00  0.00     0.000 C 
BRANCH  14  15
ATOM     15  C   UNL     1     249.785 255.926 245.387  1.00  0.00     0.000 C 
BRANCH  15  16
ATOM     16  C   UNL     1     251.160 255.313 245.062  1.00  0.00     0.000 C 
BRANCH  16  17
ATOM     17  C   UNL     1     251.741 254.382 246.148  1.00  0.00     0.000 C 
BRANCH  17  18
ATOM     18  C   UNL     1     253.244 254.558 246.428  1.00  0.00     0.000 C 
BRANCH  18  19
ATOM     19  C   UNL     1     253.832 253.407 247.264  1.00  0.00     0.000 C 
BRANCH  19  20
ATOM     20  C   UNL     1     252.749 252.498 247.864  1.00  0.00     0.006 C 
BRANCH  20  21
ATOM     21  C   UNL     1     252.553 252.712 249.373  1.00  0.00     0.053 C 
BRANCH  21  22
ATOM     22  C   UNL     1     251.470 253.714 249.625  1.00  0.00     0.041 C 
ATOM     23  O   UNL     1     251.762 254.924 249.826  1.00  0.00    -0.550 OA
ATOM     24  O   UNL     1     250.144 253.306 249.688  1.00  0.00    -0.550 OA
ENDBRANCH  21  22
ENDBRANCH  20  21
ENDBRANCH  19  20
ENDBRANCH  18  19
ENDBRANCH  17  18
ENDBRANCH  16  17
ENDBRANCH  15  16
ENDBRANCH  14  15
ENDBRANCH  13  14
ENDBRANCH   1  13
TORSDOF 20
ENDMDL
MODEL 7
REMARK VINA RESULT:    -4.578      1.429      3.515
REMARK INTER + INTRA:         -13.796
REMARK INTER:                 -10.425
REMARK INTRA:                  -3.371
REMARK UNBOUND:                -3.865
REMARK SMILES CCCCCCCCCCCCCCCCCCCCCC(=O)[O-]
REMARK SMILES IDX 12 1 11 2 10 3 9 4 8 5 7 6 6 7 5 8 4 9 3 10 2 11 1 12 13 13
REMARK SMILES IDX 14 14 15 15 16 16 17 17 18 18 19 19 20 20 21 21 22 22 23 23
REMARK SMILES IDX 24 24
REMARK H PARENT
REMARK Flexibility Score: inf
ROOT
ATOM      1  C   UNL     1     254.043 259.017 246.062  1.00  0.00     0.000 C 
ENDROOT
BRANCH   1   2
ATOM      2  C   UNL     1     252.901 258.399 246.886  1.00  0.00     0.000 C 
BRANCH   2   3
ATOM      3  C   UNL     1     252.584 256.959 246.454  1.00  0.00     0.000 C 
BRANCH   3   4
ATOM      4  C   UNL     1     251.974 256.163 247.617  1.00  0.00    -0.000 C 
BRANCH   4   5
ATOM      5  C   UNL     1     250.947 255.118 247.152  1.00  0.00    -0.000 C 
BRANCH   5   6
ATOM      6  C   UNL     1     250.042 255.643 246.024  1.00  0.00    -0.000 C 
BRANCH   6   7
ATOM      7  C   UNL     1     248.573 255.783 246.455  1.00  0.00    -0.000 C 
BRANCH   7   8
ATOM      8  C   UNL     1     248.299 257.104 247.198  1.00  0.00    -0.000 C 
BRANCH   8   9
ATOM      9  C   UNL     1     248.500 258.338 246.302  1.00  0.00    -0.000 C 
BRANCH   9  10
ATOM     10  C   UNL     1     249.497 259.344 246.899  1.00  0.00    -0.000 C 
BRANCH  10  11
ATOM     11  C   UNL     1     249.189 260.769 246.424  1.00  0.00    -0.003 C 
ATOM     12  C   UNL     1     250.213 261.765 246.963  1.00  0.00     0.004 C 
ENDBRANCH  10  11
ENDBRANCH   9  10
ENDBRANCH   8   9
ENDBRANCH   7   8
ENDBRANCH   6   7
ENDBRANCH   5   6
ENDBRANCH   4   5
ENDBRANCH   3   4
ENDBRANCH   2   3
ENDBRANCH   1   2
BRANCH   1  13
ATOM     13  C   UNL     1     254.342 260.467 246.476  1.00  0.00     0.000 C 
BRANCH  13  14
ATOM     14  C   UNL     1     253.765 260.819 247.864  1.00  0.00     0.000 C 
BRANCH  14  15
ATOM     15  C   UNL     1     254.825 260.888 248.980  1.00  0.00     0.000 C 
BRANCH  15  16
ATOM     16  C   UNL     1     255.559 259.564 249.263  1.00  0.00     0.000 C 
BRANCH  16  17
ATOM     17  C   UNL     1     254.785 258.554 250.136  1.00  0.00     0.000 C 
BRANCH  17  18
ATOM     18  C   UNL     1     254.869 257.087 249.676  1.00  0.00     0.000 C 
BRANCH  18  19
ATOM     19  C   UNL     1     255.956 256.860 248.611  1.00  0.00     0.000 C 
BRANCH  19  20
ATOM     20  C   UNL     1     256.362 255.382 248.485  1.00  0.00     0.006 C 
BRANCH  20  21
ATOM     21  C   UNL     1     255.326 254.539 247.725  1.00  0.00     0.053 C 
BRANCH  21  22
ATOM     22  C   UNL     1     254.666 253.562 248.647  1.00  0.00     0.041 C 
ATOM     23  O   UNL     1     253.636 252.937 248.276  1.00  0.00    -0.550 OA
ATOM     24  O   UNL     1     255.157 253.378 249.934  1.00  0.00    -0.550 OA
ENDBRANCH  21  22
ENDBRANCH  20  21
ENDBRANCH  19  20
ENDBRANCH  18  19
ENDBRANCH  17  18
ENDBRANCH  16  17
ENDBRANCH  15  16
ENDBRANCH  14  15
ENDBRANCH  13  14
ENDBRANCH   1  13
TORSDOF 20
ENDMDL
MODEL 8
REMARK VINA RESULT:    -4.563      3.534      6.997
REMARK INTER + INTRA:         -13.762
REMARK INTER:                 -10.805
REMARK INTRA:                  -2.957
REMARK UNBOUND:                -3.865
REMARK SMILES CCCCCCCCCCCCCCCCCCCCCC(=O)[O-]
REMARK SMILES IDX 12 1 11 2 10 3 9 4 8 5 7 6 6 7 5 8 4 9 3 10 2 11 1 12 13 13
REMARK SMILES IDX 14 14 15 15 16 16 17 17 18 18 19 19 20 20 21 21 22 22 23 23
REMARK SMILES IDX 24 24
REMARK H PARENT
REMARK Flexibility Score: inf
ROOT
ATOM      1  C   UNL     1     252.567 259.179 246.559  1.00  0.00     0.000 C 
ENDROOT
BRANCH   1   2
ATOM      2  C   UNL     1     252.635 260.551 247.249  1.00  0.00     0.000 C 
BRANCH   2   3
ATOM      3  C   UNL     1     253.949 261.289 246.949  1.00  0.00     0.000 C 
BRANCH   3   4
ATOM      4  C   UNL     1     254.833 260.464 246.001  1.00  0.00    -0.000 C 
BRANCH   4   5
ATOM      5  C   UNL     1     256.306 260.902 246.027  1.00  0.00    -0.000 C 
BRANCH   5   6
ATOM      6  C   UNL     1     256.925 260.970 244.619  1.00  0.00    -0.000 C 
BRANCH   6   7
ATOM      7  C   UNL     1     258.204 261.821 244.571  1.00  0.00    -0.000 C 
BRANCH   7   8
ATOM      8  C   UNL     1     258.465 262.570 245.891  1.00  0.00    -0.000 C 
BRANCH   8   9
ATOM      9  C   UNL     1     259.843 262.245 246.491  1.00  0.00    -0.000 C 
BRANCH   9  10
ATOM     10  C   UNL     1     259.743 261.477 247.819  1.00  0.00    -0.000 C 
BRANCH  10  11
ATOM     11  C   UNL     1     259.715 259.963 247.577  1.00  0.00    -0.003 C 
ATOM     12  C   UNL     1     260.688 259.563 246.470  1.00  0.00     0.004 C 
ENDBRANCH  10  11
ENDBRANCH   9  10
ENDBRANCH   8   9
ENDBRANCH   7   8
ENDBRANCH   6   7
ENDBRANCH   5   6
ENDBRANCH   4   5
ENDBRANCH   3   4
ENDBRANCH   2   3
ENDBRANCH   1   2
BRANCH   1  13
ATOM     13  C   UNL     1     251.766 258.154 247.379  1.00  0.00     0.000 C 
BRANCH  13  14
ATOM     14  C   UNL     1     252.563 256.861 247.654  1.00  0.00     0.000 C 
BRANCH  14  15
ATOM     15  C   UNL     1     254.031 256.924 247.189  1.00  0.00     0.000 C 
BRANCH  15  16
ATOM     16  C   UNL     1     255.060 256.408 248.212  1.00  0.00     0.000 C 
BRANCH  16  17
ATOM     17  C   UNL     1     255.213 257.268 249.485  1.00  0.00     0.000 C 
BRANCH  17  18
ATOM     18  C   UNL     1     255.532 258.753 249.239  1.00  0.00     0.000 C 
BRANCH  18  19
ATOM     19  C   UNL     1     255.477 259.594 250.527  1.00  0.00     0.000 C 
BRANCH  19  20
ATOM     20  C   UNL     1     255.582 261.103 250.254  1.00  0.00     0.006 C 
BRANCH  20  21
ATOM     21  C   UNL     1     256.117 261.895 251.457  1.00  0.00     0.053 C 
BRANCH  21  22
ATOM     22  C   UNL     1     255.315 261.591 252.684  1.00  0.00     0.041 C 
ATOM     23  O   UNL     1     254.128 262.004 252.782  1.00  0.00    -0.550 OA
ATOM     24  O   UNL     1     255.892 260.896 253.739  1.00  0.00    -0.550 OA
ENDBRANCH  21  22
ENDBRANCH  20  21
ENDBRANCH  19  20
ENDBRANCH  18  19
ENDBRANCH  17  18
ENDBRANCH  16  17
ENDBRANCH  15  16
ENDBRANCH  14  15
ENDBRANCH  13  14
ENDBRANCH   1  13
TORSDOF 20
ENDMDL
MODEL 9
REMARK VINA RESULT:    -4.553      2.886      5.115
REMARK INTER + INTRA:         -13.742
REMARK INTER:                 -10.438
REMARK INTRA:                  -3.304
REMARK UNBOUND:                -3.865
REMARK SMILES CCCCCCCCCCCCCCCCCCCCCC(=O)[O-]
REMARK SMILES IDX 12 1 11 2 10 3 9 4 8 5 7 6 6 7 5 8 4 9 3 10 2 11 1 12 13 13
REMARK SMILES IDX 14 14 15 15 16 16 17 17 18 18 19 19 20 20 21 21 22 22 23 23
REMARK SMILES IDX 24 24
REMARK H PARENT
REMARK Flexibility Score: inf
ROOT
ATOM      1  C   UNL     1     253.976 257.356 247.078  1.00  0.00     0.000 C 
ENDROOT
BRANCH   1   2
ATOM      2  C   UNL     1     253.866 257.561 248.598  1.00  0.00     0.000 C 
BRANCH   2   3
ATOM      3  C   UNL     1     255.242 257.582 249.284  1.00  0.00     0.000 C 
BRANCH   3   4
ATOM      4  C   UNL     1     255.663 256.165 249.702  1.00  0.00    -0.000 C 
BRANCH   4   5
ATOM      5  C   UNL     1     256.765 255.582 248.804  1.00  0.00    -0.000 C 
BRANCH   5   6
ATOM      6  C   UNL     1     256.227 254.530 247.818  1.00  0.00    -0.000 C 
BRANCH   6   7
ATOM      7  C   UNL     1     254.897 253.911 248.273  1.00  0.00    -0.000 C 
BRANCH   7   8
ATOM      8  C   UNL     1     253.946 253.620 247.097  1.00  0.00    -0.000 C 
BRANCH   8   9
ATOM      9  C   UNL     1     252.508 254.088 247.370  1.00  0.00    -0.000 C 
BRANCH   9  10
ATOM     10  C   UNL     1     251.777 254.526 246.091  1.00  0.00    -0.000 C 
BRANCH  10  11
ATOM     11  C   UNL     1     250.822 255.691 246.377  1.00  0.00    -0.003 C 
ATOM     12  C   UNL     1     250.585 255.858 247.876  1.00  0.00     0.004 C 
ENDBRANCH  10  11
ENDBRANCH   9  10
ENDBRANCH   8   9
ENDBRANCH   7   8
ENDBRANCH   6   7
ENDBRANCH   5   6
ENDBRANCH   4   5
ENDBRANCH   3   4
ENDBRANCH   2   3
ENDBRANCH   1   2
BRANCH   1  13
ATOM     13  C   UNL     1     253.269 258.470 246.288  1.00  0.00     0.000 C 
BRANCH  13  14
ATOM     14  C   UNL     1     252.723 259.590 247.199  1.00  0.00     0.000 C 
BRANCH  14  15
ATOM     15  C   UNL     1     253.461 260.934 247.045  1.00  0.00     0.000 C 
BRANCH  15  16
ATOM     16  C   UNL     1     254.574 260.946 245.980  1.00  0.00     0.000 C 
BRANCH  16  17
ATOM     17  C   UNL     1     256.014 261.001 246.532  1.00  0.00     0.000 C 
BRANCH  17  18
ATOM     18  C   UNL     1     256.144 260.785 248.051  1.00  0.00     0.000 C 
BRANCH  18  19
ATOM     19  C   UNL     1     257.598 260.885 248.544  1.00  0.00     0.000 C 
BRANCH  19  20
ATOM     20  C   UNL     1     258.367 262.045 247.891  1.00  0.00     0.006 C 
BRANCH  20  21
ATOM     21  C   UNL     1     259.824 261.688 247.559  1.00  0.00     0.053 C 
BRANCH  21  22
ATOM     22  C   UNL     1     259.878 260.514 246.631  1.00  0.00     0.041 C 
ATOM     23  O   UNL     1     260.460 259.454 246.985  1.00  0.00    -0.550 OA
ATOM     24  O   UNL     1     259.332 260.608 245.357  1.00  0.00    -0.550 OA
ENDBRANCH  21  22
ENDBRANCH  20  21
ENDBRANCH  19  20
ENDBRANCH  18  19
ENDBRANCH  17  18
ENDBRANCH  16  17
ENDBRANCH  15  16
ENDBRANCH  14  15
ENDBRANCH  13  14
ENDBRANCH   1  13
TORSDOF 20
ENDMDL
