MODEL 1
REMARK VINA RESULT:    -3.301      0.000      0.000
REMARK INTER + INTRA:         -11.762
REMARK INTER:                  -7.547
REMARK INTRA:                  -4.215
REMARK UNBOUND:                -4.215
REMARK SMILES CCCCCCCCCCCCCCCCCCCCCCCC(=O)[O-]
REMARK SMILES IDX 13 1 14 2 15 3 16 4 17 5 18 6 19 7 20 8 21 9 22 10 23 11
REMARK SMILES IDX 24 12 25 13 26 14 12 15 11 16 10 17 9 18 8 19 7 20 6 21 5 22
REMARK SMILES IDX 4 23 3 24 2 25 1 26
REMARK H PARENT
REMARK Flexibility Score: inf
ROOT
ATOM      1  C   UNL     1      48.214  32.727  86.856  1.00  0.00     0.000 C 
ENDROOT
BRANCH   1   2
ATOM      2  C   UNL     1      48.222  34.050  87.635  1.00  0.00     0.000 C 
BRANCH   2   3
ATOM      3  C   UNL     1      48.698  35.207  86.745  1.00  0.00     0.000 C 
BRANCH   3   4
ATOM      4  C   UNL     1      49.934  35.927  87.310  1.00  0.00     0.000 C 
BRANCH   4   5
ATOM      5  C   UNL     1      51.164  35.027  87.548  1.00  0.00     0.000 C 
BRANCH   5   6
ATOM      6  C   UNL     1      52.429  35.433  86.772  1.00  0.00     0.000 C 
BRANCH   6   7
ATOM      7  C   UNL     1      52.673  34.564  85.531  1.00  0.00     0.000 C 
BRANCH   7   8
ATOM      8  C   UNL     1      51.843  33.272  85.592  1.00  0.00     0.000 C 
BRANCH   8   9
ATOM      9  C   UNL     1      50.947  33.076  84.356  1.00  0.00     0.000 C 
BRANCH   9  10
ATOM     10  C   UNL     1      50.765  34.332  83.477  1.00  0.00     0.006 C 
BRANCH  10  11
ATOM     11  C   UNL     1      49.309  34.797  83.324  1.00  0.00     0.053 C 
BRANCH  11  12
ATOM     12  C   UNL     1      48.576  34.007  82.282  1.00  0.00     0.041 C 
ATOM     13  O   UNL     1      49.185  33.572  81.271  1.00  0.00    -0.550 OA
ATOM     14  O   UNL     1      47.227  33.723  82.449  1.00  0.00    -0.550 OA
ENDBRANCH  11  12
ENDBRANCH  10  11
ENDBRANCH   9  10
ENDBRANCH   8   9
ENDBRANCH   7   8
ENDBRANCH   6   7
ENDBRANCH   5   6
ENDBRANCH   4   5
ENDBRANCH   3   4
ENDBRANCH   2   3
ENDBRANCH   1   2
BRANCH   1  15
ATOM     15  C   UNL     1      47.596  31.569  87.659  1.00  0.00     0.000 C 
BRANCH  15  16
ATOM     16  C   UNL     1      46.919  32.050  88.955  1.00  0.00     0.000 C 
BRANCH  16  17
ATOM     17  C   UNL     1      46.821  30.946  90.020  1.00  0.00     0.000 C 
BRANCH  17  18
ATOM     18  C   UNL     1      47.732  29.744  89.714  1.00  0.00    -0.000 C 
BRANCH  18  19
ATOM     19  C   UNL     1      48.730  29.443  90.847  1.00  0.00    -0.000 C 
BRANCH  19  20
ATOM     20  C   UNL     1      50.174  29.907  90.587  1.00  0.00    -0.000 C 
BRANCH  20  21
ATOM     21  C   UNL     1      50.356  31.424  90.750  1.00  0.00    -0.000 C 
BRANCH  21  22
ATOM     22  C   UNL     1      50.870  32.059  89.452  1.00  0.00    -0.000 C 
BRANCH  22  23
ATOM     23  C   UNL     1      52.359  31.747  89.237  1.00  0.00    -0.000 C 
BRANCH  23  24
ATOM     24  C   UNL     1      53.273  32.880  89.749  1.00  0.00    -0.000 C 
BRANCH  24  25
ATOM     25  C   UNL     1      54.493  33.140  88.850  1.00  0.00    -0.003 C 
ATOM     26  C   UNL     1      54.653  32.100  87.743  1.00  0.00     0.004 C 
ENDBRANCH  24  25
ENDBRANCH  23  24
ENDBRANCH  22  23
ENDBRANCH  21  22
ENDBRANCH  20  21
ENDBRANCH  19  20
ENDBRANCH  18  19
ENDBRANCH  17  18
ENDBRANCH  16  17
ENDBRANCH  15  16
ENDBRANCH   1  15
TORSDOF 22
ENDMDL
MODEL 2
REMARK VINA RESULT:    -3.300      2.599      6.528
REMARK INTER + INTRA:         -11.759
REMARK INTER:                  -7.601
REMARK INTRA:                  -4.158
REMARK UNBOUND:                -4.215
REMARK SMILES CCCCCCCCCCCCCCCCCCCCCCCC(=O)[O-]
REMARK SMILES IDX 13 1 14 2 15 3 16 4 17 5 18 6 19 7 20 8 21 9 22 10 23 11
REMARK SMILES IDX 24 12 25 13 26 14 12 15 11 16 10 17 9 18 8 19 7 20 6 21 5 22
REMARK SMILES IDX 4 23 3 24 2 25 1 26
REMARK H PARENT
REMARK Flexibility Score: inf
ROOT
ATOM      1  C   UNL     1      49.072  31.357  86.717  1.00  0.00     0.000 C 
ENDROOT
BRANCH   1   2
ATOM      2  C   UNL     1      50.060  31.240  85.547  1.00  0.00     0.000 C 
BRANCH   2   3
ATOM      3  C   UNL     1      51.500  31.087  86.059  1.00  0.00     0.000 C 
BRANCH   3   4
ATOM      4  C   UNL     1      51.570  30.791  87.567  1.00  0.00     0.000 C 
BRANCH   4   5
ATOM      5  C   UNL     1      52.153  31.930  88.429  1.00  0.00     0.000 C 
BRANCH   5   6
ATOM      6  C   UNL     1      51.254  32.398  89.587  1.00  0.00     0.000 C 
BRANCH   6   7
ATOM      7  C   UNL     1      51.520  31.639  90.894  1.00  0.00     0.000 C 
BRANCH   7   8
ATOM      8  C   UNL     1      50.234  30.984  91.420  1.00  0.00     0.000 C 
BRANCH   8   9
ATOM      9  C   UNL     1      48.983  31.393  90.623  1.00  0.00     0.000 C 
BRANCH   9  10
ATOM     10  C   UNL     1      48.130  30.218  90.099  1.00  0.00     0.006 C 
BRANCH  10  11
ATOM     11  C   UNL     1      46.760  30.072  90.779  1.00  0.00     0.053 C 
BRANCH  11  12
ATOM     12  C   UNL     1      45.802  31.139  90.343  1.00  0.00     0.041 C 
ATOM     13  O   UNL     1      45.829  31.571  89.160  1.00  0.00    -0.550 OA
ATOM     14  O   UNL     1      44.858  31.630  91.234  1.00  0.00    -0.550 OA
ENDBRANCH  11  12
ENDBRANCH  10  11
ENDBRANCH   9  10
ENDBRANCH   8   9
ENDBRANCH   7   8
ENDBRANCH   6   7
ENDBRANCH   5   6
ENDBRANCH   4   5
ENDBRANCH   3   4
ENDBRANCH   2   3
ENDBRANCH   1   2
BRANCH   1  15
ATOM     15  C   UNL     1      48.028  32.465  86.504  1.00  0.00     0.000 C 
BRANCH  15  16
ATOM     16  C   UNL     1      48.215  33.643  87.477  1.00  0.00     0.000 C 
BRANCH  16  17
ATOM     17  C   UNL     1      48.551  34.959  86.758  1.00  0.00     0.000 C 
BRANCH  17  18
ATOM     18  C   UNL     1      49.528  35.840  87.557  1.00  0.00    -0.000 C 
BRANCH  18  19
ATOM     19  C   UNL     1      51.001  35.445  87.347  1.00  0.00    -0.000 C 
BRANCH  19  20
ATOM     20  C   UNL     1      51.300  34.704  86.031  1.00  0.00    -0.000 C 
BRANCH  20  21
ATOM     21  C   UNL     1      52.802  34.586  85.736  1.00  0.00    -0.000 C 
BRANCH  21  22
ATOM     22  C   UNL     1      53.069  34.599  84.225  1.00  0.00    -0.000 C 
BRANCH  22  23
ATOM     23  C   UNL     1      52.196  33.563  83.502  1.00  0.00    -0.000 C 
BRANCH  23  24
ATOM     24  C   UNL     1      51.390  34.185  82.342  1.00  0.00    -0.000 C 
BRANCH  24  25
ATOM     25  C   UNL     1      49.904  33.793  82.345  1.00  0.00    -0.003 C 
ATOM     26  C   UNL     1      49.034  34.753  83.155  1.00  0.00     0.004 C 
ENDBRANCH  24  25
ENDBRANCH  23  24
ENDBRANCH  22  23
ENDBRANCH  21  22
ENDBRANCH  20  21
ENDBRANCH  19  20
ENDBRANCH  18  19
ENDBRANCH  17  18
ENDBRANCH  16  17
ENDBRANCH  15  16
ENDBRANCH   1  15
TORSDOF 22
ENDMDL
MODEL 3
REMARK VINA RESULT:    -3.197      3.509      6.332
REMARK INTER + INTRA:         -11.523
REMARK INTER:                  -7.014
REMARK INTRA:                  -4.509
REMARK UNBOUND:                -4.215
REMARK SMILES CCCCCCCCCCCCCCCCCCCCCCCC(=O)[O-]
REMARK SMILES IDX 13 1 14 2 15 3 16 4 17 5 18 6 19 7 20 8 21 9 22 10 23 11
REMARK SMILES IDX 24 12 25 13 26 14 12 15 11 16 10 17 9 18 8 19 7 20 6 21 5 22
REMARK SMILES IDX 4 23 3 24 2 25 1 26
REMARK H PARENT
REMARK Flexibility Score: inf
ROOT
ATOM      1  C   UNL     1      48.238  33.898  87.493  1.00  0.00     0.000 C 
ENDROOT
BRANCH   1   2
ATOM      2  C   UNL     1      48.871  35.008  86.641  1.00  0.00     0.000 C 
BRANCH   2   3
ATOM      3  C   UNL     1      49.946  35.763  87.436  1.00  0.00     0.000 C 
BRANCH   3   4
ATOM      4  C   UNL     1      51.377  35.376  87.025  1.00  0.00     0.000 C 
BRANCH   4   5
ATOM      5  C   UNL     1      52.481  35.821  88.007  1.00  0.00     0.000 C 
BRANCH   5   6
ATOM      6  C   UNL     1      53.722  34.912  88.048  1.00  0.00     0.000 C 
BRANCH   6   7
ATOM      7  C   UNL     1      53.636  33.834  89.136  1.00  0.00     0.000 C 
BRANCH   7   8
ATOM      8  C   UNL     1      53.550  32.431  88.515  1.00  0.00     0.000 C 
BRANCH   8   9
ATOM      9  C   UNL     1      52.105  31.912  88.404  1.00  0.00     0.000 C 
BRANCH   9  10
ATOM     10  C   UNL     1      51.109  32.542  89.400  1.00  0.00     0.006 C 
BRANCH  10  11
ATOM     11  C   UNL     1      50.614  31.587  90.497  1.00  0.00     0.053 C 
BRANCH  11  12
ATOM     12  C   UNL     1      51.310  31.825  91.802  1.00  0.00     0.041 C 
ATOM     13  O   UNL     1      50.710  32.407  92.744  1.00  0.00    -0.550 OA
ATOM     14  O   UNL     1      52.609  31.372  91.988  1.00  0.00    -0.550 OA
ENDBRANCH  11  12
ENDBRANCH  10  11
ENDBRANCH   9  10
ENDBRANCH   8   9
ENDBRANCH   7   8
ENDBRANCH   6   7
ENDBRANCH   5   6
ENDBRANCH   4   5
ENDBRANCH   3   4
ENDBRANCH   2   3
ENDBRANCH   1   2
BRANCH   1  15
ATOM     15  C   UNL     1      48.341  32.512  86.834  1.00  0.00     0.000 C 
BRANCH  15  16
ATOM     16  C   UNL     1      49.461  32.447  85.779  1.00  0.00     0.000 C 
BRANCH  16  17
ATOM     17  C   UNL     1      49.240  31.329  84.747  1.00  0.00     0.000 C 
BRANCH  17  18
ATOM     18  C   UNL     1      50.505  31.017  83.928  1.00  0.00    -0.000 C 
BRANCH  18  19
ATOM     19  C   UNL     1      51.762  30.859  84.803  1.00  0.00    -0.000 C 
BRANCH  19  20
ATOM     20  C   UNL     1      53.018  31.579  84.280  1.00  0.00    -0.000 C 
BRANCH  20  21
ATOM     21  C   UNL     1      53.254  32.940  84.951  1.00  0.00    -0.000 C 
BRANCH  21  22
ATOM     22  C   UNL     1      52.811  34.090  84.038  1.00  0.00    -0.000 C 
BRANCH  22  23
ATOM     23  C   UNL     1      52.763  33.640  82.570  1.00  0.00    -0.000 C 
BRANCH  23  24
ATOM     24  C   UNL     1      51.772  34.476  81.733  1.00  0.00    -0.000 C 
BRANCH  24  25
ATOM     25  C   UNL     1      50.310  34.025  81.879  1.00  0.00    -0.003 C 
ATOM     26  C   UNL     1      49.540  34.819  82.933  1.00  0.00     0.004 C 
ENDBRANCH  24  25
ENDBRANCH  23  24
ENDBRANCH  22  23
ENDBRANCH  21  22
ENDBRANCH  20  21
ENDBRANCH  19  20
ENDBRANCH  18  19
ENDBRANCH  17  18
ENDBRANCH  16  17
ENDBRANCH  15  16
ENDBRANCH   1  15
TORSDOF 22
ENDMDL
MODEL 4
REMARK VINA RESULT:    -3.190      2.849      6.779
REMARK INTER + INTRA:         -11.508
REMARK INTER:                  -7.014
REMARK INTRA:                  -4.493
REMARK UNBOUND:                -4.215
REMARK SMILES CCCCCCCCCCCCCCCCCCCCCCCC(=O)[O-]
REMARK SMILES IDX 13 1 14 2 15 3 16 4 17 5 18 6 19 7 20 8 21 9 22 10 23 11
REMARK SMILES IDX 24 12 25 13 26 14 12 15 11 16 10 17 9 18 8 19 7 20 6 21 5 22
REMARK SMILES IDX 4 23 3 24 2 25 1 26
REMARK H PARENT
REMARK Flexibility Score: inf
ROOT
ATOM      1  C   UNL     1      48.226  33.616  87.537  1.00  0.00     0.000 C 
ENDROOT
BRANCH   1   2
ATOM      2  C   UNL     1      48.703  32.577  86.511  1.00  0.00     0.000 C 
BRANCH   2   3
ATOM      3  C   UNL     1      48.042  31.215  86.764  1.00  0.00     0.000 C 
BRANCH   3   4
ATOM      4  C   UNL     1      46.998  31.256  87.892  1.00  0.00     0.000 C 
BRANCH   4   5
ATOM      5  C   UNL     1      47.302  30.344  89.099  1.00  0.00     0.000 C 
BRANCH   5   6
ATOM      6  C   UNL     1      47.674  31.082  90.397  1.00  0.00     0.000 C 
BRANCH   6   7
ATOM      7  C   UNL     1      49.101  30.775  90.870  1.00  0.00     0.000 C 
BRANCH   7   8
ATOM      8  C   UNL     1      50.121  31.679  90.161  1.00  0.00     0.000 C 
BRANCH   8   9
ATOM      9  C   UNL     1      51.025  30.909  89.181  1.00  0.00     0.000 C 
BRANCH   9  10
ATOM     10  C   UNL     1      51.833  31.794  88.208  1.00  0.00     0.006 C 
BRANCH  10  11
ATOM     11  C   UNL     1      53.346  31.525  88.209  1.00  0.00     0.053 C 
BRANCH  11  12
ATOM     12  C   UNL     1      54.110  32.623  88.885  1.00  0.00     0.041 C 
ATOM     13  O   UNL     1      55.302  32.861  88.557  1.00  0.00    -0.550 OA
ATOM     14  O   UNL     1      53.491  33.405  89.851  1.00  0.00    -0.550 OA
ENDBRANCH  11  12
ENDBRANCH  10  11
ENDBRANCH   9  10
ENDBRANCH   8   9
ENDBRANCH   7   8
ENDBRANCH   6   7
ENDBRANCH   5   6
ENDBRANCH   4   5
ENDBRANCH   3   4
ENDBRANCH   2   3
ENDBRANCH   1   2
BRANCH   1  15
ATOM     15  C   UNL     1      48.786  35.022  87.262  1.00  0.00     0.000 C 
BRANCH  15  16
ATOM     16  C   UNL     1      50.143  34.981  86.537  1.00  0.00     0.000 C 
BRANCH  16  17
ATOM     17  C   UNL     1      51.297  35.503  87.407  1.00  0.00     0.000 C 
BRANCH  17  18
ATOM     18  C   UNL     1      52.679  35.228  86.788  1.00  0.00    -0.000 C 
BRANCH  18  19
ATOM     19  C   UNL     1      52.599  34.776  85.318  1.00  0.00    -0.000 C 
BRANCH  19  20
ATOM     20  C   UNL     1      53.149  33.366  85.036  1.00  0.00    -0.000 C 
BRANCH  20  21
ATOM     21  C   UNL     1      52.814  32.861  83.625  1.00  0.00    -0.000 C 
BRANCH  21  22
ATOM     22  C   UNL     1      51.720  31.787  83.669  1.00  0.00    -0.000 C 
BRANCH  22  23
ATOM     23  C   UNL     1      50.346  32.386  83.331  1.00  0.00    -0.000 C 
BRANCH  23  24
ATOM     24  C   UNL     1      50.456  33.620  82.410  1.00  0.00    -0.000 C 
BRANCH  24  25
ATOM     25  C   UNL     1      49.666  34.838  82.916  1.00  0.00    -0.003 C 
ATOM     26  C   UNL     1      48.248  34.488  83.362  1.00  0.00     0.004 C 
ENDBRANCH  24  25
ENDBRANCH  23  24
ENDBRANCH  22  23
ENDBRANCH  21  22
ENDBRANCH  20  21
ENDBRANCH  19  20
ENDBRANCH  18  19
ENDBRANCH  17  18
ENDBRANCH  16  17
ENDBRANCH  15  16
ENDBRANCH   1  15
TORSDOF 22
ENDMDL
MODEL 5
REMARK VINA RESULT:    -3.178      1.200      3.559
REMARK INTER + INTRA:         -11.480
REMARK INTER:                  -7.380
REMARK INTRA:                  -4.099
REMARK UNBOUND:                -4.215
REMARK SMILES CCCCCCCCCCCCCCCCCCCCCCCC(=O)[O-]
REMARK SMILES IDX 13 1 14 2 15 3 16 4 17 5 18 6 19 7 20 8 21 9 22 10 23 11
REMARK SMILES IDX 24 12 25 13 26 14 12 15 11 16 10 17 9 18 8 19 7 20 6 21 5 22
REMARK SMILES IDX 4 23 3 24 2 25 1 26
REMARK H PARENT
REMARK Flexibility Score: inf
ROOT
ATOM      1  C   UNL     1      51.103  34.944  87.608  1.00  0.00     0.000 C 
ENDROOT
BRANCH   1   2
ATOM      2  C   UNL     1      52.327  35.865  87.723  1.00  0.00     0.000 C 
BRANCH   2   3
ATOM      3  C   UNL     1      53.480  35.155  88.448  1.00  0.00     0.000 C 
BRANCH   3   4
ATOM      4  C   UNL     1      53.057  33.815  89.074  1.00  0.00     0.000 C 
BRANCH   4   5
ATOM      5  C   UNL     1      54.098  32.682  88.958  1.00  0.00     0.000 C 
BRANCH   5   6
ATOM      6  C   UNL     1      54.499  32.310  87.520  1.00  0.00     0.000 C 
BRANCH   6   7
ATOM      7  C   UNL     1      53.293  31.969  86.633  1.00  0.00     0.000 C 
BRANCH   7   8
ATOM      8  C   UNL     1      53.252  32.871  85.391  1.00  0.00     0.000 C 
BRANCH   8   9
ATOM      9  C   UNL     1      51.866  32.906  84.721  1.00  0.00     0.000 C 
BRANCH   9  10
ATOM     10  C   UNL     1      51.434  34.289  84.190  1.00  0.00     0.006 C 
BRANCH  10  11
ATOM     11  C   UNL     1      50.095  34.293  83.437  1.00  0.00     0.053 C 
BRANCH  11  12
ATOM     12  C   UNL     1      50.276  34.570  81.975  1.00  0.00     0.041 C 
ATOM     13  O   UNL     1      51.418  34.492  81.451  1.00  0.00    -0.550 OA
ATOM     14  O   UNL     1      49.176  34.880  81.187  1.00  0.00    -0.550 OA
ENDBRANCH  11  12
ENDBRANCH  10  11
ENDBRANCH   9  10
ENDBRANCH   8   9
ENDBRANCH   7   8
ENDBRANCH   6   7
ENDBRANCH   5   6
ENDBRANCH   4   5
ENDBRANCH   3   4
ENDBRANCH   2   3
ENDBRANCH   1   2
BRANCH   1  15
ATOM     15  C   UNL     1      49.798  35.720  87.364  1.00  0.00     0.000 C 
BRANCH  15  16
ATOM     16  C   UNL     1      48.613  34.790  87.047  1.00  0.00     0.000 C 
BRANCH  16  17
ATOM     17  C   UNL     1      48.813  33.367  87.590  1.00  0.00     0.000 C 
BRANCH  17  18
ATOM     18  C   UNL     1      47.997  32.316  86.818  1.00  0.00    -0.000 C 
BRANCH  18  19
ATOM     19  C   UNL     1      47.166  31.404  87.740  1.00  0.00    -0.000 C 
BRANCH  19  20
ATOM     20  C   UNL     1      46.821  32.004  89.115  1.00  0.00    -0.000 C 
BRANCH  20  21
ATOM     21  C   UNL     1      46.741  30.949  90.228  1.00  0.00    -0.000 C 
BRANCH  21  22
ATOM     22  C   UNL     1      48.063  30.183  90.357  1.00  0.00    -0.000 C 
BRANCH  22  23
ATOM     23  C   UNL     1      49.162  31.077  90.950  1.00  0.00    -0.000 C 
BRANCH  23  24
ATOM     24  C   UNL     1      50.573  30.657  90.484  1.00  0.00    -0.000 C 
BRANCH  24  25
ATOM     25  C   UNL     1      50.804  30.845  88.976  1.00  0.00    -0.003 C 
ATOM     26  C   UNL     1      50.968  29.524  88.226  1.00  0.00     0.004 C 
ENDBRANCH  24  25
ENDBRANCH  23  24
ENDBRANCH  22  23
ENDBRANCH  21  22
ENDBRANCH  20  21
ENDBRANCH  19  20
ENDBRANCH  18  19
ENDBRANCH  17  18
ENDBRANCH  16  17
ENDBRANCH  15  16
ENDBRANCH   1  15
TORSDOF 22
ENDMDL
MODEL 6
REMARK VINA RESULT:    -3.176      3.550      7.390
REMARK INTER + INTRA:         -11.474
REMARK INTER:                  -7.476
REMARK INTRA:                  -3.998
REMARK UNBOUND:                -4.215
REMARK SMILES CCCCCCCCCCCCCCCCCCCCCCCC(=O)[O-]
REMARK SMILES IDX 13 1 14 2 15 3 16 4 17 5 18 6 19 7 20 8 21 9 22 10 23 11
REMARK SMILES IDX 24 12 25 13 26 14 12 15 11 16 10 17 9 18 8 19 7 20 6 21 5 22
REMARK SMILES IDX 4 23 3 24 2 25 1 26
REMARK H PARENT
REMARK Flexibility Score: inf
ROOT
ATOM      1  C   UNL     1      54.500  32.222  88.085  1.00  0.00     0.000 C 
ENDROOT
BRANCH   1   2
ATOM      2  C   UNL     1      53.784  31.648  89.317  1.00  0.00     0.000 C 
BRANCH   2   3
ATOM      3  C   UNL     1      52.845  32.691  89.939  1.00  0.00     0.000 C 
BRANCH   3   4
ATOM      4  C   UNL     1      51.371  32.251  89.931  1.00  0.00     0.000 C 
BRANCH   4   5
ATOM      5  C   UNL     1      51.075  30.977  89.113  1.00  0.00     0.000 C 
BRANCH   5   6
ATOM      6  C   UNL     1      49.733  30.983  88.358  1.00  0.00     0.000 C 
BRANCH   6   7
ATOM      7  C   UNL     1      48.584  31.569  89.189  1.00  0.00     0.000 C 
BRANCH   7   8
ATOM      8  C   UNL     1      47.243  31.423  88.454  1.00  0.00     0.000 C 
BRANCH   8   9
ATOM      9  C   UNL     1      46.048  31.933  89.279  1.00  0.00     0.000 C 
BRANCH   9  10
ATOM     10  C   UNL     1      46.055  31.513  90.764  1.00  0.00     0.006 C 
BRANCH  10  11
ATOM     11  C   UNL     1      45.036  30.421  91.123  1.00  0.00     0.053 C 
BRANCH  11  12
ATOM     12  C   UNL     1      43.974  30.928  92.050  1.00  0.00     0.041 C 
ATOM     13  O   UNL     1      44.112  32.040  92.625  1.00  0.00    -0.550 OA
ATOM     14  O   UNL     1      42.816  30.189  92.249  1.00  0.00    -0.550 OA
ENDBRANCH  11  12
ENDBRANCH  10  11
ENDBRANCH   9  10
ENDBRANCH   8   9
ENDBRANCH   7   8
ENDBRANCH   6   7
ENDBRANCH   5   6
ENDBRANCH   4   5
ENDBRANCH   3   4
ENDBRANCH   2   3
ENDBRANCH   1   2
BRANCH   1  15
ATOM     15  C   UNL     1      53.949  31.661  86.763  1.00  0.00     0.000 C 
BRANCH  15  16
ATOM     16  C   UNL     1      52.730  32.452  86.253  1.00  0.00     0.000 C 
BRANCH  16  17
ATOM     17  C   UNL     1      53.111  33.537  85.233  1.00  0.00     0.000 C 
BRANCH  17  18
ATOM     18  C   UNL     1      52.676  34.945  85.673  1.00  0.00    -0.000 C 
BRANCH  18  19
ATOM     19  C   UNL     1      52.327  35.025  87.171  1.00  0.00    -0.000 C 
BRANCH  19  20
ATOM     20  C   UNL     1      50.974  35.687  87.493  1.00  0.00    -0.000 C 
BRANCH  20  21
ATOM     21  C   UNL     1      49.816  34.680  87.566  1.00  0.00    -0.000 C 
BRANCH  21  22
ATOM     22  C   UNL     1      48.626  35.148  86.720  1.00  0.00    -0.000 C 
BRANCH  22  23
ATOM     23  C   UNL     1      48.666  34.523  85.318  1.00  0.00    -0.000 C 
BRANCH  23  24
ATOM     24  C   UNL     1      48.688  32.980  85.366  1.00  0.00    -0.000 C 
BRANCH  24  25
ATOM     25  C   UNL     1      49.616  32.344  84.318  1.00  0.00    -0.003 C 
ATOM     26  C   UNL     1      49.850  30.853  84.552  1.00  0.00     0.004 C 
ENDBRANCH  24  25
ENDBRANCH  23  24
ENDBRANCH  22  23
ENDBRANCH  21  22
ENDBRANCH  20  21
ENDBRANCH  19  20
ENDBRANCH  18  19
ENDBRANCH  17  18
ENDBRANCH  16  17
ENDBRANCH  15  16
ENDBRANCH   1  15
TORSDOF 22
ENDMDL
MODEL 7
REMARK VINA RESULT:    -3.143     14.898     17.775
REMARK INTER + INTRA:         -11.401
REMARK INTER:                  -7.655
REMARK INTRA:                  -3.746
REMARK UNBOUND:                -4.215
REMARK SMILES CCCCCCCCCCCCCCCCCCCCCCCC(=O)[O-]
REMARK SMILES IDX 13 1 14 2 15 3 16 4 17 5 18 6 19 7 20 8 21 9 22 10 23 11
REMARK SMILES IDX 24 12 25 13 26 14 12 15 11 16 10 17 9 18 8 19 7 20 6 21 5 22
REMARK SMILES IDX 4 23 3 24 2 25 1 26
REMARK H PARENT
REMARK Flexibility Score: inf
ROOT
ATOM      1  C   UNL     1      48.261  21.107  74.761  1.00  0.00     0.000 C 
ENDROOT
BRANCH   1   2
ATOM      2  C   UNL     1      49.293  22.100  75.316  1.00  0.00     0.000 C 
BRANCH   2   3
ATOM      3  C   UNL     1      49.606  21.799  76.788  1.00  0.00     0.000 C 
BRANCH   3   4
ATOM      4  C   UNL     1      48.657  20.754  77.401  1.00  0.00     0.000 C 
BRANCH   4   5
ATOM      5  C   UNL     1      48.636  20.715  78.943  1.00  0.00     0.000 C 
BRANCH   5   6
ATOM      6  C   UNL     1      47.369  21.299  79.593  1.00  0.00     0.000 C 
BRANCH   6   7
ATOM      7  C   UNL     1      46.754  22.444  78.778  1.00  0.00     0.000 C 
BRANCH   7   8
ATOM      8  C   UNL     1      45.340  22.081  78.300  1.00  0.00     0.000 C 
BRANCH   8   9
ATOM      9  C   UNL     1      44.814  20.774  78.920  1.00  0.00     0.000 C 
BRANCH   9  10
ATOM     10  C   UNL     1      44.444  19.674  77.904  1.00  0.00     0.006 C 
BRANCH  10  11
ATOM     11  C   UNL     1      45.312  19.660  76.635  1.00  0.00     0.053 C 
BRANCH  11  12
ATOM     12  C   UNL     1      45.655  18.265  76.207  1.00  0.00     0.041 C 
ATOM     13  O   UNL     1      45.633  17.322  77.041  1.00  0.00    -0.550 OA
ATOM     14  O   UNL     1      45.965  18.004  74.879  1.00  0.00    -0.550 OA
ENDBRANCH  11  12
ENDBRANCH  10  11
ENDBRANCH   9  10
ENDBRANCH   8   9
ENDBRANCH   7   8
ENDBRANCH   6   7
ENDBRANCH   5   6
ENDBRANCH   4   5
ENDBRANCH   3   4
ENDBRANCH   2   3
ENDBRANCH   1   2
BRANCH   1  15
ATOM     15  C   UNL     1      47.086  21.804  74.056  1.00  0.00     0.000 C 
BRANCH  15  16
ATOM     16  C   UNL     1      46.915  23.266  74.507  1.00  0.00     0.000 C 
BRANCH  16  17
ATOM     17  C   UNL     1      45.456  23.617  74.842  1.00  0.00     0.000 C 
BRANCH  17  18
ATOM     18  C   UNL     1      44.491  22.444  74.595  1.00  0.00    -0.000 C 
BRANCH  18  19
ATOM     19  C   UNL     1      43.187  22.559  75.406  1.00  0.00    -0.000 C 
BRANCH  19  20
ATOM     20  C   UNL     1      42.065  21.595  74.981  1.00  0.00    -0.000 C 
BRANCH  20  21
ATOM     21  C   UNL     1      40.822  21.686  75.879  1.00  0.00    -0.000 C 
BRANCH  21  22
ATOM     22  C   UNL     1      41.142  22.415  77.190  1.00  0.00    -0.000 C 
BRANCH  22  23
ATOM     23  C   UNL     1      41.254  21.425  78.358  1.00  0.00    -0.000 C 
BRANCH  23  24
ATOM     24  C   UNL     1      39.899  20.768  78.700  1.00  0.00    -0.000 C 
BRANCH  24  25
ATOM     25  C   UNL     1      39.929  19.929  79.988  1.00  0.00    -0.003 C 
ATOM     26  C   UNL     1      38.736  18.984  80.114  1.00  0.00     0.004 C 
ENDBRANCH  24  25
ENDBRANCH  23  24
ENDBRANCH  22  23
ENDBRANCH  21  22
ENDBRANCH  20  21
ENDBRANCH  19  20
ENDBRANCH  18  19
ENDBRANCH  17  18
ENDBRANCH  16  17
ENDBRANCH  15  16
ENDBRANCH   1  15
TORSDOF 22
ENDMDL
MODEL 8
REMARK VINA RESULT:    -3.143      2.632      6.783
REMARK INTER + INTRA:         -11.400
REMARK INTER:                  -7.009
REMARK INTRA:                  -4.391
REMARK UNBOUND:                -4.215
REMARK SMILES CCCCCCCCCCCCCCCCCCCCCCCC(=O)[O-]
REMARK SMILES IDX 13 1 14 2 15 3 16 4 17 5 18 6 19 7 20 8 21 9 22 10 23 11
REMARK SMILES IDX 24 12 25 13 26 14 12 15 11 16 10 17 9 18 8 19 7 20 6 21 5 22
REMARK SMILES IDX 4 23 3 24 2 25 1 26
REMARK H PARENT
REMARK Flexibility Score: inf
ROOT
ATOM      1  C   UNL     1      54.048  32.599  86.901  1.00  0.00     0.000 C 
ENDROOT
BRANCH   1   2
ATOM      2  C   UNL     1      54.249  33.964  87.575  1.00  0.00     0.000 C 
BRANCH   2   3
ATOM      3  C   UNL     1      53.687  33.957  89.004  1.00  0.00     0.000 C 
BRANCH   3   4
ATOM      4  C   UNL     1      54.073  32.693  89.792  1.00  0.00     0.000 C 
BRANCH   4   5
ATOM      5  C   UNL     1      52.897  31.757  90.140  1.00  0.00     0.000 C 
BRANCH   5   6
ATOM      6  C   UNL     1      52.808  31.343  91.619  1.00  0.00     0.000 C 
BRANCH   6   7
ATOM      7  C   UNL     1      51.477  31.741  92.272  1.00  0.00     0.000 C 
BRANCH   7   8
ATOM      8  C   UNL     1      50.316  31.608  91.275  1.00  0.00     0.000 C 
BRANCH   8   9
ATOM      9  C   UNL     1      49.808  30.162  91.135  1.00  0.00     0.000 C 
BRANCH   9  10
ATOM     10  C   UNL     1      48.473  30.011  90.376  1.00  0.00     0.006 C 
BRANCH  10  11
ATOM     11  C   UNL     1      47.550  31.237  90.460  1.00  0.00     0.053 C 
BRANCH  11  12
ATOM     12  C   UNL     1      46.135  30.898  90.099  1.00  0.00     0.041 C 
ATOM     13  O   UNL     1      45.419  30.236  90.895  1.00  0.00    -0.550 OA
ATOM     14  O   UNL     1      45.599  31.345  88.899  1.00  0.00    -0.550 OA
ENDBRANCH  11  12
ENDBRANCH  10  11
ENDBRANCH   9  10
ENDBRANCH   8   9
ENDBRANCH   7   8
ENDBRANCH   6   7
ENDBRANCH   5   6
ENDBRANCH   4   5
ENDBRANCH   3   4
ENDBRANCH   2   3
ENDBRANCH   1   2
BRANCH   1  15
ATOM     15  C   UNL     1      53.310  32.704  85.556  1.00  0.00     0.000 C 
BRANCH  15  16
ATOM     16  C   UNL     1      52.943  34.156  85.200  1.00  0.00     0.000 C 
BRANCH  16  17
ATOM     17  C   UNL     1      51.921  34.247  84.056  1.00  0.00     0.000 C 
BRANCH  17  18
ATOM     18  C   UNL     1      51.073  32.971  83.914  1.00  0.00    -0.000 C 
BRANCH  18  19
ATOM     19  C   UNL     1      49.574  33.215  84.167  1.00  0.00    -0.000 C 
BRANCH  19  20
ATOM     20  C   UNL     1      49.213  34.634  84.643  1.00  0.00    -0.000 C 
BRANCH  20  21
ATOM     21  C   UNL     1      48.659  34.665  86.075  1.00  0.00    -0.000 C 
BRANCH  21  22
ATOM     22  C   UNL     1      49.680  35.267  87.048  1.00  0.00    -0.000 C 
BRANCH  22  23
ATOM     23  C   UNL     1      50.455  34.164  87.784  1.00  0.00    -0.000 C 
BRANCH  23  24
ATOM     24  C   UNL     1      49.650  32.851  87.888  1.00  0.00    -0.000 C 
BRANCH  24  25
ATOM     25  C   UNL     1      50.457  31.602  87.499  1.00  0.00    -0.003 C 
ATOM     26  C   UNL     1      49.610  30.532  86.812  1.00  0.00     0.004 C 
ENDBRANCH  24  25
ENDBRANCH  23  24
ENDBRANCH  22  23
ENDBRANCH  21  22
ENDBRANCH  20  21
ENDBRANCH  19  20
ENDBRANCH  18  19
ENDBRANCH  17  18
ENDBRANCH  16  17
ENDBRANCH  15  16
ENDBRANCH   1  15
TORSDOF 22
ENDMDL
MODEL 9
REMARK VINA RESULT:    -3.113      3.042      6.927
REMARK INTER + INTRA:         -11.331
REMARK INTER:                  -7.550
REMARK INTRA:                  -3.781
REMARK UNBOUND:                -4.215
REMARK SMILES CCCCCCCCCCCCCCCCCCCCCCCC(=O)[O-]
REMARK SMILES IDX 13 1 14 2 15 3 16 4 17 5 18 6 19 7 20 8 21 9 22 10 23 11
REMARK SMILES IDX 24 12 25 13 26 14 12 15 11 16 10 17 9 18 8 19 7 20 6 21 5 22
REMARK SMILES IDX 4 23 3 24 2 25 1 26
REMARK H PARENT
REMARK Flexibility Score: inf
ROOT
ATOM      1  C   UNL     1      53.651  31.943  86.365  1.00  0.00     0.000 C 
ENDROOT
BRANCH   1   2
ATOM      2  C   UNL     1      53.719  31.569  87.853  1.00  0.00     0.000 C 
BRANCH   2   3
ATOM      3  C   UNL     1      54.630  32.538  88.620  1.00  0.00     0.000 C 
BRANCH   3   4
ATOM      4  C   UNL     1      53.882  33.325  89.711  1.00  0.00     0.000 C 
BRANCH   4   5
ATOM      5  C   UNL     1      52.457  32.820  90.020  1.00  0.00     0.000 C 
BRANCH   5   6
ATOM      6  C   UNL     1      52.343  31.900  91.248  1.00  0.00     0.000 C 
BRANCH   6   7
ATOM      7  C   UNL     1      51.550  30.618  90.962  1.00  0.00     0.000 C 
BRANCH   7   8
ATOM      8  C   UNL     1      50.346  30.908  90.053  1.00  0.00     0.000 C 
BRANCH   8   9
ATOM      9  C   UNL     1      49.011  30.937  90.818  1.00  0.00     0.000 C 
BRANCH   9  10
ATOM     10  C   UNL     1      47.768  30.581  89.975  1.00  0.00     0.006 C 
BRANCH  10  11
ATOM     11  C   UNL     1      46.596  31.564  90.121  1.00  0.00     0.053 C 
BRANCH  11  12
ATOM     12  C   UNL     1      45.491  30.996  90.960  1.00  0.00     0.041 C 
ATOM     13  O   UNL     1      44.543  31.732  91.341  1.00  0.00    -0.550 OA
ATOM     14  O   UNL     1      45.493  29.648  91.289  1.00  0.00    -0.550 OA
ENDBRANCH  11  12
ENDBRANCH  10  11
ENDBRANCH   9  10
ENDBRANCH   8   9
ENDBRANCH   7   8
ENDBRANCH   6   7
ENDBRANCH   5   6
ENDBRANCH   4   5
ENDBRANCH   3   4
ENDBRANCH   2   3
ENDBRANCH   1   2
BRANCH   1  15
ATOM     15  C   UNL     1      52.506  32.920  86.050  1.00  0.00     0.000 C 
BRANCH  15  16
ATOM     16  C   UNL     1      53.008  34.356  85.815  1.00  0.00     0.000 C 
BRANCH  16  17
ATOM     17  C   UNL     1      52.340  35.379  86.747  1.00  0.00     0.000 C 
BRANCH  17  18
ATOM     18  C   UNL     1      51.112  34.806  87.476  1.00  0.00    -0.000 C 
BRANCH  18  19
ATOM     19  C   UNL     1      49.871  35.711  87.364  1.00  0.00    -0.000 C 
BRANCH  19  20
ATOM     20  C   UNL     1      48.612  35.028  86.799  1.00  0.00    -0.000 C 
BRANCH  20  21
ATOM     21  C   UNL     1      48.230  33.750  87.560  1.00  0.00    -0.000 C 
BRANCH  21  22
ATOM     22  C   UNL     1      48.828  32.508  86.887  1.00  0.00    -0.000 C 
BRANCH  22  23
ATOM     23  C   UNL     1      48.213  32.285  85.497  1.00  0.00    -0.000 C 
BRANCH  23  24
ATOM     24  C   UNL     1      49.271  32.324  84.375  1.00  0.00    -0.000 C 
BRANCH  24  25
ATOM     25  C   UNL     1      49.085  33.493  83.394  1.00  0.00    -0.003 C 
ATOM     26  C   UNL     1      50.173  34.558  83.518  1.00  0.00     0.004 C 
ENDBRANCH  24  25
ENDBRANCH  23  24
ENDBRANCH  22  23
ENDBRANCH  21  22
ENDBRANCH  20  21
ENDBRANCH  19  20
ENDBRANCH  18  19
ENDBRANCH  17  18
ENDBRANCH  16  17
ENDBRANCH  15  16
ENDBRANCH   1  15
TORSDOF 22
ENDMDL
