MODEL 1
REMARK VINA RESULT:    -4.523      0.000      0.000
REMARK INTER + INTRA:          -4.655
REMARK INTER:                  -4.655
REMARK INTRA:                   0.000
REMARK UNBOUND:                 0.000
REMARK SMILES O=c1ccc2cc(O)ccc2o1
REMARK SMILES IDX 9 1 10 2 11 3 5 4 4 5 3 6 2 7 1 8 12 9 6 10 7 11 8 12
REMARK H PARENT 8 13
REMARK Flexibility Score: inf
ROOT
ATOM      1  C   UNL     1       9.911  12.127  19.814  1.00  0.00     0.050 A 
ATOM      2  C   UNL     1      10.697  12.196  20.970  1.00  0.00     0.052 A 
ATOM      3  C   UNL     1      11.559  13.279  21.169  1.00  0.00     0.138 A 
ATOM      4  C   UNL     1      11.633  14.303  20.199  1.00  0.00     0.021 A 
ATOM      5  C   UNL     1      12.504  15.374  20.425  1.00  0.00     0.019 A 
ATOM      6  C   UNL     1      13.268  15.400  21.592  1.00  0.00     0.094 A 
ATOM      7  C   UNL     1      13.143  14.349  22.508  1.00  0.00     0.336 A 
ATOM      8  O   UNL     1      13.823  14.355  23.567  1.00  0.00    -0.246 OA
ATOM      9  O   UNL     1      12.306  13.343  22.268  1.00  0.00    -0.423 OA
ATOM     10  C   UNL     1      10.843  14.230  19.042  1.00  0.00     0.058 A 
ATOM     11  C   UNL     1       9.981  13.140  18.851  1.00  0.00     0.116 A 
ENDROOT
BRANCH  11  12
ATOM     12  O   UNL     1       9.191  13.054  17.707  1.00  0.00    -0.508 OA
ATOM     13  H   UNL     1       8.180  13.107  17.756  1.00  0.00     0.293 HD
ENDBRANCH  11  12
TORSDOF 1
ENDMDL
MODEL 2
REMARK VINA RESULT:    -4.245      2.112      3.129
REMARK INTER + INTRA:          -4.369
REMARK INTER:                  -4.369
REMARK INTRA:                   0.000
REMARK UNBOUND:                 0.000
REMARK SMILES O=c1ccc2cc(O)ccc2o1
REMARK SMILES IDX 9 1 10 2 11 3 5 4 4 5 3 6 2 7 1 8 12 9 6 10 7 11 8 12
REMARK H PARENT 8 13
REMARK Flexibility Score: inf
ROOT
ATOM      1  C   UNL     1      11.058  13.355  23.326  1.00  0.00     0.050 A 
ATOM      2  C   UNL     1      12.096  14.209  22.937  1.00  0.00     0.052 A 
ATOM      3  C   UNL     1      12.340  14.444  21.580  1.00  0.00     0.138 A 
ATOM      4  C   UNL     1      11.535  13.816  20.604  1.00  0.00     0.021 A 
ATOM      5  C   UNL     1      11.803  14.070  19.256  1.00  0.00     0.019 A 
ATOM      6  C   UNL     1      12.848  14.929  18.915  1.00  0.00     0.094 A 
ATOM      7  C   UNL     1      13.605  15.514  19.936  1.00  0.00     0.336 A 
ATOM      8  O   UNL     1      14.553  16.291  19.649  1.00  0.00    -0.246 OA
ATOM      9  O   UNL     1      13.329  15.255  21.212  1.00  0.00    -0.423 OA
ATOM     10  C   UNL     1      10.495  12.962  20.999  1.00  0.00     0.058 A 
ATOM     11  C   UNL     1      10.257  12.732  22.363  1.00  0.00     0.116 A 
ENDROOT
BRANCH  11  12
ATOM     12  O   UNL     1       9.228  11.886  22.769  1.00  0.00    -0.508 OA
ATOM     13  H   UNL     1       8.256  12.112  22.595  1.00  0.00     0.293 HD
ENDBRANCH  11  12
TORSDOF 1
ENDMDL
MODEL 3
REMARK VINA RESULT:    -4.189      1.445      2.448
REMARK INTER + INTRA:          -4.311
REMARK INTER:                  -4.311
REMARK INTRA:                   0.000
REMARK UNBOUND:                 0.000
REMARK SMILES O=c1ccc2cc(O)ccc2o1
REMARK SMILES IDX 9 1 10 2 11 3 5 4 4 5 3 6 2 7 1 8 12 9 6 10 7 11 8 12
REMARK H PARENT 8 13
REMARK Flexibility Score: inf
ROOT
ATOM      1  C   UNL     1      11.786  14.482  18.876  1.00  0.00     0.050 A 
ATOM      2  C   UNL     1      12.809  14.232  19.796  1.00  0.00     0.052 A 
ATOM      3  C   UNL     1      12.561  13.438  20.922  1.00  0.00     0.138 A 
ATOM      4  C   UNL     1      11.275  12.891  21.124  1.00  0.00     0.021 A 
ATOM      5  C   UNL     1      11.057  12.102  22.257  1.00  0.00     0.019 A 
ATOM      6  C   UNL     1      12.107  11.879  23.148  1.00  0.00     0.094 A 
ATOM      7  C   UNL     1      13.355  12.454  22.883  1.00  0.00     0.336 A 
ATOM      8  O   UNL     1      14.314  12.265  23.675  1.00  0.00    -0.246 OA
ATOM      9  O   UNL     1      13.535  13.201  21.797  1.00  0.00    -0.423 OA
ATOM     10  C   UNL     1      10.252  13.144  20.197  1.00  0.00     0.058 A 
ATOM     11  C   UNL     1      10.510  13.941  19.072  1.00  0.00     0.116 A 
ENDROOT
BRANCH  11  12
ATOM     12  O   UNL     1       9.505  14.201  18.143  1.00  0.00    -0.508 OA
ATOM     13  H   UNL     1       9.717  14.390  17.171  1.00  0.00     0.293 HD
ENDBRANCH  11  12
TORSDOF 1
ENDMDL
MODEL 4
REMARK VINA RESULT:    -4.187      1.520      2.234
REMARK INTER + INTRA:          -4.309
REMARK INTER:                  -4.309
REMARK INTRA:                   0.000
REMARK UNBOUND:                 0.000
REMARK SMILES O=c1ccc2cc(O)ccc2o1
REMARK SMILES IDX 9 1 10 2 11 3 5 4 4 5 3 6 2 7 1 8 12 9 6 10 7 11 8 12
REMARK H PARENT 8 13
REMARK Flexibility Score: inf
ROOT
ATOM      1  C   UNL     1      10.826  13.571  18.878  1.00  0.00     0.050 A 
ATOM      2  C   UNL     1      11.816  14.518  19.159  1.00  0.00     0.052 A 
ATOM      3  C   UNL     1      12.246  14.714  20.476  1.00  0.00     0.138 A 
ATOM      4  C   UNL     1      11.675  13.951  21.520  1.00  0.00     0.021 A 
ATOM      5  C   UNL     1      12.125  14.169  22.826  1.00  0.00     0.019 A 
ATOM      6  C   UNL     1      13.114  15.124  23.059  1.00  0.00     0.094 A 
ATOM      7  C   UNL     1      13.632  15.842  21.976  1.00  0.00     0.336 A 
ATOM      8  O   UNL     1      14.525  16.708  22.166  1.00  0.00    -0.246 OA
ATOM      9  O   UNL     1      13.187  15.616  20.743  1.00  0.00    -0.423 OA
ATOM     10  C   UNL     1      10.683  13.003  21.232  1.00  0.00     0.058 A 
ATOM     11  C   UNL     1      10.259  12.813  19.908  1.00  0.00     0.116 A 
ENDROOT
BRANCH  11  12
ATOM     12  O   UNL     1       9.274  11.875  19.608  1.00  0.00    -0.508 OA
ATOM     13  H   UNL     1       8.290  12.113  19.633  1.00  0.00     0.293 HD
ENDBRANCH  11  12
TORSDOF 1
ENDMDL
MODEL 5
REMARK VINA RESULT:    -4.148      1.591      4.696
REMARK INTER + INTRA:          -4.270
REMARK INTER:                  -4.270
REMARK INTRA:                   0.000
REMARK UNBOUND:                 0.000
REMARK SMILES O=c1ccc2cc(O)ccc2o1
REMARK SMILES IDX 9 1 10 2 11 3 5 4 4 5 3 6 2 7 1 8 12 9 6 10 7 11 8 12
REMARK H PARENT 8 13
REMARK Flexibility Score: inf
ROOT
ATOM      1  C   UNL     1      14.027  16.042  20.138  1.00  0.00     0.050 A 
ATOM      2  C   UNL     1      13.293  15.258  19.242  1.00  0.00     0.052 A 
ATOM      3  C   UNL     1      12.329  14.363  19.719  1.00  0.00     0.138 A 
ATOM      4  C   UNL     1      12.101  14.254  21.108  1.00  0.00     0.021 A 
ATOM      5  C   UNL     1      11.132  13.351  21.555  1.00  0.00     0.019 A 
ATOM      6  C   UNL     1      10.424  12.590  20.625  1.00  0.00     0.094 A 
ATOM      7  C   UNL     1      10.704  12.750  19.264  1.00  0.00     0.336 A 
ATOM      8  O   UNL     1      10.077  12.073  18.409  1.00  0.00    -0.246 OA
ATOM      9  O   UNL     1      11.632  13.617  18.865  1.00  0.00    -0.423 OA
ATOM     10  C   UNL     1      12.839  15.043  22.003  1.00  0.00     0.058 A 
ATOM     11  C   UNL     1      13.803  15.938  21.516  1.00  0.00     0.116 A 
ENDROOT
BRANCH  11  12
ATOM     12  O   UNL     1      14.544  16.727  22.392  1.00  0.00    -0.508 OA
ATOM     13  H   UNL     1      15.169  16.316  23.076  1.00  0.00     0.293 HD
ENDBRANCH  11  12
TORSDOF 1
ENDMDL
MODEL 6
REMARK VINA RESULT:    -4.099      2.204      3.729
REMARK INTER + INTRA:          -4.219
REMARK INTER:                  -4.219
REMARK INTRA:                   0.000
REMARK UNBOUND:                 0.000
REMARK SMILES O=c1ccc2cc(O)ccc2o1
REMARK SMILES IDX 9 1 10 2 11 3 5 4 4 5 3 6 2 7 1 8 12 9 6 10 7 11 8 12
REMARK H PARENT 8 13
REMARK Flexibility Score: inf
ROOT
ATOM      1  C   UNL     1      13.011  14.850  19.258  1.00  0.00     0.050 A 
ATOM      2  C   UNL     1      12.011  14.004  19.749  1.00  0.00     0.052 A 
ATOM      3  C   UNL     1      11.749  13.951  21.122  1.00  0.00     0.138 A 
ATOM      4  C   UNL     1      12.498  14.755  22.010  1.00  0.00     0.021 A 
ATOM      5  C   UNL     1      12.213  14.681  23.377  1.00  0.00     0.019 A 
ATOM      6  C   UNL     1      11.207  13.823  23.821  1.00  0.00     0.094 A 
ATOM      7  C   UNL     1      10.507  13.056  22.884  1.00  0.00     0.336 A 
ATOM      8  O   UNL     1       9.596  12.276  23.265  1.00  0.00    -0.246 OA
ATOM      9  O   UNL     1      10.798  13.145  21.589  1.00  0.00    -0.423 OA
ATOM     10  C   UNL     1      13.499  15.602  21.512  1.00  0.00     0.058 A 
ATOM     11  C   UNL     1      13.754  15.649  20.133  1.00  0.00     0.116 A 
ENDROOT
BRANCH  11  12
ATOM     12  O   UNL     1      14.745  16.485  19.625  1.00  0.00    -0.508 OA
ATOM     13  H   UNL     1      14.638  17.492  19.620  1.00  0.00     0.293 HD
ENDBRANCH  11  12
TORSDOF 1
ENDMDL
MODEL 7
REMARK VINA RESULT:    -4.090      1.785      4.685
REMARK INTER + INTRA:          -4.210
REMARK INTER:                  -4.210
REMARK INTRA:                   0.000
REMARK UNBOUND:                 0.000
REMARK SMILES O=c1ccc2cc(O)ccc2o1
REMARK SMILES IDX 9 1 10 2 11 3 5 4 4 5 3 6 2 7 1 8 12 9 6 10 7 11 8 12
REMARK H PARENT 8 13
REMARK Flexibility Score: inf
ROOT
ATOM      1  C   UNL     1      13.344  15.616  23.434  1.00  0.00     0.050 A 
ATOM      2  C   UNL     1      12.499  14.690  22.814  1.00  0.00     0.052 A 
ATOM      3  C   UNL     1      12.498  14.565  21.420  1.00  0.00     0.138 A 
ATOM      4  C   UNL     1      13.352  15.378  20.643  1.00  0.00     0.021 A 
ATOM      5  C   UNL     1      13.329  15.230  19.253  1.00  0.00     0.019 A 
ATOM      6  C   UNL     1      12.470  14.294  18.678  1.00  0.00     0.094 A 
ATOM      7  C   UNL     1      11.651  13.524  19.511  1.00  0.00     0.336 A 
ATOM      8  O   UNL     1      10.869  12.674  19.011  1.00  0.00    -0.246 OA
ATOM      9  O   UNL     1      11.692  13.684  20.831  1.00  0.00    -0.423 OA
ATOM     10  C   UNL     1      14.198  16.304  21.270  1.00  0.00     0.058 A 
ATOM     11  C   UNL     1      14.193  16.423  22.668  1.00  0.00     0.116 A 
ENDROOT
BRANCH  11  12
ATOM     12  O   UNL     1      15.027  17.339  23.304  1.00  0.00    -0.508 OA
ATOM     13  H   UNL     1      14.903  17.580  24.281  1.00  0.00     0.293 HD
ENDBRANCH  11  12
TORSDOF 1
ENDMDL
MODEL 8
REMARK VINA RESULT:    -3.986      1.143      2.158
REMARK INTER + INTRA:          -4.102
REMARK INTER:                  -4.102
REMARK INTRA:                   0.000
REMARK UNBOUND:                 0.000
REMARK SMILES O=c1ccc2cc(O)ccc2o1
REMARK SMILES IDX 9 1 10 2 11 3 5 4 4 5 3 6 2 7 1 8 12 9 6 10 7 11 8 12
REMARK H PARENT 8 13
REMARK Flexibility Score: inf
ROOT
ATOM      1  C   UNL     1      10.569  14.111  18.897  1.00  0.00     0.050 A 
ATOM      2  C   UNL     1      11.738  14.552  19.527  1.00  0.00     0.052 A 
ATOM      3  C   UNL     1      12.225  13.877  20.652  1.00  0.00     0.138 A 
ATOM      4  C   UNL     1      11.533  12.750  21.147  1.00  0.00     0.021 A 
ATOM      5  C   UNL     1      12.044  12.096  22.273  1.00  0.00     0.019 A 
ATOM      6  C   UNL     1      13.213  12.571  22.868  1.00  0.00     0.094 A 
ATOM      7  C   UNL     1      13.844  13.694  22.323  1.00  0.00     0.336 A 
ATOM      8  O   UNL     1      14.899  14.138  22.846  1.00  0.00    -0.246 OA
ATOM      9  O   UNL     1      13.336  14.298  21.251  1.00  0.00    -0.423 OA
ATOM     10  C   UNL     1      10.362  12.312  20.511  1.00  0.00     0.058 A 
ATOM     11  C   UNL     1       9.881  12.995  19.384  1.00  0.00     0.116 A 
ENDROOT
BRANCH  11  12
ATOM     12  O   UNL     1       8.720  12.571  18.742  1.00  0.00    -0.508 OA
ATOM     13  H   UNL     1       8.258  13.147  18.047  1.00  0.00     0.293 HD
ENDBRANCH  11  12
TORSDOF 1
ENDMDL
MODEL 9
REMARK VINA RESULT:    -3.902      2.345      3.206
REMARK INTER + INTRA:          -4.016
REMARK INTER:                  -4.016
REMARK INTRA:                   0.000
REMARK UNBOUND:                 0.000
REMARK SMILES O=c1ccc2cc(O)ccc2o1
REMARK SMILES IDX 9 1 10 2 11 3 5 4 4 5 3 6 2 7 1 8 12 9 6 10 7 11 8 12
REMARK H PARENT 8 13
REMARK Flexibility Score: inf
ROOT
ATOM      1  C   UNL     1      10.378  12.687  21.521  1.00  0.00     0.050 A 
ATOM      2  C   UNL     1      11.438  13.457  21.032  1.00  0.00     0.052 A 
ATOM      3  C   UNL     1      12.183  14.260  21.903  1.00  0.00     0.138 A 
ATOM      4  C   UNL     1      11.859  14.289  23.277  1.00  0.00     0.021 A 
ATOM      5  C   UNL     1      12.621  15.101  24.124  1.00  0.00     0.019 A 
ATOM      6  C   UNL     1      13.669  15.852  23.591  1.00  0.00     0.094 A 
ATOM      7  C   UNL     1      13.931  15.773  22.219  1.00  0.00     0.336 A 
ATOM      8  O   UNL     1      14.872  16.443  21.720  1.00  0.00    -0.246 OA
ATOM      9  O   UNL     1      13.191  14.993  21.436  1.00  0.00    -0.423 OA
ATOM     10  C   UNL     1      10.795  13.515  23.763  1.00  0.00     0.058 A 
ATOM     11  C   UNL     1      10.054  12.713  22.882  1.00  0.00     0.116 A 
ENDROOT
BRANCH  11  12
ATOM     12  O   UNL     1       8.995  11.939  23.350  1.00  0.00    -0.508 OA
ATOM     13  H   UNL     1       9.152  11.111  23.914  1.00  0.00     0.293 HD
ENDBRANCH  11  12
TORSDOF 1
ENDMDL
