MODEL 1
REMARK VINA RESULT:    -6.186      0.000      0.000
REMARK INTER + INTRA:          -8.411
REMARK INTER:                  -7.814
REMARK INTRA:                  -0.597
REMARK UNBOUND:                -0.597
REMARK SMILES O=C(C=Cc1ccc(O)cc1)c1ccc(O)cc1O
REMARK SMILES IDX 4 1 3 2 5 3 6 4 7 5 8 6 11 7 10 8 9 9 2 11 1 12 12 13 18 14
REMARK SMILES IDX 13 15 17 16 14 17 15 18 19 19 16 21
REMARK H PARENT 9 10 19 20 16 22
REMARK Flexibility Score: inf
ROOT
ATOM      1  C   UNL     1     -27.363 -18.371  -0.288  1.00  0.00     0.012 C 
ATOM      2  C   UNL     1     -26.486 -17.373  -0.464  1.00  0.00     0.053 C 
ENDROOT
BRANCH   1   3
ATOM      3  C   UNL     1     -27.049 -19.625   0.440  1.00  0.00    -0.025 A 
ATOM      4  C   UNL     1     -26.974 -19.588   1.843  1.00  0.00     0.012 A 
ATOM      5  C   UNL     1     -26.690 -20.748   2.571  1.00  0.00     0.047 A 
ATOM      6  C   UNL     1     -26.487 -21.964   1.908  1.00  0.00     0.115 A 
ATOM      7  C   UNL     1     -26.858 -20.857  -0.218  1.00  0.00     0.012 A 
ATOM      8  C   UNL     1     -26.575 -22.014   0.514  1.00  0.00     0.047 A 
BRANCH   6   9
ATOM      9  O   UNL     1     -26.203 -23.125   2.622  1.00  0.00    -0.508 OA
ATOM     10  H   UNL     1     -25.341 -23.637   2.478  1.00  0.00     0.293 HD
ENDBRANCH   6   9
ENDBRANCH   1   3
BRANCH   2  11
ATOM     11  C   UNL     1     -26.843 -16.128  -1.181  1.00  0.00     0.189 C 
ATOM     12  O   UNL     1     -27.658 -16.172  -2.143  1.00  0.00    -0.289 OA
BRANCH  11  13
ATOM     13  C   UNL     1     -26.261 -14.822  -0.779  1.00  0.00     0.064 A 
ATOM     14  C   UNL     1     -25.959 -13.835  -1.745  1.00  0.00     0.130 A 
ATOM     15  C   UNL     1     -25.982 -14.557   0.575  1.00  0.00     0.020 A 
ATOM     16  C   UNL     1     -25.394 -12.614  -1.346  1.00  0.00     0.093 A 
ATOM     17  C   UNL     1     -25.422 -13.336   0.961  1.00  0.00     0.047 A 
ATOM     18  C   UNL     1     -25.127 -12.363   0.001  1.00  0.00     0.119 A 
BRANCH  14  19
ATOM     19  O   UNL     1     -26.232 -14.060  -3.094  1.00  0.00    -0.507 OA
ATOM     20  H   UNL     1     -25.557 -13.839  -3.818  1.00  0.00     0.293 HD
ENDBRANCH  14  19
BRANCH  18  21
ATOM     21  O   UNL     1     -24.567 -11.142   0.376  1.00  0.00    -0.508 OA
ATOM     22  H   UNL     1     -23.566 -11.030   0.483  1.00  0.00     0.293 HD
ENDBRANCH  18  21
ENDBRANCH  11  13
ENDBRANCH   2  11
TORSDOF 6
ENDMDL
MODEL 2
REMARK VINA RESULT:    -6.186     13.337     13.724
REMARK INTER + INTRA:          -8.410
REMARK INTER:                  -7.835
REMARK INTRA:                  -0.575
REMARK UNBOUND:                -0.597
REMARK SMILES O=C(C=Cc1ccc(O)cc1)c1ccc(O)cc1O
REMARK SMILES IDX 4 1 3 2 5 3 6 4 7 5 8 6 11 7 10 8 9 9 2 11 1 12 12 13 18 14
REMARK SMILES IDX 13 15 17 16 14 17 15 18 19 19 16 21
REMARK H PARENT 9 10 19 20 16 22
REMARK Flexibility Score: inf
ROOT
ATOM      1  C   UNL     1     -36.204 -13.669  -8.229  1.00  0.00     0.012 C 
ATOM      2  C   UNL     1     -36.610 -12.580  -8.897  1.00  0.00     0.053 C 
ENDROOT
BRANCH   1   3
ATOM      3  C   UNL     1     -37.104 -14.784  -7.846  1.00  0.00    -0.025 A 
ATOM      4  C   UNL     1     -38.173 -14.517  -6.972  1.00  0.00     0.012 A 
ATOM      5  C   UNL     1     -39.053 -15.535  -6.592  1.00  0.00     0.047 A 
ATOM      6  C   UNL     1     -38.884 -16.833  -7.088  1.00  0.00     0.115 A 
ATOM      7  C   UNL     1     -36.952 -16.091  -8.352  1.00  0.00     0.012 A 
ATOM      8  C   UNL     1     -37.834 -17.106  -7.970  1.00  0.00     0.047 A 
BRANCH   6   9
ATOM      9  O   UNL     1     -39.754 -17.855  -6.716  1.00  0.00    -0.508 OA
ATOM     10  H   UNL     1     -39.898 -18.100  -5.743  1.00  0.00     0.293 HD
ENDBRANCH   6   9
ENDBRANCH   1   3
BRANCH   2  11
ATOM     11  C   UNL     1     -35.677 -11.497  -9.279  1.00  0.00     0.189 C 
ATOM     12  O   UNL     1     -35.048 -11.569 -10.371  1.00  0.00    -0.289 OA
BRANCH  11  13
ATOM     13  C   UNL     1     -35.474 -10.318  -8.399  1.00  0.00     0.064 A 
ATOM     14  C   UNL     1     -34.274  -9.573  -8.449  1.00  0.00     0.130 A 
ATOM     15  C   UNL     1     -36.473  -9.938  -7.483  1.00  0.00     0.020 A 
ATOM     16  C   UNL     1     -34.096  -8.473  -7.597  1.00  0.00     0.093 A 
ATOM     17  C   UNL     1     -36.286  -8.838  -6.641  1.00  0.00     0.047 A 
ATOM     18  C   UNL     1     -35.097  -8.104  -6.697  1.00  0.00     0.119 A 
BRANCH  14  19
ATOM     19  O   UNL     1     -33.267  -9.916  -9.352  1.00  0.00    -0.507 OA
ATOM     20  H   UNL     1     -32.535  -9.262  -9.606  1.00  0.00     0.293 HD
ENDBRANCH  14  19
BRANCH  18  21
ATOM     21  O   UNL     1     -34.900  -7.006  -5.860  1.00  0.00    -0.508 OA
ATOM     22  H   UNL     1     -35.517  -6.820  -5.078  1.00  0.00     0.293 HD
ENDBRANCH  18  21
ENDBRANCH  11  13
ENDBRANCH   2  11
TORSDOF 6
ENDMDL
MODEL 3
REMARK VINA RESULT:    -6.144      1.538      7.355
REMARK INTER + INTRA:          -8.357
REMARK INTER:                  -7.601
REMARK INTRA:                  -0.756
REMARK UNBOUND:                -0.597
REMARK SMILES O=C(C=Cc1ccc(O)cc1)c1ccc(O)cc1O
REMARK SMILES IDX 4 1 3 2 5 3 6 4 7 5 8 6 11 7 10 8 9 9 2 11 1 12 12 13 18 14
REMARK SMILES IDX 13 15 17 16 14 17 15 18 19 19 16 21
REMARK H PARENT 9 10 19 20 16 22
REMARK Flexibility Score: inf
ROOT
ATOM      1  C   UNL     1     -26.632 -16.861  -0.204  1.00  0.00     0.012 C 
ATOM      2  C   UNL     1     -27.818 -17.278   0.262  1.00  0.00     0.053 C 
ENDROOT
BRANCH   1   3
ATOM      3  C   UNL     1     -26.108 -15.487  -0.009  1.00  0.00    -0.025 A 
ATOM      4  C   UNL     1     -26.190 -14.910   1.270  1.00  0.00     0.012 A 
ATOM      5  C   UNL     1     -25.699 -13.622   1.503  1.00  0.00     0.047 A 
ATOM      6  C   UNL     1     -25.109 -12.895   0.462  1.00  0.00     0.115 A 
ATOM      7  C   UNL     1     -25.499 -14.753  -1.047  1.00  0.00     0.012 A 
ATOM      8  C   UNL     1     -25.008 -13.465  -0.810  1.00  0.00     0.047 A 
BRANCH   6   9
ATOM      9  O   UNL     1     -24.618 -11.611   0.681  1.00  0.00    -0.508 OA
ATOM     10  H   UNL     1     -25.235 -10.838   0.903  1.00  0.00     0.293 HD
ENDBRANCH   6   9
ENDBRANCH   1   3
BRANCH   2  11
ATOM     11  C   UNL     1     -28.299 -18.664   0.063  1.00  0.00     0.189 C 
ATOM     12  O   UNL     1     -29.343 -18.873  -0.614  1.00  0.00    -0.289 OA
BRANCH  11  13
ATOM     13  C   UNL     1     -27.566 -19.818   0.644  1.00  0.00     0.064 A 
ATOM     14  C   UNL     1     -27.154 -20.899  -0.168  1.00  0.00     0.130 A 
ATOM     15  C   UNL     1     -27.290 -19.860   2.024  1.00  0.00     0.020 A 
ATOM     16  C   UNL     1     -26.477 -21.986   0.403  1.00  0.00     0.093 A 
ATOM     17  C   UNL     1     -26.612 -20.946   2.582  1.00  0.00     0.047 A 
ATOM     18  C   UNL     1     -26.205 -22.012   1.772  1.00  0.00     0.119 A 
BRANCH  14  19
ATOM     19  O   UNL     1     -27.402 -20.885  -1.541  1.00  0.00    -0.507 OA
ATOM     20  H   UNL     1     -26.945 -21.534  -2.171  1.00  0.00     0.293 HD
ENDBRANCH  14  19
BRANCH  18  21
ATOM     21  O   UNL     1     -25.529 -23.102   2.320  1.00  0.00    -0.508 OA
ATOM     22  H   UNL     1     -25.993 -23.990   2.470  1.00  0.00     0.293 HD
ENDBRANCH  18  21
ENDBRANCH  11  13
ENDBRANCH   2  11
TORSDOF 6
ENDMDL
MODEL 4
REMARK VINA RESULT:    -6.021     13.351     15.451
REMARK INTER + INTRA:          -8.202
REMARK INTER:                  -7.577
REMARK INTRA:                  -0.624
REMARK UNBOUND:                -0.597
REMARK SMILES O=C(C=Cc1ccc(O)cc1)c1ccc(O)cc1O
REMARK SMILES IDX 4 1 3 2 5 3 6 4 7 5 8 6 11 7 10 8 9 9 2 11 1 12 12 13 18 14
REMARK SMILES IDX 13 15 17 16 14 17 15 18 19 19 16 21
REMARK H PARENT 9 10 19 20 16 22
REMARK Flexibility Score: inf
ROOT
ATOM      1  C   UNL     1     -36.438 -11.877  -8.633  1.00  0.00     0.012 C 
ATOM      2  C   UNL     1     -35.939 -13.090  -8.354  1.00  0.00     0.053 C 
ENDROOT
BRANCH   1   3
ATOM      3  C   UNL     1     -35.938 -10.621  -8.024  1.00  0.00    -0.025 A 
ATOM      4  C   UNL     1     -34.666 -10.151  -8.394  1.00  0.00     0.012 A 
ATOM      5  C   UNL     1     -34.159  -8.966  -7.852  1.00  0.00     0.047 A 
ATOM      6  C   UNL     1     -34.921  -8.227  -6.940  1.00  0.00     0.115 A 
ATOM      7  C   UNL     1     -36.704  -9.861  -7.116  1.00  0.00     0.012 A 
ATOM      8  C   UNL     1     -36.194  -8.676  -6.577  1.00  0.00     0.047 A 
BRANCH   6   9
ATOM      9  O   UNL     1     -34.426  -7.046  -6.394  1.00  0.00    -0.508 OA
ATOM     10  H   UNL     1     -33.474  -6.742  -6.563  1.00  0.00     0.293 HD
ENDBRANCH   6   9
ENDBRANCH   1   3
BRANCH   2  11
ATOM     11  C   UNL     1     -36.451 -14.320  -8.998  1.00  0.00     0.189 C 
ATOM     12  O   UNL     1     -36.201 -14.540 -10.215  1.00  0.00    -0.289 OA
BRANCH  11  13
ATOM     13  C   UNL     1     -37.252 -15.307  -8.230  1.00  0.00     0.064 A 
ATOM     14  C   UNL     1     -37.174 -16.688  -8.520  1.00  0.00     0.130 A 
ATOM     15  C   UNL     1     -38.121 -14.874  -7.210  1.00  0.00     0.020 A 
ATOM     16  C   UNL     1     -37.952 -17.602  -7.793  1.00  0.00     0.093 A 
ATOM     17  C   UNL     1     -38.889 -15.794  -6.490  1.00  0.00     0.047 A 
ATOM     18  C   UNL     1     -38.805 -17.159  -6.781  1.00  0.00     0.119 A 
BRANCH  14  19
ATOM     19  O   UNL     1     -36.316 -17.153  -9.517  1.00  0.00    -0.507 OA
ATOM     20  H   UNL     1     -35.474 -16.650  -9.771  1.00  0.00     0.293 HD
ENDBRANCH  14  19
BRANCH  18  21
ATOM     21  O   UNL     1     -39.568 -18.085  -6.070  1.00  0.00    -0.508 OA
ATOM     22  H   UNL     1     -39.580 -19.066  -6.322  1.00  0.00     0.293 HD
ENDBRANCH  18  21
ENDBRANCH  11  13
ENDBRANCH   2  11
TORSDOF 6
ENDMDL
MODEL 5
REMARK VINA RESULT:    -5.861     11.869     13.331
REMARK INTER + INTRA:          -7.999
REMARK INTER:                  -7.512
REMARK INTRA:                  -0.487
REMARK UNBOUND:                -0.597
REMARK SMILES O=C(C=Cc1ccc(O)cc1)c1ccc(O)cc1O
REMARK SMILES IDX 4 1 3 2 5 3 6 4 7 5 8 6 11 7 10 8 9 9 2 11 1 12 12 13 18 14
REMARK SMILES IDX 13 15 17 16 14 17 15 18 19 19 16 21
REMARK H PARENT 9 10 19 20 16 22
REMARK Flexibility Score: inf
ROOT
ATOM      1  C   UNL     1     -37.314 -13.598  -7.286  1.00  0.00     0.012 C 
ATOM      2  C   UNL     1     -36.762 -12.898  -8.288  1.00  0.00     0.053 C 
ENDROOT
BRANCH   1   3
ATOM      3  C   UNL     1     -37.838 -14.978  -7.438  1.00  0.00    -0.025 A 
ATOM      4  C   UNL     1     -39.068 -15.301  -6.841  1.00  0.00     0.012 A 
ATOM      5  C   UNL     1     -39.605 -16.586  -6.966  1.00  0.00     0.047 A 
ATOM      6  C   UNL     1     -38.924 -17.565  -7.699  1.00  0.00     0.115 A 
ATOM      7  C   UNL     1     -37.166 -15.966  -8.186  1.00  0.00     0.012 A 
ATOM      8  C   UNL     1     -37.707 -17.250  -8.310  1.00  0.00     0.047 A 
BRANCH   6   9
ATOM      9  O   UNL     1     -39.447 -18.849  -7.829  1.00  0.00    -0.508 OA
ATOM     10  H   UNL     1     -38.853 -19.646  -8.022  1.00  0.00     0.293 HD
ENDBRANCH   6   9
ENDBRANCH   1   3
BRANCH   2  11
ATOM     11  C   UNL     1     -36.233 -11.529  -8.094  1.00  0.00     0.189 C 
ATOM     12  O   UNL     1     -37.033 -10.568  -7.922  1.00  0.00    -0.289 OA
BRANCH  11  13
ATOM     13  C   UNL     1     -34.771 -11.269  -8.090  1.00  0.00     0.064 A 
ATOM     14  C   UNL     1     -34.267  -9.958  -8.251  1.00  0.00     0.130 A 
ATOM     15  C   UNL     1     -33.862 -12.334  -7.947  1.00  0.00     0.020 A 
ATOM     16  C   UNL     1     -32.882  -9.737  -8.261  1.00  0.00     0.093 A 
ATOM     17  C   UNL     1     -32.485 -12.102  -7.955  1.00  0.00     0.047 A 
ATOM     18  C   UNL     1     -31.992 -10.802  -8.113  1.00  0.00     0.119 A 
BRANCH  14  19
ATOM     19  O   UNL     1     -35.140  -8.878  -8.385  1.00  0.00    -0.507 OA
ATOM     20  H   UNL     1     -35.084  -8.244  -9.174  1.00  0.00     0.293 HD
ENDBRANCH  14  19
BRANCH  18  21
ATOM     21  O   UNL     1     -30.619 -10.559  -8.124  1.00  0.00    -0.508 OA
ATOM     22  H   UNL     1     -29.957 -11.251  -7.796  1.00  0.00     0.293 HD
ENDBRANCH  18  21
ENDBRANCH  11  13
ENDBRANCH   2  11
TORSDOF 6
ENDMDL
MODEL 6
REMARK VINA RESULT:    -5.855      1.999      3.024
REMARK INTER + INTRA:          -7.992
REMARK INTER:                  -7.293
REMARK INTRA:                  -0.699
REMARK UNBOUND:                -0.597
REMARK SMILES O=C(C=Cc1ccc(O)cc1)c1ccc(O)cc1O
REMARK SMILES IDX 4 1 3 2 5 3 6 4 7 5 8 6 11 7 10 8 9 9 2 11 1 12 12 13 18 14
REMARK SMILES IDX 13 15 17 16 14 17 15 18 19 19 16 21
REMARK H PARENT 9 10 19 20 16 22
REMARK Flexibility Score: inf
ROOT
ATOM      1  C   UNL     1     -26.323 -17.191   1.583  1.00  0.00     0.012 C 
ATOM      2  C   UNL     1     -26.824 -16.381   2.527  1.00  0.00     0.053 C 
ENDROOT
BRANCH   1   3
ATOM      3  C   UNL     1     -26.705 -18.616   1.433  1.00  0.00    -0.025 A 
ATOM      4  C   UNL     1     -26.981 -19.108   0.146  1.00  0.00     0.012 A 
ATOM      5  C   UNL     1     -27.336 -20.447  -0.043  1.00  0.00     0.047 A 
ATOM      6  C   UNL     1     -27.410 -21.317   1.050  1.00  0.00     0.115 A 
ATOM      7  C   UNL     1     -26.768 -19.504   2.527  1.00  0.00     0.012 A 
ATOM      8  C   UNL     1     -27.122 -20.843   2.333  1.00  0.00     0.047 A 
BRANCH   6   9
ATOM      9  O   UNL     1     -27.763 -22.653   0.874  1.00  0.00    -0.508 OA
ATOM     10  H   UNL     1     -27.069 -23.360   0.658  1.00  0.00     0.293 HD
ENDBRANCH   6   9
ENDBRANCH   1   3
BRANCH   2  11
ATOM     11  C   UNL     1     -26.431 -14.958   2.633  1.00  0.00     0.189 C 
ATOM     12  O   UNL     1     -26.121 -14.476   3.758  1.00  0.00    -0.289 OA
BRANCH  11  13
ATOM     13  C   UNL     1     -26.389 -14.086   1.432  1.00  0.00     0.064 A 
ATOM     14  C   UNL     1     -25.245 -13.309   1.140  1.00  0.00     0.130 A 
ATOM     15  C   UNL     1     -27.503 -14.006   0.575  1.00  0.00     0.020 A 
ATOM     16  C   UNL     1     -25.232 -12.479   0.009  1.00  0.00     0.093 A 
ATOM     17  C   UNL     1     -27.478 -13.179  -0.551  1.00  0.00     0.047 A 
ATOM     18  C   UNL     1     -26.342 -12.414  -0.836  1.00  0.00     0.119 A 
BRANCH  14  19
ATOM     19  O   UNL     1     -24.119 -13.372   1.962  1.00  0.00    -0.507 OA
ATOM     20  H   UNL     1     -23.654 -14.250   2.161  1.00  0.00     0.293 HD
ENDBRANCH  14  19
BRANCH  18  21
ATOM     21  O   UNL     1     -26.307 -11.584  -1.955  1.00  0.00    -0.508 OA
ATOM     22  H   UNL     1     -26.481 -10.588  -1.882  1.00  0.00     0.293 HD
ENDBRANCH  18  21
ENDBRANCH  11  13
ENDBRANCH   2  11
TORSDOF 6
ENDMDL
MODEL 7
REMARK VINA RESULT:    -5.841      5.313      6.891
REMARK INTER + INTRA:          -7.974
REMARK INTER:                  -7.282
REMARK INTRA:                  -0.692
REMARK UNBOUND:                -0.597
REMARK SMILES O=C(C=Cc1ccc(O)cc1)c1ccc(O)cc1O
REMARK SMILES IDX 4 1 3 2 5 3 6 4 7 5 8 6 11 7 10 8 9 9 2 11 1 12 12 13 18 14
REMARK SMILES IDX 13 15 17 16 14 17 15 18 19 19 16 21
REMARK H PARENT 9 10 19 20 16 22
REMARK Flexibility Score: inf
ROOT
ATOM      1  C   UNL     1     -29.026 -16.309  -6.095  1.00  0.00     0.012 C 
ATOM      2  C   UNL     1     -29.601 -16.027  -4.917  1.00  0.00     0.053 C 
ENDROOT
BRANCH   1   3
ATOM      3  C   UNL     1     -29.379 -17.489  -6.921  1.00  0.00    -0.025 A 
ATOM      4  C   UNL     1     -29.313 -18.766  -6.337  1.00  0.00     0.012 A 
ATOM      5  C   UNL     1     -29.647 -19.905  -7.075  1.00  0.00     0.047 A 
ATOM      6  C   UNL     1     -30.061 -19.785  -8.406  1.00  0.00     0.115 A 
ATOM      7  C   UNL     1     -29.812 -17.377  -8.258  1.00  0.00     0.012 A 
ATOM      8  C   UNL     1     -30.146 -18.519  -8.993  1.00  0.00     0.047 A 
BRANCH   6   9
ATOM      9  O   UNL     1     -30.395 -20.912  -9.152  1.00  0.00    -0.508 OA
ATOM     10  H   UNL     1     -31.072 -20.868  -9.905  1.00  0.00     0.293 HD
ENDBRANCH   6   9
ENDBRANCH   1   3
BRANCH   2  11
ATOM     11  C   UNL     1     -29.235 -14.828  -4.129  1.00  0.00     0.189 C 
ATOM     12  O   UNL     1     -29.936 -13.783  -4.218  1.00  0.00    -0.289 OA
BRANCH  11  13
ATOM     13  C   UNL     1     -28.056 -14.838  -3.227  1.00  0.00     0.064 A 
ATOM     14  C   UNL     1     -27.154 -13.751  -3.199  1.00  0.00     0.130 A 
ATOM     15  C   UNL     1     -27.808 -15.948  -2.397  1.00  0.00     0.020 A 
ATOM     16  C   UNL     1     -26.037 -13.788  -2.351  1.00  0.00     0.093 A 
ATOM     17  C   UNL     1     -26.695 -15.973  -1.553  1.00  0.00     0.047 A 
ATOM     18  C   UNL     1     -25.807 -14.892  -1.529  1.00  0.00     0.119 A 
BRANCH  14  19
ATOM     19  O   UNL     1     -27.374 -12.630  -4.001  1.00  0.00    -0.507 OA
ATOM     20  H   UNL     1     -27.571 -11.720  -3.601  1.00  0.00     0.293 HD
ENDBRANCH  14  19
BRANCH  18  21
ATOM     21  O   UNL     1     -24.692 -14.908  -0.693  1.00  0.00    -0.508 OA
ATOM     22  H   UNL     1     -23.763 -14.705  -1.045  1.00  0.00     0.293 HD
ENDBRANCH  18  21
ENDBRANCH  11  13
ENDBRANCH   2  11
TORSDOF 6
ENDMDL
MODEL 8
REMARK VINA RESULT:    -5.780     12.707     15.408
REMARK INTER + INTRA:          -7.897
REMARK INTER:                  -7.290
REMARK INTRA:                  -0.607
REMARK UNBOUND:                -0.597
REMARK SMILES O=C(C=Cc1ccc(O)cc1)c1ccc(O)cc1O
REMARK SMILES IDX 4 1 3 2 5 3 6 4 7 5 8 6 11 7 10 8 9 9 2 11 1 12 12 13 18 14
REMARK SMILES IDX 13 15 17 16 14 17 15 18 19 19 16 21
REMARK H PARENT 9 10 19 20 16 22
REMARK Flexibility Score: inf
ROOT
ATOM      1  C   UNL     1     -37.074 -10.854  -7.859  1.00  0.00     0.012 C 
ATOM      2  C   UNL     1     -36.849 -12.142  -7.559  1.00  0.00     0.053 C 
ENDROOT
BRANCH   1   3
ATOM      3  C   UNL     1     -36.076  -9.776  -7.654  1.00  0.00    -0.025 A 
ATOM      4  C   UNL     1     -36.322  -8.810  -6.662  1.00  0.00     0.012 A 
ATOM      5  C   UNL     1     -35.404  -7.782  -6.428  1.00  0.00     0.047 A 
ATOM      6  C   UNL     1     -34.222  -7.709  -7.174  1.00  0.00     0.115 A 
ATOM      7  C   UNL     1     -34.876  -9.703  -8.390  1.00  0.00     0.012 A 
ATOM      8  C   UNL     1     -33.961  -8.672  -8.152  1.00  0.00     0.047 A 
BRANCH   6   9
ATOM      9  O   UNL     1     -33.302  -6.688  -6.950  1.00  0.00    -0.508 OA
ATOM     10  H   UNL     1     -33.542  -5.715  -7.101  1.00  0.00     0.293 HD
ENDBRANCH   6   9
ENDBRANCH   1   3
BRANCH   2  11
ATOM     11  C   UNL     1     -37.864 -13.194  -7.796  1.00  0.00     0.189 C 
ATOM     12  O   UNL     1     -39.022 -12.871  -8.178  1.00  0.00    -0.289 OA
BRANCH  11  13
ATOM     13  C   UNL     1     -37.536 -14.629  -7.598  1.00  0.00     0.064 A 
ATOM     14  C   UNL     1     -38.269 -15.421  -6.686  1.00  0.00     0.130 A 
ATOM     15  C   UNL     1     -36.470 -15.217  -8.306  1.00  0.00     0.020 A 
ATOM     16  C   UNL     1     -37.933 -16.770  -6.502  1.00  0.00     0.093 A 
ATOM     17  C   UNL     1     -36.146 -16.562  -8.117  1.00  0.00     0.047 A 
ATOM     18  C   UNL     1     -36.877 -17.342  -7.215  1.00  0.00     0.119 A 
BRANCH  14  19
ATOM     19  O   UNL     1     -39.338 -14.874  -5.975  1.00  0.00    -0.507 OA
ATOM     20  H   UNL     1     -39.192 -14.214  -5.220  1.00  0.00     0.293 HD
ENDBRANCH  14  19
BRANCH  18  21
ATOM     21  O   UNL     1     -36.560 -18.685  -7.018  1.00  0.00    -0.508 OA
ATOM     22  H   UNL     1     -37.029 -19.241  -6.312  1.00  0.00     0.293 HD
ENDBRANCH  18  21
ENDBRANCH  11  13
ENDBRANCH   2  11
TORSDOF 6
ENDMDL
MODEL 9
REMARK VINA RESULT:    -5.727     12.405     15.277
REMARK INTER + INTRA:          -7.831
REMARK INTER:                  -7.200
REMARK INTRA:                  -0.631
REMARK UNBOUND:                -0.597
REMARK SMILES O=C(C=Cc1ccc(O)cc1)c1ccc(O)cc1O
REMARK SMILES IDX 4 1 3 2 5 3 6 4 7 5 8 6 11 7 10 8 9 9 2 11 1 12 12 13 18 14
REMARK SMILES IDX 13 15 17 16 14 17 15 18 19 19 16 21
REMARK H PARENT 9 10 19 20 16 22
REMARK Flexibility Score: inf
ROOT
ATOM      1  C   UNL     1     -38.104 -15.064  -7.423  1.00  0.00     0.012 C 
ATOM      2  C   UNL     1     -37.738 -16.258  -7.913  1.00  0.00     0.053 C 
ENDROOT
BRANCH   1   3
ATOM      3  C   UNL     1     -37.328 -13.817  -7.629  1.00  0.00    -0.025 A 
ATOM      4  C   UNL     1     -36.040 -13.908  -8.184  1.00  0.00     0.012 A 
ATOM      5  C   UNL     1     -35.277 -12.758  -8.406  1.00  0.00     0.047 A 
ATOM      6  C   UNL     1     -35.794 -11.497  -8.085  1.00  0.00     0.115 A 
ATOM      7  C   UNL     1     -37.847 -12.542  -7.324  1.00  0.00     0.012 A 
ATOM      8  C   UNL     1     -37.080 -11.394  -7.548  1.00  0.00     0.047 A 
BRANCH   6   9
ATOM      9  O   UNL     1     -35.043 -10.345  -8.300  1.00  0.00    -0.508 OA
ATOM     10  H   UNL     1     -34.129 -10.382  -8.737  1.00  0.00     0.293 HD
ENDBRANCH   6   9
ENDBRANCH   1   3
BRANCH   2  11
ATOM     11  C   UNL     1     -38.550 -17.478  -7.702  1.00  0.00     0.189 C 
ATOM     12  O   UNL     1     -39.795 -17.442  -7.899  1.00  0.00    -0.289 OA
BRANCH  11  13
ATOM     13  C   UNL     1     -37.917 -18.750  -7.269  1.00  0.00     0.064 A 
ATOM     14  C   UNL     1     -38.441 -19.486  -6.182  1.00  0.00     0.130 A 
ATOM     15  C   UNL     1     -36.768 -19.230  -7.926  1.00  0.00     0.020 A 
ATOM     16  C   UNL     1     -37.819 -20.677  -5.779  1.00  0.00     0.093 A 
ATOM     17  C   UNL     1     -36.159 -20.419  -7.517  1.00  0.00     0.047 A 
ATOM     18  C   UNL     1     -36.683 -21.144  -6.442  1.00  0.00     0.119 A 
BRANCH  14  19
ATOM     19  O   UNL     1     -39.584 -19.045  -5.515  1.00  0.00    -0.507 OA
ATOM     20  H   UNL     1     -40.103 -19.652  -4.890  1.00  0.00     0.293 HD
ENDBRANCH  14  19
BRANCH  18  21
ATOM     21  O   UNL     1     -36.081 -22.331  -6.025  1.00  0.00    -0.508 OA
ATOM     22  H   UNL     1     -35.391 -22.804  -6.597  1.00  0.00     0.293 HD
ENDBRANCH  18  21
ENDBRANCH  11  13
ENDBRANCH   2  11
TORSDOF 6
ENDMDL
