MODEL 1
REMARK VINA RESULT:    -5.252      0.000      0.000
REMARK INTER + INTRA:          -7.777
REMARK INTER:                  -7.248
REMARK INTRA:                  -0.529
REMARK UNBOUND:                -0.529
REMARK SMILES CCCCc1cccc(O)c1CCCC
REMARK SMILES IDX 5 1 11 2 9 3 8 4 7 5 6 6 4 7 3 8 2 9 1 10 12 11 13 12 14 13
REMARK SMILES IDX 15 14 10 15
REMARK H PARENT 10 16
REMARK Flexibility Score: inf
ROOT
ATOM      1  C   UNL     1     -10.444   5.842   6.917  1.00  0.00    -0.041 A 
ATOM      2  C   UNL     1     -10.934   4.676   6.254  1.00  0.00    -0.003 A 
ATOM      3  C   UNL     1     -11.216   3.514   7.011  1.00  0.00     0.119 A 
ATOM      4  C   UNL     1     -11.008   3.503   8.392  1.00  0.00     0.046 A 
ATOM      5  C   UNL     1     -10.535   4.638   9.040  1.00  0.00     0.004 A 
ATOM      6  C   UNL     1     -10.265   5.798   8.318  1.00  0.00     0.004 A 
ENDROOT
BRANCH   1   7
ATOM      7  C   UNL     1     -10.193   7.129   6.134  1.00  0.00     0.036 C 
BRANCH   7   8
ATOM      8  C   UNL     1      -8.783   7.732   6.261  1.00  0.00     0.004 C 
BRANCH   8   9
ATOM      9  C   UNL     1      -8.424   8.556   5.019  1.00  0.00    -0.003 C 
ATOM     10  C   UNL     1      -7.316   9.559   5.325  1.00  0.00     0.004 C 
ENDBRANCH   8   9
ENDBRANCH   7   8
ENDBRANCH   1   7
BRANCH   2  11
ATOM     11  C   UNL     1     -11.164   4.628   4.750  1.00  0.00     0.040 C 
BRANCH  11  12
ATOM     12  C   UNL     1     -12.654   4.719   4.378  1.00  0.00     0.005 C 
BRANCH  12  13
ATOM     13  C   UNL     1     -13.464   5.551   5.381  1.00  0.00    -0.003 C 
ATOM     14  C   UNL     1     -14.033   6.804   4.722  1.00  0.00     0.004 C 
ENDBRANCH  12  13
ENDBRANCH  11  12
ENDBRANCH   2  11
BRANCH   3  15
ATOM     15  O   UNL     1     -11.713   2.371   6.385  1.00  0.00    -0.508 OA
ATOM     16  H   UNL     1     -12.070   1.584   6.916  1.00  0.00     0.293 HD
ENDBRANCH   3  15
TORSDOF 7
ENDMDL
MODEL 2
REMARK VINA RESULT:    -5.096     16.574     18.499
REMARK INTER + INTRA:          -7.561
REMARK INTER:                  -6.689
REMARK INTRA:                  -0.872
REMARK UNBOUND:                -0.529
REMARK SMILES CCCCc1cccc(O)c1CCCC
REMARK SMILES IDX 5 1 11 2 9 3 8 4 7 5 6 6 4 7 3 8 2 9 1 10 12 11 13 12 14 13
REMARK SMILES IDX 15 14 10 15
REMARK H PARENT 10 16
REMARK Flexibility Score: inf
ROOT
ATOM      1  C   UNL     1     -12.572  -6.691  -7.659  1.00  0.00    -0.041 A 
ATOM      2  C   UNL     1     -11.515  -5.730  -7.682  1.00  0.00    -0.003 A 
ATOM      3  C   UNL     1     -10.932  -5.310  -6.464  1.00  0.00     0.119 A 
ATOM      4  C   UNL     1     -11.392  -5.820  -5.247  1.00  0.00     0.046 A 
ATOM      5  C   UNL     1     -12.417  -6.757  -5.223  1.00  0.00     0.004 A 
ATOM      6  C   UNL     1     -12.996  -7.197  -6.410  1.00  0.00     0.004 A 
ENDROOT
BRANCH   1   7
ATOM      7  C   UNL     1     -13.175  -7.209  -8.962  1.00  0.00     0.036 C 
BRANCH   7   8
ATOM      8  C   UNL     1     -14.663  -6.895  -9.190  1.00  0.00     0.004 C 
BRANCH   8   9
ATOM      9  C   UNL     1     -15.016  -5.496  -8.671  1.00  0.00    -0.003 C 
ATOM     10  C   UNL     1     -15.125  -4.495  -9.818  1.00  0.00     0.004 C 
ENDBRANCH   8   9
ENDBRANCH   7   8
ENDBRANCH   1   7
BRANCH   2  11
ATOM     11  C   UNL     1     -10.986  -5.130  -8.978  1.00  0.00     0.040 C 
BRANCH  11  12
ATOM     12  C   UNL     1     -11.551  -3.725  -9.250  1.00  0.00     0.005 C 
BRANCH  12  13
ATOM     13  C   UNL     1     -10.454  -2.690  -9.531  1.00  0.00    -0.003 C 
ATOM     14  C   UNL     1     -11.054  -1.367  -9.996  1.00  0.00     0.004 C 
ENDBRANCH  12  13
ENDBRANCH  11  12
ENDBRANCH   2  11
BRANCH   3  15
ATOM     15  O   UNL     1      -9.885  -4.387  -6.467  1.00  0.00    -0.508 OA
ATOM     16  H   UNL     1     -10.052  -3.391  -6.380  1.00  0.00     0.293 HD
ENDBRANCH   3  15
TORSDOF 7
ENDMDL
MODEL 3
REMARK VINA RESULT:    -5.095      1.644      4.415
REMARK INTER + INTRA:          -7.559
REMARK INTER:                  -6.869
REMARK INTRA:                  -0.690
REMARK UNBOUND:                -0.529
REMARK SMILES CCCCc1cccc(O)c1CCCC
REMARK SMILES IDX 5 1 11 2 9 3 8 4 7 5 6 6 4 7 3 8 2 9 1 10 12 11 13 12 14 13
REMARK SMILES IDX 15 14 10 15
REMARK H PARENT 10 16
REMARK Flexibility Score: inf
ROOT
ATOM      1  C   UNL     1     -11.904   4.827   6.423  1.00  0.00    -0.041 A 
ATOM      2  C   UNL     1     -10.718   5.551   6.754  1.00  0.00    -0.003 A 
ATOM      3  C   UNL     1     -10.330   5.665   8.109  1.00  0.00     0.119 A 
ATOM      4  C   UNL     1     -11.103   5.085   9.117  1.00  0.00     0.046 A 
ATOM      5  C   UNL     1     -12.255   4.376   8.798  1.00  0.00     0.004 A 
ATOM      6  C   UNL     1     -12.649   4.238   7.470  1.00  0.00     0.004 A 
ENDROOT
BRANCH   1   7
ATOM      7  C   UNL     1     -12.312   4.634   4.964  1.00  0.00     0.036 C 
BRANCH   7   8
ATOM      8  C   UNL     1     -13.577   5.382   4.512  1.00  0.00     0.004 C 
BRANCH   8   9
ATOM      9  C   UNL     1     -13.574   6.827   5.024  1.00  0.00    -0.003 C 
ATOM     10  C   UNL     1     -14.865   7.150   5.772  1.00  0.00     0.004 C 
ENDBRANCH   8   9
ENDBRANCH   7   8
ENDBRANCH   1   7
BRANCH   2  11
ATOM     11  C   UNL     1      -9.848   6.217   5.697  1.00  0.00     0.040 C 
BRANCH  11  12
ATOM     12  C   UNL     1      -9.836   7.750   5.824  1.00  0.00     0.005 C 
BRANCH  12  13
ATOM     13  C   UNL     1      -8.540   8.378   5.293  1.00  0.00    -0.003 C 
ATOM     14  C   UNL     1      -7.811   9.145   6.393  1.00  0.00     0.004 C 
ENDBRANCH  12  13
ENDBRANCH  11  12
ENDBRANCH   2  11
BRANCH   3  15
ATOM     15  O   UNL     1      -9.165   6.352   8.450  1.00  0.00    -0.508 OA
ATOM     16  H   UNL     1      -8.400   6.467   7.794  1.00  0.00     0.293 HD
ENDBRANCH   3  15
TORSDOF 7
ENDMDL
MODEL 4
REMARK VINA RESULT:    -4.923     16.288     18.338
REMARK INTER + INTRA:          -7.322
REMARK INTER:                  -6.170
REMARK INTRA:                  -1.151
REMARK UNBOUND:                -0.529
REMARK SMILES CCCCc1cccc(O)c1CCCC
REMARK SMILES IDX 5 1 11 2 9 3 8 4 7 5 6 6 4 7 3 8 2 9 1 10 12 11 13 12 14 13
REMARK SMILES IDX 15 14 10 15
REMARK H PARENT 10 16
REMARK Flexibility Score: inf
ROOT
ATOM      1  C   UNL     1     -10.616  -4.521  -7.030  1.00  0.00    -0.041 A 
ATOM      2  C   UNL     1     -10.512  -4.949  -8.389  1.00  0.00    -0.003 A 
ATOM      3  C   UNL     1     -10.360  -3.983  -9.411  1.00  0.00     0.119 A 
ATOM      4  C   UNL     1     -10.324  -2.622  -9.098  1.00  0.00     0.046 A 
ATOM      5  C   UNL     1     -10.421  -2.204  -7.777  1.00  0.00     0.004 A 
ATOM      6  C   UNL     1     -10.555  -3.137  -6.752  1.00  0.00     0.004 A 
ENDROOT
BRANCH   1   7
ATOM      7  C   UNL     1     -10.716  -5.545  -5.902  1.00  0.00     0.036 C 
BRANCH   7   8
ATOM      8  C   UNL     1     -12.124  -5.790  -5.334  1.00  0.00     0.004 C 
BRANCH   8   9
ATOM      9  C   UNL     1     -12.458  -7.286  -5.318  1.00  0.00    -0.003 C 
ATOM     10  C   UNL     1     -11.252  -8.125  -5.729  1.00  0.00     0.004 C 
ENDBRANCH   8   9
ENDBRANCH   7   8
ENDBRANCH   1   7
BRANCH   2  11
ATOM     11  C   UNL     1     -10.562  -6.418  -8.788  1.00  0.00     0.040 C 
BRANCH  11  12
ATOM     12  C   UNL     1     -11.929  -6.825  -9.365  1.00  0.00     0.005 C 
BRANCH  12  13
ATOM     13  C   UNL     1     -13.094  -6.063  -8.722  1.00  0.00    -0.003 C 
ATOM     14  C   UNL     1     -14.313  -6.964  -8.553  1.00  0.00     0.004 C 
ENDBRANCH  12  13
ENDBRANCH  11  12
ENDBRANCH   2  11
BRANCH   3  15
ATOM     15  O   UNL     1     -10.238  -4.382 -10.742  1.00  0.00    -0.508 OA
ATOM     16  H   UNL     1     -11.045  -4.641 -11.298  1.00  0.00     0.293 HD
ENDBRANCH   3  15
TORSDOF 7
ENDMDL
MODEL 5
REMARK VINA RESULT:    -4.906     16.651     18.851
REMARK INTER + INTRA:          -7.299
REMARK INTER:                  -6.183
REMARK INTRA:                  -1.116
REMARK UNBOUND:                -0.529
REMARK SMILES CCCCc1cccc(O)c1CCCC
REMARK SMILES IDX 5 1 11 2 9 3 8 4 7 5 6 6 4 7 3 8 2 9 1 10 12 11 13 12 14 13
REMARK SMILES IDX 15 14 10 15
REMARK H PARENT 10 16
REMARK Flexibility Score: inf
ROOT
ATOM      1  C   UNL     1     -11.209  -6.549  -6.506  1.00  0.00    -0.041 A 
ATOM      2  C   UNL     1     -11.050  -6.579  -7.925  1.00  0.00    -0.003 A 
ATOM      3  C   UNL     1     -10.757  -5.380  -8.616  1.00  0.00     0.119 A 
ATOM      4  C   UNL     1     -10.635  -4.174  -7.919  1.00  0.00     0.046 A 
ATOM      5  C   UNL     1     -10.785  -4.144  -6.539  1.00  0.00     0.004 A 
ATOM      6  C   UNL     1     -11.059  -5.314  -5.835  1.00  0.00     0.004 A 
ENDROOT
BRANCH   1   7
ATOM      7  C   UNL     1     -11.462  -7.839  -5.729  1.00  0.00     0.036 C 
BRANCH   7   8
ATOM      8  C   UNL     1     -12.643  -7.813  -4.744  1.00  0.00     0.004 C 
BRANCH   8   9
ATOM      9  C   UNL     1     -13.963  -8.124  -5.460  1.00  0.00    -0.003 C 
ATOM     10  C   UNL     1     -14.922  -6.939  -5.389  1.00  0.00     0.004 C 
ENDBRANCH   8   9
ENDBRANCH   7   8
ENDBRANCH   1   7
BRANCH   2  11
ATOM     11  C   UNL     1     -11.188  -7.860  -8.735  1.00  0.00     0.040 C 
BRANCH  11  12
ATOM     12  C   UNL     1     -12.421  -7.845  -9.656  1.00  0.00     0.005 C 
BRANCH  12  13
ATOM     13  C   UNL     1     -13.741  -7.780  -8.876  1.00  0.00    -0.003 C 
ATOM     14  C   UNL     1     -14.409  -6.418  -9.040  1.00  0.00     0.004 C 
ENDBRANCH  12  13
ENDBRANCH  11  12
ENDBRANCH   2  11
BRANCH   3  15
ATOM     15  O   UNL     1     -10.579  -5.391 -10.000  1.00  0.00    -0.508 OA
ATOM     16  H   UNL     1     -11.224  -4.920 -10.624  1.00  0.00     0.293 HD
ENDBRANCH   3  15
TORSDOF 7
ENDMDL
MODEL 6
REMARK VINA RESULT:    -4.878     16.647     17.858
REMARK INTER + INTRA:          -7.260
REMARK INTER:                  -6.390
REMARK INTRA:                  -0.870
REMARK UNBOUND:                -0.529
REMARK SMILES CCCCc1cccc(O)c1CCCC
REMARK SMILES IDX 5 1 11 2 9 3 8 4 7 5 6 6 4 7 3 8 2 9 1 10 12 11 13 12 14 13
REMARK SMILES IDX 15 14 10 15
REMARK H PARENT 10 16
REMARK Flexibility Score: inf
ROOT
ATOM      1  C   UNL     1     -11.571  -4.969  -7.743  1.00  0.00    -0.041 A 
ATOM      2  C   UNL     1     -12.684  -5.864  -7.734  1.00  0.00    -0.003 A 
ATOM      3  C   UNL     1     -12.973  -6.601  -6.562  1.00  0.00     0.119 A 
ATOM      4  C   UNL     1     -12.171  -6.466  -5.426  1.00  0.00     0.046 A 
ATOM      5  C   UNL     1     -11.090  -5.594  -5.431  1.00  0.00     0.004 A 
ATOM      6  C   UNL     1     -10.795  -4.846  -6.568  1.00  0.00     0.004 A 
ENDROOT
BRANCH   1   7
ATOM      7  C   UNL     1     -11.275  -4.114  -8.972  1.00  0.00     0.036 C 
BRANCH   7   8
ATOM      8  C   UNL     1     -10.643  -2.737  -8.700  1.00  0.00     0.004 C 
BRANCH   8   9
ATOM      9  C   UNL     1     -10.558  -1.908  -9.987  1.00  0.00    -0.003 C 
ATOM     10  C   UNL     1     -11.578  -0.772  -9.980  1.00  0.00     0.004 C 
ENDBRANCH   8   9
ENDBRANCH   7   8
ENDBRANCH   1   7
BRANCH   2  11
ATOM     11  C   UNL     1     -13.581  -6.062  -8.949  1.00  0.00     0.040 C 
BRANCH  11  12
ATOM     12  C   UNL     1     -14.853  -5.199  -8.889  1.00  0.00     0.005 C 
BRANCH  12  13
ATOM     13  C   UNL     1     -15.125  -4.453 -10.201  1.00  0.00    -0.003 C 
ATOM     14  C   UNL     1     -14.624  -3.013 -10.128  1.00  0.00     0.004 C 
ENDBRANCH  12  13
ENDBRANCH  11  12
ENDBRANCH   2  11
BRANCH   3  15
ATOM     15  O   UNL     1     -14.068  -7.466  -6.528  1.00  0.00    -0.508 OA
ATOM     16  H   UNL     1     -14.215  -8.111  -5.759  1.00  0.00     0.293 HD
ENDBRANCH   3  15
TORSDOF 7
ENDMDL
MODEL 7
REMARK VINA RESULT:    -4.820      2.087      5.267
REMARK INTER + INTRA:          -7.180
REMARK INTER:                  -6.212
REMARK INTRA:                  -0.968
REMARK UNBOUND:                -0.529
REMARK SMILES CCCCc1cccc(O)c1CCCC
REMARK SMILES IDX 5 1 11 2 9 3 8 4 7 5 6 6 4 7 3 8 2 9 1 10 12 11 13 12 14 13
REMARK SMILES IDX 15 14 10 15
REMARK H PARENT 10 16
REMARK Flexibility Score: inf
ROOT
ATOM      1  C   UNL     1     -12.088   5.668   5.593  1.00  0.00    -0.041 A 
ATOM      2  C   UNL     1     -11.497   6.843   6.151  1.00  0.00    -0.003 A 
ATOM      3  C   UNL     1     -12.286   8.005   6.315  1.00  0.00     0.119 A 
ATOM      4  C   UNL     1     -13.628   8.010   5.926  1.00  0.00     0.046 A 
ATOM      5  C   UNL     1     -14.206   6.867   5.387  1.00  0.00     0.004 A 
ATOM      6  C   UNL     1     -13.453   5.706   5.230  1.00  0.00     0.004 A 
ENDROOT
BRANCH   1   7
ATOM      7  C   UNL     1     -11.277   4.380   5.464  1.00  0.00     0.036 C 
BRANCH   7   8
ATOM      8  C   UNL     1     -11.616   3.266   6.469  1.00  0.00     0.004 C 
BRANCH   8   9
ATOM      9  C   UNL     1     -11.021   3.569   7.849  1.00  0.00    -0.003 C 
ATOM     10  C   UNL     1     -12.115   3.904   8.859  1.00  0.00     0.004 C 
ENDBRANCH   8   9
ENDBRANCH   7   8
ENDBRANCH   1   7
BRANCH   2  11
ATOM     11  C   UNL     1     -10.036   6.898   6.576  1.00  0.00     0.040 C 
BRANCH  11  12
ATOM     12  C   UNL     1      -9.090   7.183   5.397  1.00  0.00     0.005 C 
BRANCH  12  13
ATOM     13  C   UNL     1      -8.652   8.652   5.331  1.00  0.00    -0.003 C 
ATOM     14  C   UNL     1      -7.794   9.024   6.537  1.00  0.00     0.004 C 
ENDBRANCH  12  13
ENDBRANCH  11  12
ENDBRANCH   2  11
BRANCH   3  15
ATOM     15  O   UNL     1     -11.732   9.157   6.875  1.00  0.00    -0.508 OA
ATOM     16  H   UNL     1     -12.089   9.556   7.737  1.00  0.00     0.293 HD
ENDBRANCH   3  15
TORSDOF 7
ENDMDL
MODEL 8
REMARK VINA RESULT:    -4.691      2.321      4.640
REMARK INTER + INTRA:          -7.003
REMARK INTER:                  -6.238
REMARK INTRA:                  -0.765
REMARK UNBOUND:                -0.529
REMARK SMILES CCCCc1cccc(O)c1CCCC
REMARK SMILES IDX 5 1 11 2 9 3 8 4 7 5 6 6 4 7 3 8 2 9 1 10 12 11 13 12 14 13
REMARK SMILES IDX 15 14 10 15
REMARK H PARENT 10 16
REMARK Flexibility Score: inf
ROOT
ATOM      1  C   UNL     1     -13.126   6.077   6.773  1.00  0.00    -0.041 A 
ATOM      2  C   UNL     1     -12.215   5.030   6.431  1.00  0.00    -0.003 A 
ATOM      3  C   UNL     1     -12.221   4.507   5.117  1.00  0.00     0.119 A 
ATOM      4  C   UNL     1     -13.116   5.000   4.164  1.00  0.00     0.046 A 
ATOM      5  C   UNL     1     -13.999   6.020   4.492  1.00  0.00     0.004 A 
ATOM      6  C   UNL     1     -14.002   6.561   5.775  1.00  0.00     0.004 A 
ENDROOT
BRANCH   1   7
ATOM      7  C   UNL     1     -13.097   6.704   8.164  1.00  0.00     0.036 C 
BRANCH   7   8
ATOM      8  C   UNL     1     -14.466   6.981   8.809  1.00  0.00     0.004 C 
BRANCH   8   9
ATOM      9  C   UNL     1     -14.634   8.471   9.125  1.00  0.00    -0.003 C 
ATOM     10  C   UNL     1     -13.624   9.316   8.353  1.00  0.00     0.004 C 
ENDBRANCH   8   9
ENDBRANCH   7   8
ENDBRANCH   1   7
BRANCH   2  11
ATOM     11  C   UNL     1     -11.231   4.445   7.435  1.00  0.00     0.040 C 
BRANCH  11  12
ATOM     12  C   UNL     1     -10.040   5.381   7.705  1.00  0.00     0.005 C 
BRANCH  12  13
ATOM     13  C   UNL     1      -9.284   5.762   6.425  1.00  0.00    -0.003 C 
ATOM     14  C   UNL     1      -9.429   7.251   6.124  1.00  0.00     0.004 C 
ENDBRANCH  12  13
ENDBRANCH  11  12
ENDBRANCH   2  11
BRANCH   3  15
ATOM     15  O   UNL     1     -11.326   3.498   4.758  1.00  0.00    -0.508 OA
ATOM     16  H   UNL     1     -11.646   2.603   4.404  1.00  0.00     0.293 HD
ENDBRANCH   3  15
TORSDOF 7
ENDMDL
MODEL 9
REMARK VINA RESULT:    -4.673      1.852      2.181
REMARK INTER + INTRA:          -6.978
REMARK INTER:                  -6.390
REMARK INTRA:                  -0.588
REMARK UNBOUND:                -0.529
REMARK SMILES CCCCc1cccc(O)c1CCCC
REMARK SMILES IDX 5 1 11 2 9 3 8 4 7 5 6 6 4 7 3 8 2 9 1 10 12 11 13 12 14 13
REMARK SMILES IDX 15 14 10 15
REMARK H PARENT 10 16
REMARK Flexibility Score: inf
ROOT
ATOM      1  C   UNL     1     -10.685   5.681   7.063  1.00  0.00    -0.041 A 
ATOM      2  C   UNL     1     -11.964   6.257   7.334  1.00  0.00    -0.003 A 
ATOM      3  C   UNL     1     -12.759   5.722   8.375  1.00  0.00     0.119 A 
ATOM      4  C   UNL     1     -12.304   4.635   9.125  1.00  0.00     0.046 A 
ATOM      5  C   UNL     1     -11.059   4.076   8.866  1.00  0.00     0.004 A 
ATOM      6  C   UNL     1     -10.252   4.595   7.856  1.00  0.00     0.004 A 
ENDROOT
BRANCH   1   7
ATOM      7  C   UNL     1      -9.780   6.279   5.989  1.00  0.00     0.036 C 
BRANCH   7   8
ATOM      8  C   UNL     1      -8.749   7.314   6.473  1.00  0.00     0.004 C 
BRANCH   8   9
ATOM      9  C   UNL     1      -8.876   8.625   5.689  1.00  0.00    -0.003 C 
ATOM     10  C   UNL     1      -7.654   9.514   5.900  1.00  0.00     0.004 C 
ENDBRANCH   8   9
ENDBRANCH   7   8
ENDBRANCH   1   7
BRANCH   2  11
ATOM     11  C   UNL     1     -12.516   7.432   6.538  1.00  0.00     0.040 C 
BRANCH  11  12
ATOM     12  C   UNL     1     -13.551   6.996   5.487  1.00  0.00     0.005 C 
BRANCH  12  13
ATOM     13  C   UNL     1     -13.303   5.575   4.964  1.00  0.00    -0.003 C 
ATOM     14  C   UNL     1     -13.860   5.404   3.554  1.00  0.00     0.004 C 
ENDBRANCH  12  13
ENDBRANCH  11  12
ENDBRANCH   2  11
BRANCH   3  15
ATOM     15  O   UNL     1     -14.002   6.283   8.668  1.00  0.00    -0.508 OA
ATOM     16  H   UNL     1     -14.103   7.038   9.336  1.00  0.00     0.293 HD
ENDBRANCH   3  15
TORSDOF 7
ENDMDL
