MODEL 1
REMARK VINA RESULT:    -3.791      0.000      0.000
REMARK INTER + INTRA:          -4.192
REMARK INTER:                  -4.013
REMARK INTRA:                  -0.179
REMARK UNBOUND:                -0.179
REMARK SMILES CC(C)[C@@H]1CC[C@H](C)CC1=O
REMARK SMILES IDX 8 1 7 2 6 3 5 4 4 5 10 6 11 7 9 8 2 9 1 10 3 11
REMARK H PARENT
REMARK Flexibility Score: inf
ROOT
ATOM      1  C   UNL     1     156.551 161.866 169.090  1.00  0.00     0.008 C 
ATOM      2  C   UNL     1     157.416 162.137 170.332  1.00  0.00    -0.007 C 
ATOM      3  C   UNL     1     158.829 161.525 170.202  1.00  0.00     0.004 C 
ATOM      4  C   UNL     1     159.688 162.247 169.150  1.00  0.00     0.012 C 
ATOM      5  C   UNL     1     159.807 163.761 169.449  1.00  0.00     0.058 C 
ATOM      6  C   UNL     1     158.427 164.348 169.696  1.00  0.00     0.136 C 
ATOM      7  O   UNL     1     158.102 165.429 169.225  1.00  0.00    -0.299 OA
ATOM      8  C   UNL     1     157.495 163.643 170.643  1.00  0.00     0.079 C 
ENDROOT
BRANCH   5   9
ATOM      9  C   UNL     1     160.623 164.542 168.370  1.00  0.00    -0.007 C 
ATOM     10  C   UNL     1     162.126 164.548 168.686  1.00  0.00     0.008 C 
ATOM     11  C   UNL     1     160.389 164.038 166.934  1.00  0.00     0.008 C 
ENDBRANCH   5   9
TORSDOF 1
ENDMDL
MODEL 2
REMARK VINA RESULT:    -3.786      8.490     10.143
REMARK INTER + INTRA:          -4.186
REMARK INTER:                  -4.011
REMARK INTRA:                  -0.175
REMARK UNBOUND:                -0.179
REMARK SMILES CC(C)[C@@H]1CC[C@H](C)CC1=O
REMARK SMILES IDX 8 1 7 2 6 3 5 4 4 5 10 6 11 7 9 8 2 9 1 10 3 11
REMARK H PARENT
REMARK Flexibility Score: inf
ROOT
ATOM      1  C   UNL     1     169.353 156.587 169.130  1.00  0.00     0.008 C 
ATOM      2  C   UNL     1     169.034 157.436 170.371  1.00  0.00    -0.007 C 
ATOM      3  C   UNL     1     169.634 158.857 170.274  1.00  0.00     0.004 C 
ATOM      4  C   UNL     1     168.936 159.719 169.208  1.00  0.00     0.012 C 
ATOM      5  C   UNL     1     167.412 159.819 169.461  1.00  0.00     0.058 C 
ATOM      6  C   UNL     1     166.832 158.430 169.676  1.00  0.00     0.136 C 
ATOM      7  O   UNL     1     165.770 158.098 169.169  1.00  0.00    -0.299 OA
ATOM      8  C   UNL     1     167.518 157.496 170.636  1.00  0.00     0.079 C 
ENDROOT
BRANCH   5   9
ATOM      9  C   UNL     1     166.655 160.637 168.365  1.00  0.00    -0.007 C 
ATOM     10  C   UNL     1     166.649 162.140 168.681  1.00  0.00     0.008 C 
ATOM     11  C   UNL     1     167.187 160.399 166.940  1.00  0.00     0.008 C 
ENDBRANCH   5   9
TORSDOF 1
ENDMDL
MODEL 3
REMARK VINA RESULT:    -3.778     11.229     14.394
REMARK INTER + INTRA:          -4.178
REMARK INTER:                  -3.998
REMARK INTRA:                  -0.180
REMARK UNBOUND:                -0.179
REMARK SMILES CC(C)[C@@H]1CC[C@H](C)CC1=O
REMARK SMILES IDX 8 1 7 2 6 3 5 4 4 5 10 6 11 7 9 8 2 9 1 10 3 11
REMARK H PARENT
REMARK Flexibility Score: inf
ROOT
ATOM      1  C   UNL     1     174.658 169.374 169.130  1.00  0.00     0.008 C 
ATOM      2  C   UNL     1     173.799 169.100 170.376  1.00  0.00    -0.007 C 
ATOM      3  C   UNL     1     172.383 169.705 170.252  1.00  0.00     0.004 C 
ATOM      4  C   UNL     1     171.522 168.979 169.204  1.00  0.00     0.012 C 
ATOM      5  C   UNL     1     171.412 167.464 169.504  1.00  0.00     0.058 C 
ATOM      6  C   UNL     1     172.795 166.883 169.745  1.00  0.00     0.136 C 
ATOM      7  O   UNL     1     173.124 165.804 169.274  1.00  0.00    -0.299 OA
ATOM      8  C   UNL     1     173.729 167.593 170.688  1.00  0.00     0.079 C 
ENDROOT
BRANCH   5   9
ATOM      9  C   UNL     1     170.594 166.679 168.429  1.00  0.00    -0.007 C 
ATOM     10  C   UNL     1     169.094 166.658 168.758  1.00  0.00     0.008 C 
ATOM     11  C   UNL     1     170.813 167.188 166.993  1.00  0.00     0.008 C 
ENDBRANCH   5   9
TORSDOF 1
ENDMDL
MODEL 4
REMARK VINA RESULT:    -3.777      8.535     10.142
REMARK INTER + INTRA:          -4.177
REMARK INTER:                  -3.997
REMARK INTRA:                  -0.179
REMARK UNBOUND:                -0.179
REMARK SMILES CC(C)[C@@H]1CC[C@H](C)CC1=O
REMARK SMILES IDX 8 1 7 2 6 3 5 4 4 5 10 6 11 7 9 8 2 9 1 10 3 11
REMARK H PARENT
REMARK Flexibility Score: inf
ROOT
ATOM      1  C   UNL     1     161.799 174.626 169.152  1.00  0.00     0.008 C 
ATOM      2  C   UNL     1     162.077 173.758 170.390  1.00  0.00    -0.007 C 
ATOM      3  C   UNL     1     161.488 172.336 170.248  1.00  0.00     0.004 C 
ATOM      4  C   UNL     1     162.229 171.494 169.195  1.00  0.00     0.012 C 
ATOM      5  C   UNL     1     163.743 171.397 169.502  1.00  0.00     0.058 C 
ATOM      6  C   UNL     1     164.307 172.784 169.761  1.00  0.00     0.136 C 
ATOM      7  O   UNL     1     165.385 173.129 169.299  1.00  0.00    -0.299 OA
ATOM      8  C   UNL     1     163.582 173.700 170.709  1.00  0.00     0.079 C 
ENDROOT
BRANCH   5   9
ATOM      9  C   UNL     1     164.543 170.600 168.423  1.00  0.00    -0.007 C 
ATOM     10  C   UNL     1     164.579 169.096 168.736  1.00  0.00     0.008 C 
ATOM     11  C   UNL     1     164.038 170.827 166.986  1.00  0.00     0.008 C 
ENDBRANCH   5   9
TORSDOF 1
ENDMDL
MODEL 5
REMARK VINA RESULT:    -3.484      1.718      2.742
REMARK INTER + INTRA:          -3.867
REMARK INTER:                  -3.730
REMARK INTRA:                  -0.137
REMARK UNBOUND:                -0.179
REMARK SMILES CC(C)[C@@H]1CC[C@H](C)CC1=O
REMARK SMILES IDX 8 1 7 2 6 3 5 4 4 5 10 6 11 7 9 8 2 9 1 10 3 11
REMARK H PARENT
REMARK Flexibility Score: inf
ROOT
ATOM      1  C   UNL     1     160.712 161.767 171.263  1.00  0.00     0.008 C 
ATOM      2  C   UNL     1     160.210 163.195 171.530  1.00  0.00    -0.007 C 
ATOM      3  C   UNL     1     161.117 164.263 170.879  1.00  0.00     0.004 C 
ATOM      4  C   UNL     1     161.021 164.260 169.344  1.00  0.00     0.012 C 
ATOM      5  C   UNL     1     159.564 164.457 168.861  1.00  0.00     0.058 C 
ATOM      6  C   UNL     1     158.644 163.489 169.586  1.00  0.00     0.136 C 
ATOM      7  O   UNL     1     157.759 162.888 168.995  1.00  0.00    -0.299 OA
ATOM      8  C   UNL     1     158.747 163.370 171.083  1.00  0.00     0.079 C 
ENDROOT
BRANCH   5   9
ATOM      9  C   UNL     1     159.414 164.400 167.307  1.00  0.00    -0.007 C 
ATOM     10  C   UNL     1     158.446 165.475 166.789  1.00  0.00     0.008 C 
ATOM     11  C   UNL     1     160.753 164.488 166.553  1.00  0.00     0.008 C 
ENDBRANCH   5   9
TORSDOF 1
ENDMDL
MODEL 6
REMARK VINA RESULT:    -3.481      1.466      1.832
REMARK INTER + INTRA:          -3.864
REMARK INTER:                  -3.761
REMARK INTRA:                  -0.103
REMARK UNBOUND:                -0.179
REMARK SMILES CC(C)[C@@H]1CC[C@H](C)CC1=O
REMARK SMILES IDX 8 1 7 2 6 3 5 4 4 5 10 6 11 7 9 8 2 9 1 10 3 11
REMARK H PARENT
REMARK Flexibility Score: inf
ROOT
ATOM      1  C   UNL     1     157.647 162.605 171.562  1.00  0.00     0.008 C 
ATOM      2  C   UNL     1     159.184 162.622 171.584  1.00  0.00    -0.007 C 
ATOM      3  C   UNL     1     159.793 161.867 170.381  1.00  0.00     0.004 C 
ATOM      4  C   UNL     1     159.566 162.603 169.049  1.00  0.00     0.012 C 
ATOM      5  C   UNL     1     160.124 164.045 169.090  1.00  0.00     0.058 C 
ATOM      6  C   UNL     1     159.625 164.758 170.335  1.00  0.00     0.136 C 
ATOM      7  O   UNL     1     159.240 165.918 170.294  1.00  0.00    -0.299 OA
ATOM      8  C   UNL     1     159.729 164.060 171.664  1.00  0.00     0.079 C 
ENDROOT
BRANCH   5   9
ATOM      9  C   UNL     1     159.861 164.848 167.775  1.00  0.00    -0.007 C 
ATOM     10  C   UNL     1     160.795 164.404 166.639  1.00  0.00     0.008 C 
ATOM     11  C   UNL     1     158.396 164.796 167.304  1.00  0.00     0.008 C 
ENDBRANCH   5   9
TORSDOF 1
ENDMDL
MODEL 7
REMARK VINA RESULT:    -3.444      8.832      9.790
REMARK INTER + INTRA:          -3.824
REMARK INTER:                  -3.724
REMARK INTRA:                  -0.100
REMARK UNBOUND:                -0.179
REMARK SMILES CC(C)[C@@H]1CC[C@H](C)CC1=O
REMARK SMILES IDX 8 1 7 2 6 3 5 4 4 5 10 6 11 7 9 8 2 9 1 10 3 11
REMARK H PARENT
REMARK Flexibility Score: inf
ROOT
ATOM      1  C   UNL     1     169.352 160.393 171.359  1.00  0.00     0.008 C 
ATOM      2  C   UNL     1     167.887 159.975 171.566  1.00  0.00    -0.007 C 
ATOM      3  C   UNL     1     166.900 160.964 170.907  1.00  0.00     0.004 C 
ATOM      4  C   UNL     1     166.949 160.908 169.370  1.00  0.00     0.012 C 
ATOM      5  C   UNL     1     166.678 159.480 168.840  1.00  0.00     0.058 C 
ATOM      6  C   UNL     1     167.563 158.482 169.570  1.00  0.00     0.136 C 
ATOM      7  O   UNL     1     168.128 157.576 168.973  1.00  0.00    -0.299 OA
ATOM      8  C   UNL     1     167.638 158.537 171.071  1.00  0.00     0.079 C 
ENDROOT
BRANCH   5   9
ATOM      9  C   UNL     1     166.779 159.367 167.285  1.00  0.00    -0.007 C 
ATOM     10  C   UNL     1     165.747 158.380 166.718  1.00  0.00     0.008 C 
ATOM     11  C   UNL     1     166.668 160.720 166.560  1.00  0.00     0.008 C 
ENDBRANCH   5   9
TORSDOF 1
ENDMDL
MODEL 8
REMARK VINA RESULT:    -3.423     12.471     13.788
REMARK INTER + INTRA:          -3.803
REMARK INTER:                  -3.694
REMARK INTRA:                  -0.108
REMARK UNBOUND:                -0.179
REMARK SMILES CC(C)[C@@H]1CC[C@H](C)CC1=O
REMARK SMILES IDX 8 1 7 2 6 3 5 4 4 5 10 6 11 7 9 8 2 9 1 10 3 11
REMARK H PARENT
REMARK Flexibility Score: inf
ROOT
ATOM      1  C   UNL     1     173.693 168.483 171.567  1.00  0.00     0.008 C 
ATOM      2  C   UNL     1     172.157 168.534 171.601  1.00  0.00    -0.007 C 
ATOM      3  C   UNL     1     171.573 169.316 170.403  1.00  0.00     0.004 C 
ATOM      4  C   UNL     1     171.758 168.573 169.069  1.00  0.00     0.012 C 
ATOM      5  C   UNL     1     171.136 167.157 169.112  1.00  0.00     0.058 C 
ATOM      6  C   UNL     1     171.612 166.421 170.354  1.00  0.00     0.136 C 
ATOM      7  O   UNL     1     171.945 165.245 170.309  1.00  0.00    -0.299 OA
ATOM      8  C   UNL     1     171.549 167.121 171.684  1.00  0.00     0.079 C 
ENDROOT
BRANCH   5   9
ATOM      9  C   UNL     1     171.355 166.344 167.795  1.00  0.00    -0.007 C 
ATOM     10  C   UNL     1     170.425 166.823 166.670  1.00  0.00     0.008 C 
ATOM     11  C   UNL     1     172.815 166.341 167.307  1.00  0.00     0.008 C 
ENDBRANCH   5   9
TORSDOF 1
ENDMDL
MODEL 9
REMARK VINA RESULT:    -3.327      8.041      9.328
REMARK INTER + INTRA:          -3.700
REMARK INTER:                  -3.548
REMARK INTRA:                  -0.152
REMARK UNBOUND:                -0.179
REMARK SMILES CC(C)[C@@H]1CC[C@H](C)CC1=O
REMARK SMILES IDX 8 1 7 2 6 3 5 4 4 5 10 6 11 7 9 8 2 9 1 10 3 11
REMARK H PARENT
REMARK Flexibility Score: inf
ROOT
ATOM      1  C   UNL     1     161.857 170.056 171.507  1.00  0.00     0.008 C 
ATOM      2  C   UNL     1     163.197 170.762 171.770  1.00  0.00    -0.007 C 
ATOM      3  C   UNL     1     164.383 170.025 171.108  1.00  0.00     0.004 C 
ATOM      4  C   UNL     1     164.356 170.126 169.573  1.00  0.00     0.012 C 
ATOM      5  C   UNL     1     164.334 171.599 169.097  1.00  0.00     0.058 C 
ATOM      6  C   UNL     1     163.245 172.362 169.833  1.00  0.00     0.136 C 
ATOM      7  O   UNL     1     162.516 173.152 169.249  1.00  0.00    -0.299 OA
ATOM      8  C   UNL     1     163.151 172.237 171.329  1.00  0.00     0.079 C 
ENDROOT
BRANCH   5   9
ATOM      9  C   UNL     1     164.246 171.746 167.544  1.00  0.00    -0.007 C 
ATOM     10  C   UNL     1     165.237 172.793 167.015  1.00  0.00     0.008 C 
ATOM     11  C   UNL     1     164.427 170.418 166.787  1.00  0.00     0.008 C 
ENDBRANCH   5   9
TORSDOF 1
ENDMDL
