MODEL 1
REMARK VINA RESULT:    -3.656      0.000      0.000
REMARK INTER + INTRA:          -5.319
REMARK INTER:                  -4.939
REMARK INTRA:                  -0.380
REMARK UNBOUND:                -0.380
REMARK SMILES CCCCCCCC(=O)[O-]
REMARK SMILES IDX 5 1 6 2 7 3 8 4 9 5 10 6 4 7 3 8 2 9 1 10
REMARK H PARENT
REMARK Flexibility Score: inf
ROOT
ATOM      1  C   UNL     1     173.395 172.296 150.535  1.00  0.00     0.000 C 
ENDROOT
BRANCH   1   2
ATOM      2  C   UNL     1     173.782 170.847 150.187  1.00  0.00     0.006 C 
BRANCH   2   3
ATOM      3  C   UNL     1     175.238 170.484 150.518  1.00  0.00     0.053 C 
BRANCH   3   4
ATOM      4  C   UNL     1     175.344 169.154 151.201  1.00  0.00     0.041 C 
ATOM      5  O   UNL     1     176.084 169.018 152.211  1.00  0.00    -0.550 OA
ATOM      6  O   UNL     1     174.651 168.058 150.702  1.00  0.00    -0.550 OA
ENDBRANCH   3   4
ENDBRANCH   2   3
ENDBRANCH   1   2
BRANCH   1   7
ATOM      7  C   UNL     1     174.212 173.335 149.752  1.00  0.00     0.000 C 
BRANCH   7   8
ATOM      8  C   UNL     1     175.033 174.215 150.702  1.00  0.00    -0.000 C 
BRANCH   8   9
ATOM      9  C   UNL     1     174.473 174.157 152.128  1.00  0.00    -0.003 C 
ATOM     10  C   UNL     1     175.595 174.080 153.159  1.00  0.00     0.004 C 
ENDBRANCH   8   9
ENDBRANCH   7   8
ENDBRANCH   1   7
TORSDOF 6
ENDMDL
MODEL 2
REMARK VINA RESULT:    -3.652      2.351      4.301
REMARK INTER + INTRA:          -5.313
REMARK INTER:                  -4.959
REMARK INTRA:                  -0.354
REMARK UNBOUND:                -0.380
REMARK SMILES CCCCCCCC(=O)[O-]
REMARK SMILES IDX 5 1 6 2 7 3 8 4 9 5 10 6 4 7 3 8 2 9 1 10
REMARK H PARENT
REMARK Flexibility Score: inf
ROOT
ATOM      1  C   UNL     1     173.653 173.286 149.924  1.00  0.00     0.000 C 
ENDROOT
BRANCH   1   2
ATOM      2  C   UNL     1     173.775 174.225 151.138  1.00  0.00     0.006 C 
BRANCH   2   3
ATOM      3  C   UNL     1     175.184 174.291 151.748  1.00  0.00     0.053 C 
BRANCH   3   4
ATOM      4  C   UNL     1     175.218 173.747 153.144  1.00  0.00     0.041 C 
ATOM      5  O   UNL     1     175.417 172.519 153.340  1.00  0.00    -0.550 OA
ATOM      6  O   UNL     1     174.997 174.591 154.226  1.00  0.00    -0.550 OA
ENDBRANCH   3   4
ENDBRANCH   2   3
ENDBRANCH   1   2
BRANCH   1   7
ATOM      7  C   UNL     1     172.703 172.105 150.178  1.00  0.00     0.000 C 
BRANCH   7   8
ATOM      8  C   UNL     1     173.462 170.773 150.136  1.00  0.00    -0.000 C 
BRANCH   8   9
ATOM      9  C   UNL     1     174.976 171.000 150.207  1.00  0.00    -0.003 C 
ATOM     10  C   UNL     1     175.737 169.681 150.112  1.00  0.00     0.004 C 
ENDBRANCH   8   9
ENDBRANCH   7   8
ENDBRANCH   1   7
TORSDOF 6
ENDMDL
MODEL 3
REMARK VINA RESULT:    -3.562      2.019      3.690
REMARK INTER + INTRA:          -5.192
REMARK INTER:                  -4.568
REMARK INTRA:                  -0.624
REMARK UNBOUND:                -0.380
REMARK SMILES CCCCCCCC(=O)[O-]
REMARK SMILES IDX 5 1 6 2 7 3 8 4 9 5 10 6 4 7 3 8 2 9 1 10
REMARK H PARENT
REMARK Flexibility Score: inf
ROOT
ATOM      1  C   UNL     1     175.002 174.252 150.683  1.00  0.00     0.000 C 
ENDROOT
BRANCH   1   2
ATOM      2  C   UNL     1     174.333 174.139 152.065  1.00  0.00     0.006 C 
BRANCH   2   3
ATOM      3  C   UNL     1     175.291 173.750 153.202  1.00  0.00     0.053 C 
BRANCH   3   4
ATOM      4  C   UNL     1     174.936 172.427 153.808  1.00  0.00     0.041 C 
ATOM      5  O   UNL     1     175.800 171.773 154.449  1.00  0.00    -0.550 OA
ATOM      6  O   UNL     1     173.661 171.902 153.637  1.00  0.00    -0.550 OA
ENDBRANCH   3   4
ENDBRANCH   2   3
ENDBRANCH   1   2
BRANCH   1   7
ATOM      7  C   UNL     1     174.628 173.095 149.743  1.00  0.00     0.000 C 
BRANCH   7   8
ATOM      8  C   UNL     1     173.273 172.490 150.130  1.00  0.00    -0.000 C 
BRANCH   8   9
ATOM      9  C   UNL     1     173.355 170.961 150.206  1.00  0.00    -0.003 C 
ATOM     10  C   UNL     1     174.783 170.498 150.481  1.00  0.00     0.004 C 
ENDBRANCH   8   9
ENDBRANCH   7   8
ENDBRANCH   1   7
TORSDOF 6
ENDMDL
MODEL 4
REMARK VINA RESULT:    -3.501      3.026      5.047
REMARK INTER + INTRA:          -5.109
REMARK INTER:                  -4.843
REMARK INTRA:                  -0.267
REMARK UNBOUND:                -0.380
REMARK SMILES CCCCCCCC(=O)[O-]
REMARK SMILES IDX 5 1 6 2 7 3 8 4 9 5 10 6 4 7 3 8 2 9 1 10
REMARK H PARENT
REMARK Flexibility Score: inf
ROOT
ATOM      1  C   UNL     1     173.914 171.667 150.133  1.00  0.00     0.000 C 
ENDROOT
BRANCH   1   2
ATOM      2  C   UNL     1     174.315 173.122 149.828  1.00  0.00     0.006 C 
BRANCH   2   3
ATOM      3  C   UNL     1     174.820 173.908 151.049  1.00  0.00     0.053 C 
BRANCH   3   4
ATOM      4  C   UNL     1     173.707 174.265 151.986  1.00  0.00     0.041 C 
ATOM      5  O   UNL     1     173.900 174.254 153.231  1.00  0.00    -0.550 OA
ATOM      6  O   UNL     1     172.448 174.576 151.487  1.00  0.00    -0.550 OA
ENDBRANCH   3   4
ENDBRANCH   2   3
ENDBRANCH   1   2
BRANCH   1   7
ATOM      7  C   UNL     1     175.008 170.891 150.881  1.00  0.00     0.000 C 
BRANCH   7   8
ATOM      8  C   UNL     1     175.484 169.686 150.061  1.00  0.00    -0.000 C 
BRANCH   8   9
ATOM      9  C   UNL     1     174.397 168.608 149.987  1.00  0.00    -0.003 C 
ATOM     10  C   UNL     1     174.713 167.580 148.905  1.00  0.00     0.004 C 
ENDBRANCH   8   9
ENDBRANCH   7   8
ENDBRANCH   1   7
TORSDOF 6
ENDMDL
MODEL 5
REMARK VINA RESULT:    -3.492      1.492      2.293
REMARK INTER + INTRA:          -5.097
REMARK INTER:                  -4.674
REMARK INTRA:                  -0.423
REMARK UNBOUND:                -0.380
REMARK SMILES CCCCCCCC(=O)[O-]
REMARK SMILES IDX 5 1 6 2 7 3 8 4 9 5 10 6 4 7 3 8 2 9 1 10
REMARK H PARENT
REMARK Flexibility Score: inf
ROOT
ATOM      1  C   UNL     1     174.928 173.943 150.703  1.00  0.00     0.000 C 
ENDROOT
BRANCH   1   2
ATOM      2  C   UNL     1     174.159 172.961 149.800  1.00  0.00     0.006 C 
BRANCH   2   3
ATOM      3  C   UNL     1     173.801 171.628 150.476  1.00  0.00     0.053 C 
BRANCH   3   4
ATOM      4  C   UNL     1     175.020 170.819 150.802  1.00  0.00     0.041 C 
ATOM      5  O   UNL     1     175.310 170.567 152.001  1.00  0.00    -0.550 OA
ATOM      6  O   UNL     1     175.852 170.371 149.783  1.00  0.00    -0.550 OA
ENDBRANCH   3   4
ENDBRANCH   2   3
ENDBRANCH   1   2
BRANCH   1   7
ATOM      7  C   UNL     1     174.230 174.184 152.051  1.00  0.00     0.000 C 
BRANCH   7   8
ATOM      8  C   UNL     1     175.240 174.150 153.204  1.00  0.00    -0.000 C 
BRANCH   8   9
ATOM      9  C   UNL     1     174.793 173.171 154.296  1.00  0.00    -0.003 C 
ATOM     10  C   UNL     1     174.017 173.888 155.396  1.00  0.00     0.004 C 
ENDBRANCH   8   9
ENDBRANCH   7   8
ENDBRANCH   1   7
TORSDOF 6
ENDMDL
MODEL 6
REMARK VINA RESULT:    -3.489      1.292      1.897
REMARK INTER + INTRA:          -5.093
REMARK INTER:                  -4.495
REMARK INTRA:                  -0.598
REMARK UNBOUND:                -0.380
REMARK SMILES CCCCCCCC(=O)[O-]
REMARK SMILES IDX 5 1 6 2 7 3 8 4 9 5 10 6 4 7 3 8 2 9 1 10
REMARK H PARENT
REMARK Flexibility Score: inf
ROOT
ATOM      1  C   UNL     1     172.225 170.979 150.270  1.00  0.00     0.000 C 
ENDROOT
BRANCH   1   2
ATOM      2  C   UNL     1     173.213 169.807 150.129  1.00  0.00     0.006 C 
BRANCH   2   3
ATOM      3  C   UNL     1     174.692 170.208 150.243  1.00  0.00     0.053 C 
BRANCH   3   4
ATOM      4  C   UNL     1     175.205 170.068 151.644  1.00  0.00     0.041 C 
ATOM      5  O   UNL     1     175.038 171.000 152.475  1.00  0.00    -0.550 OA
ATOM      6  O   UNL     1     175.897 168.924 152.021  1.00  0.00    -0.550 OA
ENDBRANCH   3   4
ENDBRANCH   2   3
ENDBRANCH   1   2
BRANCH   1   7
ATOM      7  C   UNL     1     172.817 172.317 149.803  1.00  0.00     0.000 C 
BRANCH   7   8
ATOM      8  C   UNL     1     172.690 173.385 150.895  1.00  0.00    -0.000 C 
BRANCH   8   9
ATOM      9  C   UNL     1     174.046 174.037 151.188  1.00  0.00    -0.003 C 
ATOM     10  C   UNL     1     174.976 173.942 149.982  1.00  0.00     0.004 C 
ENDBRANCH   8   9
ENDBRANCH   7   8
ENDBRANCH   1   7
TORSDOF 6
ENDMDL
MODEL 7
REMARK VINA RESULT:    -3.443     11.122     12.244
REMARK INTER + INTRA:          -5.031
REMARK INTER:                  -4.559
REMARK INTRA:                  -0.472
REMARK UNBOUND:                -0.380
REMARK SMILES CCCCCCCC(=O)[O-]
REMARK SMILES IDX 5 1 6 2 7 3 8 4 9 5 10 6 4 7 3 8 2 9 1 10
REMARK H PARENT
REMARK Flexibility Score: inf
ROOT
ATOM      1  C   UNL     1     172.490 161.200 149.718  1.00  0.00     0.000 C 
ENDROOT
BRANCH   1   2
ATOM      2  C   UNL     1     171.611 159.996 150.104  1.00  0.00     0.006 C 
BRANCH   2   3
ATOM      3  C   UNL     1     172.397 158.721 150.447  1.00  0.00     0.053 C 
BRANCH   3   4
ATOM      4  C   UNL     1     172.030 158.181 151.796  1.00  0.00     0.041 C 
ATOM      5  O   UNL     1     172.879 158.174 152.727  1.00  0.00    -0.550 OA
ATOM      6  O   UNL     1     170.763 157.656 152.015  1.00  0.00    -0.550 OA
ENDBRANCH   3   4
ENDBRANCH   2   3
ENDBRANCH   1   2
BRANCH   1   7
ATOM      7  C   UNL     1     173.739 161.333 150.604  1.00  0.00     0.000 C 
BRANCH   7   8
ATOM      8  C   UNL     1     175.010 161.407 149.751  1.00  0.00    -0.000 C 
BRANCH   8   9
ATOM      9  C   UNL     1     175.843 160.127 149.893  1.00  0.00    -0.003 C 
ATOM     10  C   UNL     1     176.123 159.811 151.358  1.00  0.00     0.004 C 
ENDBRANCH   8   9
ENDBRANCH   7   8
ENDBRANCH   1   7
TORSDOF 6
ENDMDL
MODEL 8
REMARK VINA RESULT:    -3.419      3.516      5.116
REMARK INTER + INTRA:          -4.998
REMARK INTER:                  -4.556
REMARK INTRA:                  -0.442
REMARK UNBOUND:                -0.380
REMARK SMILES CCCCCCCC(=O)[O-]
REMARK SMILES IDX 5 1 6 2 7 3 8 4 9 5 10 6 4 7 3 8 2 9 1 10
REMARK H PARENT
REMARK Flexibility Score: inf
ROOT
ATOM      1  C   UNL     1     174.670 172.906 149.951  1.00  0.00     0.000 C 
ENDROOT
BRANCH   1   2
ATOM      2  C   UNL     1     173.334 173.650 149.773  1.00  0.00     0.006 C 
BRANCH   2   3
ATOM      3  C   UNL     1     172.280 173.322 150.843  1.00  0.00     0.053 C 
BRANCH   3   4
ATOM      4  C   UNL     1     172.041 174.475 151.769  1.00  0.00     0.041 C 
ATOM      5  O   UNL     1     171.339 175.452 151.395  1.00  0.00    -0.550 OA
ATOM      6  O   UNL     1     172.620 174.487 153.032  1.00  0.00    -0.550 OA
ENDBRANCH   3   4
ENDBRANCH   2   3
ENDBRANCH   1   2
BRANCH   1   7
ATOM      7  C   UNL     1     174.561 171.702 150.899  1.00  0.00     0.000 C 
BRANCH   7   8
ATOM      8  C   UNL     1     175.292 170.483 150.324  1.00  0.00    -0.000 C 
BRANCH   8   9
ATOM      9  C   UNL     1     174.309 169.347 150.018  1.00  0.00    -0.003 C 
ATOM     10  C   UNL     1     172.925 169.647 150.585  1.00  0.00     0.004 C 
ENDBRANCH   8   9
ENDBRANCH   7   8
ENDBRANCH   1   7
TORSDOF 6
ENDMDL
MODEL 9
REMARK VINA RESULT:    -3.412      3.317      4.427
REMARK INTER + INTRA:          -4.989
REMARK INTER:                  -4.418
REMARK INTRA:                  -0.570
REMARK UNBOUND:                -0.380
REMARK SMILES CCCCCCCC(=O)[O-]
REMARK SMILES IDX 5 1 6 2 7 3 8 4 9 5 10 6 4 7 3 8 2 9 1 10
REMARK H PARENT
REMARK Flexibility Score: inf
ROOT
ATOM      1  C   UNL     1     175.308 174.281 151.165  1.00  0.00     0.000 C 
ENDROOT
BRANCH   1   2
ATOM      2  C   UNL     1     175.470 174.285 152.696  1.00  0.00     0.006 C 
BRANCH   2   3
ATOM      3  C   UNL     1     174.921 173.030 153.393  1.00  0.00     0.053 C 
BRANCH   3   4
ATOM      4  C   UNL     1     173.999 173.373 154.524  1.00  0.00     0.041 C 
ATOM      5  O   UNL     1     173.168 174.311 154.400  1.00  0.00    -0.550 OA
ATOM      6  O   UNL     1     174.081 172.679 155.724  1.00  0.00    -0.550 OA
ENDBRANCH   3   4
ENDBRANCH   2   3
ENDBRANCH   1   2
BRANCH   1   7
ATOM      7  C   UNL     1     174.552 173.048 150.648  1.00  0.00     0.000 C 
BRANCH   7   8
ATOM      8  C   UNL     1     173.277 173.459 149.902  1.00  0.00    -0.000 C 
BRANCH   8   9
ATOM      9  C   UNL     1     172.063 173.442 150.838  1.00  0.00    -0.003 C 
ATOM     10  C   UNL     1     171.634 174.858 151.212  1.00  0.00     0.004 C 
ENDBRANCH   8   9
ENDBRANCH   7   8
ENDBRANCH   1   7
TORSDOF 6
ENDMDL
