MODEL 1
REMARK VINA RESULT:    -7.329      0.000      0.000
REMARK INTER + INTRA:         -10.965
REMARK INTER:                 -10.328
REMARK INTRA:                  -0.637
REMARK UNBOUND:                -0.637
REMARK SMILES OCC1=C[C@@H](O)[C@@H]2C=CO[C@H](O[C@H]3O[C@H](CO)[C@H](O)[C@H](O)[C@@H]3O)[C@@H]12
REMARK SMILES IDX 12 1 11 2 8 3 9 4 7 5 10 6 24 7 5 8 3 9 4 10 6 11 2 13 1 14
REMARK SMILES IDX 13 16 22 17 14 18 20 19 15 20 18 21 23 22 21 24 16 26 17 27
REMARK SMILES IDX 19 29
REMARK H PARENT 6 12 1 15 23 23 21 25 17 28 19 30
REMARK Flexibility Score: inf
ROOT
ATOM      1  O   UNL     1      -5.541  -3.721   7.031  1.00  0.00    -0.310 OA
ENDROOT
BRANCH   1   2
ATOM      2  C   UNL     1      -5.987  -2.387   7.170  1.00  0.00     0.316 C 
ATOM      3  C   UNL     1      -8.367  -0.708   7.006  1.00  0.00     0.018 C 
ATOM      4  C   UNL     1      -7.791  -1.166   5.882  1.00  0.00     0.186 C 
ATOM      5  C   UNL     1      -7.618  -0.915   8.281  1.00  0.00     0.061 C 
ATOM      6  O   UNL     1      -6.612  -1.952   5.939  1.00  0.00    -0.472 OA
ATOM      7  C   UNL     1      -7.036  -2.318   8.286  1.00  0.00     0.096 C 
ATOM      8  C   UNL     1      -8.348  -0.845   9.624  1.00  0.00     0.145 C 
ATOM      9  C   UNL     1      -6.654  -2.474   9.721  1.00  0.00    -0.036 C 
ATOM     10  C   UNL     1      -7.462  -1.720  10.475  1.00  0.00     0.007 C 
BRANCH   8  11
ATOM     11  O   UNL     1      -8.434   0.468  10.118  1.00  0.00    -0.388 OA
ATOM     12  H   UNL     1      -8.615   0.421  11.094  1.00  0.00     0.211 HD
ENDBRANCH   8  11
BRANCH   9  13
ATOM     13  C   UNL     1      -5.752  -3.545  10.263  1.00  0.00     0.187 C 
BRANCH  13  14
ATOM     14  O   UNL     1      -4.412  -3.231   9.996  1.00  0.00    -0.392 OA
ATOM     15  H   UNL     1      -4.307  -2.261  10.185  1.00  0.00     0.211 HD
ENDBRANCH  13  14
ENDBRANCH   9  13
ENDBRANCH   1   2
BRANCH   1  16
ATOM     16  C   UNL     1      -5.992  -4.297   5.809  1.00  0.00     0.286 C 
ATOM     17  C   UNL     1      -7.305  -5.068   6.046  1.00  0.00     0.202 C 
ATOM     18  O   UNL     1      -4.988  -5.137   5.252  1.00  0.00    -0.341 OA
ATOM     19  C   UNL     1      -7.044  -6.327   6.900  1.00  0.00     0.179 C 
ATOM     20  C   UNL     1      -4.666  -6.219   6.114  1.00  0.00     0.178 C 
ATOM     21  C   UNL     1      -5.884  -7.146   6.316  1.00  0.00     0.177 C 
BRANCH  17  22
ATOM     22  O   UNL     1      -7.864  -5.419   4.805  1.00  0.00    -0.385 OA
ATOM     23  H   UNL     1      -8.679  -4.865   4.687  1.00  0.00     0.211 HD
ENDBRANCH  17  22
BRANCH  19  24
ATOM     24  O   UNL     1      -8.198  -7.125   6.978  1.00  0.00    -0.387 OA
ATOM     25  H   UNL     1      -7.891  -8.061   7.094  1.00  0.00     0.211 HD
ENDBRANCH  19  24
BRANCH  20  26
ATOM     26  C   UNL     1      -3.477  -6.989   5.522  1.00  0.00     0.191 C 
BRANCH  26  27
ATOM     27  O   UNL     1      -2.331  -6.179   5.507  1.00  0.00    -0.394 OA
ATOM     28  H   UNL     1      -2.642  -5.243   5.612  1.00  0.00     0.210 HD
ENDBRANCH  26  27
ENDBRANCH  20  26
BRANCH  21  29
ATOM     29  O   UNL     1      -6.278  -7.723   5.094  1.00  0.00    -0.387 OA
ATOM     30  H   UNL     1      -6.742  -8.573   5.307  1.00  0.00     0.211 HD
ENDBRANCH  21  29
ENDBRANCH   1  16
TORSDOF 10
ENDMDL
MODEL 2
REMARK VINA RESULT:    -7.023      1.901      6.577
REMARK INTER + INTRA:         -10.533
REMARK INTER:                  -9.334
REMARK INTRA:                  -1.199
REMARK UNBOUND:                -0.637
REMARK SMILES OCC1=C[C@@H](O)[C@@H]2C=CO[C@H](O[C@H]3O[C@H](CO)[C@H](O)[C@H](O)[C@@H]3O)[C@@H]12
REMARK SMILES IDX 12 1 11 2 8 3 9 4 7 5 10 6 24 7 5 8 3 9 4 10 6 11 2 13 1 14
REMARK SMILES IDX 13 16 22 17 14 18 20 19 15 20 18 21 23 22 21 24 16 26 17 27
REMARK SMILES IDX 19 29
REMARK H PARENT 6 12 1 15 23 23 21 25 17 28 19 30
REMARK Flexibility Score: inf
ROOT
ATOM      1  O   UNL     1      -6.967  -3.752   6.727  1.00  0.00    -0.310 OA
ENDROOT
BRANCH   1   2
ATOM      2  C   UNL     1      -5.750  -4.431   6.485  1.00  0.00     0.316 C 
ATOM      3  C   UNL     1      -4.141  -6.693   7.381  1.00  0.00     0.018 C 
ATOM      4  C   UNL     1      -4.213  -5.583   8.133  1.00  0.00     0.186 C 
ATOM      5  C   UNL     1      -4.726  -6.619   6.009  1.00  0.00     0.061 C 
ATOM      6  O   UNL     1      -4.960  -4.459   7.698  1.00  0.00    -0.472 OA
ATOM      7  C   UNL     1      -6.051  -5.879   6.081  1.00  0.00     0.096 C 
ATOM      8  C   UNL     1      -5.093  -7.900   5.257  1.00  0.00     0.145 C 
ATOM      9  C   UNL     1      -6.644  -6.206   4.751  1.00  0.00    -0.036 C 
ATOM     10  C   UNL     1      -6.177  -7.392   4.341  1.00  0.00     0.007 C 
BRANCH   8  11
ATOM     11  O   UNL     1      -4.002  -8.434   4.548  1.00  0.00    -0.388 OA
ATOM     12  H   UNL     1      -3.180  -8.283   5.085  1.00  0.00     0.211 HD
ENDBRANCH   8  11
BRANCH   9  13
ATOM     13  C   UNL     1      -7.818  -5.503   4.132  1.00  0.00     0.187 C 
BRANCH  13  14
ATOM     14  O   UNL     1      -7.451  -4.212   3.729  1.00  0.00    -0.392 OA
ATOM     15  H   UNL     1      -8.297  -3.717   3.565  1.00  0.00     0.211 HD
ENDBRANCH  13  14
ENDBRANCH   9  13
ENDBRANCH   1   2
BRANCH   1  16
ATOM     16  C   UNL     1      -6.789  -2.340   6.709  1.00  0.00     0.286 C 
ATOM     17  C   UNL     1      -7.204  -1.743   8.068  1.00  0.00     0.202 C 
ATOM     18  O   UNL     1      -7.521  -1.758   5.638  1.00  0.00    -0.341 OA
ATOM     19  C   UNL     1      -8.731  -1.856   8.262  1.00  0.00     0.179 C 
ATOM     20  C   UNL     1      -8.917  -1.987   5.765  1.00  0.00     0.178 C 
ATOM     21  C   UNL     1      -9.475  -1.309   7.036  1.00  0.00     0.177 C 
BRANCH  17  22
ATOM     22  O   UNL     1      -6.797  -0.398   8.124  1.00  0.00    -0.385 OA
ATOM     23  H   UNL     1      -7.343   0.098   7.460  1.00  0.00     0.211 HD
ENDBRANCH  17  22
BRANCH  19  24
ATOM     24  O   UNL     1      -9.141  -1.164   9.414  1.00  0.00    -0.387 OA
ATOM     25  H   UNL     1      -9.515  -1.840  10.036  1.00  0.00     0.211 HD
ENDBRANCH  19  24
BRANCH  20  26
ATOM     26  C   UNL     1      -9.623  -1.468   4.505  1.00  0.00     0.191 C 
BRANCH  26  27
ATOM     27  O   UNL     1      -8.915  -0.386   3.960  1.00  0.00    -0.394 OA
ATOM     28  H   UNL     1      -8.860  -0.545   2.982  1.00  0.00     0.210 HD
ENDBRANCH  26  27
ENDBRANCH  20  26
BRANCH  21  29
ATOM     29  O   UNL     1      -9.312   0.088   6.965  1.00  0.00    -0.387 OA
ATOM     30  H   UNL     1     -10.159   0.497   7.281  1.00  0.00     0.211 HD
ENDBRANCH  21  29
ENDBRANCH   1  16
TORSDOF 10
ENDMDL
MODEL 3
REMARK VINA RESULT:    -7.001      1.833      5.952
REMARK INTER + INTRA:         -10.502
REMARK INTER:                  -9.675
REMARK INTRA:                  -0.827
REMARK UNBOUND:                -0.637
REMARK SMILES OCC1=C[C@@H](O)[C@@H]2C=CO[C@H](O[C@H]3O[C@H](CO)[C@H](O)[C@H](O)[C@@H]3O)[C@@H]12
REMARK SMILES IDX 12 1 11 2 8 3 9 4 7 5 10 6 24 7 5 8 3 9 4 10 6 11 2 13 1 14
REMARK SMILES IDX 13 16 22 17 14 18 20 19 15 20 18 21 23 22 21 24 16 26 17 27
REMARK SMILES IDX 19 29
REMARK H PARENT 6 12 1 15 23 23 21 25 17 28 19 30
REMARK Flexibility Score: inf
ROOT
ATOM      1  O   UNL     1      -7.855  -4.335   7.047  1.00  0.00    -0.310 OA
ENDROOT
BRANCH   1   2
ATOM      2  C   UNL     1      -7.493  -5.650   6.673  1.00  0.00     0.316 C 
ATOM      3  C   UNL     1      -5.849  -7.155   4.791  1.00  0.00     0.018 C 
ATOM      4  C   UNL     1      -6.983  -6.570   4.371  1.00  0.00     0.186 C 
ATOM      5  C   UNL     1      -5.606  -7.178   6.264  1.00  0.00     0.061 C 
ATOM      6  O   UNL     1      -7.815  -5.865   5.278  1.00  0.00    -0.472 OA
ATOM      7  C   UNL     1      -5.979  -5.824   6.844  1.00  0.00     0.096 C 
ATOM      8  C   UNL     1      -4.194  -7.404   6.808  1.00  0.00     0.145 C 
ATOM      9  C   UNL     1      -5.354  -5.901   8.197  1.00  0.00    -0.036 C 
ATOM     10  C   UNL     1      -4.291  -6.713   8.145  1.00  0.00     0.007 C 
BRANCH   8  11
ATOM     11  O   UNL     1      -3.883  -8.770   6.936  1.00  0.00    -0.388 OA
ATOM     12  H   UNL     1      -3.233  -9.007   6.223  1.00  0.00     0.211 HD
ENDBRANCH   8  11
BRANCH   9  13
ATOM     13  C   UNL     1      -5.649  -4.971   9.339  1.00  0.00     0.187 C 
BRANCH  13  14
ATOM     14  O   UNL     1      -4.562  -4.114   9.558  1.00  0.00    -0.392 OA
ATOM     15  H   UNL     1      -4.348  -3.699   8.681  1.00  0.00     0.211 HD
ENDBRANCH  13  14
ENDBRANCH   9  13
ENDBRANCH   1   2
BRANCH   1  16
ATOM     16  C   UNL     1      -7.121  -3.363   6.311  1.00  0.00     0.286 C 
ATOM     17  C   UNL     1      -6.544  -2.304   7.271  1.00  0.00     0.202 C 
ATOM     18  O   UNL     1      -7.940  -2.769   5.311  1.00  0.00    -0.341 OA
ATOM     19  C   UNL     1      -7.679  -1.443   7.868  1.00  0.00     0.179 C 
ATOM     20  C   UNL     1      -9.055  -2.091   5.875  1.00  0.00     0.178 C 
ATOM     21  C   UNL     1      -8.595  -0.910   6.758  1.00  0.00     0.177 C 
BRANCH  17  22
ATOM     22  O   UNL     1      -5.628  -1.498   6.573  1.00  0.00    -0.385 OA
ATOM     23  H   UNL     1      -6.122  -1.083   5.819  1.00  0.00     0.211 HD
ENDBRANCH  17  22
BRANCH  19  24
ATOM     24  O   UNL     1      -7.154  -0.370   8.608  1.00  0.00    -0.387 OA
ATOM     25  H   UNL     1      -6.167  -0.420   8.524  1.00  0.00     0.211 HD
ENDBRANCH  19  24
BRANCH  20  26
ATOM     26  C   UNL     1      -9.970  -1.611   4.740  1.00  0.00     0.191 C 
BRANCH  26  27
ATOM     27  O   UNL     1      -9.244  -0.834   3.824  1.00  0.00    -0.394 OA
ATOM     28  H   UNL     1      -9.698  -0.931   2.947  1.00  0.00     0.210 HD
ENDBRANCH  26  27
ENDBRANCH  20  26
BRANCH  21  29
ATOM     29  O   UNL     1      -7.904   0.045   5.989  1.00  0.00    -0.387 OA
ATOM     30  H   UNL     1      -7.005  -0.328   5.799  1.00  0.00     0.211 HD
ENDBRANCH  21  29
ENDBRANCH   1  16
TORSDOF 10
ENDMDL
MODEL 4
REMARK VINA RESULT:    -6.894      1.513      1.967
REMARK INTER + INTRA:         -10.352
REMARK INTER:                  -9.363
REMARK INTRA:                  -0.989
REMARK UNBOUND:                -0.637
REMARK SMILES OCC1=C[C@@H](O)[C@@H]2C=CO[C@H](O[C@H]3O[C@H](CO)[C@H](O)[C@H](O)[C@@H]3O)[C@@H]12
REMARK SMILES IDX 12 1 11 2 8 3 9 4 7 5 10 6 24 7 5 8 3 9 4 10 6 11 2 13 1 14
REMARK SMILES IDX 13 16 22 17 14 18 20 19 15 20 18 21 23 22 21 24 16 26 17 27
REMARK SMILES IDX 19 29
REMARK H PARENT 6 12 1 15 23 23 21 25 17 28 19 30
REMARK Flexibility Score: inf
ROOT
ATOM      1  O   UNL     1      -7.387  -3.259   6.339  1.00  0.00    -0.310 OA
ENDROOT
BRANCH   1   2
ATOM      2  C   UNL     1      -7.198  -1.858   6.288  1.00  0.00     0.316 C 
ATOM      3  C   UNL     1      -8.593   0.652   5.776  1.00  0.00     0.018 C 
ATOM      4  C   UNL     1      -8.275  -0.159   4.753  1.00  0.00     0.186 C 
ATOM      5  C   UNL     1      -8.014   0.315   7.110  1.00  0.00     0.061 C 
ATOM      6  O   UNL     1      -7.565  -1.365   4.977  1.00  0.00    -0.472 OA
ATOM      7  C   UNL     1      -8.111  -1.187   7.321  1.00  0.00     0.096 C 
ATOM      8  C   UNL     1      -8.641   0.878   8.387  1.00  0.00     0.145 C 
ATOM      9  C   UNL     1      -7.840  -1.298   8.785  1.00  0.00    -0.036 C 
ATOM     10  C   UNL     1      -8.234  -0.171   9.391  1.00  0.00     0.007 C 
BRANCH   8  11
ATOM     11  O   UNL     1      -8.139   2.150   8.713  1.00  0.00    -0.388 OA
ATOM     12  H   UNL     1      -7.868   2.600   7.870  1.00  0.00     0.211 HD
ENDBRANCH   8  11
BRANCH   9  13
ATOM     13  C   UNL     1      -7.504  -2.571   9.507  1.00  0.00     0.187 C 
BRANCH  13  14
ATOM     14  O   UNL     1      -6.143  -2.594   9.839  1.00  0.00    -0.392 OA
ATOM     15  H   UNL     1      -6.095  -2.620  10.831  1.00  0.00     0.211 HD
ENDBRANCH  13  14
ENDBRANCH   9  13
ENDBRANCH   1   2
BRANCH   1  16
ATOM     16  C   UNL     1      -6.464  -3.941   5.497  1.00  0.00     0.286 C 
ATOM     17  C   UNL     1      -7.074  -5.274   5.023  1.00  0.00     0.202 C 
ATOM     18  O   UNL     1      -5.228  -4.144   6.172  1.00  0.00    -0.341 OA
ATOM     19  C   UNL     1      -7.198  -6.261   6.203  1.00  0.00     0.179 C 
ATOM     20  C   UNL     1      -5.385  -4.947   7.333  1.00  0.00     0.178 C 
ATOM     21  C   UNL     1      -5.867  -6.367   6.962  1.00  0.00     0.177 C 
BRANCH  17  22
ATOM     22  O   UNL     1      -6.265  -5.816   4.008  1.00  0.00    -0.385 OA
ATOM     23  H   UNL     1      -6.635  -6.711   3.789  1.00  0.00     0.211 HD
ENDBRANCH  17  22
BRANCH  19  24
ATOM     24  O   UNL     1      -7.591  -7.532   5.752  1.00  0.00    -0.387 OA
ATOM     25  H   UNL     1      -7.608  -8.125   6.548  1.00  0.00     0.211 HD
ENDBRANCH  19  24
BRANCH  20  26
ATOM     26  C   UNL     1      -4.050  -4.996   8.089  1.00  0.00     0.191 C 
BRANCH  26  27
ATOM     27  O   UNL     1      -3.773  -3.749   8.670  1.00  0.00    -0.394 OA
ATOM     28  H   UNL     1      -4.637  -3.265   8.731  1.00  0.00     0.210 HD
ENDBRANCH  26  27
ENDBRANCH  20  26
BRANCH  21  29
ATOM     29  O   UNL     1      -4.914  -7.021   6.160  1.00  0.00    -0.387 OA
ATOM     30  H   UNL     1      -5.410  -7.628   5.552  1.00  0.00     0.211 HD
ENDBRANCH  21  29
ENDBRANCH   1  16
TORSDOF 10
ENDMDL
MODEL 5
REMARK VINA RESULT:    -6.868      1.828      6.753
REMARK INTER + INTRA:         -10.315
REMARK INTER:                  -9.601
REMARK INTRA:                  -0.714
REMARK UNBOUND:                -0.637
REMARK SMILES OCC1=C[C@@H](O)[C@@H]2C=CO[C@H](O[C@H]3O[C@H](CO)[C@H](O)[C@H](O)[C@@H]3O)[C@@H]12
REMARK SMILES IDX 12 1 11 2 8 3 9 4 7 5 10 6 24 7 5 8 3 9 4 10 6 11 2 13 1 14
REMARK SMILES IDX 13 16 22 17 14 18 20 19 15 20 18 21 23 22 21 24 16 26 17 27
REMARK SMILES IDX 19 29
REMARK H PARENT 6 12 1 15 23 23 21 25 17 28 19 30
REMARK Flexibility Score: inf
ROOT
ATOM      1  O   UNL     1      -6.357  -4.876   6.031  1.00  0.00    -0.310 OA
ENDROOT
BRANCH   1   2
ATOM      2  C   UNL     1      -5.512  -5.705   5.257  1.00  0.00     0.316 C 
ATOM      3  C   UNL     1      -3.653  -7.945   5.448  1.00  0.00     0.018 C 
ATOM      4  C   UNL     1      -3.280  -6.727   5.873  1.00  0.00     0.186 C 
ATOM      5  C   UNL     1      -4.940  -8.034   4.697  1.00  0.00     0.061 C 
ATOM      6  O   UNL     1      -4.156  -5.617   5.755  1.00  0.00    -0.472 OA
ATOM      7  C   UNL     1      -5.974  -7.161   5.389  1.00  0.00     0.096 C 
ATOM      8  C   UNL     1      -5.664  -9.375   4.562  1.00  0.00     0.145 C 
ATOM      9  C   UNL     1      -7.237  -7.636   4.751  1.00  0.00    -0.036 C 
ATOM     10  C   UNL     1      -7.088  -8.914   4.379  1.00  0.00     0.007 C 
BRANCH   8  11
ATOM     11  O   UNL     1      -5.201 -10.124   3.465  1.00  0.00    -0.388 OA
ATOM     12  H   UNL     1      -4.394 -10.627   3.753  1.00  0.00     0.211 HD
ENDBRANCH   8  11
BRANCH   9  13
ATOM     13  C   UNL     1      -8.558  -6.927   4.818  1.00  0.00     0.187 C 
BRANCH  13  14
ATOM     14  O   UNL     1      -8.595  -5.882   3.884  1.00  0.00    -0.392 OA
ATOM     15  H   UNL     1      -8.034  -5.151   4.257  1.00  0.00     0.211 HD
ENDBRANCH  13  14
ENDBRANCH   9  13
ENDBRANCH   1   2
BRANCH   1  16
ATOM     16  C   UNL     1      -5.637  -3.794   6.612  1.00  0.00     0.286 C 
ATOM     17  C   UNL     1      -5.731  -3.866   8.149  1.00  0.00     0.202 C 
ATOM     18  O   UNL     1      -6.118  -2.551   6.117  1.00  0.00    -0.341 OA
ATOM     19  C   UNL     1      -7.171  -3.560   8.615  1.00  0.00     0.179 C 
ATOM     20  C   UNL     1      -7.486  -2.346   6.443  1.00  0.00     0.178 C 
ATOM     21  C   UNL     1      -7.683  -2.263   7.973  1.00  0.00     0.177 C 
BRANCH  17  22
ATOM     22  O   UNL     1      -4.825  -2.950   8.709  1.00  0.00    -0.385 OA
ATOM     23  H   UNL     1      -4.659  -2.250   8.025  1.00  0.00     0.211 HD
ENDBRANCH  17  22
BRANCH  19  24
ATOM     24  O   UNL     1      -7.231  -3.454  10.014  1.00  0.00    -0.387 OA
ATOM     25  H   UNL     1      -8.096  -3.849  10.294  1.00  0.00     0.211 HD
ENDBRANCH  19  24
BRANCH  20  26
ATOM     26  C   UNL     1      -7.976  -1.067   5.751  1.00  0.00     0.191 C 
BRANCH  26  27
ATOM     27  O   UNL     1      -7.521  -1.025   4.425  1.00  0.00    -0.394 OA
ATOM     28  H   UNL     1      -7.367  -1.965   4.147  1.00  0.00     0.210 HD
ENDBRANCH  26  27
ENDBRANCH  20  26
BRANCH  21  29
ATOM     29  O   UNL     1      -6.985  -1.162   8.504  1.00  0.00    -0.387 OA
ATOM     30  H   UNL     1      -6.894  -1.317   9.480  1.00  0.00     0.211 HD
ENDBRANCH  21  29
ENDBRANCH   1  16
TORSDOF 10
ENDMDL
MODEL 6
REMARK VINA RESULT:    -6.829      1.939      6.136
REMARK INTER + INTRA:         -10.260
REMARK INTER:                  -9.624
REMARK INTRA:                  -0.636
REMARK UNBOUND:                -0.637
REMARK SMILES OCC1=C[C@@H](O)[C@@H]2C=CO[C@H](O[C@H]3O[C@H](CO)[C@H](O)[C@H](O)[C@@H]3O)[C@@H]12
REMARK SMILES IDX 12 1 11 2 8 3 9 4 7 5 10 6 24 7 5 8 3 9 4 10 6 11 2 13 1 14
REMARK SMILES IDX 13 16 22 17 14 18 20 19 15 20 18 21 23 22 21 24 16 26 17 27
REMARK SMILES IDX 19 29
REMARK H PARENT 6 12 1 15 23 23 21 25 17 28 19 30
REMARK Flexibility Score: inf
ROOT
ATOM      1  O   UNL     1      -7.179  -3.324   6.573  1.00  0.00    -0.310 OA
ENDROOT
BRANCH   1   2
ATOM      2  C   UNL     1      -7.158  -4.726   6.390  1.00  0.00     0.316 C 
ATOM      3  C   UNL     1      -6.059  -6.826   4.689  1.00  0.00     0.018 C 
ATOM      4  C   UNL     1      -7.059  -6.052   4.236  1.00  0.00     0.186 C 
ATOM      5  C   UNL     1      -5.710  -6.702   6.135  1.00  0.00     0.061 C 
ATOM      6  O   UNL     1      -7.632  -5.050   5.061  1.00  0.00    -0.472 OA
ATOM      7  C   UNL     1      -5.716  -5.231   6.516  1.00  0.00     0.096 C 
ATOM      8  C   UNL     1      -4.348  -7.179   6.643  1.00  0.00     0.145 C 
ATOM      9  C   UNL     1      -5.018  -5.266   7.836  1.00  0.00    -0.036 C 
ATOM     10  C   UNL     1      -4.177  -6.306   7.861  1.00  0.00     0.007 C 
BRANCH   8  11
ATOM     11  O   UNL     1      -4.348  -8.548   6.964  1.00  0.00    -0.388 OA
ATOM     12  H   UNL     1      -5.290  -8.837   7.088  1.00  0.00     0.211 HD
ENDBRANCH   8  11
BRANCH   9  13
ATOM     13  C   UNL     1      -5.001  -4.143   8.833  1.00  0.00     0.187 C 
BRANCH  13  14
ATOM     14  O   UNL     1      -3.716  -3.590   8.916  1.00  0.00    -0.392 OA
ATOM     15  H   UNL     1      -3.835  -2.634   9.159  1.00  0.00     0.211 HD
ENDBRANCH  13  14
ENDBRANCH   9  13
ENDBRANCH   1   2
BRANCH   1  16
ATOM     16  C   UNL     1      -8.501  -2.805   6.476  1.00  0.00     0.286 C 
ATOM     17  C   UNL     1      -8.683  -2.083   5.127  1.00  0.00     0.202 C 
ATOM     18  O   UNL     1      -8.781  -1.942   7.571  1.00  0.00    -0.341 OA
ATOM     19  C   UNL     1      -7.842  -0.789   5.091  1.00  0.00     0.179 C 
ATOM     20  C   UNL     1      -7.907  -0.821   7.598  1.00  0.00     0.178 C 
ATOM     21  C   UNL     1      -8.102   0.060   6.344  1.00  0.00     0.177 C 
BRANCH  17  22
ATOM     22  O   UNL     1     -10.046  -1.793   4.939  1.00  0.00    -0.385 OA
ATOM     23  H   UNL     1     -10.374  -2.396   4.222  1.00  0.00     0.211 HD
ENDBRANCH  17  22
BRANCH  19  24
ATOM     24  O   UNL     1      -8.132  -0.037   3.940  1.00  0.00    -0.387 OA
ATOM     25  H   UNL     1      -8.903   0.545   4.165  1.00  0.00     0.211 HD
ENDBRANCH  19  24
BRANCH  20  26
ATOM     26  C   UNL     1      -8.164  -0.021   8.882  1.00  0.00     0.191 C 
BRANCH  26  27
ATOM     27  O   UNL     1      -7.903   1.341   8.669  1.00  0.00    -0.394 OA
ATOM     28  H   UNL     1      -7.162   1.588   9.281  1.00  0.00     0.210 HD
ENDBRANCH  26  27
ENDBRANCH  20  26
BRANCH  21  29
ATOM     29  O   UNL     1      -9.408   0.582   6.302  1.00  0.00    -0.387 OA
ATOM     30  H   UNL     1      -9.435   1.243   5.563  1.00  0.00     0.211 HD
ENDBRANCH  21  29
ENDBRANCH   1  16
TORSDOF 10
ENDMDL
MODEL 7
REMARK VINA RESULT:    -6.722      1.814      3.951
REMARK INTER + INTRA:         -10.109
REMARK INTER:                  -9.148
REMARK INTRA:                  -0.961
REMARK UNBOUND:                -0.637
REMARK SMILES OCC1=C[C@@H](O)[C@@H]2C=CO[C@H](O[C@H]3O[C@H](CO)[C@H](O)[C@H](O)[C@@H]3O)[C@@H]12
REMARK SMILES IDX 12 1 11 2 8 3 9 4 7 5 10 6 24 7 5 8 3 9 4 10 6 11 2 13 1 14
REMARK SMILES IDX 13 16 22 17 14 18 20 19 15 20 18 21 23 22 21 24 16 26 17 27
REMARK SMILES IDX 19 29
REMARK H PARENT 6 12 1 15 23 23 21 25 17 28 19 30
REMARK Flexibility Score: inf
ROOT
ATOM      1  O   UNL     1      -6.639  -4.934   6.262  1.00  0.00    -0.310 OA
ENDROOT
BRANCH   1   2
ATOM      2  C   UNL     1      -7.320  -4.002   7.079  1.00  0.00     0.316 C 
ATOM      3  C   UNL     1      -7.163  -1.281   8.118  1.00  0.00     0.018 C 
ATOM      4  C   UNL     1      -6.365  -2.237   8.621  1.00  0.00     0.186 C 
ATOM      5  C   UNL     1      -8.247  -1.724   7.192  1.00  0.00     0.061 C 
ATOM      6  O   UNL     1      -6.451  -3.574   8.155  1.00  0.00    -0.472 OA
ATOM      7  C   UNL     1      -7.685  -2.769   6.244  1.00  0.00     0.096 C 
ATOM      8  C   UNL     1      -8.906  -0.722   6.241  1.00  0.00     0.145 C 
ATOM      9  C   UNL     1      -8.752  -2.826   5.201  1.00  0.00    -0.036 C 
ATOM     10  C   UNL     1      -9.367  -1.639   5.136  1.00  0.00     0.007 C 
BRANCH   8  11
ATOM     11  O   UNL     1      -9.974  -0.036   6.845  1.00  0.00    -0.388 OA
ATOM     12  H   UNL     1      -9.631   0.414   7.661  1.00  0.00     0.211 HD
ENDBRANCH   8  11
BRANCH   9  13
ATOM     13  C   UNL     1      -8.891  -3.905   4.166  1.00  0.00     0.187 C 
BRANCH  13  14
ATOM     14  O   UNL     1      -7.639  -4.215   3.618  1.00  0.00    -0.392 OA
ATOM     15  H   UNL     1      -7.054  -3.431   3.791  1.00  0.00     0.211 HD
ENDBRANCH  13  14
ENDBRANCH   9  13
ENDBRANCH   1   2
BRANCH   1  16
ATOM     16  C   UNL     1      -6.085  -5.996   7.031  1.00  0.00     0.286 C 
ATOM     17  C   UNL     1      -4.546  -5.931   6.983  1.00  0.00     0.202 C 
ATOM     18  O   UNL     1      -6.568  -7.251   6.570  1.00  0.00    -0.341 OA
ATOM     19  C   UNL     1      -4.035  -6.279   5.569  1.00  0.00     0.179 C 
ATOM     20  C   UNL     1      -6.200  -7.496   5.219  1.00  0.00     0.178 C 
ATOM     21  C   UNL     1      -4.665  -7.589   5.074  1.00  0.00     0.177 C 
BRANCH  17  22
ATOM     22  O   UNL     1      -4.017  -6.822   7.933  1.00  0.00    -0.385 OA
ATOM     23  H   UNL     1      -3.178  -7.189   7.551  1.00  0.00     0.211 HD
ENDBRANCH  17  22
BRANCH  19  24
ATOM     24  O   UNL     1      -2.635  -6.391   5.557  1.00  0.00    -0.387 OA
ATOM     25  H   UNL     1      -2.322  -5.980   4.710  1.00  0.00     0.211 HD
ENDBRANCH  19  24
BRANCH  20  26
ATOM     26  C   UNL     1      -6.880  -8.788   4.745  1.00  0.00     0.191 C 
BRANCH  26  27
ATOM     27  O   UNL     1      -7.059  -9.669   5.822  1.00  0.00    -0.394 OA
ATOM     28  H   UNL     1      -7.054  -9.116   6.646  1.00  0.00     0.210 HD
ENDBRANCH  26  27
ENDBRANCH  20  26
BRANCH  21  29
ATOM     29  O   UNL     1      -4.160  -8.671   5.820  1.00  0.00    -0.387 OA
ATOM     30  H   UNL     1      -4.706  -9.466   5.587  1.00  0.00     0.211 HD
ENDBRANCH  21  29
ENDBRANCH   1  16
TORSDOF 10
ENDMDL
MODEL 8
REMARK VINA RESULT:    -6.713     11.759     14.539
REMARK INTER + INTRA:         -10.096
REMARK INTER:                  -9.584
REMARK INTRA:                  -0.512
REMARK UNBOUND:                -0.637
REMARK SMILES OCC1=C[C@@H](O)[C@@H]2C=CO[C@H](O[C@H]3O[C@H](CO)[C@H](O)[C@H](O)[C@@H]3O)[C@@H]12
REMARK SMILES IDX 12 1 11 2 8 3 9 4 7 5 10 6 24 7 5 8 3 9 4 10 6 11 2 13 1 14
REMARK SMILES IDX 13 16 22 17 14 18 20 19 15 20 18 21 23 22 21 24 16 26 17 27
REMARK SMILES IDX 19 29
REMARK H PARENT 6 12 1 15 23 23 21 25 17 28 19 30
REMARK Flexibility Score: inf
ROOT
ATOM      1  O   UNL     1      -4.287  -4.865  -5.938  1.00  0.00    -0.310 OA
ENDROOT
BRANCH   1   2
ATOM      2  C   UNL     1      -3.389  -5.029  -7.017  1.00  0.00     0.316 C 
ATOM      3  C   UNL     1      -1.495  -3.580  -8.698  1.00  0.00     0.018 C 
ATOM      4  C   UNL     1      -2.815  -3.409  -8.875  1.00  0.00     0.186 C 
ATOM      5  C   UNL     1      -1.074  -4.680  -7.781  1.00  0.00     0.061 C 
ATOM      6  O   UNL     1      -3.753  -4.131  -8.094  1.00  0.00    -0.472 OA
ATOM      7  C   UNL     1      -1.972  -4.667  -6.555  1.00  0.00     0.096 C 
ATOM      8  C   UNL     1       0.330  -4.681  -7.172  1.00  0.00     0.145 C 
ATOM      9  C   UNL     1      -1.211  -5.550  -5.622  1.00  0.00    -0.036 C 
ATOM     10  C   UNL     1       0.094  -5.474  -5.911  1.00  0.00     0.007 C 
BRANCH   8  11
ATOM     11  O   UNL     1       1.277  -5.290  -8.015  1.00  0.00    -0.388 OA
ATOM     12  H   UNL     1       2.160  -5.261  -7.560  1.00  0.00     0.211 HD
ENDBRANCH   8  11
BRANCH   9  13
ATOM     13  C   UNL     1      -1.761  -6.153  -4.362  1.00  0.00     0.187 C 
BRANCH  13  14
ATOM     14  O   UNL     1      -0.727  -6.385  -3.445  1.00  0.00    -0.392 OA
ATOM     15  H   UNL     1      -0.569  -5.525  -2.973  1.00  0.00     0.211 HD
ENDBRANCH  13  14
ENDBRANCH   9  13
ENDBRANCH   1   2
BRANCH   1  16
ATOM     16  C   UNL     1      -5.446  -4.137  -6.329  1.00  0.00     0.286 C 
ATOM     17  C   UNL     1      -5.327  -2.672  -5.863  1.00  0.00     0.202 C 
ATOM     18  O   UNL     1      -6.620  -4.753  -5.817  1.00  0.00    -0.341 OA
ATOM     19  C   UNL     1      -5.418  -2.588  -4.324  1.00  0.00     0.179 C 
ATOM     20  C   UNL     1      -6.625  -4.785  -4.397  1.00  0.00     0.178 C 
ATOM     21  C   UNL     1      -6.645  -3.356  -3.812  1.00  0.00     0.177 C 
BRANCH  17  22
ATOM     22  O   UNL     1      -6.348  -1.914  -6.461  1.00  0.00    -0.385 OA
ATOM     23  H   UNL     1      -6.081  -1.762  -7.405  1.00  0.00     0.211 HD
ENDBRANCH  17  22
BRANCH  19  24
ATOM     24  O   UNL     1      -5.484  -1.250  -3.900  1.00  0.00    -0.387 OA
ATOM     25  H   UNL     1      -6.406  -0.936  -4.086  1.00  0.00     0.211 HD
ENDBRANCH  19  24
BRANCH  20  26
ATOM     26  C   UNL     1      -7.839  -5.595  -3.921  1.00  0.00     0.191 C 
BRANCH  26  27
ATOM     27  O   UNL     1      -8.641  -5.957  -5.014  1.00  0.00    -0.394 OA
ATOM     28  H   UNL     1      -8.079  -5.859  -5.825  1.00  0.00     0.210 HD
ENDBRANCH  26  27
ENDBRANCH  20  26
BRANCH  21  29
ATOM     29  O   UNL     1      -7.821  -2.681  -4.192  1.00  0.00    -0.387 OA
ATOM     30  H   UNL     1      -8.462  -3.367  -4.511  1.00  0.00     0.211 HD
ENDBRANCH  21  29
ENDBRANCH   1  16
TORSDOF 10
ENDMDL
MODEL 9
REMARK VINA RESULT:    -6.672     11.763     14.157
REMARK INTER + INTRA:         -10.038
REMARK INTER:                  -9.236
REMARK INTRA:                  -0.803
REMARK UNBOUND:                -0.637
REMARK SMILES OCC1=C[C@@H](O)[C@@H]2C=CO[C@H](O[C@H]3O[C@H](CO)[C@H](O)[C@H](O)[C@@H]3O)[C@@H]12
REMARK SMILES IDX 12 1 11 2 8 3 9 4 7 5 10 6 24 7 5 8 3 9 4 10 6 11 2 13 1 14
REMARK SMILES IDX 13 16 22 17 14 18 20 19 15 20 18 21 23 22 21 24 16 26 17 27
REMARK SMILES IDX 19 29
REMARK H PARENT 6 12 1 15 23 23 21 25 17 28 19 30
REMARK Flexibility Score: inf
ROOT
ATOM      1  O   UNL     1      -3.657  -4.320  -6.749  1.00  0.00    -0.310 OA
ENDROOT
BRANCH   1   2
ATOM      2  C   UNL     1      -4.358  -4.403  -5.524  1.00  0.00     0.316 C 
ATOM      3  C   UNL     1      -6.758  -3.460  -4.159  1.00  0.00     0.018 C 
ATOM      4  C   UNL     1      -5.722  -2.626  -4.345  1.00  0.00     0.186 C 
ATOM      5  C   UNL     1      -6.532  -4.901  -4.478  1.00  0.00     0.061 C 
ATOM      6  O   UNL     1      -4.533  -3.075  -4.973  1.00  0.00    -0.472 OA
ATOM      7  C   UNL     1      -5.749  -4.998  -5.777  1.00  0.00     0.096 C 
ATOM      8  C   UNL     1      -7.720  -5.832  -4.728  1.00  0.00     0.145 C 
ATOM      9  C   UNL     1      -5.924  -6.440  -6.120  1.00  0.00    -0.036 C 
ATOM     10  C   UNL     1      -7.084  -6.875  -5.612  1.00  0.00     0.007 C 
BRANCH   8  11
ATOM     11  O   UNL     1      -8.228  -6.381  -3.537  1.00  0.00    -0.388 OA
ATOM     12  H   UNL     1      -7.546  -6.260  -2.825  1.00  0.00     0.211 HD
ENDBRANCH   8  11
BRANCH   9  13
ATOM     13  C   UNL     1      -5.119  -7.189  -7.143  1.00  0.00     0.187 C 
BRANCH  13  14
ATOM     14  O   UNL     1      -5.024  -6.443  -8.325  1.00  0.00    -0.392 OA
ATOM     15  H   UNL     1      -4.387  -6.927  -8.914  1.00  0.00     0.211 HD
ENDBRANCH  13  14
ENDBRANCH   9  13
ENDBRANCH   1   2
BRANCH   1  16
ATOM     16  C   UNL     1      -2.266  -4.103  -6.540  1.00  0.00     0.286 C 
ATOM     17  C   UNL     1      -1.482  -4.462  -7.818  1.00  0.00     0.202 C 
ATOM     18  O   UNL     1      -1.806  -4.850  -5.420  1.00  0.00    -0.341 OA
ATOM     19  C   UNL     1      -1.520  -5.985  -8.065  1.00  0.00     0.179 C 
ATOM     20  C   UNL     1      -1.973  -6.248  -5.612  1.00  0.00     0.178 C 
ATOM     21  C   UNL     1      -1.116  -6.749  -6.796  1.00  0.00     0.177 C 
BRANCH  17  22
ATOM     22  O   UNL     1      -0.155  -4.015  -7.685  1.00  0.00    -0.385 OA
ATOM     23  H   UNL     1       0.423  -4.822  -7.679  1.00  0.00     0.211 HD
ENDBRANCH  17  22
BRANCH  19  24
ATOM     24  O   UNL     1      -0.670  -6.341  -9.125  1.00  0.00    -0.387 OA
ATOM     25  H   UNL     1      -1.197  -6.242  -9.959  1.00  0.00     0.211 HD
ENDBRANCH  19  24
BRANCH  20  26
ATOM     26  C   UNL     1      -1.602  -6.976  -4.313  1.00  0.00     0.191 C 
BRANCH  26  27
ATOM     27  O   UNL     1      -0.599  -6.272  -3.629  1.00  0.00    -0.394 OA
ATOM     28  H   UNL     1      -0.731  -5.312  -3.840  1.00  0.00     0.210 HD
ENDBRANCH  26  27
ENDBRANCH  20  26
BRANCH  21  29
ATOM     29  O   UNL     1       0.253  -6.549  -6.537  1.00  0.00    -0.387 OA
ATOM     30  H   UNL     1       0.724  -6.589  -7.409  1.00  0.00     0.211 HD
ENDBRANCH  21  29
ENDBRANCH   1  16
TORSDOF 10
ENDMDL
