MODEL 1
REMARK VINA RESULT:    -2.005      0.000      0.000
REMARK INTER + INTRA:          -2.005
REMARK INTER:                  -2.005
REMARK INTRA:                   0.000
REMARK UNBOUND:                 0.000
REMARK SMILES CC(=O)[O-]
REMARK SMILES IDX 1 1 2 2 3 3 4 4
REMARK H PARENT
REMARK Flexibility Score: inf
ROOT
ATOM      1  C   UNL     1      21.259  52.700  49.485  1.00  0.00     0.063 C 
ATOM      2  C   UNL     1      21.605  51.586  50.413  1.00  0.00     0.038 C 
ATOM      3  O   UNL     1      22.284  50.608  50.002  1.00  0.00    -0.550 OA
ATOM      4  O   UNL     1      21.133  51.596  51.719  1.00  0.00    -0.550 OA
ENDROOT
TORSDOF 0
ENDMDL
MODEL 2
REMARK VINA RESULT:    -1.986      0.106      1.622
REMARK INTER + INTRA:          -1.986
REMARK INTER:                  -1.986
REMARK INTRA:                   0.000
REMARK UNBOUND:                 0.000
REMARK SMILES CC(=O)[O-]
REMARK SMILES IDX 1 1 2 2 3 3 4 4
REMARK H PARENT
REMARK Flexibility Score: inf
ROOT
ATOM      1  C   UNL     1      21.253  52.685  49.473  1.00  0.00     0.063 C 
ATOM      2  C   UNL     1      21.598  51.575  50.407  1.00  0.00     0.038 C 
ATOM      3  O   UNL     1      21.172  51.590  51.592  1.00  0.00    -0.550 OA
ATOM      4  O   UNL     1      22.435  50.549  49.988  1.00  0.00    -0.550 OA
ENDROOT
TORSDOF 0
ENDMDL
MODEL 3
REMARK VINA RESULT:    -1.976      1.364      2.100
REMARK INTER + INTRA:          -1.976
REMARK INTER:                  -1.976
REMARK INTRA:                   0.000
REMARK UNBOUND:                 0.000
REMARK SMILES CC(=O)[O-]
REMARK SMILES IDX 1 1 2 2 3 3 4 4
REMARK H PARENT
REMARK Flexibility Score: inf
ROOT
ATOM      1  C   UNL     1      21.387  51.625  51.847  1.00  0.00     0.063 C 
ATOM      2  C   UNL     1      21.636  51.527  50.380  1.00  0.00     0.038 C 
ATOM      3  O   UNL     1      21.028  52.290  49.584  1.00  0.00    -0.550 OA
ATOM      4  O   UNL     1      22.497  50.557  49.884  1.00  0.00    -0.550 OA
ENDROOT
TORSDOF 0
ENDMDL
MODEL 4
REMARK VINA RESULT:    -1.962      1.330      1.667
REMARK INTER + INTRA:          -1.962
REMARK INTER:                  -1.962
REMARK INTRA:                   0.000
REMARK UNBOUND:                 0.000
REMARK SMILES CC(=O)[O-]
REMARK SMILES IDX 1 1 2 2 3 3 4 4
REMARK H PARENT
REMARK Flexibility Score: inf
ROOT
ATOM      1  C   UNL     1      22.680  50.734  49.971  1.00  0.00     0.063 C 
ATOM      2  C   UNL     1      21.551  51.616  50.384  1.00  0.00     0.038 C 
ATOM      3  O   UNL     1      21.018  52.394  49.548  1.00  0.00    -0.550 OA
ATOM      4  O   UNL     1      21.120  51.622  51.704  1.00  0.00    -0.550 OA
ENDROOT
TORSDOF 0
ENDMDL
MODEL 5
REMARK VINA RESULT:    -1.844      1.824      2.336
REMARK INTER + INTRA:          -1.844
REMARK INTER:                  -1.844
REMARK INTRA:                   0.000
REMARK UNBOUND:                 0.000
REMARK SMILES CC(=O)[O-]
REMARK SMILES IDX 1 1 2 2 3 3 4 4
REMARK H PARENT
REMARK Flexibility Score: inf
ROOT
ATOM      1  C   UNL     1      21.927  53.816  50.213  1.00  0.00     0.063 C 
ATOM      2  C   UNL     1      21.461  52.635  49.430  1.00  0.00     0.038 C 
ATOM      3  O   UNL     1      20.962  51.642  50.022  1.00  0.00    -0.550 OA
ATOM      4  O   UNL     1      21.627  52.605  48.052  1.00  0.00    -0.550 OA
ENDROOT
TORSDOF 0
ENDMDL
MODEL 6
REMARK VINA RESULT:    -1.710      9.481     10.127
REMARK INTER + INTRA:          -1.710
REMARK INTER:                  -1.710
REMARK INTRA:                   0.000
REMARK UNBOUND:                 0.000
REMARK SMILES CC(=O)[O-]
REMARK SMILES IDX 1 1 2 2 3 3 4 4
REMARK H PARENT
REMARK Flexibility Score: inf
ROOT
ATOM      1  C   UNL     1      20.906  52.708  41.534  1.00  0.00     0.063 C 
ATOM      2  C   UNL     1      19.711  53.279  40.848  1.00  0.00     0.038 C 
ATOM      3  O   UNL     1      18.940  54.058  41.467  1.00  0.00    -0.550 OA
ATOM      4  O   UNL     1      19.417  52.910  39.542  1.00  0.00    -0.550 OA
ENDROOT
TORSDOF 0
ENDMDL
MODEL 7
REMARK VINA RESULT:    -1.705     10.122     10.698
REMARK INTER + INTRA:          -1.705
REMARK INTER:                  -1.705
REMARK INTRA:                   0.000
REMARK UNBOUND:                 0.000
REMARK SMILES CC(=O)[O-]
REMARK SMILES IDX 1 1 2 2 3 3 4 4
REMARK H PARENT
REMARK Flexibility Score: inf
ROOT
ATOM      1  C   UNL     1      18.893  54.244  39.804  1.00  0.00     0.063 C 
ATOM      2  C   UNL     1      19.737  53.027  39.972  1.00  0.00     0.038 C 
ATOM      3  O   UNL     1      20.157  52.404  38.962  1.00  0.00    -0.550 OA
ATOM      4  O   UNL     1      20.016  52.545  41.245  1.00  0.00    -0.550 OA
ENDROOT
TORSDOF 0
ENDMDL
MODEL 8
REMARK VINA RESULT:    -1.700      9.571      9.992
REMARK INTER + INTRA:          -1.700
REMARK INTER:                  -1.700
REMARK INTRA:                   0.000
REMARK UNBOUND:                 0.000
REMARK SMILES CC(=O)[O-]
REMARK SMILES IDX 1 1 2 2 3 3 4 4
REMARK H PARENT
REMARK Flexibility Score: inf
ROOT
ATOM      1  C   UNL     1      19.282  53.487  39.426  1.00  0.00     0.063 C 
ATOM      2  C   UNL     1      19.602  53.498  40.882  1.00  0.00     0.038 C 
ATOM      3  O   UNL     1      20.284  52.567  41.386  1.00  0.00    -0.550 OA
ATOM      4  O   UNL     1      19.103  54.506  41.696  1.00  0.00    -0.550 OA
ENDROOT
TORSDOF 0
ENDMDL
MODEL 9
REMARK VINA RESULT:    -1.693     23.889     24.150
REMARK INTER + INTRA:          -1.693
REMARK INTER:                  -1.693
REMARK INTRA:                   0.000
REMARK UNBOUND:                 0.000
REMARK SMILES CC(=O)[O-]
REMARK SMILES IDX 1 1 2 2 3 3 4 4
REMARK H PARENT
REMARK Flexibility Score: inf
ROOT
ATOM      1  C   UNL     1       5.632  37.991  37.024  1.00  0.00     0.063 C 
ATOM      2  C   UNL     1       6.981  38.458  36.595  1.00  0.00     0.038 C 
ATOM      3  O   UNL     1       7.288  39.676  36.692  1.00  0.00    -0.550 OA
ATOM      4  O   UNL     1       7.883  37.562  36.038  1.00  0.00    -0.550 OA
ENDROOT
TORSDOF 0
ENDMDL
