MODEL 1
REMARK VINA RESULT:    -3.585      0.000      0.000
REMARK INTER + INTRA:          -3.900
REMARK INTER:                  -3.900
REMARK INTRA:                   0.000
REMARK UNBOUND:                 0.000
REMARK SMILES [NH3+]CC(=O)[O-]
REMARK SMILES IDX 2 1 1 2 3 6 4 7 5 8
REMARK H PARENT 1 3 1 4 1 5
REMARK Flexibility Score: inf
ROOT
ATOM      1  C   UNL     1      13.573  36.077  12.675  1.00  0.00     0.312 C 
ENDROOT
BRANCH   1   2
ATOM      2  N   UNL     1      12.428  36.678  13.355  1.00  0.00    -0.353 N 
ATOM      3  H   UNL     1      11.553  36.422  12.844  1.00  0.00     0.344 HD
ATOM      4  H   UNL     1      12.523  37.720  13.367  1.00  0.00     0.344 HD
ATOM      5  H   UNL     1      12.364  36.318  14.336  1.00  0.00     0.344 HD
ENDBRANCH   1   2
BRANCH   1   6
ATOM      6  C   UNL     1      14.063  34.876  13.424  1.00  0.00     0.096 C 
ATOM      7  O   UNL     1      13.245  34.026  13.862  1.00  0.00    -0.544 OA
ATOM      8  O   UNL     1      15.420  34.724  13.682  1.00  0.00    -0.544 OA
ENDBRANCH   1   6
TORSDOF 2
ENDMDL
MODEL 2
REMARK VINA RESULT:    -3.034      2.222      2.447
REMARK INTER + INTRA:          -3.300
REMARK INTER:                  -3.300
REMARK INTRA:                   0.000
REMARK UNBOUND:                 0.000
REMARK SMILES [NH3+]CC(=O)[O-]
REMARK SMILES IDX 2 1 1 2 3 6 4 7 5 8
REMARK H PARENT 1 3 1 4 1 5
REMARK Flexibility Score: inf
ROOT
ATOM      1  C   UNL     1      13.540  33.087  12.897  1.00  0.00     0.312 C 
ENDROOT
BRANCH   1   2
ATOM      2  N   UNL     1      12.661  32.340  13.793  1.00  0.00    -0.353 N 
ATOM      3  H   UNL     1      11.884  31.917  13.237  1.00  0.00     0.344 HD
ATOM      4  H   UNL     1      12.253  32.980  14.513  1.00  0.00     0.344 HD
ATOM      5  H   UNL     1      13.196  31.573  14.264  1.00  0.00     0.344 HD
ENDBRANCH   1   2
BRANCH   1   6
ATOM      6  C   UNL     1      13.949  34.387  13.519  1.00  0.00     0.096 C 
ATOM      7  O   UNL     1      13.087  35.272  13.760  1.00  0.00    -0.544 OA
ATOM      8  O   UNL     1      15.289  34.640  13.784  1.00  0.00    -0.544 OA
ENDBRANCH   1   6
TORSDOF 2
ENDMDL
MODEL 3
REMARK VINA RESULT:    -2.909      2.167      2.602
REMARK INTER + INTRA:          -3.164
REMARK INTER:                  -3.164
REMARK INTRA:                   0.000
REMARK UNBOUND:                 0.000
REMARK SMILES [NH3+]CC(=O)[O-]
REMARK SMILES IDX 2 1 1 2 3 6 4 7 5 8
REMARK H PARENT 1 3 1 4 1 5
REMARK Flexibility Score: inf
ROOT
ATOM      1  C   UNL     1      13.960  34.175  13.483  1.00  0.00     0.312 C 
ENDROOT
BRANCH   1   2
ATOM      2  N   UNL     1      12.869  35.045  13.915  1.00  0.00    -0.353 N 
ATOM      3  H   UNL     1      12.161  35.113  13.149  1.00  0.00     0.344 HD
ATOM      4  H   UNL     1      13.235  36.003  14.124  1.00  0.00     0.344 HD
ATOM      5  H   UNL     1      12.408  34.648  14.767  1.00  0.00     0.344 HD
ENDBRANCH   1   2
BRANCH   1   6
ATOM      6  C   UNL     1      13.439  32.821  13.109  1.00  0.00     0.096 C 
ATOM      7  O   UNL     1      13.763  32.300  12.010  1.00  0.00    -0.544 OA
ATOM      8  O   UNL     1      12.554  32.159  13.952  1.00  0.00    -0.544 OA
ENDBRANCH   1   6
TORSDOF 2
ENDMDL
MODEL 4
REMARK VINA RESULT:    -2.843      2.704      2.826
REMARK INTER + INTRA:          -3.093
REMARK INTER:                  -3.093
REMARK INTRA:                   0.000
REMARK UNBOUND:                 0.000
REMARK SMILES [NH3+]CC(=O)[O-]
REMARK SMILES IDX 2 1 1 2 3 6 4 7 5 8
REMARK H PARENT 1 3 1 4 1 5
REMARK Flexibility Score: inf
ROOT
ATOM      1  C   UNL     1      15.438  34.621  13.652  1.00  0.00     0.312 C 
ENDROOT
BRANCH   1   2
ATOM      2  N   UNL     1      16.309  33.452  13.567  1.00  0.00    -0.353 N 
ATOM      3  H   UNL     1      15.736  32.616  13.309  1.00  0.00     0.344 HD
ATOM      4  H   UNL     1      16.768  33.277  14.491  1.00  0.00     0.344 HD
ATOM      5  H   UNL     1      17.040  33.600  12.832  1.00  0.00     0.344 HD
ENDBRANCH   1   2
BRANCH   1   6
ATOM      6  C   UNL     1      14.007  34.231  13.446  1.00  0.00     0.096 C 
ATOM      7  O   UNL     1      13.082  34.948  13.909  1.00  0.00    -0.544 OA
ATOM      8  O   UNL     1      13.697  33.048  12.786  1.00  0.00    -0.544 OA
ENDBRANCH   1   6
TORSDOF 2
ENDMDL
MODEL 5
REMARK VINA RESULT:    -2.809     14.830     15.192
REMARK INTER + INTRA:          -3.056
REMARK INTER:                  -3.056
REMARK INTRA:                   0.000
REMARK UNBOUND:                 0.000
REMARK SMILES [NH3+]CC(=O)[O-]
REMARK SMILES IDX 2 1 1 2 3 6 4 7 5 8
REMARK H PARENT 1 3 1 4 1 5
REMARK Flexibility Score: inf
ROOT
ATOM      1  C   UNL     1       4.858  46.231   9.911  1.00  0.00     0.312 C 
ENDROOT
BRANCH   1   2
ATOM      2  N   UNL     1       4.081  46.716  11.049  1.00  0.00    -0.353 N 
ATOM      3  H   UNL     1       3.601  47.606  10.781  1.00  0.00     0.344 HD
ATOM      4  H   UNL     1       4.711  46.903  11.862  1.00  0.00     0.344 HD
ATOM      5  H   UNL     1       3.357  46.010  11.317  1.00  0.00     0.344 HD
ENDBRANCH   1   2
BRANCH   1   6
ATOM      6  C   UNL     1       5.618  47.353   9.272  1.00  0.00     0.096 C 
ATOM      7  O   UNL     1       5.025  48.171   8.522  1.00  0.00    -0.544 OA
ATOM      8  O   UNL     1       6.989  47.463   9.465  1.00  0.00    -0.544 OA
ENDBRANCH   1   6
TORSDOF 2
ENDMDL
MODEL 6
REMARK VINA RESULT:    -2.805     13.875     14.075
REMARK INTER + INTRA:          -3.051
REMARK INTER:                  -3.051
REMARK INTRA:                   0.000
REMARK UNBOUND:                 0.000
REMARK SMILES [NH3+]CC(=O)[O-]
REMARK SMILES IDX 2 1 1 2 3 6 4 7 5 8
REMARK H PARENT 1 3 1 4 1 5
REMARK Flexibility Score: inf
ROOT
ATOM      1  C   UNL     1       3.856  43.666   9.533  1.00  0.00     0.312 C 
ENDROOT
BRANCH   1   2
ATOM      2  N   UNL     1       4.590  42.793  10.446  1.00  0.00    -0.353 N 
ATOM      3  H   UNL     1       4.362  43.058  11.431  1.00  0.00     0.344 HD
ATOM      4  H   UNL     1       5.620  42.900  10.296  1.00  0.00     0.344 HD
ATOM      5  H   UNL     1       4.312  41.796  10.292  1.00  0.00     0.344 HD
ENDBRANCH   1   2
BRANCH   1   6
ATOM      6  C   UNL     1       3.991  45.099   9.948  1.00  0.00     0.096 C 
ATOM      7  O   UNL     1       4.651  45.903   9.240  1.00  0.00    -0.544 OA
ATOM      8  O   UNL     1       3.431  45.532  11.143  1.00  0.00    -0.544 OA
ENDBRANCH   1   6
TORSDOF 2
ENDMDL
MODEL 7
REMARK VINA RESULT:    -2.767     15.058     15.491
REMARK INTER + INTRA:          -3.010
REMARK INTER:                  -3.010
REMARK INTRA:                   0.000
REMARK UNBOUND:                 0.000
REMARK SMILES [NH3+]CC(=O)[O-]
REMARK SMILES IDX 2 1 1 2 3 6 4 7 5 8
REMARK H PARENT 1 3 1 4 1 5
REMARK Flexibility Score: inf
ROOT
ATOM      1  C   UNL     1       6.348  47.487   9.416  1.00  0.00     0.312 C 
ENDROOT
BRANCH   1   2
ATOM      2  N   UNL     1       6.648  48.675   8.621  1.00  0.00    -0.353 N 
ATOM      3  H   UNL     1       7.180  49.356   9.210  1.00  0.00     0.344 HD
ATOM      4  H   UNL     1       5.761  49.126   8.298  1.00  0.00     0.344 HD
ATOM      5  H   UNL     1       7.235  48.415   7.794  1.00  0.00     0.344 HD
ENDBRANCH   1   2
BRANCH   1   6
ATOM      6  C   UNL     1       4.972  46.980   9.110  1.00  0.00     0.096 C 
ATOM      7  O   UNL     1       4.634  45.819   9.458  1.00  0.00    -0.544 OA
ATOM      8  O   UNL     1       4.083  47.772   8.394  1.00  0.00    -0.544 OA
ENDBRANCH   1   6
TORSDOF 2
ENDMDL
MODEL 8
REMARK VINA RESULT:    -2.693     12.688     13.235
REMARK INTER + INTRA:          -2.929
REMARK INTER:                  -2.929
REMARK INTRA:                   0.000
REMARK UNBOUND:                 0.000
REMARK SMILES [NH3+]CC(=O)[O-]
REMARK SMILES IDX 2 1 1 2 3 6 4 7 5 8
REMARK H PARENT 1 3 1 4 1 5
REMARK Flexibility Score: inf
ROOT
ATOM      1  C   UNL     1       3.754  43.403  11.315  1.00  0.00     0.312 C 
ENDROOT
BRANCH   1   2
ATOM      2  N   UNL     1       4.663  42.768  10.363  1.00  0.00    -0.353 N 
ATOM      3  H   UNL     1       4.152  42.011   9.854  1.00  0.00     0.344 HD
ATOM      4  H   UNL     1       5.477  42.347  10.868  1.00  0.00     0.344 HD
ATOM      5  H   UNL     1       5.004  43.472   9.667  1.00  0.00     0.344 HD
ENDBRANCH   1   2
BRANCH   1   6
ATOM      6  C   UNL     1       2.689  42.444  11.749  1.00  0.00     0.096 C 
ATOM      7  O   UNL     1       2.940  41.213  11.830  1.00  0.00    -0.544 OA
ATOM      8  O   UNL     1       1.405  42.905  12.013  1.00  0.00    -0.544 OA
ENDBRANCH   1   6
TORSDOF 2
ENDMDL
MODEL 9
REMARK VINA RESULT:    -2.632     13.384     13.669
REMARK INTER + INTRA:          -2.863
REMARK INTER:                  -2.863
REMARK INTRA:                   0.000
REMARK UNBOUND:                 0.000
REMARK SMILES [NH3+]CC(=O)[O-]
REMARK SMILES IDX 2 1 1 2 3 6 4 7 5 8
REMARK H PARENT 1 3 1 4 1 5
REMARK Flexibility Score: inf
ROOT
ATOM      1  C   UNL     1       4.112  45.413  10.257  1.00  0.00     0.312 C 
ENDROOT
BRANCH   1   2
ATOM      2  N   UNL     1       4.102  46.633  11.062  1.00  0.00    -0.353 N 
ATOM      3  H   UNL     1       4.531  47.410  10.510  1.00  0.00     0.344 HD
ATOM      4  H   UNL     1       4.656  46.491  11.937  1.00  0.00     0.344 HD
ATOM      5  H   UNL     1       3.118  46.894  11.305  1.00  0.00     0.344 HD
ENDBRANCH   1   2
BRANCH   1   6
ATOM      6  C   UNL     1       4.253  44.205  11.131  1.00  0.00     0.096 C 
ATOM      7  O   UNL     1       4.204  43.052  10.629  1.00  0.00    -0.544 OA
ATOM      8  O   UNL     1       4.384  44.353  12.507  1.00  0.00    -0.544 OA
ENDBRANCH   1   6
TORSDOF 2
ENDMDL
