MODEL 1
REMARK VINA RESULT:    -5.317      0.000      0.000
REMARK INTER + INTRA:          -6.032
REMARK INTER:                  -5.783
REMARK INTRA:                  -0.249
REMARK UNBOUND:                -0.249
REMARK SMILES CC1=CCC[C@]2(C)CC[C@@H](C(C)(C)O)C[C@@H]12
REMARK SMILES IDX 11 1 12 2 13 3 10 4 1 5 2 6 3 7 16 8 4 9 6 10 15 11 5 12
REMARK SMILES IDX 7 13 8 14 9 15 14 16
REMARK H PARENT 14 17
REMARK Flexibility Score: inf
ROOT
ATOM      1  C   UNL     1     139.947 142.687 147.516  1.00  0.00     0.062 C 
ATOM      2  C   UNL     1     139.634 144.122 148.001  1.00  0.00     0.042 C 
ATOM      3  C   UNL     1     140.222 141.805 148.748  1.00  0.00     0.042 C 
ENDROOT
BRANCH   1   4
ATOM      4  C   UNL     1     138.775 142.120 146.630  1.00  0.00     0.021 C 
ATOM      5  C   UNL     1     136.909 144.440 143.249  1.00  0.00     0.039 C 
ATOM      6  C   UNL     1     137.261 142.981 143.091  1.00  0.00    -0.074 C 
ATOM      7  C   UNL     1     136.919 142.333 141.954  1.00  0.00    -0.028 C 
ATOM      8  C   UNL     1     137.857 142.185 144.242  1.00  0.00     0.021 C 
ATOM      9  C   UNL     1     137.326 140.905 141.649  1.00  0.00     0.028 C 
ATOM     10  C   UNL     1     138.851 141.101 143.722  1.00  0.00    -0.026 C 
ATOM     11  C   UNL     1     138.488 143.007 145.381  1.00  0.00     0.015 C 
ATOM     12  C   UNL     1     138.020 140.160 142.813  1.00  0.00     0.011 C 
ATOM     13  C   UNL     1     140.012 141.722 142.890  1.00  0.00     0.012 C 
ATOM     14  C   UNL     1     139.484 140.296 144.911  1.00  0.00     0.008 C 
ATOM     15  C   UNL     1     138.873 140.599 146.291  1.00  0.00     0.007 C 
ENDBRANCH   1   4
BRANCH   1  16
ATOM     16  O   UNL     1     141.135 142.729 146.759  1.00  0.00    -0.390 OA
ATOM     17  H   UNL     1     141.781 143.314 147.234  1.00  0.00     0.211 HD
ENDBRANCH   1  16
TORSDOF 2
ENDMDL
MODEL 2
REMARK VINA RESULT:    -4.987      9.271     11.680
REMARK INTER + INTRA:          -5.674
REMARK INTER:                  -5.288
REMARK INTRA:                  -0.386
REMARK UNBOUND:                -0.249
REMARK SMILES CC1=CCC[C@]2(C)CC[C@@H](C(C)(C)O)C[C@@H]12
REMARK SMILES IDX 11 1 12 2 13 3 10 4 1 5 2 6 3 7 16 8 4 9 6 10 15 11 5 12
REMARK SMILES IDX 7 13 8 14 9 15 14 16
REMARK H PARENT 14 17
REMARK Flexibility Score: inf
ROOT
ATOM      1  C   UNL     1     149.197 138.085 147.262  1.00  0.00     0.062 C 
ATOM      2  C   UNL     1     148.491 137.349 146.099  1.00  0.00     0.042 C 
ATOM      3  C   UNL     1     149.078 139.602 147.024  1.00  0.00     0.042 C 
ENDROOT
BRANCH   1   4
ATOM      4  C   UNL     1     148.599 137.653 148.653  1.00  0.00     0.021 C 
ATOM      5  C   UNL     1     144.175 137.555 149.500  1.00  0.00     0.039 C 
ATOM      6  C   UNL     1     145.077 136.425 149.936  1.00  0.00    -0.074 C 
ATOM      7  C   UNL     1     144.568 135.417 150.680  1.00  0.00    -0.028 C 
ATOM      8  C   UNL     1     146.576 136.472 149.684  1.00  0.00     0.021 C 
ATOM      9  C   UNL     1     145.358 134.182 151.069  1.00  0.00     0.028 C 
ATOM     10  C   UNL     1     147.148 135.045 149.421  1.00  0.00    -0.026 C 
ATOM     11  C   UNL     1     147.053 137.461 148.604  1.00  0.00     0.015 C 
ATOM     12  C   UNL     1     146.860 134.226 150.705  1.00  0.00     0.011 C 
ATOM     13  C   UNL     1     146.459 134.352 148.208  1.00  0.00     0.012 C 
ATOM     14  C   UNL     1     148.690 135.095 149.138  1.00  0.00     0.008 C 
ATOM     15  C   UNL     1     149.340 136.473 149.358  1.00  0.00     0.007 C 
ENDBRANCH   1   4
BRANCH   1  16
ATOM     16  O   UNL     1     150.568 137.762 147.216  1.00  0.00    -0.390 OA
ATOM     17  H   UNL     1     150.935 138.101 146.358  1.00  0.00     0.211 HD
ENDBRANCH   1  16
TORSDOF 2
ENDMDL
MODEL 3
REMARK VINA RESULT:    -4.899      8.407     10.875
REMARK INTER + INTRA:          -5.578
REMARK INTER:                  -5.220
REMARK INTRA:                  -0.358
REMARK UNBOUND:                -0.249
REMARK SMILES CC1=CCC[C@]2(C)CC[C@@H](C(C)(C)O)C[C@@H]12
REMARK SMILES IDX 11 1 12 2 13 3 10 4 1 5 2 6 3 7 16 8 4 9 6 10 15 11 5 12
REMARK SMILES IDX 7 13 8 14 9 15 14 16
REMARK H PARENT 14 17
REMARK Flexibility Score: inf
ROOT
ATOM      1  C   UNL     1     146.395 138.458 145.357  1.00  0.00     0.062 C 
ATOM      2  C   UNL     1     145.054 137.750 145.053  1.00  0.00     0.042 C 
ATOM      3  C   UNL     1     146.194 139.976 145.189  1.00  0.00     0.042 C 
ENDROOT
BRANCH   1   4
ATOM      4  C   UNL     1     146.921 138.084 146.793  1.00  0.00     0.021 C 
ATOM      5  C   UNL     1     144.185 137.029 150.214  1.00  0.00     0.039 C 
ATOM      6  C   UNL     1     145.429 136.221 149.934  1.00  0.00    -0.074 C 
ATOM      7  C   UNL     1     145.783 135.228 150.781  1.00  0.00    -0.028 C 
ATOM      8  C   UNL     1     146.375 136.596 148.803  1.00  0.00     0.021 C 
ATOM      9  C   UNL     1     146.944 134.286 150.530  1.00  0.00     0.028 C 
ATOM     10  C   UNL     1     147.027 135.328 148.170  1.00  0.00    -0.026 C 
ATOM     11  C   UNL     1     145.797 137.517 147.712  1.00  0.00     0.015 C 
ATOM     12  C   UNL     1     147.824 134.644 149.310  1.00  0.00     0.011 C 
ATOM     13  C   UNL     1     145.962 134.333 147.621  1.00  0.00     0.012 C 
ATOM     14  C   UNL     1     147.984 135.713 146.988  1.00  0.00     0.008 C 
ATOM     15  C   UNL     1     148.225 137.225 146.821  1.00  0.00     0.007 C 
ENDBRANCH   1   4
BRANCH   1  16
ATOM     16  O   UNL     1     147.334 138.051 144.389  1.00  0.00    -0.390 OA
ATOM     17  H   UNL     1     148.044 138.744 144.339  1.00  0.00     0.211 HD
ENDBRANCH   1  16
TORSDOF 2
ENDMDL
MODEL 4
REMARK VINA RESULT:    -4.844      1.791      5.280
REMARK INTER + INTRA:          -5.518
REMARK INTER:                  -5.240
REMARK INTRA:                  -0.278
REMARK UNBOUND:                -0.249
REMARK SMILES CC1=CCC[C@]2(C)CC[C@@H](C(C)(C)O)C[C@@H]12
REMARK SMILES IDX 11 1 12 2 13 3 10 4 1 5 2 6 3 7 16 8 4 9 6 10 15 11 5 12
REMARK SMILES IDX 7 13 8 14 9 15 14 16
REMARK H PARENT 14 17
REMARK Flexibility Score: inf
ROOT
ATOM      1  C   UNL     1     139.162 141.982 141.819  1.00  0.00     0.062 C 
ATOM      2  C   UNL     1     139.567 140.778 140.938  1.00  0.00     0.042 C 
ATOM      3  C   UNL     1     138.268 142.919 140.985  1.00  0.00     0.042 C 
ENDROOT
BRANCH   1   4
ATOM      4  C   UNL     1     138.451 141.504 143.140  1.00  0.00     0.021 C 
ATOM      5  C   UNL     1     140.651 139.521 146.534  1.00  0.00     0.039 C 
ATOM      6  C   UNL     1     139.628 140.600 146.795  1.00  0.00    -0.074 C 
ATOM      7  C   UNL     1     139.292 140.906 148.069  1.00  0.00    -0.028 C 
ATOM      8  C   UNL     1     138.856 141.246 145.654  1.00  0.00     0.021 C 
ATOM      9  C   UNL     1     138.366 142.048 148.440  1.00  0.00     0.028 C 
ATOM     10  C   UNL     1     138.546 142.744 145.960  1.00  0.00    -0.026 C 
ATOM     11  C   UNL     1     139.465 141.089 144.248  1.00  0.00     0.015 C 
ATOM     12  C   UNL     1     137.677 142.746 147.244  1.00  0.00     0.011 C 
ATOM     13  C   UNL     1     139.841 143.570 146.218  1.00  0.00     0.012 C 
ATOM     14  C   UNL     1     137.771 143.416 144.774  1.00  0.00     0.008 C 
ATOM     15  C   UNL     1     137.322 142.446 143.666  1.00  0.00     0.007 C 
ENDBRANCH   1   4
BRANCH   1  16
ATOM     16  O   UNL     1     140.330 142.700 142.144  1.00  0.00    -0.390 OA
ATOM     17  H   UNL     1     140.102 143.667 142.162  1.00  0.00     0.211 HD
ENDBRANCH   1  16
TORSDOF 2
ENDMDL
MODEL 5
REMARK VINA RESULT:    -4.822      8.259      9.599
REMARK INTER + INTRA:          -5.494
REMARK INTER:                  -5.122
REMARK INTRA:                  -0.372
REMARK UNBOUND:                -0.249
REMARK SMILES CC1=CCC[C@]2(C)CC[C@@H](C(C)(C)O)C[C@@H]12
REMARK SMILES IDX 11 1 12 2 13 3 10 4 1 5 2 6 3 7 16 8 4 9 6 10 15 11 5 12
REMARK SMILES IDX 7 13 8 14 9 15 14 16
REMARK H PARENT 14 17
REMARK Flexibility Score: inf
ROOT
ATOM      1  C   UNL     1     149.057 137.856 148.034  1.00  0.00     0.062 C 
ATOM      2  C   UNL     1     149.111 139.401 148.039  1.00  0.00     0.042 C 
ATOM      3  C   UNL     1     148.469 137.384 149.377  1.00  0.00     0.042 C 
ENDROOT
BRANCH   1   4
ATOM      4  C   UNL     1     148.232 137.321 146.804  1.00  0.00     0.021 C 
ATOM      5  C   UNL     1     143.964 138.516 146.000  1.00  0.00     0.039 C 
ATOM      6  C   UNL     1     144.982 138.470 144.887  1.00  0.00    -0.074 C 
ATOM      7  C   UNL     1     144.587 138.692 143.613  1.00  0.00    -0.028 C 
ATOM      8  C   UNL     1     146.416 138.031 145.147  1.00  0.00     0.021 C 
ATOM      9  C   UNL     1     145.545 138.782 142.441  1.00  0.00     0.028 C 
ATOM     10  C   UNL     1     147.415 138.791 144.222  1.00  0.00    -0.026 C 
ATOM     11  C   UNL     1     146.884 138.078 146.614  1.00  0.00     0.015 C 
ATOM     12  C   UNL     1     147.014 138.425 142.770  1.00  0.00     0.011 C 
ATOM     13  C   UNL     1     147.324 140.335 144.404  1.00  0.00     0.012 C 
ATOM     14  C   UNL     1     148.895 138.356 144.507  1.00  0.00     0.008 C 
ATOM     15  C   UNL     1     149.042 137.169 145.477  1.00  0.00     0.007 C 
ENDBRANCH   1   4
BRANCH   1  16
ATOM     16  O   UNL     1     150.379 137.372 147.964  1.00  0.00    -0.390 OA
ATOM     17  H   UNL     1     150.953 138.098 147.604  1.00  0.00     0.211 HD
ENDBRANCH   1  16
TORSDOF 2
ENDMDL
MODEL 6
REMARK VINA RESULT:    -4.663      1.753      3.405
REMARK INTER + INTRA:          -5.321
REMARK INTER:                  -5.165
REMARK INTRA:                  -0.156
REMARK UNBOUND:                -0.249
REMARK SMILES CC1=CCC[C@]2(C)CC[C@@H](C(C)(C)O)C[C@@H]12
REMARK SMILES IDX 11 1 12 2 13 3 10 4 1 5 2 6 3 7 16 8 4 9 6 10 15 11 5 12
REMARK SMILES IDX 7 13 8 14 9 15 14 16
REMARK H PARENT 14 17
REMARK Flexibility Score: inf
ROOT
ATOM      1  C   UNL     1     139.856 142.814 147.701  1.00  0.00     0.062 C 
ATOM      2  C   UNL     1     139.993 144.294 148.129  1.00  0.00     0.042 C 
ATOM      3  C   UNL     1     138.429 142.340 148.032  1.00  0.00     0.042 C 
ENDROOT
BRANCH   1   4
ATOM      4  C   UNL     1     140.204 142.631 146.176  1.00  0.00     0.021 C 
ATOM      5  C   UNL     1     142.817 139.301 144.635  1.00  0.00     0.039 C 
ATOM      6  C   UNL     1     141.533 139.671 143.933  1.00  0.00    -0.074 C 
ATOM      7  C   UNL     1     141.211 139.063 142.768  1.00  0.00    -0.028 C 
ATOM      8  C   UNL     1     140.666 140.819 144.429  1.00  0.00     0.021 C 
ATOM      9  C   UNL     1     139.895 139.278 142.047  1.00  0.00     0.028 C 
ATOM     10  C   UNL     1     139.154 140.533 144.178  1.00  0.00    -0.026 C 
ATOM     11  C   UNL     1     140.905 141.271 145.882  1.00  0.00     0.015 C 
ATOM     12  C   UNL     1     138.996 140.387 142.642  1.00  0.00     0.011 C 
ATOM     13  C   UNL     1     138.684 139.218 144.868  1.00  0.00     0.012 C 
ATOM     14  C   UNL     1     138.259 141.706 144.710  1.00  0.00     0.008 C 
ATOM     15  C   UNL     1     139.038 142.946 145.186  1.00  0.00     0.007 C 
ENDBRANCH   1   4
BRANCH   1  16
ATOM     16  O   UNL     1     140.744 142.048 148.483  1.00  0.00    -0.390 OA
ATOM     17  H   UNL     1     140.328 141.159 148.638  1.00  0.00     0.211 HD
ENDBRANCH   1  16
TORSDOF 2
ENDMDL
MODEL 7
REMARK VINA RESULT:    -4.649      8.309     10.373
REMARK INTER + INTRA:          -5.306
REMARK INTER:                  -5.026
REMARK INTRA:                  -0.280
REMARK UNBOUND:                -0.249
REMARK SMILES CC1=CCC[C@]2(C)CC[C@@H](C(C)(C)O)C[C@@H]12
REMARK SMILES IDX 11 1 12 2 13 3 10 4 1 5 2 6 3 7 16 8 4 9 6 10 15 11 5 12
REMARK SMILES IDX 7 13 8 14 9 15 14 16
REMARK H PARENT 14 17
REMARK Flexibility Score: inf
ROOT
ATOM      1  C   UNL     1     148.322 139.685 145.891  1.00  0.00     0.062 C 
ATOM      2  C   UNL     1     148.950 139.747 147.303  1.00  0.00     0.042 C 
ATOM      3  C   UNL     1     149.415 140.008 144.856  1.00  0.00     0.042 C 
ENDROOT
BRANCH   1   4
ATOM      4  C   UNL     1     147.652 138.284 145.630  1.00  0.00     0.021 C 
ATOM      5  C   UNL     1     148.245 134.734 148.339  1.00  0.00     0.039 C 
ATOM      6  C   UNL     1     146.876 135.091 147.812  1.00  0.00    -0.074 C 
ATOM      7  C   UNL     1     145.828 134.277 148.074  1.00  0.00    -0.028 C 
ATOM      8  C   UNL     1     146.677 136.267 146.868  1.00  0.00     0.021 C 
ATOM      9  C   UNL     1     144.398 134.603 147.691  1.00  0.00     0.028 C 
ATOM     10  C   UNL     1     145.295 136.951 147.102  1.00  0.00    -0.026 C 
ATOM     11  C   UNL     1     147.807 137.313 146.838  1.00  0.00     0.015 C 
ATOM     12  C   UNL     1     144.227 135.864 146.813  1.00  0.00     0.011 C 
ATOM     13  C   UNL     1     145.130 137.453 148.567  1.00  0.00     0.012 C 
ATOM     14  C   UNL     1     145.100 138.177 146.144  1.00  0.00     0.008 C 
ATOM     15  C   UNL     1     146.194 138.339 145.073  1.00  0.00     0.007 C 
ENDBRANCH   1   4
BRANCH   1  16
ATOM     16  O   UNL     1     147.348 140.700 145.800  1.00  0.00    -0.390 OA
ATOM     17  H   UNL     1     147.815 141.558 145.621  1.00  0.00     0.211 HD
ENDBRANCH   1  16
TORSDOF 2
ENDMDL
MODEL 8
REMARK VINA RESULT:    -4.642      9.530     11.542
REMARK INTER + INTRA:          -5.298
REMARK INTER:                  -4.950
REMARK INTRA:                  -0.348
REMARK UNBOUND:                -0.249
REMARK SMILES CC1=CCC[C@]2(C)CC[C@@H](C(C)(C)O)C[C@@H]12
REMARK SMILES IDX 11 1 12 2 13 3 10 4 1 5 2 6 3 7 16 8 4 9 6 10 15 11 5 12
REMARK SMILES IDX 7 13 8 14 9 15 14 16
REMARK H PARENT 14 17
REMARK Flexibility Score: inf
ROOT
ATOM      1  C   UNL     1     135.919 134.734 146.728  1.00  0.00     0.062 C 
ATOM      2  C   UNL     1     134.811 133.952 145.984  1.00  0.00     0.042 C 
ATOM      3  C   UNL     1     135.455 136.192 146.901  1.00  0.00     0.042 C 
ENDROOT
BRANCH   1   4
ATOM      4  C   UNL     1     136.267 134.053 148.104  1.00  0.00     0.021 C 
ATOM      5  C   UNL     1     133.302 133.669 151.474  1.00  0.00     0.039 C 
ATOM      6  C   UNL     1     134.188 132.512 151.081  1.00  0.00    -0.074 C 
ATOM      7  C   UNL     1     134.165 131.376 151.814  1.00  0.00    -0.028 C 
ATOM      8  C   UNL     1     135.216 132.649 149.968  1.00  0.00     0.021 C 
ATOM      9  C   UNL     1     134.926 130.120 151.438  1.00  0.00     0.028 C 
ATOM     10  C   UNL     1     135.391 131.307 149.193  1.00  0.00    -0.026 C 
ATOM     11  C   UNL     1     135.008 133.822 148.991  1.00  0.00     0.015 C 
ATOM     12  C   UNL     1     135.888 130.273 150.237  1.00  0.00     0.011 C 
ATOM     13  C   UNL     1     134.051 130.807 148.577  1.00  0.00     0.012 C 
ATOM     14  C   UNL     1     136.434 131.454 148.031  1.00  0.00     0.008 C 
ATOM     15  C   UNL     1     137.189 132.796 148.010  1.00  0.00     0.007 C 
ENDBRANCH   1   4
BRANCH   1  16
ATOM     16  O   UNL     1     137.066 134.755 145.908  1.00  0.00    -0.390 OA
ATOM     17  H   UNL     1     136.891 134.175 145.121  1.00  0.00     0.211 HD
ENDBRANCH   1  16
TORSDOF 2
ENDMDL
MODEL 9
REMARK VINA RESULT:    -4.635      7.558      9.262
REMARK INTER + INTRA:          -5.291
REMARK INTER:                  -4.880
REMARK INTRA:                  -0.411
REMARK UNBOUND:                -0.249
REMARK SMILES CC1=CCC[C@]2(C)CC[C@@H](C(C)(C)O)C[C@@H]12
REMARK SMILES IDX 11 1 12 2 13 3 10 4 1 5 2 6 3 7 16 8 4 9 6 10 15 11 5 12
REMARK SMILES IDX 7 13 8 14 9 15 14 16
REMARK H PARENT 14 17
REMARK Flexibility Score: inf
ROOT
ATOM      1  C   UNL     1     148.029 135.878 148.551  1.00  0.00     0.062 C 
ATOM      2  C   UNL     1     147.799 135.302 149.968  1.00  0.00     0.042 C 
ATOM      3  C   UNL     1     147.813 134.751 147.525  1.00  0.00     0.042 C 
ENDROOT
BRANCH   1   4
ATOM      4  C   UNL     1     147.092 137.114 148.282  1.00  0.00     0.021 C 
ATOM      5  C   UNL     1     146.335 138.775 144.164  1.00  0.00     0.039 C 
ATOM      6  C   UNL     1     145.203 138.579 145.144  1.00  0.00    -0.074 C 
ATOM      7  C   UNL     1     143.960 139.002 144.820  1.00  0.00    -0.028 C 
ATOM      8  C   UNL     1     145.460 138.053 146.549  1.00  0.00     0.021 C 
ATOM      9  C   UNL     1     142.739 138.749 145.682  1.00  0.00     0.028 C 
ATOM     10  C   UNL     1     144.267 137.184 147.052  1.00  0.00    -0.026 C 
ATOM     11  C   UNL     1     146.799 137.324 146.767  1.00  0.00     0.015 C 
ATOM     12  C   UNL     1     143.032 138.121 147.064  1.00  0.00     0.011 C 
ATOM     13  C   UNL     1     143.984 135.976 146.110  1.00  0.00     0.012 C 
ATOM     14  C   UNL     1     144.542 136.623 148.491  1.00  0.00     0.008 C 
ATOM     15  C   UNL     1     145.807 137.179 149.168  1.00  0.00     0.007 C 
ENDBRANCH   1   4
BRANCH   1  16
ATOM     16  O   UNL     1     149.378 136.278 148.455  1.00  0.00    -0.390 OA
ATOM     17  H   UNL     1     149.397 137.252 148.264  1.00  0.00     0.211 HD
ENDBRANCH   1  16
TORSDOF 2
ENDMDL
