MODEL 1
REMARK VINA RESULT:    -3.729      0.000      0.000
REMARK INTER + INTRA:          -5.891
REMARK INTER:                  -5.473
REMARK INTRA:                  -0.418
REMARK UNBOUND:                -0.418
REMARK SMILES O=C([O-])CCCCCCCC(=O)[O-]
REMARK SMILES IDX 7 1 6 2 5 3 4 4 2 5 1 6 3 7 8 8 9 9 10 10 11 11 12 12 13 13
REMARK H PARENT
REMARK Flexibility Score: inf
ROOT
ATOM      1  C   UNL     1      17.216  15.306  30.687  1.00  0.00     0.000 C 
ENDROOT
BRANCH   1   2
ATOM      2  C   UNL     1      16.707  13.952  31.213  1.00  0.00     0.000 C 
BRANCH   2   3
ATOM      3  C   UNL     1      17.755  13.212  32.064  1.00  0.00     0.006 C 
BRANCH   3   4
ATOM      4  C   UNL     1      18.918  14.097  32.541  1.00  0.00     0.053 C 
BRANCH   4   5
ATOM      5  C   UNL     1      20.219  13.702  31.912  1.00  0.00     0.041 C 
ATOM      6  O   UNL     1      20.990  12.899  32.501  1.00  0.00    -0.550 OA
ATOM      7  O   UNL     1      20.564  14.194  30.660  1.00  0.00    -0.550 OA
ENDBRANCH   4   5
ENDBRANCH   3   4
ENDBRANCH   2   3
ENDBRANCH   1   2
BRANCH   1   8
ATOM      8  C   UNL     1      16.182  16.021  29.805  1.00  0.00     0.000 C 
BRANCH   8   9
ATOM      9  C   UNL     1      15.710  15.151  28.626  1.00  0.00     0.006 C 
BRANCH   9  10
ATOM     10  C   UNL     1      15.991  15.813  27.270  1.00  0.00     0.053 C 
BRANCH  10  11
ATOM     11  C   UNL     1      17.281  15.336  26.677  1.00  0.00     0.041 C 
ATOM     12  O   UNL     1      17.916  14.390  27.215  1.00  0.00    -0.550 OA
ATOM     13  O   UNL     1      17.766  15.912  25.509  1.00  0.00    -0.550 OA
ENDBRANCH  10  11
ENDBRANCH   9  10
ENDBRANCH   8   9
ENDBRANCH   1   8
TORSDOF 8
ENDMDL
MODEL 2
REMARK VINA RESULT:    -3.589      3.853      5.594
REMARK INTER + INTRA:          -5.686
REMARK INTER:                  -5.231
REMARK INTRA:                  -0.455
REMARK UNBOUND:                -0.418
REMARK SMILES O=C([O-])CCCCCCCC(=O)[O-]
REMARK SMILES IDX 7 1 6 2 5 3 4 4 2 5 1 6 3 7 8 8 9 9 10 10 11 11 12 12 13 13
REMARK H PARENT
REMARK Flexibility Score: inf
ROOT
ATOM      1  C   UNL     1      15.312  13.303  30.535  1.00  0.00     0.000 C 
ENDROOT
BRANCH   1   2
ATOM      2  C   UNL     1      14.339  12.663  31.542  1.00  0.00     0.000 C 
BRANCH   2   3
ATOM      3  C   UNL     1      12.912  13.229  31.431  1.00  0.00     0.006 C 
BRANCH   3   4
ATOM      4  C   UNL     1      12.732  14.270  30.314  1.00  0.00     0.053 C 
BRANCH   4   5
ATOM      5  C   UNL     1      11.388  14.930  30.373  1.00  0.00     0.041 C 
ATOM      6  O   UNL     1      10.822  15.117  31.482  1.00  0.00    -0.550 OA
ATOM      7  O   UNL     1      10.777  15.368  29.206  1.00  0.00    -0.550 OA
ENDBRANCH   4   5
ENDBRANCH   3   4
ENDBRANCH   2   3
ENDBRANCH   1   2
BRANCH   1   8
ATOM      8  C   UNL     1      16.568  13.873  31.212  1.00  0.00     0.000 C 
BRANCH   8   9
ATOM      9  C   UNL     1      17.009  15.215  30.601  1.00  0.00     0.006 C 
BRANCH   9  10
ATOM     10  C   UNL     1      16.009  15.732  29.558  1.00  0.00     0.053 C 
BRANCH  10  11
ATOM     11  C   UNL     1      16.524  15.559  28.162  1.00  0.00     0.041 C 
ATOM     12  O   UNL     1      15.871  16.010  27.184  1.00  0.00    -0.550 OA
ATOM     13  O   UNL     1      17.745  14.932  27.942  1.00  0.00    -0.550 OA
ENDBRANCH  10  11
ENDBRANCH   9  10
ENDBRANCH   8   9
ENDBRANCH   1   8
TORSDOF 8
ENDMDL
MODEL 3
REMARK VINA RESULT:    -3.520      2.582      6.568
REMARK INTER + INTRA:          -5.585
REMARK INTER:                  -5.066
REMARK INTRA:                  -0.518
REMARK UNBOUND:                -0.418
REMARK SMILES O=C([O-])CCCCCCCC(=O)[O-]
REMARK SMILES IDX 7 1 6 2 5 3 4 4 2 5 1 6 3 7 8 8 9 9 10 10 11 11 12 12 13 13
REMARK H PARENT
REMARK Flexibility Score: inf
ROOT
ATOM      1  C   UNL     1      17.267  15.042  27.538  1.00  0.00     0.000 C 
ENDROOT
BRANCH   1   2
ATOM      2  C   UNL     1      17.416  15.607  26.114  1.00  0.00     0.000 C 
BRANCH   2   3
ATOM      3  C   UNL     1      16.142  16.313  25.617  1.00  0.00     0.006 C 
BRANCH   3   4
ATOM      4  C   UNL     1      15.715  15.917  24.195  1.00  0.00     0.053 C 
BRANCH   4   5
ATOM      5  C   UNL     1      15.150  14.530  24.143  1.00  0.00     0.041 C 
ATOM      6  O   UNL     1      15.314  13.817  23.118  1.00  0.00    -0.550 OA
ATOM      7  O   UNL     1      14.473  14.014  25.240  1.00  0.00    -0.550 OA
ENDBRANCH   4   5
ENDBRANCH   3   4
ENDBRANCH   2   3
ENDBRANCH   1   2
BRANCH   1   8
ATOM      8  C   UNL     1      15.970  15.502  28.221  1.00  0.00     0.000 C 
BRANCH   8   9
ATOM      9  C   UNL     1      16.194  15.933  29.681  1.00  0.00     0.006 C 
BRANCH   9  10
ATOM     10  C   UNL     1      17.411  15.240  30.309  1.00  0.00     0.053 C 
BRANCH  10  11
ATOM     11  C   UNL     1      17.005  14.187  31.294  1.00  0.00     0.041 C 
ATOM     12  O   UNL     1      15.909  13.582  31.158  1.00  0.00    -0.550 OA
ATOM     13  O   UNL     1      17.852  13.849  32.341  1.00  0.00    -0.550 OA
ENDBRANCH  10  11
ENDBRANCH   9  10
ENDBRANCH   8   9
ENDBRANCH   1   8
TORSDOF 8
ENDMDL
MODEL 4
REMARK VINA RESULT:    -3.495      1.181      5.365
REMARK INTER + INTRA:          -5.547
REMARK INTER:                  -4.996
REMARK INTRA:                  -0.551
REMARK UNBOUND:                -0.418
REMARK SMILES O=C([O-])CCCCCCCC(=O)[O-]
REMARK SMILES IDX 7 1 6 2 5 3 4 4 2 5 1 6 3 7 8 8 9 9 10 10 11 11 12 12 13 13
REMARK H PARENT
REMARK Flexibility Score: inf
ROOT
ATOM      1  C   UNL     1      16.601  13.897  30.857  1.00  0.00     0.000 C 
ENDROOT
BRANCH   1   2
ATOM      2  C   UNL     1      16.938  15.379  30.609  1.00  0.00     0.000 C 
BRANCH   2   3
ATOM      3  C   UNL     1      16.138  15.984  29.443  1.00  0.00     0.006 C 
BRANCH   3   4
ATOM      4  C   UNL     1      15.355  14.954  28.613  1.00  0.00     0.053 C 
BRANCH   4   5
ATOM      5  C   UNL     1      15.778  14.952  27.176  1.00  0.00     0.041 C 
ATOM      6  O   UNL     1      15.092  14.339  26.315  1.00  0.00    -0.550 OA
ATOM      7  O   UNL     1      16.908  15.654  26.782  1.00  0.00    -0.550 OA
ENDBRANCH   4   5
ENDBRANCH   3   4
ENDBRANCH   2   3
ENDBRANCH   1   2
BRANCH   1   8
ATOM      8  C   UNL     1      17.430  13.287  31.997  1.00  0.00     0.000 C 
BRANCH   8   9
ATOM      9  C   UNL     1      18.582  14.204  32.444  1.00  0.00     0.006 C 
BRANCH   9  10
ATOM     10  C   UNL     1      19.953  13.533  32.279  1.00  0.00     0.053 C 
BRANCH  10  11
ATOM     11  C   UNL     1      20.414  13.556  30.855  1.00  0.00     0.041 C 
ATOM     12  O   UNL     1      20.362  14.623  30.188  1.00  0.00    -0.550 OA
ATOM     13  O   UNL     1      20.936  12.407  30.273  1.00  0.00    -0.550 OA
ENDBRANCH  10  11
ENDBRANCH   9  10
ENDBRANCH   8   9
ENDBRANCH   1   8
TORSDOF 8
ENDMDL
MODEL 5
REMARK VINA RESULT:    -3.488      2.645      3.757
REMARK INTER + INTRA:          -5.537
REMARK INTER:                  -5.010
REMARK INTRA:                  -0.527
REMARK UNBOUND:                -0.418
REMARK SMILES O=C([O-])CCCCCCCC(=O)[O-]
REMARK SMILES IDX 7 1 6 2 5 3 4 4 2 5 1 6 3 7 8 8 9 9 10 10 11 11 12 12 13 13
REMARK H PARENT
REMARK Flexibility Score: inf
ROOT
ATOM      1  C   UNL     1      17.149  14.936  27.387  1.00  0.00     0.000 C 
ENDROOT
BRANCH   1   2
ATOM      2  C   UNL     1      15.826  15.311  28.078  1.00  0.00     0.000 C 
BRANCH   2   3
ATOM      3  C   UNL     1      16.032  15.861  29.501  1.00  0.00     0.006 C 
BRANCH   3   4
ATOM      4  C   UNL     1      17.326  15.384  30.179  1.00  0.00     0.053 C 
BRANCH   4   5
ATOM      5  C   UNL     1      17.061  14.349  31.229  1.00  0.00     0.041 C 
ATOM      6  O   UNL     1      16.028  13.632  31.165  1.00  0.00    -0.550 OA
ATOM      7  O   UNL     1      17.973  14.153  32.258  1.00  0.00    -0.550 OA
ENDBRANCH   4   5
ENDBRANCH   3   4
ENDBRANCH   2   3
ENDBRANCH   1   2
BRANCH   1   8
ATOM      8  C   UNL     1      17.394  15.747  26.106  1.00  0.00     0.000 C 
BRANCH   8   9
ATOM      9  C   UNL     1      16.089  16.266  25.477  1.00  0.00     0.006 C 
BRANCH   9  10
ATOM     10  C   UNL     1      15.894  15.755  24.043  1.00  0.00     0.053 C 
BRANCH  10  11
ATOM     11  C   UNL     1      15.039  14.526  24.002  1.00  0.00     0.041 C 
ATOM     12  O   UNL     1      14.464  14.119  25.047  1.00  0.00    -0.550 OA
ATOM     13  O   UNL     1      14.846  13.851  22.804  1.00  0.00    -0.550 OA
ENDBRANCH  10  11
ENDBRANCH   9  10
ENDBRANCH   8   9
ENDBRANCH   1   8
TORSDOF 8
ENDMDL
MODEL 6
REMARK VINA RESULT:    -3.467      3.820      5.672
REMARK INTER + INTRA:          -5.507
REMARK INTER:                  -5.009
REMARK INTRA:                  -0.498
REMARK UNBOUND:                -0.418
REMARK SMILES O=C([O-])CCCCCCCC(=O)[O-]
REMARK SMILES IDX 7 1 6 2 5 3 4 4 2 5 1 6 3 7 8 8 9 9 10 10 11 11 12 12 13 13
REMARK H PARENT
REMARK Flexibility Score: inf
ROOT
ATOM      1  C   UNL     1      16.022  13.201  30.703  1.00  0.00     0.000 C 
ENDROOT
BRANCH   1   2
ATOM      2  C   UNL     1      16.965  14.269  31.286  1.00  0.00     0.000 C 
BRANCH   2   3
ATOM      3  C   UNL     1      17.009  15.551  30.436  1.00  0.00     0.006 C 
BRANCH   3   4
ATOM      4  C   UNL     1      15.899  15.643  29.376  1.00  0.00     0.053 C 
BRANCH   4   5
ATOM      5  C   UNL     1      16.441  15.530  27.984  1.00  0.00     0.041 C 
ATOM      6  O   UNL     1      15.847  16.090  27.025  1.00  0.00    -0.550 OA
ATOM      7  O   UNL     1      17.621  14.836  27.751  1.00  0.00    -0.550 OA
ENDBRANCH   4   5
ENDBRANCH   3   4
ENDBRANCH   2   3
ENDBRANCH   1   2
BRANCH   1   8
ATOM      8  C   UNL     1      15.173  12.513  31.783  1.00  0.00     0.000 C 
BRANCH   8   9
ATOM      9  C   UNL     1      13.675  12.488  31.428  1.00  0.00     0.006 C 
BRANCH   9  10
ATOM     10  C   UNL     1      13.209  13.805  30.793  1.00  0.00     0.053 C 
BRANCH  10  11
ATOM     11  C   UNL     1      11.914  14.276  31.379  1.00  0.00     0.041 C 
ATOM     12  O   UNL     1      11.103  14.936  30.676  1.00  0.00    -0.550 OA
ATOM     13  O   UNL     1      11.585  13.956  32.690  1.00  0.00    -0.550 OA
ENDBRANCH  10  11
ENDBRANCH   9  10
ENDBRANCH   8   9
ENDBRANCH   1   8
TORSDOF 8
ENDMDL
MODEL 7
REMARK VINA RESULT:    -3.465      3.735      6.259
REMARK INTER + INTRA:          -5.504
REMARK INTER:                  -5.151
REMARK INTRA:                  -0.353
REMARK UNBOUND:                -0.418
REMARK SMILES O=C([O-])CCCCCCCC(=O)[O-]
REMARK SMILES IDX 7 1 6 2 5 3 4 4 2 5 1 6 3 7 8 8 9 9 10 10 11 11 12 12 13 13
REMARK H PARENT
REMARK Flexibility Score: inf
ROOT
ATOM      1  C   UNL     1      16.563  14.807  30.589  1.00  0.00     0.000 C 
ENDROOT
BRANCH   1   2
ATOM      2  C   UNL     1      16.202  15.810  29.479  1.00  0.00     0.000 C 
BRANCH   2   3
ATOM      3  C   UNL     1      16.750  15.395  28.102  1.00  0.00     0.006 C 
BRANCH   3   4
ATOM      4  C   UNL     1      15.754  15.580  26.946  1.00  0.00     0.053 C 
BRANCH   4   5
ATOM      5  C   UNL     1      16.426  16.063  25.697  1.00  0.00     0.041 C 
ATOM      6  O   UNL     1      15.739  16.387  24.692  1.00  0.00    -0.550 OA
ATOM      7  O   UNL     1      17.808  16.189  25.655  1.00  0.00    -0.550 OA
ENDBRANCH   4   5
ENDBRANCH   3   4
ENDBRANCH   2   3
ENDBRANCH   1   2
BRANCH   1   8
ATOM      8  C   UNL     1      15.467  13.752  30.809  1.00  0.00     0.000 C 
BRANCH   8   9
ATOM      9  C   UNL     1      14.103  14.194  30.249  1.00  0.00     0.006 C 
BRANCH   9  10
ATOM     10  C   UNL     1      12.935  13.482  30.944  1.00  0.00     0.053 C 
BRANCH  10  11
ATOM     11  C   UNL     1      11.837  14.436  31.302  1.00  0.00     0.041 C 
ATOM     12  O   UNL     1      11.378  15.228  30.438  1.00  0.00    -0.550 OA
ATOM     13  O   UNL     1      11.295  14.425  32.582  1.00  0.00    -0.550 OA
ENDBRANCH  10  11
ENDBRANCH   9  10
ENDBRANCH   8   9
ENDBRANCH   1   8
TORSDOF 8
ENDMDL
MODEL 8
REMARK VINA RESULT:    -3.452      0.961      5.531
REMARK INTER + INTRA:          -5.484
REMARK INTER:                  -5.077
REMARK INTRA:                  -0.407
REMARK UNBOUND:                -0.418
REMARK SMILES O=C([O-])CCCCCCCC(=O)[O-]
REMARK SMILES IDX 7 1 6 2 5 3 4 4 2 5 1 6 3 7 8 8 9 9 10 10 11 11 12 12 13 13
REMARK H PARENT
REMARK Flexibility Score: inf
ROOT
ATOM      1  C   UNL     1      15.767  13.914  30.156  1.00  0.00     0.000 C 
ENDROOT
BRANCH   1   2
ATOM      2  C   UNL     1      15.924  15.402  29.798  1.00  0.00     0.000 C 
BRANCH   2   3
ATOM      3  C   UNL     1      15.921  15.652  28.279  1.00  0.00     0.006 C 
BRANCH   3   4
ATOM      4  C   UNL     1      17.119  15.037  27.537  1.00  0.00     0.053 C 
BRANCH   4   5
ATOM      5  C   UNL     1      16.986  15.168  26.050  1.00  0.00     0.041 C 
ATOM      6  O   UNL     1      16.611  14.185  25.359  1.00  0.00    -0.550 OA
ATOM      7  O   UNL     1      17.242  16.385  25.434  1.00  0.00    -0.550 OA
ENDBRANCH   4   5
ENDBRANCH   3   4
ENDBRANCH   2   3
ENDBRANCH   1   2
BRANCH   1   8
ATOM      8  C   UNL     1      16.698  13.482  31.299  1.00  0.00     0.000 C 
BRANCH   8   9
ATOM      9  C   UNL     1      17.778  14.533  31.608  1.00  0.00     0.006 C 
BRANCH   9  10
ATOM     10  C   UNL     1      18.848  13.998  32.571  1.00  0.00     0.053 C 
BRANCH  10  11
ATOM     11  C   UNL     1      20.157  13.777  31.878  1.00  0.00     0.041 C 
ATOM     12  O   UNL     1      21.018  13.007  32.381  1.00  0.00    -0.550 OA
ATOM     13  O   UNL     1      20.413  14.392  30.659  1.00  0.00    -0.550 OA
ENDBRANCH  10  11
ENDBRANCH   9  10
ENDBRANCH   8   9
ENDBRANCH   1   8
TORSDOF 8
ENDMDL
MODEL 9
REMARK VINA RESULT:    -3.410      2.463      2.937
REMARK INTER + INTRA:          -5.424
REMARK INTER:                  -4.874
REMARK INTRA:                  -0.550
REMARK UNBOUND:                -0.418
REMARK SMILES O=C([O-])CCCCCCCC(=O)[O-]
REMARK SMILES IDX 7 1 6 2 5 3 4 4 2 5 1 6 3 7 8 8 9 9 10 10 11 11 12 12 13 13
REMARK H PARENT
REMARK Flexibility Score: inf
ROOT
ATOM      1  C   UNL     1      17.184  15.037  29.285  1.00  0.00     0.000 C 
ENDROOT
BRANCH   1   2
ATOM      2  C   UNL     1      17.131  15.114  30.822  1.00  0.00     0.000 C 
BRANCH   2   3
ATOM      3  C   UNL     1      17.621  13.822  31.499  1.00  0.00     0.006 C 
BRANCH   3   4
ATOM      4  C   UNL     1      18.753  14.035  32.518  1.00  0.00     0.053 C 
BRANCH   4   5
ATOM      5  C   UNL     1      20.101  13.759  31.926  1.00  0.00     0.041 C 
ATOM      6  O   UNL     1      20.869  12.918  32.463  1.00  0.00    -0.550 OA
ATOM      7  O   UNL     1      20.495  14.404  30.762  1.00  0.00    -0.550 OA
ENDBRANCH   4   5
ENDBRANCH   3   4
ENDBRANCH   2   3
ENDBRANCH   1   2
BRANCH   1   8
ATOM      8  C   UNL     1      15.985  15.731  28.620  1.00  0.00     0.000 C 
BRANCH   8   9
ATOM      9  C   UNL     1      15.183  14.781  27.713  1.00  0.00     0.006 C 
BRANCH   9  10
ATOM     10  C   UNL     1      14.617  13.582  28.487  1.00  0.00     0.053 C 
BRANCH  10  11
ATOM     11  C   UNL     1      13.541  13.997  29.444  1.00  0.00     0.041 C 
ATOM     12  O   UNL     1      13.724  13.897  30.686  1.00  0.00    -0.550 OA
ATOM     13  O   UNL     1      12.350  14.527  28.965  1.00  0.00    -0.550 OA
ENDBRANCH  10  11
ENDBRANCH   9  10
ENDBRANCH   8   9
ENDBRANCH   1   8
TORSDOF 8
ENDMDL
