MODEL 1
REMARK VINA RESULT:    -5.341      0.000      0.000
REMARK INTER + INTRA:          -8.570
REMARK INTER:                  -7.371
REMARK INTRA:                  -1.199
REMARK UNBOUND:                -1.199
REMARK SMILES O=C([O-])[C@H]1O[C@@H](Oc2cc3oc(-c4ccccc4)cc(=O)c3c(O)c2O)[C@H](O)[C@H](O)[C@@H]1O
REMARK SMILES IDX 7 1 6 2 4 3 31 4 5 5 29 6 27 7 2 8 1 9 3 10 32 11 30 13
REMARK SMILES IDX 28 15 8 17 25 18 9 19 23 20 10 21 22 22 11 23 20 24 12 25
REMARK SMILES IDX 19 26 21 27 26 28 24 30 13 32 14 33 18 34 15 35 17 36 16 37
REMARK H PARENT 32 12 30 14 28 16 26 29 24 31
REMARK Flexibility Score: inf
ROOT
ATOM      1  O   UNL     1      55.332  52.773 128.087  1.00  0.00    -0.458 OA
ENDROOT
BRANCH   1   2
ATOM      2  C   UNL     1      56.658  53.006 127.595  1.00  0.00     0.339 C 
ATOM      3  C   UNL     1      56.856  55.244 128.400  1.00  0.00     0.199 C 
ATOM      4  C   UNL     1      56.754  55.835 126.969  1.00  0.00     0.180 C 
ATOM      5  O   UNL     1      57.365  53.916 128.430  1.00  0.00    -0.328 OA
ATOM      6  C   UNL     1      56.020  54.870 126.023  1.00  0.00     0.181 C 
ATOM      7  C   UNL     1      56.620  53.459 126.127  1.00  0.00     0.214 C 
BRANCH   3   8
ATOM      8  C   UNL     1      55.625  55.387 129.262  1.00  0.00     0.073 C 
ATOM      9  O   UNL     1      54.560  55.892 128.808  1.00  0.00    -0.547 OA
ATOM     10  O   UNL     1      54.443  55.935 128.785  1.00  0.00    -0.547 OA
ENDBRANCH   3   8
BRANCH   4  11
ATOM     11  O   UNL     1      58.053  56.088 126.492  1.00  0.00    -0.387 OA
ATOM     12  H   UNL     1      58.335  55.288 125.974  1.00  0.00     0.211 HD
ENDBRANCH   4  11
BRANCH   6  13
ATOM     13  O   UNL     1      56.095  55.345 124.703  1.00  0.00    -0.387 OA
ATOM     14  H   UNL     1      56.804  54.821 124.248  1.00  0.00     0.211 HD
ENDBRANCH   6  13
BRANCH   7  15
ATOM     15  O   UNL     1      57.922  53.432 125.601  1.00  0.00    -0.384 OA
ATOM     16  H   UNL     1      58.514  53.855 126.276  1.00  0.00     0.211 HD
ENDBRANCH   7  15
ENDBRANCH   1   2
BRANCH   1  17
ATOM     17  C   UNL     1      54.388  51.980 127.420  1.00  0.00     0.172 A 
ATOM     18  C   UNL     1      53.133  52.491 127.034  1.00  0.00     0.201 A 
ATOM     19  C   UNL     1      54.693  50.639 127.183  1.00  0.00     0.098 A 
ATOM     20  C   UNL     1      52.230  51.672 126.307  1.00  0.00     0.176 A 
ATOM     21  C   UNL     1      53.803  49.812 126.505  1.00  0.00     0.146 A 
ATOM     22  C   UNL     1      52.566  50.320 126.049  1.00  0.00     0.111 A 
ATOM     23  O   UNL     1      54.138  48.545 126.289  1.00  0.00    -0.456 OA
ATOM     24  C   UNL     1      51.721  49.433 125.349  1.00  0.00     0.197 A 
ATOM     25  C   UNL     1      53.360  47.680 125.643  1.00  0.00     0.138 A 
ATOM     26  C   UNL     1      52.121  48.112 125.144  1.00  0.00     0.100 A 
ATOM     27  O   UNL     1      50.604  49.806 124.897  1.00  0.00    -0.289 OA
BRANCH  18  28
ATOM     28  O   UNL     1      52.796  53.787 127.430  1.00  0.00    -0.502 OA
ATOM     29  H   UNL     1      52.954  54.614 126.871  1.00  0.00     0.293 HD
ENDBRANCH  18  28
BRANCH  20  30
ATOM     30  O   UNL     1      51.013  52.176 125.835  1.00  0.00    -0.504 OA
ATOM     31  H   UNL     1      50.622  51.965 124.929  1.00  0.00     0.293 HD
ENDBRANCH  20  30
BRANCH  25  32
ATOM     32  C   UNL     1      53.843  46.288 125.459  1.00  0.00     0.017 A 
ATOM     33  C   UNL     1      53.183  45.443 124.546  1.00  0.00     0.012 A 
ATOM     34  C   UNL     1      54.968  45.791 126.150  1.00  0.00     0.012 A 
ATOM     35  C   UNL     1      53.619  44.130 124.347  1.00  0.00     0.001 A 
ATOM     36  C   UNL     1      55.400  44.476 125.946  1.00  0.00     0.001 A 
ATOM     37  C   UNL     1      54.724  43.646 125.050  1.00  0.00     0.000 A 
ENDBRANCH  25  32
ENDBRANCH   1  17
TORSDOF 9
ENDMDL
MODEL 2
REMARK VINA RESULT:    -5.287     15.480     17.960
REMARK INTER + INTRA:          -8.495
REMARK INTER:                  -7.596
REMARK INTRA:                  -0.899
REMARK UNBOUND:                -1.199
REMARK SMILES O=C([O-])[C@H]1O[C@@H](Oc2cc3oc(-c4ccccc4)cc(=O)c3c(O)c2O)[C@H](O)[C@H](O)[C@@H]1O
REMARK SMILES IDX 7 1 6 2 4 3 31 4 5 5 29 6 27 7 2 8 1 9 3 10 32 11 30 13
REMARK SMILES IDX 28 15 8 17 25 18 9 19 23 20 10 21 22 22 11 23 20 24 12 25
REMARK SMILES IDX 19 26 21 27 26 28 24 30 13 32 14 33 18 34 15 35 17 36 16 37
REMARK H PARENT 32 12 30 14 28 16 26 29 24 31
REMARK Flexibility Score: inf
ROOT
ATOM      1  O   UNL     1      56.798  41.231 139.885  1.00  0.00    -0.458 OA
ENDROOT
BRANCH   1   2
ATOM      2  C   UNL     1      55.995  40.052 140.033  1.00  0.00     0.339 C 
ATOM      3  C   UNL     1      57.198  39.133 141.877  1.00  0.00     0.199 C 
ATOM      4  C   UNL     1      57.808  38.008 140.998  1.00  0.00     0.180 C 
ATOM      5  O   UNL     1      55.955  39.621 141.388  1.00  0.00    -0.328 OA
ATOM      6  C   UNL     1      57.845  38.421 139.517  1.00  0.00     0.181 C 
ATOM      7  C   UNL     1      56.472  38.949 139.075  1.00  0.00     0.214 C 
BRANCH   3   8
ATOM      8  C   UNL     1      58.133  40.260 142.247  1.00  0.00     0.073 C 
ATOM      9  O   UNL     1      59.091  40.081 143.051  1.00  0.00    -0.547 OA
ATOM     10  O   UNL     1      59.193  40.088 143.125  1.00  0.00    -0.547 OA
ENDBRANCH   3   8
BRANCH   4  11
ATOM     11  O   UNL     1      57.037  36.842 141.158  1.00  0.00    -0.387 OA
ATOM     12  H   UNL     1      56.980  36.405 140.268  1.00  0.00     0.211 HD
ENDBRANCH   4  11
BRANCH   6  13
ATOM     13  O   UNL     1      58.235  37.327 138.726  1.00  0.00    -0.387 OA
ATOM     14  H   UNL     1      59.087  37.580 138.285  1.00  0.00     0.211 HD
ENDBRANCH   6  13
BRANCH   7  15
ATOM     15  O   UNL     1      55.523  37.913 139.056  1.00  0.00    -0.384 OA
ATOM     16  H   UNL     1      55.785  37.296 138.324  1.00  0.00     0.211 HD
ENDBRANCH   7  15
ENDBRANCH   1   2
BRANCH   1  17
ATOM     17  C   UNL     1      56.282  42.532 139.956  1.00  0.00     0.172 A 
ATOM     18  C   UNL     1      57.123  43.658 140.056  1.00  0.00     0.201 A 
ATOM     19  C   UNL     1      54.897  42.698 139.978  1.00  0.00     0.098 A 
ATOM     20  C   UNL     1      56.563  44.961 140.063  1.00  0.00     0.176 A 
ATOM     21  C   UNL     1      54.329  43.968 140.023  1.00  0.00     0.146 A 
ATOM     22  C   UNL     1      55.153  45.115 140.056  1.00  0.00     0.111 A 
ATOM     23  O   UNL     1      53.006  44.083 140.029  1.00  0.00    -0.456 OA
ATOM     24  C   UNL     1      54.513  46.372 140.079  1.00  0.00     0.197 A 
ATOM     25  C   UNL     1      52.370  45.251 140.062  1.00  0.00     0.138 A 
ATOM     26  C   UNL     1      53.118  46.439 140.079  1.00  0.00     0.100 A 
ATOM     27  O   UNL     1      55.172  47.447 140.096  1.00  0.00    -0.289 OA
BRANCH  18  28
ATOM     28  O   UNL     1      58.497  43.447 140.195  1.00  0.00    -0.502 OA
ATOM     29  H   UNL     1      58.972  42.592 139.944  1.00  0.00     0.293 HD
ENDBRANCH  18  28
BRANCH  20  30
ATOM     30  O   UNL     1      57.374  46.101 140.074  1.00  0.00    -0.504 OA
ATOM     31  H   UNL     1      57.094  46.996 140.446  1.00  0.00     0.293 HD
ENDBRANCH  20  30
BRANCH  25  32
ATOM     32  C   UNL     1      50.885  45.254 140.062  1.00  0.00     0.017 A 
ATOM     33  C   UNL     1      50.195  45.683 141.212  1.00  0.00     0.012 A 
ATOM     34  C   UNL     1      50.139  44.869 138.929  1.00  0.00     0.012 A 
ATOM     35  C   UNL     1      48.798  45.703 141.238  1.00  0.00     0.001 A 
ATOM     36  C   UNL     1      48.741  44.892 138.960  1.00  0.00     0.001 A 
ATOM     37  C   UNL     1      48.071  45.303 140.114  1.00  0.00     0.000 A 
ENDBRANCH  25  32
ENDBRANCH   1  17
TORSDOF 9
ENDMDL
MODEL 3
REMARK VINA RESULT:    -5.205      6.999     13.061
REMARK INTER + INTRA:          -8.382
REMARK INTER:                  -6.790
REMARK INTRA:                  -1.592
REMARK UNBOUND:                -1.199
REMARK SMILES O=C([O-])[C@H]1O[C@@H](Oc2cc3oc(-c4ccccc4)cc(=O)c3c(O)c2O)[C@H](O)[C@H](O)[C@@H]1O
REMARK SMILES IDX 7 1 6 2 4 3 31 4 5 5 29 6 27 7 2 8 1 9 3 10 32 11 30 13
REMARK SMILES IDX 28 15 8 17 25 18 9 19 23 20 10 21 22 22 11 23 20 24 12 25
REMARK SMILES IDX 19 26 21 27 26 28 24 30 13 32 14 33 18 34 15 35 17 36 16 37
REMARK H PARENT 32 12 30 14 28 16 26 29 24 31
REMARK Flexibility Score: inf
ROOT
ATOM      1  O   UNL     1      56.681  40.061 125.430  1.00  0.00    -0.458 OA
ENDROOT
BRANCH   1   2
ATOM      2  C   UNL     1      57.004  39.131 126.472  1.00  0.00     0.339 C 
ATOM      3  C   UNL     1      56.653  37.151 125.188  1.00  0.00     0.199 C 
ATOM      4  C   UNL     1      55.351  36.806 125.961  1.00  0.00     0.180 C 
ATOM      5  O   UNL     1      57.567  37.937 125.942  1.00  0.00    -0.328 OA
ATOM      6  C   UNL     1      54.722  38.067 126.576  1.00  0.00     0.181 C 
ATOM      7  C   UNL     1      55.777  38.864 127.358  1.00  0.00     0.214 C 
BRANCH   3   8
ATOM      8  C   UNL     1      56.465  37.699 123.793  1.00  0.00     0.073 C 
ATOM      9  O   UNL     1      57.425  37.752 122.974  1.00  0.00    -0.547 OA
ATOM     10  O   UNL     1      57.503  37.765 122.875  1.00  0.00    -0.547 OA
ENDBRANCH   3   8
BRANCH   4  11
ATOM     11  O   UNL     1      55.660  35.875 126.970  1.00  0.00    -0.387 OA
ATOM     12  H   UNL     1      55.973  36.392 127.758  1.00  0.00     0.211 HD
ENDBRANCH   4  11
BRANCH   6  13
ATOM     13  O   UNL     1      53.652  37.707 127.411  1.00  0.00    -0.387 OA
ATOM     14  H   UNL     1      53.955  36.930 127.950  1.00  0.00     0.211 HD
ENDBRANCH   6  13
BRANCH   7  15
ATOM     15  O   UNL     1      56.182  38.162 128.506  1.00  0.00    -0.384 OA
ATOM     16  H   UNL     1      56.113  38.793 129.269  1.00  0.00     0.211 HD
ENDBRANCH   7  15
ENDBRANCH   1   2
BRANCH   1  17
ATOM     17  C   UNL     1      57.445  41.202 125.147  1.00  0.00     0.172 A 
ATOM     18  C   UNL     1      58.598  41.139 124.340  1.00  0.00     0.201 A 
ATOM     19  C   UNL     1      57.069  42.414 125.727  1.00  0.00     0.098 A 
ATOM     20  C   UNL     1      59.308  42.328 124.029  1.00  0.00     0.176 A 
ATOM     21  C   UNL     1      57.777  43.583 125.462  1.00  0.00     0.146 A 
ATOM     22  C   UNL     1      58.897  43.557 124.603  1.00  0.00     0.111 A 
ATOM     23  O   UNL     1      57.378  44.719 126.024  1.00  0.00    -0.456 OA
ATOM     24  C   UNL     1      59.555  44.782 124.360  1.00  0.00     0.197 A 
ATOM     25  C   UNL     1      57.981  45.887 125.826  1.00  0.00     0.138 A 
ATOM     26  C   UNL     1      59.094  45.949 124.971  1.00  0.00     0.100 A 
ATOM     27  O   UNL     1      60.556  44.852 123.596  1.00  0.00    -0.289 OA
BRANCH  18  28
ATOM     28  O   UNL     1      59.038  39.886 123.910  1.00  0.00    -0.502 OA
ATOM     29  H   UNL     1      58.982  39.041 124.460  1.00  0.00     0.293 HD
ENDBRANCH  18  28
BRANCH  20  30
ATOM     30  O   UNL     1      60.406  42.312 123.162  1.00  0.00    -0.504 OA
ATOM     31  H   UNL     1      60.658  41.530 122.576  1.00  0.00     0.293 HD
ENDBRANCH  20  30
BRANCH  25  32
ATOM     32  C   UNL     1      57.442  47.092 126.507  1.00  0.00     0.017 A 
ATOM     33  C   UNL     1      56.408  47.827 125.895  1.00  0.00     0.012 A 
ATOM     34  C   UNL     1      57.915  47.510 127.769  1.00  0.00     0.012 A 
ATOM     35  C   UNL     1      55.878  48.961 126.516  1.00  0.00     0.001 A 
ATOM     36  C   UNL     1      57.379  48.646 128.385  1.00  0.00     0.001 A 
ATOM     37  C   UNL     1      56.366  49.372 127.758  1.00  0.00     0.000 A 
ENDBRANCH  25  32
ENDBRANCH   1  17
TORSDOF 9
ENDMDL
MODEL 4
REMARK VINA RESULT:    -5.118      2.623      5.432
REMARK INTER + INTRA:          -8.262
REMARK INTER:                  -7.500
REMARK INTRA:                  -0.762
REMARK UNBOUND:                -1.199
REMARK SMILES O=C([O-])[C@H]1O[C@@H](Oc2cc3oc(-c4ccccc4)cc(=O)c3c(O)c2O)[C@H](O)[C@H](O)[C@@H]1O
REMARK SMILES IDX 7 1 6 2 4 3 31 4 5 5 29 6 27 7 2 8 1 9 3 10 32 11 30 13
REMARK SMILES IDX 28 15 8 17 25 18 9 19 23 20 10 21 22 22 11 23 20 24 12 25
REMARK SMILES IDX 19 26 21 27 26 28 24 30 13 32 14 33 18 34 15 35 17 36 16 37
REMARK H PARENT 32 12 30 14 28 16 26 29 24 31
REMARK Flexibility Score: inf
ROOT
ATOM      1  O   UNL     1      55.284  52.824 128.179  1.00  0.00    -0.458 OA
ENDROOT
BRANCH   1   2
ATOM      2  C   UNL     1      56.606  53.015 127.658  1.00  0.00     0.339 C 
ATOM      3  C   UNL     1      56.893  55.245 128.459  1.00  0.00     0.199 C 
ATOM      4  C   UNL     1      56.778  55.840 127.030  1.00  0.00     0.180 C 
ATOM      5  O   UNL     1      57.360  53.901 128.477  1.00  0.00    -0.328 OA
ATOM      6  C   UNL     1      55.993  54.899 126.100  1.00  0.00     0.181 C 
ATOM      7  C   UNL     1      56.550  53.470 126.192  1.00  0.00     0.214 C 
BRANCH   3   8
ATOM      8  C   UNL     1      55.686  55.427 129.348  1.00  0.00     0.073 C 
ATOM      9  O   UNL     1      55.807  55.593 130.594  1.00  0.00    -0.547 OA
ATOM     10  O   UNL     1      55.794  55.614 130.718  1.00  0.00    -0.547 OA
ENDBRANCH   3   8
BRANCH   4  11
ATOM     11  O   UNL     1      58.074  56.052 126.525  1.00  0.00    -0.387 OA
ATOM     12  H   UNL     1      58.079  56.949 126.098  1.00  0.00     0.211 HD
ENDBRANCH   4  11
BRANCH   6  13
ATOM     13  O   UNL     1      56.054  55.374 124.780  1.00  0.00    -0.387 OA
ATOM     14  H   UNL     1      55.334  54.913 124.275  1.00  0.00     0.211 HD
ENDBRANCH   6  13
BRANCH   7  15
ATOM     15  O   UNL     1      57.839  53.402 125.637  1.00  0.00    -0.384 OA
ATOM     16  H   UNL     1      58.275  52.596 126.019  1.00  0.00     0.211 HD
ENDBRANCH   7  15
ENDBRANCH   1   2
BRANCH   1  17
ATOM     17  C   UNL     1      54.272  52.141 127.490  1.00  0.00     0.172 A 
ATOM     18  C   UNL     1      54.354  50.758 127.235  1.00  0.00     0.201 A 
ATOM     19  C   UNL     1      53.188  52.873 127.005  1.00  0.00     0.098 A 
ATOM     20  C   UNL     1      53.280  50.094 126.587  1.00  0.00     0.176 A 
ATOM     21  C   UNL     1      52.143  52.244 126.335  1.00  0.00     0.146 A 
ATOM     22  C   UNL     1      52.171  50.847 126.127  1.00  0.00     0.111 A 
ATOM     23  O   UNL     1      51.123  52.975 125.901  1.00  0.00    -0.456 OA
ATOM     24  C   UNL     1      51.069  50.270 125.459  1.00  0.00     0.197 A 
ATOM     25  C   UNL     1      50.075  52.466 125.259  1.00  0.00     0.138 A 
ATOM     26  C   UNL     1      50.019  51.082 125.027  1.00  0.00     0.100 A 
ATOM     27  O   UNL     1      51.005  49.030 125.243  1.00  0.00    -0.289 OA
BRANCH  18  28
ATOM     28  O   UNL     1      55.526  50.087 127.590  1.00  0.00    -0.502 OA
ATOM     29  H   UNL     1      55.556  49.238 128.135  1.00  0.00     0.293 HD
ENDBRANCH  18  28
BRANCH  20  30
ATOM     30  O   UNL     1      53.291  48.708 126.397  1.00  0.00    -0.504 OA
ATOM     31  H   UNL     1      53.866  48.066 126.922  1.00  0.00     0.293 HD
ENDBRANCH  20  30
BRANCH  25  32
ATOM     32  C   UNL     1      48.991  53.383 124.824  1.00  0.00     0.017 A 
ATOM     33  C   UNL     1      47.657  53.088 125.169  1.00  0.00     0.012 A 
ATOM     34  C   UNL     1      49.258  54.563 124.099  1.00  0.00     0.012 A 
ATOM     35  C   UNL     1      46.618  53.937 124.779  1.00  0.00     0.001 A 
ATOM     36  C   UNL     1      48.213  55.408 123.712  1.00  0.00     0.001 A 
ATOM     37  C   UNL     1      46.895  55.094 124.047  1.00  0.00     0.000 A 
ENDBRANCH  25  32
ENDBRANCH   1  17
TORSDOF 9
ENDMDL
MODEL 5
REMARK VINA RESULT:    -4.967      0.897      1.039
REMARK INTER + INTRA:          -8.054
REMARK INTER:                  -6.946
REMARK INTRA:                  -1.108
REMARK UNBOUND:                -1.199
REMARK SMILES O=C([O-])[C@H]1O[C@@H](Oc2cc3oc(-c4ccccc4)cc(=O)c3c(O)c2O)[C@H](O)[C@H](O)[C@@H]1O
REMARK SMILES IDX 7 1 6 2 4 3 31 4 5 5 29 6 27 7 2 8 1 9 3 10 32 11 30 13
REMARK SMILES IDX 28 15 8 17 25 18 9 19 23 20 10 21 22 22 11 23 20 24 12 25
REMARK SMILES IDX 19 26 21 27 26 28 24 30 13 32 14 33 18 34 15 35 17 36 16 37
REMARK H PARENT 32 12 30 14 28 16 26 29 24 31
REMARK Flexibility Score: inf
ROOT
ATOM      1  O   UNL     1      55.294  52.719 127.902  1.00  0.00    -0.458 OA
ENDROOT
BRANCH   1   2
ATOM      2  C   UNL     1      56.641  52.990 127.493  1.00  0.00     0.339 C 
ATOM      3  C   UNL     1      56.749  55.208 128.367  1.00  0.00     0.199 C 
ATOM      4  C   UNL     1      56.717  55.836 126.947  1.00  0.00     0.180 C 
ATOM      5  O   UNL     1      57.282  53.889 128.390  1.00  0.00    -0.328 OA
ATOM      6  C   UNL     1      56.057  54.884 125.936  1.00  0.00     0.181 C 
ATOM      7  C   UNL     1      56.678  53.482 126.038  1.00  0.00     0.214 C 
BRANCH   3   8
ATOM      8  C   UNL     1      55.468  55.306 129.160  1.00  0.00     0.073 C 
ATOM      9  O   UNL     1      55.477  55.314 130.423  1.00  0.00    -0.547 OA
ATOM     10  O   UNL     1      55.452  55.320 130.547  1.00  0.00    -0.547 OA
ENDBRANCH   3   8
BRANCH   4  11
ATOM     11  O   UNL     1      58.036  56.125 126.552  1.00  0.00    -0.387 OA
ATOM     12  H   UNL     1      58.140  55.798 125.620  1.00  0.00     0.211 HD
ENDBRANCH   4  11
BRANCH   6  13
ATOM     13  O   UNL     1      56.198  55.396 124.636  1.00  0.00    -0.387 OA
ATOM     14  H   UNL     1      56.861  54.822 124.170  1.00  0.00     0.211 HD
ENDBRANCH   6  13
BRANCH   7  15
ATOM     15  O   UNL     1      58.008  53.492 125.587  1.00  0.00    -0.384 OA
ATOM     16  H   UNL     1      58.433  54.307 125.961  1.00  0.00     0.211 HD
ENDBRANCH   7  15
ENDBRANCH   1   2
BRANCH   1  17
ATOM     17  C   UNL     1      54.499  51.716 127.330  1.00  0.00     0.172 A 
ATOM     18  C   UNL     1      53.197  51.981 126.863  1.00  0.00     0.201 A 
ATOM     19  C   UNL     1      55.004  50.417 127.276  1.00  0.00     0.098 A 
ATOM     20  C   UNL     1      52.448  50.952 126.236  1.00  0.00     0.176 A 
ATOM     21  C   UNL     1      54.268  49.387 126.698  1.00  0.00     0.146 A 
ATOM     22  C   UNL     1      52.987  49.643 126.162  1.00  0.00     0.111 A 
ATOM     23  O   UNL     1      54.792  48.167 126.654  1.00  0.00    -0.456 OA
ATOM     24  C   UNL     1      52.304  48.558 125.571  1.00  0.00     0.197 A 
ATOM     25  C   UNL     1      54.171  47.121 126.116  1.00  0.00     0.138 A 
ATOM     26  C   UNL     1      52.899  47.296 125.546  1.00  0.00     0.100 A 
ATOM     27  O   UNL     1      51.161  48.700 125.057  1.00  0.00    -0.289 OA
BRANCH  18  28
ATOM     28  O   UNL     1      52.661  53.253 127.080  1.00  0.00    -0.502 OA
ATOM     29  H   UNL     1      51.766  53.429 127.513  1.00  0.00     0.293 HD
ENDBRANCH  18  28
BRANCH  20  30
ATOM     30  O   UNL     1      51.187  51.204 125.684  1.00  0.00    -0.504 OA
ATOM     31  H   UNL     1      50.645  52.036 125.860  1.00  0.00     0.293 HD
ENDBRANCH  20  30
BRANCH  25  32
ATOM     32  C   UNL     1      54.858  45.804 126.122  1.00  0.00     0.017 A 
ATOM     33  C   UNL     1      54.106  44.632 125.913  1.00  0.00     0.012 A 
ATOM     34  C   UNL     1      56.252  45.691 126.302  1.00  0.00     0.012 A 
ATOM     35  C   UNL     1      54.727  43.380 125.907  1.00  0.00     0.001 A 
ATOM     36  C   UNL     1      56.868  44.435 126.294  1.00  0.00     0.001 A 
ATOM     37  C   UNL     1      56.106  43.282 126.102  1.00  0.00     0.000 A 
ENDBRANCH  25  32
ENDBRANCH   1  17
TORSDOF 9
ENDMDL
MODEL 6
REMARK VINA RESULT:    -4.916      5.746     11.593
REMARK INTER + INTRA:          -7.984
REMARK INTER:                  -6.361
REMARK INTRA:                  -1.622
REMARK UNBOUND:                -1.199
REMARK SMILES O=C([O-])[C@H]1O[C@@H](Oc2cc3oc(-c4ccccc4)cc(=O)c3c(O)c2O)[C@H](O)[C@H](O)[C@@H]1O
REMARK SMILES IDX 7 1 6 2 4 3 31 4 5 5 29 6 27 7 2 8 1 9 3 10 32 11 30 13
REMARK SMILES IDX 28 15 8 17 25 18 9 19 23 20 10 21 22 22 11 23 20 24 12 25
REMARK SMILES IDX 19 26 21 27 26 28 24 30 13 32 14 33 18 34 15 35 17 36 16 37
REMARK H PARENT 32 12 30 14 28 16 26 29 24 31
REMARK Flexibility Score: inf
ROOT
ATOM      1  O   UNL     1      55.433  41.135 124.706  1.00  0.00    -0.458 OA
ENDROOT
BRANCH   1   2
ATOM      2  C   UNL     1      56.237  40.662 123.617  1.00  0.00     0.339 C 
ATOM      3  C   UNL     1      55.374  38.437 123.590  1.00  0.00     0.199 C 
ATOM      4  C   UNL     1      56.691  37.852 124.168  1.00  0.00     0.180 C 
ATOM      5  O   UNL     1      55.560  39.654 122.877  1.00  0.00    -0.328 OA
ATOM      6  C   UNL     1      57.472  38.919 124.955  1.00  0.00     0.181 C 
ATOM      7  C   UNL     1      57.614  40.201 124.121  1.00  0.00     0.214 C 
BRANCH   3   8
ATOM      8  C   UNL     1      54.215  38.528 124.554  1.00  0.00     0.073 C 
ATOM      9  O   UNL     1      53.023  38.602 124.143  1.00  0.00    -0.547 OA
ATOM     10  O   UNL     1      52.898  38.607 124.127  1.00  0.00    -0.547 OA
ENDBRANCH   3   8
BRANCH   4  11
ATOM     11  O   UNL     1      57.472  37.365 123.104  1.00  0.00    -0.387 OA
ATOM     12  H   UNL     1      57.019  37.634 122.262  1.00  0.00     0.211 HD
ENDBRANCH   4  11
BRANCH   6  13
ATOM     13  O   UNL     1      58.733  38.417 125.314  1.00  0.00    -0.387 OA
ATOM     14  H   UNL     1      58.576  37.584 125.830  1.00  0.00     0.211 HD
ENDBRANCH   6  13
BRANCH   7  15
ATOM     15  O   UNL     1      58.460  39.988 123.020  1.00  0.00    -0.384 OA
ATOM     16  H   UNL     1      58.374  39.031 122.771  1.00  0.00     0.211 HD
ENDBRANCH   7  15
ENDBRANCH   1   2
BRANCH   1  17
ATOM     17  C   UNL     1      54.691  42.323 124.661  1.00  0.00     0.172 A 
ATOM     18  C   UNL     1      53.485  42.415 123.938  1.00  0.00     0.201 A 
ATOM     19  C   UNL     1      55.197  43.449 125.310  1.00  0.00     0.098 A 
ATOM     20  C   UNL     1      52.733  43.619 123.967  1.00  0.00     0.176 A 
ATOM     21  C   UNL     1      54.492  44.649 125.317  1.00  0.00     0.146 A 
ATOM     22  C   UNL     1      53.247  44.746 124.656  1.00  0.00     0.111 A 
ATOM     23  O   UNL     1      55.003  45.693 125.959  1.00  0.00    -0.456 OA
ATOM     24  C   UNL     1      52.574  45.985 124.722  1.00  0.00     0.197 A 
ATOM     25  C   UNL     1      54.401  46.877 126.031  1.00  0.00     0.138 A 
ATOM     26  C   UNL     1      53.152  47.051 125.413  1.00  0.00     0.100 A 
ATOM     27  O   UNL     1      51.453  46.155 124.171  1.00  0.00    -0.289 OA
BRANCH  18  28
ATOM     28  O   UNL     1      53.090  41.320 123.167  1.00  0.00    -0.502 OA
ATOM     29  H   UNL     1      52.476  41.376 122.367  1.00  0.00     0.293 HD
ENDBRANCH  18  28
BRANCH  20  30
ATOM     30  O   UNL     1      51.491  43.714 123.332  1.00  0.00    -0.504 OA
ATOM     31  H   UNL     1      51.030  42.949 122.863  1.00  0.00     0.293 HD
ENDBRANCH  20  30
BRANCH  25  32
ATOM     32  C   UNL     1      55.069  47.972 126.780  1.00  0.00     0.017 A 
ATOM     33  C   UNL     1      56.329  47.741 127.364  1.00  0.00     0.012 A 
ATOM     34  C   UNL     1      54.491  49.253 126.901  1.00  0.00     0.012 A 
ATOM     35  C   UNL     1      56.983  48.755 128.069  1.00  0.00     0.001 A 
ATOM     36  C   UNL     1      55.150  50.263 127.608  1.00  0.00     0.001 A 
ATOM     37  C   UNL     1      56.392  50.014 128.195  1.00  0.00     0.000 A 
ENDBRANCH  25  32
ENDBRANCH   1  17
TORSDOF 9
ENDMDL
MODEL 7
REMARK VINA RESULT:    -4.904      6.651     12.904
REMARK INTER + INTRA:          -7.966
REMARK INTER:                  -6.369
REMARK INTRA:                  -1.598
REMARK UNBOUND:                -1.199
REMARK SMILES O=C([O-])[C@H]1O[C@@H](Oc2cc3oc(-c4ccccc4)cc(=O)c3c(O)c2O)[C@H](O)[C@H](O)[C@@H]1O
REMARK SMILES IDX 7 1 6 2 4 3 31 4 5 5 29 6 27 7 2 8 1 9 3 10 32 11 30 13
REMARK SMILES IDX 28 15 8 17 25 18 9 19 23 20 10 21 22 22 11 23 20 24 12 25
REMARK SMILES IDX 19 26 21 27 26 28 24 30 13 32 14 33 18 34 15 35 17 36 16 37
REMARK H PARENT 32 12 30 14 28 16 26 29 24 31
REMARK Flexibility Score: inf
ROOT
ATOM      1  O   UNL     1      55.982  40.165 124.917  1.00  0.00    -0.458 OA
ENDROOT
BRANCH   1   2
ATOM      2  C   UNL     1      55.823  39.218 125.982  1.00  0.00     0.339 C 
ATOM      3  C   UNL     1      55.962  37.259 124.626  1.00  0.00     0.199 C 
ATOM      4  C   UNL     1      54.449  36.958 124.796  1.00  0.00     0.180 C 
ATOM      5  O   UNL     1      56.515  38.007 125.702  1.00  0.00    -0.328 OA
ATOM      6  C   UNL     1      53.664  38.238 125.128  1.00  0.00     0.181 C 
ATOM      7  C   UNL     1      54.335  38.991 126.287  1.00  0.00     0.214 C 
BRANCH   3   8
ATOM      8  C   UNL     1      56.376  37.821 123.287  1.00  0.00     0.073 C 
ATOM      9  O   UNL     1      57.588  37.854 122.934  1.00  0.00    -0.547 OA
ATOM     10  O   UNL     1      57.700  37.865 122.876  1.00  0.00    -0.547 OA
ENDBRANCH   3   8
BRANCH   4  11
ATOM     11  O   UNL     1      54.291  36.011 125.825  1.00  0.00    -0.387 OA
ATOM     12  H   UNL     1      53.819  36.466 126.571  1.00  0.00     0.211 HD
ENDBRANCH   4  11
BRANCH   6  13
ATOM     13  O   UNL     1      52.336  37.914 125.449  1.00  0.00    -0.387 OA
ATOM     14  H   UNL     1      51.799  38.739 125.323  1.00  0.00     0.211 HD
ENDBRANCH   6  13
BRANCH   7  15
ATOM     15  O   UNL     1      54.215  38.268 127.486  1.00  0.00    -0.384 OA
ATOM     16  H   UNL     1      55.102  37.866 127.670  1.00  0.00     0.211 HD
ENDBRANCH   7  15
ENDBRANCH   1   2
BRANCH   1  17
ATOM     17  C   UNL     1      56.789  41.307 125.011  1.00  0.00     0.172 A 
ATOM     18  C   UNL     1      58.157  41.276 124.678  1.00  0.00     0.201 A 
ATOM     19  C   UNL     1      56.220  42.485 125.497  1.00  0.00     0.098 A 
ATOM     20  C   UNL     1      58.925  42.469 124.730  1.00  0.00     0.176 A 
ATOM     21  C   UNL     1      56.968  43.655 125.589  1.00  0.00     0.146 A 
ATOM     22  C   UNL     1      58.325  43.665 125.198  1.00  0.00     0.111 A 
ATOM     23  O   UNL     1      56.384  44.758 126.044  1.00  0.00    -0.456 OA
ATOM     24  C   UNL     1      59.019  44.890 125.297  1.00  0.00     0.197 A 
ATOM     25  C   UNL     1      57.011  45.925 126.161  1.00  0.00     0.138 A 
ATOM     26  C   UNL     1      58.358  46.022 125.777  1.00  0.00     0.100 A 
ATOM     27  O   UNL     1      60.228  44.991 124.957  1.00  0.00    -0.289 OA
BRANCH  18  28
ATOM     28  O   UNL     1      58.732  40.045 124.352  1.00  0.00    -0.502 OA
ATOM     29  H   UNL     1      59.279  39.873 123.522  1.00  0.00     0.293 HD
ENDBRANCH  18  28
BRANCH  20  30
ATOM     30  O   UNL     1      60.263  42.489 124.323  1.00  0.00    -0.504 OA
ATOM     31  H   UNL     1      60.783  43.329 124.118  1.00  0.00     0.293 HD
ENDBRANCH  20  30
BRANCH  25  32
ATOM     32  C   UNL     1      56.254  47.093 126.680  1.00  0.00     0.017 A 
ATOM     33  C   UNL     1      56.789  48.386 126.529  1.00  0.00     0.012 A 
ATOM     34  C   UNL     1      54.993  46.949 127.296  1.00  0.00     0.012 A 
ATOM     35  C   UNL     1      56.095  49.503 127.002  1.00  0.00     0.001 A 
ATOM     36  C   UNL     1      54.303  48.071 127.767  1.00  0.00     0.001 A 
ATOM     37  C   UNL     1      54.855  49.345 127.624  1.00  0.00     0.000 A 
ENDBRANCH  25  32
ENDBRANCH   1  17
TORSDOF 9
ENDMDL
MODEL 8
REMARK VINA RESULT:    -4.019      8.241     13.943
REMARK INTER + INTRA:          -6.746
REMARK INTER:                  -5.775
REMARK INTRA:                  -0.971
REMARK UNBOUND:                -1.199
REMARK SMILES O=C([O-])[C@H]1O[C@@H](Oc2cc3oc(-c4ccccc4)cc(=O)c3c(O)c2O)[C@H](O)[C@H](O)[C@@H]1O
REMARK SMILES IDX 7 1 6 2 4 3 31 4 5 5 29 6 27 7 2 8 1 9 3 10 32 11 30 13
REMARK SMILES IDX 28 15 8 17 25 18 9 19 23 20 10 21 22 22 11 23 20 24 12 25
REMARK SMILES IDX 19 26 21 27 26 28 24 30 13 32 14 33 18 34 15 35 17 36 16 37
REMARK H PARENT 32 12 30 14 28 16 26 29 24 31
REMARK Flexibility Score: inf
ROOT
ATOM      1  O   UNL     1      55.209  39.034 123.456  1.00  0.00    -0.458 OA
ENDROOT
BRANCH   1   2
ATOM      2  C   UNL     1      54.082  39.270 124.309  1.00  0.00     0.339 C 
ATOM      3  C   UNL     1      54.178  37.187 125.469  1.00  0.00     0.199 C 
ATOM      4  C   UNL     1      52.903  36.661 124.758  1.00  0.00     0.180 C 
ATOM      5  O   UNL     1      54.232  38.606 125.558  1.00  0.00    -0.328 OA
ATOM      6  C   UNL     1      52.685  37.374 123.412  1.00  0.00     0.181 C 
ATOM      7  C   UNL     1      52.774  38.897 123.594  1.00  0.00     0.214 C 
BRANCH   3   8
ATOM      8  C   UNL     1      55.488  36.609 124.988  1.00  0.00     0.073 C 
ATOM      9  O   UNL     1      56.274  36.016 125.778  1.00  0.00    -0.547 OA
ATOM     10  O   UNL     1      56.366  35.951 125.836  1.00  0.00    -0.547 OA
ENDBRANCH   3   8
BRANCH   4  11
ATOM     11  O   UNL     1      51.797  36.869 125.602  1.00  0.00    -0.387 OA
ATOM     12  H   UNL     1      51.509  37.811 125.478  1.00  0.00     0.211 HD
ENDBRANCH   4  11
BRANCH   6  13
ATOM     13  O   UNL     1      51.440  37.009 122.875  1.00  0.00    -0.387 OA
ATOM     14  H   UNL     1      51.479  37.202 121.902  1.00  0.00     0.211 HD
ENDBRANCH   6  13
BRANCH   7  15
ATOM     15  O   UNL     1      51.686  39.373 124.345  1.00  0.00    -0.384 OA
ATOM     16  H   UNL     1      50.886  39.315 123.761  1.00  0.00     0.211 HD
ENDBRANCH   7  15
ENDBRANCH   1   2
BRANCH   1  17
ATOM     17  C   UNL     1      56.424  39.725 123.571  1.00  0.00     0.172 A 
ATOM     18  C   UNL     1      57.652  39.123 123.232  1.00  0.00     0.201 A 
ATOM     19  C   UNL     1      56.406  41.023 124.082  1.00  0.00     0.098 A 
ATOM     20  C   UNL     1      58.852  39.876 123.305  1.00  0.00     0.176 A 
ATOM     21  C   UNL     1      57.579  41.763 124.195  1.00  0.00     0.146 A 
ATOM     22  C   UNL     1      58.814  41.204 123.799  1.00  0.00     0.111 A 
ATOM     23  O   UNL     1      57.516  43.001 124.674  1.00  0.00    -0.456 OA
ATOM     24  C   UNL     1      59.961  42.018 123.920  1.00  0.00     0.197 A 
ATOM     25  C   UNL     1      58.578  43.789 124.813  1.00  0.00     0.138 A 
ATOM     26  C   UNL     1      59.841  43.313 124.426  1.00  0.00     0.100 A 
ATOM     27  O   UNL     1      61.102  41.603 123.578  1.00  0.00    -0.289 OA
BRANCH  18  28
ATOM     28  O   UNL     1      57.652  37.771 122.879  1.00  0.00    -0.502 OA
ATOM     29  H   UNL     1      57.874  37.016 123.512  1.00  0.00     0.293 HD
ENDBRANCH  18  28
BRANCH  20  30
ATOM     30  O   UNL     1      60.075  39.335 122.894  1.00  0.00    -0.504 OA
ATOM     31  H   UNL     1      60.454  39.426 121.963  1.00  0.00     0.293 HD
ENDBRANCH  20  30
BRANCH  25  32
ATOM     32  C   UNL     1      58.384  45.157 125.358  1.00  0.00     0.017 A 
ATOM     33  C   UNL     1      59.148  46.221 124.841  1.00  0.00     0.012 A 
ATOM     34  C   UNL     1      57.432  45.432 126.362  1.00  0.00     0.012 A 
ATOM     35  C   UNL     1      58.981  47.519 125.330  1.00  0.00     0.001 A 
ATOM     36  C   UNL     1      57.270  46.733 126.847  1.00  0.00     0.001 A 
ATOM     37  C   UNL     1      58.046  47.775 126.336  1.00  0.00     0.000 A 
ENDBRANCH  25  32
ENDBRANCH   1  17
TORSDOF 9
ENDMDL
