MODEL 1
REMARK VINA RESULT:    31.223      0.000      0.000
REMARK INTER + INTRA:          37.194
REMARK INTER:                  37.612
REMARK INTRA:                  -0.418
REMARK UNBOUND:                -0.418
REMARK SMILES O=c1c(O)c(-c2ccc(O)cc2O)oc2cc(O)cc(O)c12
REMARK SMILES IDX 5 1 3 2 2 3 1 4 22 5 20 6 19 7 17 8 16 9 15 10 14 11 6 12
REMARK SMILES IDX 8 13 7 14 9 15 11 16 12 17 10 18 13 20 4 22 21 24 18 26
REMARK H PARENT 10 19 13 21 4 23 21 25 18 27
REMARK Flexibility Score: inf
ROOT
ATOM      1  C   UNL     1       9.350   1.443   8.860  1.00  0.00     0.184 A 
ATOM      2  C   UNL     1      10.068   0.340   8.370  1.00  0.00     0.208 A 
ATOM      3  C   UNL     1      11.047   0.548   7.386  1.00  0.00     0.238 A 
ATOM      4  O   UNL     1      11.634  -0.452   6.898  1.00  0.00    -0.285 OA
ATOM      5  C   UNL     1      11.332   1.864   6.944  1.00  0.00     0.111 A 
ATOM      6  C   UNL     1      12.333   2.198   5.982  1.00  0.00     0.134 A 
ATOM      7  C   UNL     1      12.455   3.521   5.543  1.00  0.00     0.093 A 
ATOM      8  C   UNL     1      11.656   4.534   6.077  1.00  0.00     0.123 A 
ATOM      9  C   UNL     1      10.713   4.228   7.055  1.00  0.00     0.094 A 
ATOM     10  C   UNL     1      10.541   2.911   7.487  1.00  0.00     0.146 A 
ATOM     11  O   UNL     1       9.616   2.661   8.405  1.00  0.00    -0.451 OA
ENDROOT
BRANCH   1  12
ATOM     12  C   UNL     1       8.302   1.291   9.890  1.00  0.00     0.063 A 
ATOM     13  C   UNL     1       7.713   1.116  12.243  1.00  0.00     0.047 A 
ATOM     14  C   UNL     1       8.679   1.252  11.243  1.00  0.00     0.020 A 
ATOM     15  C   UNL     1       6.360   1.032  11.908  1.00  0.00     0.119 A 
ATOM     16  C   UNL     1       5.972   1.094  10.564  1.00  0.00     0.093 A 
ATOM     17  C   UNL     1       6.934   1.236   9.553  1.00  0.00     0.130 A 
BRANCH  15  18
ATOM     18  O   UNL     1       5.409   0.892  12.916  1.00  0.00    -0.508 OA
ATOM     19  H   UNL     1       4.448   0.649  12.707  1.00  0.00     0.293 HD
ENDBRANCH  15  18
BRANCH  17  20
ATOM     20  O   UNL     1       6.532   1.347   8.221  1.00  0.00    -0.507 OA
ATOM     21  H   UNL     1       6.759   0.636   7.537  1.00  0.00     0.293 HD
ENDBRANCH  17  20
ENDBRANCH   1  12
BRANCH   2  22
ATOM     22  O   UNL     1       9.816  -0.938   8.876  1.00  0.00    -0.502 OA
ATOM     23  H   UNL     1      10.487  -1.693   8.801  1.00  0.00     0.293 HD
ENDBRANCH   2  22
BRANCH   6  24
ATOM     24  O   UNL     1      13.245   1.281   5.449  1.00  0.00    -0.507 OA
ATOM     25  H   UNL     1      13.457   1.182   4.468  1.00  0.00     0.293 HD
ENDBRANCH   6  24
BRANCH   8  26
ATOM     26  O   UNL     1      11.795   5.852   5.646  1.00  0.00    -0.508 OA
ATOM     27  H   UNL     1      12.652   6.181   5.217  1.00  0.00     0.293 HD
ENDBRANCH   8  26
TORSDOF 6
ENDMDL
MODEL 2
REMARK VINA RESULT:    31.890      4.919      7.774
REMARK INTER + INTRA:          37.997
REMARK INTER:                  38.416
REMARK INTRA:                  -0.419
REMARK UNBOUND:                -0.418
REMARK SMILES O=c1c(O)c(-c2ccc(O)cc2O)oc2cc(O)cc(O)c12
REMARK SMILES IDX 5 1 3 2 2 3 1 4 22 5 20 6 19 7 17 8 16 9 15 10 14 11 6 12
REMARK SMILES IDX 8 13 7 14 9 15 11 16 12 17 10 18 13 20 4 22 21 24 18 26
REMARK H PARENT 10 19 13 21 4 23 21 25 18 27
REMARK Flexibility Score: inf
ROOT
ATOM      1  C   UNL     1      15.064   3.748   8.772  1.00  0.00     0.184 A 
ATOM      2  C   UNL     1      14.322   4.857   8.336  1.00  0.00     0.208 A 
ATOM      3  C   UNL     1      13.316   4.669   7.376  1.00  0.00     0.238 A 
ATOM      4  O   UNL     1      12.706   5.678   6.936  1.00  0.00    -0.285 OA
ATOM      5  C   UNL     1      13.029   3.364   6.904  1.00  0.00     0.111 A 
ATOM      6  C   UNL     1      12.003   3.049   5.962  1.00  0.00     0.134 A 
ATOM      7  C   UNL     1      11.880   1.738   5.488  1.00  0.00     0.093 A 
ATOM      8  C   UNL     1      12.704   0.717   5.967  1.00  0.00     0.123 A 
ATOM      9  C   UNL     1      13.673   1.004   6.926  1.00  0.00     0.094 A 
ATOM     10  C   UNL     1      13.845   2.309   7.391  1.00  0.00     0.146 A 
ATOM     11  O   UNL     1      14.795   2.541   8.289  1.00  0.00    -0.451 OA
ENDROOT
BRANCH   1  12
ATOM     12  C   UNL     1      16.140   3.879   9.775  1.00  0.00     0.063 A 
ATOM     13  C   UNL     1      16.797   3.998  12.114  1.00  0.00     0.047 A 
ATOM     14  C   UNL     1      15.803   3.882  11.138  1.00  0.00     0.020 A 
ATOM     15  C   UNL     1      18.139   4.098  11.742  1.00  0.00     0.119 A 
ATOM     16  C   UNL     1      18.488   4.072  10.386  1.00  0.00     0.093 A 
ATOM     17  C   UNL     1      17.497   3.950   9.400  1.00  0.00     0.130 A 
BRANCH  15  18
ATOM     18  O   UNL     1      19.118   4.217  12.725  1.00  0.00    -0.508 OA
ATOM     19  H   UNL     1      19.373   3.434  13.316  1.00  0.00     0.293 HD
ENDBRANCH  15  18
BRANCH  17  20
ATOM     20  O   UNL     1      17.861   3.875   8.055  1.00  0.00    -0.507 OA
ATOM     21  H   UNL     1      18.823   3.729   7.771  1.00  0.00     0.293 HD
ENDBRANCH  17  20
ENDBRANCH   1  12
BRANCH   2  22
ATOM     22  O   UNL     1      14.577   6.123   8.873  1.00  0.00    -0.502 OA
ATOM     23  H   UNL     1      14.224   6.409   9.778  1.00  0.00     0.293 HD
ENDBRANCH   2  22
BRANCH   6  24
ATOM     24  O   UNL     1      11.068   3.972   5.483  1.00  0.00    -0.507 OA
ATOM     25  H   UNL     1      10.897   4.882   5.884  1.00  0.00     0.293 HD
ENDBRANCH   6  24
BRANCH   8  26
ATOM     26  O   UNL     1      12.563  -0.589   5.501  1.00  0.00    -0.508 OA
ATOM     27  H   UNL     1      12.763  -0.832   4.539  1.00  0.00     0.293 HD
ENDBRANCH   8  26
TORSDOF 6
ENDMDL
MODEL 3
REMARK VINA RESULT:    32.198      1.185      2.802
REMARK INTER + INTRA:          38.368
REMARK INTER:                  38.696
REMARK INTRA:                  -0.327
REMARK UNBOUND:                -0.418
REMARK SMILES O=c1c(O)c(-c2ccc(O)cc2O)oc2cc(O)cc(O)c12
REMARK SMILES IDX 5 1 3 2 2 3 1 4 22 5 20 6 19 7 17 8 16 9 15 10 14 11 6 12
REMARK SMILES IDX 8 13 7 14 9 15 11 16 12 17 10 18 13 20 4 22 21 24 18 26
REMARK H PARENT 10 19 13 21 4 23 21 25 18 27
REMARK Flexibility Score: inf
ROOT
ATOM      1  C   UNL     1       9.326   2.096   8.731  1.00  0.00     0.184 A 
ATOM      2  C   UNL     1       9.241   3.404   8.227  1.00  0.00     0.208 A 
ATOM      3  C   UNL     1      10.179   3.830   7.274  1.00  0.00     0.238 A 
ATOM      4  O   UNL     1      10.141   5.025   6.882  1.00  0.00    -0.285 OA
ATOM      5  C   UNL     1      11.157   2.923   6.796  1.00  0.00     0.111 A 
ATOM      6  C   UNL     1      12.131   3.232   5.798  1.00  0.00     0.134 A 
ATOM      7  C   UNL     1      13.116   2.290   5.480  1.00  0.00     0.093 A 
ATOM      8  C   UNL     1      13.126   1.027   6.076  1.00  0.00     0.123 A 
ATOM      9  C   UNL     1      12.147   0.696   7.011  1.00  0.00     0.094 A 
ATOM     10  C   UNL     1      11.173   1.628   7.377  1.00  0.00     0.146 A 
ATOM     11  O   UNL     1      10.273   1.278   8.288  1.00  0.00    -0.451 OA
ENDROOT
BRANCH   1  12
ATOM     12  C   UNL     1       8.376   1.589   9.740  1.00  0.00     0.063 A 
ATOM     13  C   UNL     1       7.942   0.941  12.043  1.00  0.00     0.047 A 
ATOM     14  C   UNL     1       8.817   1.413  11.062  1.00  0.00     0.020 A 
ATOM     15  C   UNL     1       6.613   0.653  11.723  1.00  0.00     0.119 A 
ATOM     16  C   UNL     1       6.157   0.848  10.413  1.00  0.00     0.093 A 
ATOM     17  C   UNL     1       7.027   1.327   9.422  1.00  0.00     0.130 A 
BRANCH  15  18
ATOM     18  O   UNL     1       5.754   0.179  12.711  1.00  0.00    -0.508 OA
ATOM     19  H   UNL     1       5.826  -0.768  13.065  1.00  0.00     0.293 HD
ENDBRANCH  15  18
BRANCH  17  20
ATOM     20  O   UNL     1       6.549   1.565   8.133  1.00  0.00    -0.507 OA
ATOM     21  H   UNL     1       7.174   1.770   7.363  1.00  0.00     0.293 HD
ENDBRANCH  17  20
ENDBRANCH   1  12
BRANCH   2  22
ATOM     22  O   UNL     1       8.221   4.255   8.663  1.00  0.00    -0.502 OA
ATOM     23  H   UNL     1       8.405   5.189   9.009  1.00  0.00     0.293 HD
ENDBRANCH   2  22
BRANCH   6  24
ATOM     24  O   UNL     1      12.161   4.429   5.076  1.00  0.00    -0.507 OA
ATOM     25  H   UNL     1      12.628   5.271   5.374  1.00  0.00     0.293 HD
ENDBRANCH   6  24
BRANCH   8  26
ATOM     26  O   UNL     1      14.100   0.089   5.741  1.00  0.00    -0.508 OA
ATOM     27  H   UNL     1      14.647   0.174   4.893  1.00  0.00     0.293 HD
ENDBRANCH   8  26
TORSDOF 6
ENDMDL
MODEL 4
REMARK VINA RESULT:    32.866      4.861      7.175
REMARK INTER + INTRA:          39.173
REMARK INTER:                  39.495
REMARK INTRA:                  -0.321
REMARK UNBOUND:                -0.418
REMARK SMILES O=c1c(O)c(-c2ccc(O)cc2O)oc2cc(O)cc(O)c12
REMARK SMILES IDX 5 1 3 2 2 3 1 4 22 5 20 6 19 7 17 8 16 9 15 10 14 11 6 12
REMARK SMILES IDX 8 13 7 14 9 15 11 16 12 17 10 18 13 20 4 22 21 24 18 26
REMARK H PARENT 10 19 13 21 4 23 21 25 18 27
REMARK Flexibility Score: inf
ROOT
ATOM      1  C   UNL     1      15.129   3.077   8.655  1.00  0.00     0.184 A 
ATOM      2  C   UNL     1      15.216   1.786   8.110  1.00  0.00     0.208 A 
ATOM      3  C   UNL     1      14.267   1.383   7.158  1.00  0.00     0.238 A 
ATOM      4  O   UNL     1      14.306   0.201   6.729  1.00  0.00    -0.285 OA
ATOM      5  C   UNL     1      13.274   2.297   6.724  1.00  0.00     0.111 A 
ATOM      6  C   UNL     1      12.287   2.012   5.732  1.00  0.00     0.134 A 
ATOM      7  C   UNL     1      11.290   2.956   5.459  1.00  0.00     0.093 A 
ATOM      8  C   UNL     1      11.281   4.200   6.095  1.00  0.00     0.123 A 
ATOM      9  C   UNL     1      12.272   4.508   7.024  1.00  0.00     0.094 A 
ATOM     10  C   UNL     1      13.258   3.573   7.346  1.00  0.00     0.146 A 
ATOM     11  O   UNL     1      14.170   3.902   8.253  1.00  0.00    -0.451 OA
ENDROOT
BRANCH   1  12
ATOM     12  C   UNL     1      16.092   3.560   9.665  1.00  0.00     0.063 A 
ATOM     13  C   UNL     1      16.552   4.159  11.976  1.00  0.00     0.047 A 
ATOM     14  C   UNL     1      15.666   3.710  10.994  1.00  0.00     0.020 A 
ATOM     15  C   UNL     1      17.879   4.449  11.648  1.00  0.00     0.119 A 
ATOM     16  C   UNL     1      18.321   4.279  10.329  1.00  0.00     0.093 A 
ATOM     17  C   UNL     1      17.438   3.824   9.338  1.00  0.00     0.130 A 
BRANCH  15  18
ATOM     18  O   UNL     1      18.750   4.899  12.637  1.00  0.00    -0.508 OA
ATOM     19  H   UNL     1      18.696   5.844  12.999  1.00  0.00     0.293 HD
ENDBRANCH  15  18
BRANCH  17  20
ATOM     20  O   UNL     1      17.903   3.612   8.039  1.00  0.00    -0.507 OA
ATOM     21  H   UNL     1      18.597   2.904   7.832  1.00  0.00     0.293 HD
ENDBRANCH  17  20
ENDBRANCH   1  12
BRANCH   2  22
ATOM     22  O   UNL     1      16.249   0.930   8.503  1.00  0.00    -0.502 OA
ATOM     23  H   UNL     1      16.076   0.064   9.000  1.00  0.00     0.293 HD
ENDBRANCH   2  22
BRANCH   6  24
ATOM     24  O   UNL     1      12.254   0.837   4.974  1.00  0.00    -0.507 OA
ATOM     25  H   UNL     1      13.019   0.187   4.884  1.00  0.00     0.293 HD
ENDBRANCH   6  24
BRANCH   8  26
ATOM     26  O   UNL     1      10.295   5.140   5.804  1.00  0.00    -0.508 OA
ATOM     27  H   UNL     1      10.530   6.078   5.501  1.00  0.00     0.293 HD
ENDBRANCH   8  26
TORSDOF 6
ENDMDL
