MODEL 1
REMARK VINA RESULT:    -7.922      0.000      0.000
REMARK INTER + INTRA:          -9.523
REMARK INTER:                  -9.775
REMARK INTRA:                   0.252
REMARK UNBOUND:                 0.252
REMARK SMILES O=c1c(O)c(-c2cc(O)c(O)c(O)c2)oc2cc(O)cc(O)c12
REMARK SMILES IDX 5 1 3 2 2 3 1 4 23 5 21 6 20 7 18 8 17 9 16 10 15 11 6 12
REMARK SMILES IDX 7 13 8 14 14 15 10 16 12 17 9 18 11 20 13 22 4 24 22 26
REMARK SMILES IDX 19 28
REMARK H PARENT 9 19 11 21 13 23 4 25 22 27 19 29
REMARK Flexibility Score: inf
ROOT
ATOM      1  C   UNL     1       9.572  -2.851   5.595  1.00  0.00     0.180 A 
ATOM      2  C   UNL     1       8.444  -3.628   5.279  1.00  0.00     0.208 A 
ATOM      3  C   UNL     1       7.797  -3.420   4.050  1.00  0.00     0.238 A 
ATOM      4  O   UNL     1       6.821  -4.156   3.750  1.00  0.00    -0.285 OA
ATOM      5  C   UNL     1       8.276  -2.429   3.161  1.00  0.00     0.111 A 
ATOM      6  C   UNL     1       7.673  -2.105   1.907  1.00  0.00     0.134 A 
ATOM      7  C   UNL     1       8.307  -1.197   1.050  1.00  0.00     0.093 A 
ATOM      8  C   UNL     1       9.487  -0.551   1.430  1.00  0.00     0.123 A 
ATOM      9  C   UNL     1      10.050  -0.816   2.676  1.00  0.00     0.094 A 
ATOM     10  C   UNL     1       9.460  -1.744   3.537  1.00  0.00     0.146 A 
ATOM     11  O   UNL     1      10.035  -1.975   4.712  1.00  0.00    -0.452 OA
ENDROOT
BRANCH   1  12
ATOM     12  C   UNL     1      10.292  -2.995   6.881  1.00  0.00     0.029 A 
ATOM     13  C   UNL     1      10.391  -4.261   7.480  1.00  0.00     0.062 A 
ATOM     14  C   UNL     1      11.084  -4.428   8.686  1.00  0.00     0.162 A 
ATOM     15  C   UNL     1      10.931  -1.901   7.488  1.00  0.00     0.062 A 
ATOM     16  C   UNL     1      11.701  -3.324   9.297  1.00  0.00     0.200 A 
ATOM     17  C   UNL     1      11.627  -2.062   8.693  1.00  0.00     0.162 A 
BRANCH  14  18
ATOM     18  O   UNL     1      11.162  -5.688   9.279  1.00  0.00    -0.504 OA
ATOM     19  H   UNL     1      11.983  -6.273   9.176  1.00  0.00     0.293 HD
ENDBRANCH  14  18
BRANCH  16  20
ATOM     20  O   UNL     1      12.396  -3.464  10.499  1.00  0.00    -0.502 OA
ATOM     21  H   UNL     1      12.745  -2.667  11.015  1.00  0.00     0.293 HD
ENDBRANCH  16  20
BRANCH  17  22
ATOM     22  O   UNL     1      12.253  -0.972   9.296  1.00  0.00    -0.504 OA
ATOM     23  H   UNL     1      11.869  -0.528  10.121  1.00  0.00     0.293 HD
ENDBRANCH  17  22
ENDBRANCH   1  12
BRANCH   2  24
ATOM     24  O   UNL     1       8.002  -4.617   6.161  1.00  0.00    -0.502 OA
ATOM     25  H   UNL     1       8.121  -4.544   7.165  1.00  0.00     0.293 HD
ENDBRANCH   2  24
BRANCH   6  26
ATOM     26  O   UNL     1       6.450  -2.623   1.472  1.00  0.00    -0.507 OA
ATOM     27  H   UNL     1       5.890  -3.283   1.990  1.00  0.00     0.293 HD
ENDBRANCH   6  26
BRANCH   8  28
ATOM     28  O   UNL     1      10.103   0.363   0.578  1.00  0.00    -0.508 OA
ATOM     29  H   UNL     1      11.109   0.382   0.459  1.00  0.00     0.293 HD
ENDBRANCH   8  28
TORSDOF 7
ENDMDL
MODEL 2
REMARK VINA RESULT:    -7.742      0.229      1.737
REMARK INTER + INTRA:          -9.301
REMARK INTER:                  -9.682
REMARK INTRA:                   0.381
REMARK UNBOUND:                 0.252
REMARK SMILES O=c1c(O)c(-c2cc(O)c(O)c(O)c2)oc2cc(O)cc(O)c12
REMARK SMILES IDX 5 1 3 2 2 3 1 4 23 5 21 6 20 7 18 8 17 9 16 10 15 11 6 12
REMARK SMILES IDX 7 13 8 14 14 15 10 16 12 17 9 18 11 20 13 22 4 24 22 26
REMARK SMILES IDX 19 28
REMARK H PARENT 9 19 11 21 13 23 4 25 22 27 19 29
REMARK Flexibility Score: inf
ROOT
ATOM      1  C   UNL     1       9.646  -2.891   5.541  1.00  0.00     0.180 A 
ATOM      2  C   UNL     1       8.503  -3.646   5.227  1.00  0.00     0.208 A 
ATOM      3  C   UNL     1       7.844  -3.408   4.010  1.00  0.00     0.238 A 
ATOM      4  O   UNL     1       6.854  -4.125   3.709  1.00  0.00    -0.285 OA
ATOM      5  C   UNL     1       8.327  -2.408   3.132  1.00  0.00     0.111 A 
ATOM      6  C   UNL     1       7.714  -2.056   1.891  1.00  0.00     0.134 A 
ATOM      7  C   UNL     1       8.350  -1.142   1.042  1.00  0.00     0.093 A 
ATOM      8  C   UNL     1       9.544  -0.520   1.417  1.00  0.00     0.123 A 
ATOM      9  C   UNL     1      10.119  -0.813   2.652  1.00  0.00     0.094 A 
ATOM     10  C   UNL     1       9.526  -1.748   3.505  1.00  0.00     0.146 A 
ATOM     11  O   UNL     1      10.111  -2.006   4.668  1.00  0.00    -0.452 OA
ENDROOT
BRANCH   1  12
ATOM     12  C   UNL     1      10.380  -3.067   6.817  1.00  0.00     0.029 A 
ATOM     13  C   UNL     1      11.216  -2.039   7.280  1.00  0.00     0.062 A 
ATOM     14  C   UNL     1      11.905  -2.172   8.493  1.00  0.00     0.162 A 
ATOM     15  C   UNL     1      10.212  -4.219   7.603  1.00  0.00     0.062 A 
ATOM     16  C   UNL     1      11.748  -3.336   9.263  1.00  0.00     0.200 A 
ATOM     17  C   UNL     1      10.897  -4.356   8.818  1.00  0.00     0.162 A 
BRANCH  14  18
ATOM     18  O   UNL     1      12.745  -1.150   8.936  1.00  0.00    -0.504 OA
ATOM     19  H   UNL     1      12.379  -0.321   9.389  1.00  0.00     0.293 HD
ENDBRANCH  14  18
BRANCH  16  20
ATOM     20  O   UNL     1      12.424  -3.492  10.473  1.00  0.00    -0.502 OA
ATOM     21  H   UNL     1      12.719  -4.400  10.812  1.00  0.00     0.293 HD
ENDBRANCH  16  20
BRANCH  17  22
ATOM     22  O   UNL     1      10.733  -5.504   9.593  1.00  0.00    -0.504 OA
ATOM     23  H   UNL     1      10.132  -6.263   9.296  1.00  0.00     0.293 HD
ENDBRANCH  17  22
ENDBRANCH   1  12
BRANCH   2  24
ATOM     24  O   UNL     1       8.058  -4.643   6.098  1.00  0.00    -0.502 OA
ATOM     25  H   UNL     1       7.138  -5.060   6.023  1.00  0.00     0.293 HD
ENDBRANCH   2  24
BRANCH   6  26
ATOM     26  O   UNL     1       6.478  -2.548   1.463  1.00  0.00    -0.507 OA
ATOM     27  H   UNL     1       5.641  -2.567   2.025  1.00  0.00     0.293 HD
ENDBRANCH   6  26
BRANCH   8  28
ATOM     28  O   UNL     1      10.163   0.400   0.573  1.00  0.00    -0.508 OA
ATOM     29  H   UNL     1      10.916   0.126  -0.047  1.00  0.00     0.293 HD
ENDBRANCH   8  28
TORSDOF 7
ENDMDL
MODEL 3
REMARK VINA RESULT:    -7.336      1.384      6.934
REMARK INTER + INTRA:          -8.800
REMARK INTER:                  -8.433
REMARK INTRA:                  -0.366
REMARK UNBOUND:                 0.252
REMARK SMILES O=c1c(O)c(-c2cc(O)c(O)c(O)c2)oc2cc(O)cc(O)c12
REMARK SMILES IDX 5 1 3 2 2 3 1 4 23 5 21 6 20 7 18 8 17 9 16 10 15 11 6 12
REMARK SMILES IDX 7 13 8 14 14 15 10 16 12 17 9 18 11 20 13 22 4 24 22 26
REMARK SMILES IDX 19 28
REMARK H PARENT 9 19 11 21 13 23 4 25 22 27 19 29
REMARK Flexibility Score: inf
ROOT
ATOM      1  C   UNL     1       9.937  -2.586   4.574  1.00  0.00     0.180 A 
ATOM      2  C   UNL     1       9.540  -3.905   4.853  1.00  0.00     0.208 A 
ATOM      3  C   UNL     1       9.872  -4.467   6.096  1.00  0.00     0.238 A 
ATOM      4  O   UNL     1       9.466  -5.629   6.361  1.00  0.00    -0.285 OA
ATOM      5  C   UNL     1      10.610  -3.710   7.037  1.00  0.00     0.111 A 
ATOM      6  C   UNL     1      11.036  -4.194   8.311  1.00  0.00     0.134 A 
ATOM      7  C   UNL     1      11.648  -3.315   9.213  1.00  0.00     0.093 A 
ATOM      8  C   UNL     1      11.909  -1.988   8.863  1.00  0.00     0.123 A 
ATOM      9  C   UNL     1      11.551  -1.522   7.599  1.00  0.00     0.094 A 
ATOM     10  C   UNL     1      10.906  -2.366   6.691  1.00  0.00     0.146 A 
ATOM     11  O   UNL     1      10.572  -1.880   5.501  1.00  0.00    -0.452 OA
ENDROOT
BRANCH   1  12
ATOM     12  C   UNL     1       9.645  -1.934   3.276  1.00  0.00     0.029 A 
ATOM     13  C   UNL     1       8.522  -1.101   3.159  1.00  0.00     0.062 A 
ATOM     14  C   UNL     1       8.235  -0.455   1.948  1.00  0.00     0.162 A 
ATOM     15  C   UNL     1      10.503  -2.084   2.173  1.00  0.00     0.062 A 
ATOM     16  C   UNL     1       9.086  -0.628   0.844  1.00  0.00     0.200 A 
ATOM     17  C   UNL     1      10.222  -1.440   0.961  1.00  0.00     0.162 A 
BRANCH  14  18
ATOM     18  O   UNL     1       7.108   0.358   1.839  1.00  0.00    -0.504 OA
ATOM     19  H   UNL     1       6.924   0.901   1.004  1.00  0.00     0.293 HD
ENDBRANCH  14  18
BRANCH  16  20
ATOM     20  O   UNL     1       8.821   0.002  -0.372  1.00  0.00    -0.502 OA
ATOM     21  H   UNL     1       7.892   0.027  -0.774  1.00  0.00     0.293 HD
ENDBRANCH  16  20
BRANCH  17  22
ATOM     22  O   UNL     1      11.072  -1.597  -0.133  1.00  0.00    -0.504 OA
ATOM     23  H   UNL     1      11.569  -0.812  -0.537  1.00  0.00     0.293 HD
ENDBRANCH  17  22
ENDBRANCH   1  12
BRANCH   2  24
ATOM     24  O   UNL     1       8.792  -4.627   3.919  1.00  0.00    -0.502 OA
ATOM     25  H   UNL     1       7.827  -4.405   3.705  1.00  0.00     0.293 HD
ENDBRANCH   2  24
BRANCH   6  26
ATOM     26  O   UNL     1      10.907  -5.522   8.725  1.00  0.00    -0.507 OA
ATOM     27  H   UNL     1      10.140  -6.128   8.478  1.00  0.00     0.293 HD
ENDBRANCH   6  26
BRANCH   8  28
ATOM     28  O   UNL     1      12.533  -1.124   9.761  1.00  0.00    -0.508 OA
ATOM     29  H   UNL     1      13.419  -1.358  10.192  1.00  0.00     0.293 HD
ENDBRANCH   8  28
TORSDOF 7
ENDMDL
MODEL 4
REMARK VINA RESULT:    -7.292      1.049      6.966
REMARK INTER + INTRA:          -8.746
REMARK INTER:                  -8.922
REMARK INTRA:                   0.177
REMARK UNBOUND:                 0.252
REMARK SMILES O=c1c(O)c(-c2cc(O)c(O)c(O)c2)oc2cc(O)cc(O)c12
REMARK SMILES IDX 5 1 3 2 2 3 1 4 23 5 21 6 20 7 18 8 17 9 16 10 15 11 6 12
REMARK SMILES IDX 7 13 8 14 14 15 10 16 12 17 9 18 11 20 13 22 4 24 22 26
REMARK SMILES IDX 19 28
REMARK H PARENT 9 19 11 21 13 23 4 25 22 27 19 29
REMARK Flexibility Score: inf
ROOT
ATOM      1  C   UNL     1       9.789  -2.540   4.883  1.00  0.00     0.180 A 
ATOM      2  C   UNL     1       9.389  -3.851   5.192  1.00  0.00     0.208 A 
ATOM      3  C   UNL     1       9.779  -4.410   6.421  1.00  0.00     0.238 A 
ATOM      4  O   UNL     1       9.372  -5.564   6.715  1.00  0.00    -0.285 OA
ATOM      5  C   UNL     1      10.578  -3.657   7.314  1.00  0.00     0.111 A 
ATOM      6  C   UNL     1      11.065  -4.139   8.567  1.00  0.00     0.134 A 
ATOM      7  C   UNL     1      11.737  -3.263   9.429  1.00  0.00     0.093 A 
ATOM      8  C   UNL     1      11.997  -1.942   9.055  1.00  0.00     0.123 A 
ATOM      9  C   UNL     1      11.578  -1.480   7.810  1.00  0.00     0.094 A 
ATOM     10  C   UNL     1      10.873  -2.320   6.943  1.00  0.00     0.146 A 
ATOM     11  O   UNL     1      10.483  -1.837   5.770  1.00  0.00    -0.452 OA
ENDROOT
BRANCH   1  12
ATOM     12  C   UNL     1       9.438  -1.892   3.598  1.00  0.00     0.029 A 
ATOM     13  C   UNL     1      10.382  -1.075   2.955  1.00  0.00     0.062 A 
ATOM     14  C   UNL     1      10.082  -0.467   1.729  1.00  0.00     0.162 A 
ATOM     15  C   UNL     1       8.199  -2.124   2.977  1.00  0.00     0.062 A 
ATOM     16  C   UNL     1       8.833  -0.688   1.126  1.00  0.00     0.200 A 
ATOM     17  C   UNL     1       7.895  -1.521   1.749  1.00  0.00     0.162 A 
BRANCH  14  18
ATOM     18  O   UNL     1      11.021   0.355   1.108  1.00  0.00    -0.504 OA
ATOM     19  H   UNL     1      10.775   1.273   0.759  1.00  0.00     0.293 HD
ENDBRANCH  14  18
BRANCH  16  20
ATOM     20  O   UNL     1       8.510  -0.092  -0.094  1.00  0.00    -0.502 OA
ATOM     21  H   UNL     1       7.575  -0.129  -0.481  1.00  0.00     0.293 HD
ENDBRANCH  16  20
BRANCH  17  22
ATOM     22  O   UNL     1       6.662  -1.748   1.140  1.00  0.00    -0.504 OA
ATOM     23  H   UNL     1       6.344  -2.684   0.917  1.00  0.00     0.293 HD
ENDBRANCH  17  22
ENDBRANCH   1  12
BRANCH   2  24
ATOM     24  O   UNL     1       8.582  -4.568   4.305  1.00  0.00    -0.502 OA
ATOM     25  H   UNL     1       7.933  -4.115   3.672  1.00  0.00     0.293 HD
ENDBRANCH   2  24
BRANCH   6  26
ATOM     26  O   UNL     1      10.939  -5.463   8.997  1.00  0.00    -0.507 OA
ATOM     27  H   UNL     1      10.121  -5.845   9.445  1.00  0.00     0.293 HD
ENDBRANCH   6  26
BRANCH   8  28
ATOM     28  O   UNL     1      12.681  -1.082   9.913  1.00  0.00    -0.508 OA
ATOM     29  H   UNL     1      12.443  -0.099   9.976  1.00  0.00     0.293 HD
ENDBRANCH   8  28
TORSDOF 7
ENDMDL
MODEL 5
REMARK VINA RESULT:    -7.022      3.335      5.186
REMARK INTER + INTRA:          -8.412
REMARK INTER:                  -8.080
REMARK INTRA:                  -0.332
REMARK UNBOUND:                 0.252
REMARK SMILES O=c1c(O)c(-c2cc(O)c(O)c(O)c2)oc2cc(O)cc(O)c12
REMARK SMILES IDX 5 1 3 2 2 3 1 4 23 5 21 6 20 7 18 8 17 9 16 10 15 11 6 12
REMARK SMILES IDX 7 13 8 14 14 15 10 16 12 17 9 18 11 20 13 22 4 24 22 26
REMARK SMILES IDX 19 28
REMARK H PARENT 9 19 11 21 13 23 4 25 22 27 19 29
REMARK Flexibility Score: inf
ROOT
ATOM      1  C   UNL     1       8.034  -5.213   6.001  1.00  0.00     0.180 A 
ATOM      2  C   UNL     1       9.088  -4.442   6.519  1.00  0.00     0.208 A 
ATOM      3  C   UNL     1       9.526  -3.317   5.799  1.00  0.00     0.238 A 
ATOM      4  O   UNL     1      10.433  -2.599   6.295  1.00  0.00    -0.285 OA
ATOM      5  C   UNL     1       8.915  -2.990   4.565  1.00  0.00     0.111 A 
ATOM      6  C   UNL     1       9.306  -1.897   3.734  1.00  0.00     0.134 A 
ATOM      7  C   UNL     1       8.547  -1.588   2.598  1.00  0.00     0.093 A 
ATOM      8  C   UNL     1       7.451  -2.372   2.228  1.00  0.00     0.123 A 
ATOM      9  C   UNL     1       7.098  -3.477   3.001  1.00  0.00     0.094 A 
ATOM     10  C   UNL     1       7.815  -3.788   4.160  1.00  0.00     0.146 A 
ATOM     11  O   UNL     1       7.439  -4.843   4.874  1.00  0.00    -0.452 OA
ENDROOT
BRANCH   1  12
ATOM     12  C   UNL     1       7.534  -6.427   6.689  1.00  0.00     0.029 A 
ATOM     13  C   UNL     1       6.617  -6.294   7.744  1.00  0.00     0.062 A 
ATOM     14  C   UNL     1       6.114  -7.427   8.397  1.00  0.00     0.162 A 
ATOM     15  C   UNL     1       7.914  -7.713   6.270  1.00  0.00     0.062 A 
ATOM     16  C   UNL     1       6.515  -8.708   7.986  1.00  0.00     0.200 A 
ATOM     17  C   UNL     1       7.412  -8.849   6.919  1.00  0.00     0.162 A 
BRANCH  14  18
ATOM     18  O   UNL     1       5.215  -7.282   9.454  1.00  0.00    -0.504 OA
ATOM     19  H   UNL     1       4.254  -7.595   9.380  1.00  0.00     0.293 HD
ENDBRANCH  14  18
BRANCH  16  20
ATOM     20  O   UNL     1       6.029  -9.851   8.622  1.00  0.00    -0.502 OA
ATOM     21  H   UNL     1       5.377 -10.481   8.172  1.00  0.00     0.293 HD
ENDBRANCH  16  20
BRANCH  17  22
ATOM     22  O   UNL     1       7.796 -10.124   6.505  1.00  0.00    -0.504 OA
ATOM     23  H   UNL     1       8.755 -10.440   6.582  1.00  0.00     0.293 HD
ENDBRANCH  17  22
ENDBRANCH   1  12
BRANCH   2  24
ATOM     24  O   UNL     1       9.662  -4.771   7.749  1.00  0.00    -0.502 OA
ATOM     25  H   UNL     1      10.621  -5.084   7.837  1.00  0.00     0.293 HD
ENDBRANCH   2  24
BRANCH   6  26
ATOM     26  O   UNL     1      10.436  -1.107   3.961  1.00  0.00    -0.507 OA
ATOM     27  H   UNL     1      11.313  -1.205   3.472  1.00  0.00     0.293 HD
ENDBRANCH   6  26
BRANCH   8  28
ATOM     28  O   UNL     1       6.710  -2.068   1.088  1.00  0.00    -0.508 OA
ATOM     29  H   UNL     1       5.853  -2.560   0.867  1.00  0.00     0.293 HD
ENDBRANCH   8  28
TORSDOF 7
ENDMDL
MODEL 6
REMARK VINA RESULT:    -6.991      1.946      2.602
REMARK INTER + INTRA:          -8.373
REMARK INTER:                  -8.011
REMARK INTRA:                  -0.362
REMARK UNBOUND:                 0.252
REMARK SMILES O=c1c(O)c(-c2cc(O)c(O)c(O)c2)oc2cc(O)cc(O)c12
REMARK SMILES IDX 5 1 3 2 2 3 1 4 23 5 21 6 20 7 18 8 17 9 16 10 15 11 6 12
REMARK SMILES IDX 7 13 8 14 14 15 10 16 12 17 9 18 11 20 13 22 4 24 22 26
REMARK SMILES IDX 19 28
REMARK H PARENT 9 19 11 21 13 23 4 25 22 27 19 29
REMARK Flexibility Score: inf
ROOT
ATOM      1  C   UNL     1      10.523  -3.239   4.811  1.00  0.00     0.180 A 
ATOM      2  C   UNL     1      10.911  -4.162   3.824  1.00  0.00     0.208 A 
ATOM      3  C   UNL     1      10.503  -3.950   2.497  1.00  0.00     0.238 A 
ATOM      4  O   UNL     1      10.899  -4.750   1.609  1.00  0.00    -0.285 OA
ATOM      5  C   UNL     1       9.699  -2.829   2.177  1.00  0.00     0.111 A 
ATOM      6  C   UNL     1       9.195  -2.540   0.873  1.00  0.00     0.134 A 
ATOM      7  C   UNL     1       8.520  -1.334   0.646  1.00  0.00     0.093 A 
ATOM      8  C   UNL     1       8.272  -0.439   1.690  1.00  0.00     0.123 A 
ATOM      9  C   UNL     1       8.709  -0.741   2.978  1.00  0.00     0.094 A 
ATOM     10  C   UNL     1       9.417  -1.919   3.228  1.00  0.00     0.146 A 
ATOM     11  O   UNL     1       9.824  -2.164   4.468  1.00  0.00    -0.452 OA
ENDROOT
BRANCH   1  12
ATOM     12  C   UNL     1      10.893  -3.408   6.236  1.00  0.00     0.029 A 
ATOM     13  C   UNL     1      12.000  -2.713   6.748  1.00  0.00     0.062 A 
ATOM     14  C   UNL     1      12.358  -2.839   8.097  1.00  0.00     0.162 A 
ATOM     15  C   UNL     1      10.125  -4.204   7.101  1.00  0.00     0.062 A 
ATOM     16  C   UNL     1      11.597  -3.654   8.951  1.00  0.00     0.200 A 
ATOM     17  C   UNL     1      10.478  -4.332   8.451  1.00  0.00     0.162 A 
BRANCH  14  18
ATOM     18  O   UNL     1      13.469  -2.156   8.592  1.00  0.00    -0.504 OA
ATOM     19  H   UNL     1      14.119  -1.682   7.976  1.00  0.00     0.293 HD
ENDBRANCH  14  18
BRANCH  16  20
ATOM     20  O   UNL     1      11.935  -3.797  10.297  1.00  0.00    -0.502 OA
ATOM     21  H   UNL     1      11.305  -3.528  11.042  1.00  0.00     0.293 HD
ENDBRANCH  16  20
BRANCH  17  22
ATOM     22  O   UNL     1       9.716  -5.129   9.305  1.00  0.00    -0.504 OA
ATOM     23  H   UNL     1       8.783  -5.434   9.056  1.00  0.00     0.293 HD
ENDBRANCH  17  22
ENDBRANCH   1  12
BRANCH   2  24
ATOM     24  O   UNL     1      11.722  -5.249   4.158  1.00  0.00    -0.502 OA
ATOM     25  H   UNL     1      11.713  -5.673   5.078  1.00  0.00     0.293 HD
ENDBRANCH   2  24
BRANCH   6  26
ATOM     26  O   UNL     1       9.307  -3.407  -0.218  1.00  0.00    -0.507 OA
ATOM     27  H   UNL     1       9.745  -4.315  -0.186  1.00  0.00     0.293 HD
ENDBRANCH   6  26
BRANCH   8  28
ATOM     28  O   UNL     1       7.586   0.751   1.459  1.00  0.00    -0.508 OA
ATOM     29  H   UNL     1       7.949   1.459   0.832  1.00  0.00     0.293 HD
ENDBRANCH   8  28
TORSDOF 7
ENDMDL
MODEL 7
REMARK VINA RESULT:    -6.982      1.976      7.009
REMARK INTER + INTRA:          -8.362
REMARK INTER:                  -8.237
REMARK INTRA:                  -0.125
REMARK UNBOUND:                 0.252
REMARK SMILES O=c1c(O)c(-c2cc(O)c(O)c(O)c2)oc2cc(O)cc(O)c12
REMARK SMILES IDX 5 1 3 2 2 3 1 4 23 5 21 6 20 7 18 8 17 9 16 10 15 11 6 12
REMARK SMILES IDX 7 13 8 14 14 15 10 16 12 17 9 18 11 20 13 22 4 24 22 26
REMARK SMILES IDX 19 28
REMARK H PARENT 9 19 11 21 13 23 4 25 22 27 19 29
REMARK Flexibility Score: inf
ROOT
ATOM      1  C   UNL     1       9.201  -2.818   4.475  1.00  0.00     0.180 A 
ATOM      2  C   UNL     1       9.717  -2.446   5.729  1.00  0.00     0.208 A 
ATOM      3  C   UNL     1       9.699  -3.382   6.777  1.00  0.00     0.238 A 
ATOM      4  O   UNL     1      10.212  -3.061   7.881  1.00  0.00    -0.285 OA
ATOM      5  C   UNL     1       9.152  -4.669   6.562  1.00  0.00     0.111 A 
ATOM      6  C   UNL     1       9.046  -5.682   7.564  1.00  0.00     0.134 A 
ATOM      7  C   UNL     1       8.607  -6.963   7.207  1.00  0.00     0.093 A 
ATOM      8  C   UNL     1       8.208  -7.249   5.898  1.00  0.00     0.123 A 
ATOM      9  C   UNL     1       8.251  -6.251   4.927  1.00  0.00     0.094 A 
ATOM     10  C   UNL     1       8.719  -4.974   5.245  1.00  0.00     0.146 A 
ATOM     11  O   UNL     1       8.754  -4.054   4.288  1.00  0.00    -0.452 OA
ENDROOT
BRANCH   1  12
ATOM     12  C   UNL     1       9.162  -1.880   3.330  1.00  0.00     0.029 A 
ATOM     13  C   UNL     1      10.363  -1.358   2.824  1.00  0.00     0.062 A 
ATOM     14  C   UNL     1      10.355  -0.484   1.728  1.00  0.00     0.162 A 
ATOM     15  C   UNL     1       7.952  -1.545   2.700  1.00  0.00     0.062 A 
ATOM     16  C   UNL     1       9.139  -0.138   1.118  1.00  0.00     0.200 A 
ATOM     17  C   UNL     1       7.938  -0.673   1.603  1.00  0.00     0.162 A 
BRANCH  14  18
ATOM     18  O   UNL     1      11.553   0.040   1.244  1.00  0.00    -0.504 OA
ATOM     19  H   UNL     1      12.104  -0.449   0.548  1.00  0.00     0.293 HD
ENDBRANCH  14  18
BRANCH  16  20
ATOM     20  O   UNL     1       9.105   0.731   0.027  1.00  0.00    -0.502 OA
ATOM     21  H   UNL     1       9.412   0.449  -0.896  1.00  0.00     0.293 HD
ENDBRANCH  16  20
BRANCH  17  22
ATOM     22  O   UNL     1       6.734  -0.338   0.985  1.00  0.00    -0.504 OA
ATOM     23  H   UNL     1       6.705   0.260   0.168  1.00  0.00     0.293 HD
ENDBRANCH  17  22
ENDBRANCH   1  12
BRANCH   2  24
ATOM     24  O   UNL     1      10.272  -1.178   5.913  1.00  0.00    -0.502 OA
ATOM     25  H   UNL     1      10.025  -0.386   5.331  1.00  0.00     0.293 HD
ENDBRANCH   2  24
BRANCH   6  26
ATOM     26  O   UNL     1       9.331  -5.475   8.916  1.00  0.00    -0.507 OA
ATOM     27  H   UNL     1      10.231  -5.200   9.277  1.00  0.00     0.293 HD
ENDBRANCH   6  26
BRANCH   8  28
ATOM     28  O   UNL     1       7.758  -8.522   5.555  1.00  0.00    -0.508 OA
ATOM     29  H   UNL     1       6.869  -8.662   5.089  1.00  0.00     0.293 HD
ENDBRANCH   8  28
TORSDOF 7
ENDMDL
MODEL 8
REMARK VINA RESULT:    -6.937      2.974      7.235
REMARK INTER + INTRA:          -8.307
REMARK INTER:                  -8.154
REMARK INTRA:                  -0.153
REMARK UNBOUND:                 0.252
REMARK SMILES O=c1c(O)c(-c2cc(O)c(O)c(O)c2)oc2cc(O)cc(O)c12
REMARK SMILES IDX 5 1 3 2 2 3 1 4 23 5 21 6 20 7 18 8 17 9 16 10 15 11 6 12
REMARK SMILES IDX 7 13 8 14 14 15 10 16 12 17 9 18 11 20 13 22 4 24 22 26
REMARK SMILES IDX 19 28
REMARK H PARENT 9 19 11 21 13 23 4 25 22 27 19 29
REMARK Flexibility Score: inf
ROOT
ATOM      1  C   UNL     1       8.146  -4.853   5.381  1.00  0.00     0.180 A 
ATOM      2  C   UNL     1       7.011  -5.148   6.156  1.00  0.00     0.208 A 
ATOM      3  C   UNL     1       7.096  -6.154   7.132  1.00  0.00     0.238 A 
ATOM      4  O   UNL     1       6.093  -6.376   7.860  1.00  0.00    -0.285 OA
ATOM      5  C   UNL     1       8.309  -6.862   7.309  1.00  0.00     0.111 A 
ATOM      6  C   UNL     1       8.495  -7.929   8.240  1.00  0.00     0.134 A 
ATOM      7  C   UNL     1       9.774  -8.471   8.422  1.00  0.00     0.093 A 
ATOM      8  C   UNL     1      10.858  -8.030   7.659  1.00  0.00     0.123 A 
ATOM      9  C   UNL     1      10.673  -7.032   6.705  1.00  0.00     0.094 A 
ATOM     10  C   UNL     1       9.417  -6.446   6.527  1.00  0.00     0.146 A 
ATOM     11  O   UNL     1       9.286  -5.490   5.615  1.00  0.00    -0.452 OA
ENDROOT
BRANCH   1  12
ATOM     12  C   UNL     1       8.126  -3.823   4.316  1.00  0.00     0.029 A 
ATOM     13  C   UNL     1       9.062  -2.778   4.349  1.00  0.00     0.062 A 
ATOM     14  C   UNL     1       9.079  -1.802   3.342  1.00  0.00     0.162 A 
ATOM     15  C   UNL     1       7.227  -3.902   3.239  1.00  0.00     0.062 A 
ATOM     16  C   UNL     1       8.162  -1.877   2.281  1.00  0.00     0.200 A 
ATOM     17  C   UNL     1       7.240  -2.931   2.229  1.00  0.00     0.162 A 
BRANCH  14  18
ATOM     18  O   UNL     1      10.003  -0.760   3.394  1.00  0.00    -0.504 OA
ATOM     19  H   UNL     1      10.654  -0.666   4.164  1.00  0.00     0.293 HD
ENDBRANCH  14  18
BRANCH  16  20
ATOM     20  O   UNL     1       8.157  -0.918   1.269  1.00  0.00    -0.502 OA
ATOM     21  H   UNL     1       7.406  -0.852   0.593  1.00  0.00     0.293 HD
ENDBRANCH  16  20
BRANCH  17  22
ATOM     22  O   UNL     1       6.341  -3.009   1.166  1.00  0.00    -0.504 OA
ATOM     23  H   UNL     1       5.553  -2.378   1.090  1.00  0.00     0.293 HD
ENDBRANCH  17  22
ENDBRANCH   1  12
BRANCH   2  24
ATOM     24  O   UNL     1       5.831  -4.421   5.980  1.00  0.00    -0.502 OA
ATOM     25  H   UNL     1       5.152  -4.650   5.265  1.00  0.00     0.293 HD
ENDBRANCH   2  24
BRANCH   6  26
ATOM     26  O   UNL     1       7.462  -8.504   8.986  1.00  0.00    -0.507 OA
ATOM     27  H   UNL     1       7.589  -8.996   9.857  1.00  0.00     0.293 HD
ENDBRANCH   6  26
BRANCH   8  28
ATOM     28  O   UNL     1      12.124  -8.586   7.835  1.00  0.00    -0.508 OA
ATOM     29  H   UNL     1      12.965  -8.066   7.617  1.00  0.00     0.293 HD
ENDBRANCH   8  28
TORSDOF 7
ENDMDL
MODEL 9
REMARK VINA RESULT:    -6.844      2.113      6.912
REMARK INTER + INTRA:          -8.192
REMARK INTER:                  -7.870
REMARK INTRA:                  -0.322
REMARK UNBOUND:                 0.252
REMARK SMILES O=c1c(O)c(-c2cc(O)c(O)c(O)c2)oc2cc(O)cc(O)c12
REMARK SMILES IDX 5 1 3 2 2 3 1 4 23 5 21 6 20 7 18 8 17 9 16 10 15 11 6 12
REMARK SMILES IDX 7 13 8 14 14 15 10 16 12 17 9 18 11 20 13 22 4 24 22 26
REMARK SMILES IDX 19 28
REMARK H PARENT 9 19 11 21 13 23 4 25 22 27 19 29
REMARK Flexibility Score: inf
ROOT
ATOM      1  C   UNL     1       9.227  -4.352   5.052  1.00  0.00     0.180 A 
ATOM      2  C   UNL     1       8.566  -5.173   5.982  1.00  0.00     0.208 A 
ATOM      3  C   UNL     1       8.974  -5.144   7.326  1.00  0.00     0.238 A 
ATOM      4  O   UNL     1       8.343  -5.840   8.164  1.00  0.00    -0.285 OA
ATOM      5  C   UNL     1      10.047  -4.308   7.719  1.00  0.00     0.111 A 
ATOM      6  C   UNL     1      10.569  -4.229   9.045  1.00  0.00     0.134 A 
ATOM      7  C   UNL     1      11.545  -3.272   9.347  1.00  0.00     0.093 A 
ATOM      8  C   UNL     1      12.065  -2.435   8.356  1.00  0.00     0.123 A 
ATOM      9  C   UNL     1      11.604  -2.545   7.046  1.00  0.00     0.094 A 
ATOM     10  C   UNL     1      10.604  -3.466   6.722  1.00  0.00     0.146 A 
ATOM     11  O   UNL     1      10.186  -3.532   5.464  1.00  0.00    -0.452 OA
ENDROOT
BRANCH   1  12
ATOM     12  C   UNL     1       8.871  -4.347   3.614  1.00  0.00     0.029 A 
ATOM     13  C   UNL     1       9.628  -5.110   2.712  1.00  0.00     0.062 A 
ATOM     14  C   UNL     1       9.300  -5.139   1.350  1.00  0.00     0.162 A 
ATOM     15  C   UNL     1       7.754  -3.639   3.141  1.00  0.00     0.062 A 
ATOM     16  C   UNL     1       8.194  -4.411   0.882  1.00  0.00     0.200 A 
ATOM     17  C   UNL     1       7.419  -3.665   1.780  1.00  0.00     0.162 A 
BRANCH  14  18
ATOM     18  O   UNL     1      10.069  -5.889   0.461  1.00  0.00    -0.504 OA
ATOM     19  H   UNL     1       9.682  -6.680  -0.039  1.00  0.00     0.293 HD
ENDBRANCH  14  18
BRANCH  16  20
ATOM     20  O   UNL     1       7.847  -4.422  -0.469  1.00  0.00    -0.502 OA
ATOM     21  H   UNL     1       8.413  -3.965  -1.174  1.00  0.00     0.293 HD
ENDBRANCH  16  20
BRANCH  17  22
ATOM     22  O   UNL     1       6.313  -2.955   1.314  1.00  0.00    -0.504 OA
ATOM     23  H   UNL     1       6.413  -2.186   0.663  1.00  0.00     0.293 HD
ENDBRANCH  17  22
ENDBRANCH   1  12
BRANCH   2  24
ATOM     24  O   UNL     1       7.496  -5.974   5.578  1.00  0.00    -0.502 OA
ATOM     25  H   UNL     1       6.547  -5.626   5.520  1.00  0.00     0.293 HD
ENDBRANCH   2  24
BRANCH   6  26
ATOM     26  O   UNL     1      10.186  -5.079  10.087  1.00  0.00    -0.507 OA
ATOM     27  H   UNL     1       9.517  -5.829   9.999  1.00  0.00     0.293 HD
ENDBRANCH   6  26
BRANCH   8  28
ATOM     28  O   UNL     1      13.048  -1.496   8.661  1.00  0.00    -0.508 OA
ATOM     29  H   UNL     1      12.866  -0.725   9.293  1.00  0.00     0.293 HD
ENDBRANCH   8  28
TORSDOF 7
ENDMDL
