MODEL 1
REMARK VINA RESULT:    -4.335      0.000      0.000
REMARK INTER + INTRA:          -5.573
REMARK INTER:                  -5.349
REMARK INTRA:                  -0.224
REMARK UNBOUND:                -0.224
REMARK SMILES COC(=O)c1ccccc1C(=O)OC
REMARK SMILES IDX 5 1 6 2 7 3 8 4 9 5 10 6 3 7 4 8 2 9 1 10 11 11 12 12 13 13
REMARK SMILES IDX 14 14
REMARK H PARENT
REMARK Flexibility Score: inf
ROOT
ATOM      1  C   UNL     1      26.277  40.022  20.480  1.00  0.00     0.074 A 
ATOM      2  C   UNL     1      26.044  41.147  21.293  1.00  0.00     0.016 A 
ATOM      3  C   UNL     1      26.403  42.425  20.864  1.00  0.00     0.001 A 
ATOM      4  C   UNL     1      26.999  42.600  19.617  1.00  0.00     0.001 A 
ATOM      5  C   UNL     1      27.260  41.497  18.803  1.00  0.00     0.016 A 
ATOM      6  C   UNL     1      26.928  40.196  19.226  1.00  0.00     0.074 A 
ENDROOT
BRANCH   1   7
ATOM      7  C   UNL     1      25.769  38.713  20.949  1.00  0.00     0.338 C 
ATOM      8  O   UNL     1      26.573  37.815  21.325  1.00  0.00    -0.246 OA
BRANCH   7   9
ATOM      9  O   UNL     1      24.394  38.455  20.918  1.00  0.00    -0.465 OA
ATOM     10  C   UNL     1      23.852  37.156  21.124  1.00  0.00     0.282 C 
ENDBRANCH   7   9
ENDBRANCH   1   7
BRANCH   6  11
ATOM     11  C   UNL     1      27.337  39.064  18.364  1.00  0.00     0.338 C 
ATOM     12  O   UNL     1      26.482  38.457  17.662  1.00  0.00    -0.246 OA
BRANCH  11  13
ATOM     13  O   UNL     1      28.668  38.634  18.378  1.00  0.00    -0.465 OA
ATOM     14  C   UNL     1      29.050  37.341  18.831  1.00  0.00     0.282 C 
ENDBRANCH  11  13
ENDBRANCH   6  11
TORSDOF 4
ENDMDL
MODEL 2
REMARK VINA RESULT:    -4.242      0.095      3.637
REMARK INTER + INTRA:          -5.458
REMARK INTER:                  -5.236
REMARK INTRA:                  -0.222
REMARK UNBOUND:                -0.224
REMARK SMILES COC(=O)c1ccccc1C(=O)OC
REMARK SMILES IDX 5 1 6 2 7 3 8 4 9 5 10 6 3 7 4 8 2 9 1 10 11 11 12 12 13 13
REMARK SMILES IDX 14 14
REMARK H PARENT
REMARK Flexibility Score: inf
ROOT
ATOM      1  C   UNL     1      26.938  40.231  19.179  1.00  0.00     0.074 A 
ATOM      2  C   UNL     1      27.250  41.543  18.778  1.00  0.00     0.016 A 
ATOM      3  C   UNL     1      26.992  42.627  19.617  1.00  0.00     0.001 A 
ATOM      4  C   UNL     1      26.420  42.419  20.870  1.00  0.00     0.001 A 
ATOM      5  C   UNL     1      26.082  41.129  21.280  1.00  0.00     0.016 A 
ATOM      6  C   UNL     1      26.311  40.023  20.441  1.00  0.00     0.074 A 
ENDROOT
BRANCH   1   7
ATOM      7  C   UNL     1      27.341  39.120  18.288  1.00  0.00     0.338 C 
ATOM      8  O   UNL     1      26.475  38.500  17.611  1.00  0.00    -0.246 OA
BRANCH   7   9
ATOM      9  O   UNL     1      28.683  38.724  18.244  1.00  0.00    -0.465 OA
ATOM     10  C   UNL     1      29.125  37.460  18.725  1.00  0.00     0.282 C 
ENDBRANCH   7   9
ENDBRANCH   1   7
BRANCH   6  11
ATOM     11  C   UNL     1      25.823  38.700  20.892  1.00  0.00     0.338 C 
ATOM     12  O   UNL     1      26.640  37.809  21.252  1.00  0.00    -0.246 OA
BRANCH  11  13
ATOM     13  O   UNL     1      24.452  38.425  20.861  1.00  0.00    -0.465 OA
ATOM     14  C   UNL     1      23.914  37.167  21.251  1.00  0.00     0.282 C 
ENDBRANCH  11  13
ENDBRANCH   6  11
TORSDOF 4
ENDMDL
MODEL 3
REMARK VINA RESULT:    -3.860      8.686     10.682
REMARK INTER + INTRA:          -4.987
REMARK INTER:                  -5.035
REMARK INTRA:                   0.048
REMARK UNBOUND:                -0.224
REMARK SMILES COC(=O)c1ccccc1C(=O)OC
REMARK SMILES IDX 5 1 6 2 7 3 8 4 9 5 10 6 3 7 4 8 2 9 1 10 11 11 12 12 13 13
REMARK SMILES IDX 14 14
REMARK H PARENT
REMARK Flexibility Score: inf
ROOT
ATOM      1  C   UNL     1      28.172  29.667  24.726  1.00  0.00     0.074 A 
ATOM      2  C   UNL     1      28.332  28.813  25.833  1.00  0.00     0.016 A 
ATOM      3  C   UNL     1      28.805  29.302  27.051  1.00  0.00     0.001 A 
ATOM      4  C   UNL     1      29.125  30.652  27.184  1.00  0.00     0.001 A 
ATOM      5  C   UNL     1      28.995  31.513  26.094  1.00  0.00     0.016 A 
ATOM      6  C   UNL     1      28.542  31.037  24.850  1.00  0.00     0.074 A 
ENDROOT
BRANCH   1   7
ATOM      7  C   UNL     1      27.560  29.105  23.501  1.00  0.00     0.338 C 
ATOM      8  O   UNL     1      28.288  28.686  22.559  1.00  0.00    -0.246 OA
BRANCH   7   9
ATOM      9  O   UNL     1      26.167  29.095  23.368  1.00  0.00    -0.465 OA
ATOM     10  C   UNL     1      25.310  29.846  24.220  1.00  0.00     0.282 C 
ENDBRANCH   7   9
ENDBRANCH   1   7
BRANCH   6  11
ATOM     11  C   UNL     1      28.537  31.980  23.708  1.00  0.00     0.338 C 
ATOM     12  O   UNL     1      29.123  31.680  22.632  1.00  0.00    -0.246 OA
BRANCH  11  13
ATOM     13  O   UNL     1      27.928  33.232  23.852  1.00  0.00    -0.465 OA
ATOM     14  C   UNL     1      28.084  34.273  22.896  1.00  0.00     0.282 C 
ENDBRANCH  11  13
ENDBRANCH   6  11
TORSDOF 4
ENDMDL
MODEL 4
REMARK VINA RESULT:    -3.749      8.736     10.815
REMARK INTER + INTRA:          -4.850
REMARK INTER:                  -4.887
REMARK INTRA:                   0.037
REMARK UNBOUND:                -0.224
REMARK SMILES COC(=O)c1ccccc1C(=O)OC
REMARK SMILES IDX 5 1 6 2 7 3 8 4 9 5 10 6 3 7 4 8 2 9 1 10 11 11 12 12 13 13
REMARK SMILES IDX 14 14
REMARK H PARENT
REMARK Flexibility Score: inf
ROOT
ATOM      1  C   UNL     1      28.395  31.104  25.003  1.00  0.00     0.074 A 
ATOM      2  C   UNL     1      28.982  31.528  26.209  1.00  0.00     0.016 A 
ATOM      3  C   UNL     1      29.125  30.649  27.283  1.00  0.00     0.001 A 
ATOM      4  C   UNL     1      28.685  29.332  27.169  1.00  0.00     0.001 A 
ATOM      5  C   UNL     1      28.079  28.895  25.991  1.00  0.00     0.016 A 
ATOM      6  C   UNL     1      27.904  29.771  24.903  1.00  0.00     0.074 A 
ENDROOT
BRANCH   1   7
ATOM      7  C   UNL     1      28.378  32.056  23.869  1.00  0.00     0.338 C 
ATOM      8  O   UNL     1      28.879  31.731  22.757  1.00  0.00    -0.246 OA
BRANCH   7   9
ATOM      9  O   UNL     1      27.857  33.341  24.055  1.00  0.00    -0.465 OA
ATOM     10  C   UNL     1      27.945  34.356  23.063  1.00  0.00     0.282 C 
ENDBRANCH   7   9
ENDBRANCH   1   7
BRANCH   6  11
ATOM     11  C   UNL     1      27.152  29.274  23.729  1.00  0.00     0.338 C 
ATOM     12  O   UNL     1      25.930  29.553  23.590  1.00  0.00    -0.246 OA
BRANCH  11  13
ATOM     13  O   UNL     1      27.792  28.443  22.803  1.00  0.00    -0.465 OA
ATOM     14  C   UNL     1      29.124  28.672  22.360  1.00  0.00     0.282 C 
ENDBRANCH  11  13
ENDBRANCH   6  11
TORSDOF 4
ENDMDL
MODEL 5
REMARK VINA RESULT:    -3.689      1.573      3.683
REMARK INTER + INTRA:          -4.776
REMARK INTER:                  -4.629
REMARK INTRA:                  -0.147
REMARK UNBOUND:                -0.224
REMARK SMILES COC(=O)c1ccccc1C(=O)OC
REMARK SMILES IDX 5 1 6 2 7 3 8 4 9 5 10 6 3 7 4 8 2 9 1 10 11 11 12 12 13 13
REMARK SMILES IDX 14 14
REMARK H PARENT
REMARK Flexibility Score: inf
ROOT
ATOM      1  C   UNL     1      26.720  37.380  20.493  1.00  0.00     0.074 A 
ATOM      2  C   UNL     1      27.006  36.205  21.213  1.00  0.00     0.016 A 
ATOM      3  C   UNL     1      28.198  35.512  21.004  1.00  0.00     0.001 A 
ATOM      4  C   UNL     1      29.125  35.981  20.075  1.00  0.00     0.001 A 
ATOM      5  C   UNL     1      28.853  37.131  19.335  1.00  0.00     0.016 A 
ATOM      6  C   UNL     1      27.647  37.834  19.511  1.00  0.00     0.074 A 
ENDROOT
BRANCH   1   7
ATOM      7  C   UNL     1      25.490  38.125  20.845  1.00  0.00     0.338 C 
ATOM      8  O   UNL     1      25.555  39.340  21.180  1.00  0.00    -0.246 OA
BRANCH   7   9
ATOM      9  O   UNL     1      24.260  37.457  20.862  1.00  0.00    -0.465 OA
ATOM     10  C   UNL     1      23.053  38.084  21.277  1.00  0.00     0.282 C 
ENDBRANCH   7   9
ENDBRANCH   1   7
BRANCH   6  11
ATOM     11  C   UNL     1      27.374  38.978  18.612  1.00  0.00     0.338 C 
ATOM     12  O   UNL     1      26.644  38.828  17.594  1.00  0.00    -0.246 OA
BRANCH  11  13
ATOM     13  O   UNL     1      27.979  40.213  18.867  1.00  0.00    -0.465 OA
ATOM     14  C   UNL     1      27.237  41.420  18.985  1.00  0.00     0.282 C 
ENDBRANCH  11  13
ENDBRANCH   6  11
TORSDOF 4
ENDMDL
MODEL 6
REMARK VINA RESULT:    -3.527      1.940      4.090
REMARK INTER + INTRA:          -4.576
REMARK INTER:                  -4.265
REMARK INTRA:                  -0.311
REMARK UNBOUND:                -0.224
REMARK SMILES COC(=O)c1ccccc1C(=O)OC
REMARK SMILES IDX 5 1 6 2 7 3 8 4 9 5 10 6 3 7 4 8 2 9 1 10 11 11 12 12 13 13
REMARK SMILES IDX 14 14
REMARK H PARENT
REMARK Flexibility Score: inf
ROOT
ATOM      1  C   UNL     1      27.769  39.735  20.330  1.00  0.00     0.074 A 
ATOM      2  C   UNL     1      28.788  40.131  19.443  1.00  0.00     0.016 A 
ATOM      3  C   UNL     1      29.125  39.341  18.343  1.00  0.00     0.001 A 
ATOM      4  C   UNL     1      28.450  38.144  18.111  1.00  0.00     0.001 A 
ATOM      5  C   UNL     1      27.452  37.721  18.989  1.00  0.00     0.016 A 
ATOM      6  C   UNL     1      27.111  38.491  20.117  1.00  0.00     0.074 A 
ENDROOT
BRANCH   1   7
ATOM      7  C   UNL     1      27.388  40.675  21.408  1.00  0.00     0.338 C 
ATOM      8  O   UNL     1      28.102  40.778  22.444  1.00  0.00    -0.246 OA
BRANCH   7   9
ATOM      9  O   UNL     1      26.200  41.405  21.299  1.00  0.00    -0.465 OA
ATOM     10  C   UNL     1      26.169  42.761  20.871  1.00  0.00     0.282 C 
ENDBRANCH   7   9
ENDBRANCH   1   7
BRANCH   6  11
ATOM     11  C   UNL     1      26.125  37.927  21.067  1.00  0.00     0.338 C 
ATOM     12  O   UNL     1      26.490  37.101  21.948  1.00  0.00    -0.246 OA
BRANCH  11  13
ATOM     13  O   UNL     1      24.775  38.272  20.943  1.00  0.00    -0.465 OA
ATOM     14  C   UNL     1      23.722  37.359  21.224  1.00  0.00     0.282 C 
ENDBRANCH  11  13
ENDBRANCH   6  11
TORSDOF 4
ENDMDL
MODEL 7
REMARK VINA RESULT:    -3.509      1.923      3.601
REMARK INTER + INTRA:          -4.553
REMARK INTER:                  -4.240
REMARK INTRA:                  -0.313
REMARK UNBOUND:                -0.224
REMARK SMILES COC(=O)c1ccccc1C(=O)OC
REMARK SMILES IDX 5 1 6 2 7 3 8 4 9 5 10 6 3 7 4 8 2 9 1 10 11 11 12 12 13 13
REMARK SMILES IDX 14 14
REMARK H PARENT
REMARK Flexibility Score: inf
ROOT
ATOM      1  C   UNL     1      27.112  38.661  20.072  1.00  0.00     0.074 A 
ATOM      2  C   UNL     1      27.377  37.994  18.862  1.00  0.00     0.016 A 
ATOM      3  C   UNL     1      28.375  38.448  18.000  1.00  0.00     0.001 A 
ATOM      4  C   UNL     1      29.125  39.574  18.331  1.00  0.00     0.001 A 
ATOM      5  C   UNL     1      28.865  40.264  19.516  1.00  0.00     0.016 A 
ATOM      6  C   UNL     1      27.848  39.838  20.389  1.00  0.00     0.074 A 
ENDROOT
BRANCH   1   7
ATOM      7  C   UNL     1      26.118  38.060  20.991  1.00  0.00     0.338 C 
ATOM      8  O   UNL     1      26.470  37.175  21.819  1.00  0.00    -0.246 OA
BRANCH   7   9
ATOM      9  O   UNL     1      24.774  38.436  20.894  1.00  0.00    -0.465 OA
ATOM     10  C   UNL     1      23.705  37.545  21.187  1.00  0.00     0.282 C 
ENDBRANCH   7   9
ENDBRANCH   1   7
BRANCH   6  11
ATOM     11  C   UNL     1      27.550  40.682  21.569  1.00  0.00     0.338 C 
ATOM     12  O   UNL     1      28.330  40.689  22.560  1.00  0.00    -0.246 OA
BRANCH  11  13
ATOM     13  O   UNL     1      26.368  41.429  21.600  1.00  0.00    -0.465 OA
ATOM     14  C   UNL     1      26.222  42.664  20.909  1.00  0.00     0.282 C 
ENDBRANCH  11  13
ENDBRANCH   6  11
TORSDOF 4
ENDMDL
MODEL 8
REMARK VINA RESULT:    -3.465     10.561     12.437
REMARK INTER + INTRA:          -4.499
REMARK INTER:                  -4.207
REMARK INTRA:                  -0.292
REMARK UNBOUND:                -0.224
REMARK SMILES COC(=O)c1ccccc1C(=O)OC
REMARK SMILES IDX 5 1 6 2 7 3 8 4 9 5 10 6 3 7 4 8 2 9 1 10 11 11 12 12 13 13
REMARK SMILES IDX 14 14
REMARK H PARENT
REMARK Flexibility Score: inf
ROOT
ATOM      1  C   UNL     1      28.182  29.542  24.590  1.00  0.00     0.074 A 
ATOM      2  C   UNL     1      28.395  30.930  24.680  1.00  0.00     0.016 A 
ATOM      3  C   UNL     1      28.862  31.506  25.862  1.00  0.00     0.001 A 
ATOM      4  C   UNL     1      29.125  30.706  26.972  1.00  0.00     0.001 A 
ATOM      5  C   UNL     1      28.901  29.330  26.913  1.00  0.00     0.016 A 
ATOM      6  C   UNL     1      28.408  28.731  25.739  1.00  0.00     0.074 A 
ENDROOT
BRANCH   1   7
ATOM      7  C   UNL     1      27.795  28.985  23.274  1.00  0.00     0.338 C 
ATOM      8  O   UNL     1      28.673  28.745  22.400  1.00  0.00    -0.246 OA
BRANCH   7   9
ATOM      9  O   UNL     1      26.441  28.782  22.983  1.00  0.00    -0.465 OA
ATOM     10  C   UNL     1      25.396  29.381  23.739  1.00  0.00     0.282 C 
ENDBRANCH   7   9
ENDBRANCH   1   7
BRANCH   6  11
ATOM     11  C   UNL     1      28.085  27.287  25.783  1.00  0.00     0.338 C 
ATOM     12  O   UNL     1      26.889  26.905  25.910  1.00  0.00    -0.246 OA
BRANCH  11  13
ATOM     13  O   UNL     1      29.121  26.348  25.741  1.00  0.00    -0.465 OA
ATOM     14  C   UNL     1      28.944  24.993  26.134  1.00  0.00     0.282 C 
ENDBRANCH  11  13
ENDBRANCH   6  11
TORSDOF 4
ENDMDL
MODEL 9
REMARK VINA RESULT:    -3.398      2.705      4.843
REMARK INTER + INTRA:          -4.417
REMARK INTER:                  -4.274
REMARK INTRA:                  -0.143
REMARK UNBOUND:                -0.224
REMARK SMILES COC(=O)c1ccccc1C(=O)OC
REMARK SMILES IDX 5 1 6 2 7 3 8 4 9 5 10 6 3 7 4 8 2 9 1 10 11 11 12 12 13 13
REMARK SMILES IDX 14 14
REMARK H PARENT
REMARK Flexibility Score: inf
ROOT
ATOM      1  C   UNL     1      28.159  36.398  20.161  1.00  0.00     0.074 A 
ATOM      2  C   UNL     1      29.125  36.899  19.269  1.00  0.00     0.016 A 
ATOM      3  C   UNL     1      29.073  38.222  18.829  1.00  0.00     0.001 A 
ATOM      4  C   UNL     1      28.056  39.065  19.273  1.00  0.00     0.001 A 
ATOM      5  C   UNL     1      27.075  38.584  20.139  1.00  0.00     0.016 A 
ATOM      6  C   UNL     1      27.094  37.247  20.577  1.00  0.00     0.074 A 
ENDROOT
BRANCH   1   7
ATOM      7  C   UNL     1      28.339  35.020  20.673  1.00  0.00     0.338 C 
ATOM      8  O   UNL     1      28.002  34.029  19.969  1.00  0.00    -0.246 OA
BRANCH   7   9
ATOM      9  O   UNL     1      28.832  34.826  21.968  1.00  0.00    -0.465 OA
ATOM     10  C   UNL     1      28.632  33.618  22.692  1.00  0.00     0.282 C 
ENDBRANCH   7   9
ENDBRANCH   1   7
BRANCH   6  11
ATOM     11  C   UNL     1      25.960  36.773  21.402  1.00  0.00     0.338 C 
ATOM     12  O   UNL     1      26.153  36.381  22.586  1.00  0.00    -0.246 OA
BRANCH  11  13
ATOM     13  O   UNL     1      24.680  36.707  20.841  1.00  0.00    -0.465 OA
ATOM     14  C   UNL     1      23.619  37.562  21.250  1.00  0.00     0.282 C 
ENDBRANCH  11  13
ENDBRANCH   6  11
TORSDOF 4
ENDMDL
