MODEL 1
REMARK VINA RESULT:    -5.184      0.000      0.000
REMARK INTER + INTRA:         -16.020
REMARK INTER:                 -11.851
REMARK INTRA:                  -4.169
REMARK UNBOUND:                -4.169
REMARK SMILES CCCCCCCCCCCCCCCCCCCCCCCC(=O)[O-]
REMARK SMILES IDX 13 1 14 2 15 3 16 4 17 5 18 6 19 7 20 8 21 9 22 10 23 11
REMARK SMILES IDX 24 12 25 13 26 14 12 15 11 16 10 17 9 18 8 19 7 20 6 21 5 22
REMARK SMILES IDX 4 23 3 24 2 25 1 26
REMARK H PARENT
REMARK Flexibility Score: inf
ROOT
ATOM      1  C   UNL     1     -21.533  41.149  -5.750  1.00  0.00     0.000 C 
ENDROOT
BRANCH   1   2
ATOM      2  C   UNL     1     -22.051  42.565  -6.068  1.00  0.00     0.000 C 
BRANCH   2   3
ATOM      3  C   UNL     1     -23.555  42.650  -6.391  1.00  0.00     0.000 C 
BRANCH   3   4
ATOM      4  C   UNL     1     -23.832  43.120  -7.828  1.00  0.00     0.000 C 
BRANCH   4   5
ATOM      5  C   UNL     1     -22.547  43.428  -8.614  1.00  0.00     0.000 C 
BRANCH   5   6
ATOM      6  C   UNL     1     -22.361  44.925  -8.942  1.00  0.00     0.000 C 
BRANCH   6   7
ATOM      7  C   UNL     1     -20.947  45.422  -8.591  1.00  0.00     0.000 C 
BRANCH   7   8
ATOM      8  C   UNL     1     -20.959  46.590  -7.593  1.00  0.00     0.000 C 
BRANCH   8   9
ATOM      9  C   UNL     1     -21.537  46.196  -6.225  1.00  0.00     0.000 C 
BRANCH   9  10
ATOM     10  C   UNL     1     -22.772  47.043  -5.885  1.00  0.00     0.006 C 
BRANCH  10  11
ATOM     11  C   UNL     1     -24.041  46.191  -5.748  1.00  0.00     0.053 C 
BRANCH  11  12
ATOM     12  C   UNL     1     -25.075  46.567  -6.764  1.00  0.00     0.041 C 
ATOM     13  O   UNL     1     -24.732  47.112  -7.846  1.00  0.00    -0.550 OA
ATOM     14  O   UNL     1     -26.422  46.344  -6.502  1.00  0.00    -0.550 OA
ENDBRANCH  11  12
ENDBRANCH  10  11
ENDBRANCH   9  10
ENDBRANCH   8   9
ENDBRANCH   7   8
ENDBRANCH   6   7
ENDBRANCH   5   6
ENDBRANCH   4   5
ENDBRANCH   3   4
ENDBRANCH   2   3
ENDBRANCH   1   2
BRANCH   1  15
ATOM     15  C   UNL     1     -22.219  40.057  -6.584  1.00  0.00     0.000 C 
BRANCH  15  16
ATOM     16  C   UNL     1     -21.579  39.941  -7.972  1.00  0.00     0.000 C 
BRANCH  16  17
ATOM     17  C   UNL     1     -20.066  40.202  -7.904  1.00  0.00     0.000 C 
BRANCH  17  18
ATOM     18  C   UNL     1     -19.570  41.126  -9.028  1.00  0.00    -0.000 C 
BRANCH  18  19
ATOM     19  C   UNL     1     -18.992  42.447  -8.498  1.00  0.00    -0.000 C 
BRANCH  19  20
ATOM     20  C   UNL     1     -18.248  42.228  -7.174  1.00  0.00    -0.000 C 
BRANCH  20  21
ATOM     21  C   UNL     1     -18.659  43.231  -6.080  1.00  0.00    -0.000 C 
BRANCH  21  22
ATOM     22  C   UNL     1     -17.534  43.644  -5.113  1.00  0.00    -0.000 C 
BRANCH  22  23
ATOM     23  C   UNL     1     -17.597  42.902  -3.767  1.00  0.00    -0.000 C 
BRANCH  23  24
ATOM     24  C   UNL     1     -16.272  42.204  -3.418  1.00  0.00    -0.000 C 
BRANCH  24  25
ATOM     25  C   UNL     1     -16.057  40.914  -4.226  1.00  0.00    -0.003 C 
ATOM     26  C   UNL     1     -17.322  40.062  -4.245  1.00  0.00     0.004 C 
ENDBRANCH  24  25
ENDBRANCH  23  24
ENDBRANCH  22  23
ENDBRANCH  21  22
ENDBRANCH  20  21
ENDBRANCH  19  20
ENDBRANCH  18  19
ENDBRANCH  17  18
ENDBRANCH  16  17
ENDBRANCH  15  16
ENDBRANCH   1  15
TORSDOF 22
ENDMDL
MODEL 2
REMARK VINA RESULT:    -4.759      2.876      6.612
REMARK INTER + INTRA:         -15.048
REMARK INTER:                 -11.586
REMARK INTRA:                  -3.462
REMARK UNBOUND:                -4.169
REMARK SMILES CCCCCCCCCCCCCCCCCCCCCCCC(=O)[O-]
REMARK SMILES IDX 13 1 14 2 15 3 16 4 17 5 18 6 19 7 20 8 21 9 22 10 23 11
REMARK SMILES IDX 24 12 25 13 26 14 12 15 11 16 10 17 9 18 8 19 7 20 6 21 5 22
REMARK SMILES IDX 4 23 3 24 2 25 1 26
REMARK H PARENT
REMARK Flexibility Score: inf
ROOT
ATOM      1  C   UNL     1     -23.431  41.222  -6.341  1.00  0.00     0.000 C 
ENDROOT
BRANCH   1   2
ATOM      2  C   UNL     1     -21.982  40.713  -6.215  1.00  0.00     0.000 C 
BRANCH   2   3
ATOM      3  C   UNL     1     -21.543  39.721  -7.309  1.00  0.00     0.000 C 
BRANCH   3   4
ATOM      4  C   UNL     1     -21.272  40.402  -8.660  1.00  0.00     0.000 C 
BRANCH   4   5
ATOM      5  C   UNL     1     -20.454  41.697  -8.523  1.00  0.00     0.000 C 
BRANCH   5   6
ATOM      6  C   UNL     1     -18.928  41.482  -8.612  1.00  0.00     0.000 C 
BRANCH   6   7
ATOM      7  C   UNL     1     -18.236  41.686  -7.252  1.00  0.00     0.000 C 
BRANCH   7   8
ATOM      8  C   UNL     1     -17.853  40.360  -6.576  1.00  0.00     0.000 C 
BRANCH   8   9
ATOM      9  C   UNL     1     -18.196  40.338  -5.079  1.00  0.00     0.000 C 
BRANCH   9  10
ATOM     10  C   UNL     1     -16.955  40.005  -4.236  1.00  0.00     0.006 C 
BRANCH  10  11
ATOM     11  C   UNL     1     -16.000  41.200  -4.113  1.00  0.00     0.053 C 
BRANCH  11  12
ATOM     12  C   UNL     1     -16.733  42.468  -3.800  1.00  0.00     0.041 C 
ATOM     13  O   UNL     1     -17.360  42.586  -2.714  1.00  0.00    -0.550 OA
ATOM     14  O   UNL     1     -16.751  43.508  -4.722  1.00  0.00    -0.550 OA
ENDBRANCH  11  12
ENDBRANCH  10  11
ENDBRANCH   9  10
ENDBRANCH   8   9
ENDBRANCH   7   8
ENDBRANCH   6   7
ENDBRANCH   5   6
ENDBRANCH   4   5
ENDBRANCH   3   4
ENDBRANCH   2   3
ENDBRANCH   1   2
BRANCH   1  15
ATOM     15  C   UNL     1     -23.515  42.700  -6.752  1.00  0.00     0.000 C 
BRANCH  15  16
ATOM     16  C   UNL     1     -23.879  42.839  -8.235  1.00  0.00     0.000 C 
BRANCH  16  17
ATOM     17  C   UNL     1     -23.247  44.101  -8.841  1.00  0.00     0.000 C 
BRANCH  17  18
ATOM     18  C   UNL     1     -24.275  45.213  -9.105  1.00  0.00    -0.000 C 
BRANCH  18  19
ATOM     19  C   UNL     1     -25.309  45.346  -7.976  1.00  0.00    -0.000 C 
BRANCH  19  20
ATOM     20  C   UNL     1     -25.107  46.655  -7.199  1.00  0.00    -0.000 C 
BRANCH  20  21
ATOM     21  C   UNL     1     -24.532  46.433  -5.788  1.00  0.00    -0.000 C 
BRANCH  21  22
ATOM     22  C   UNL     1     -23.103  46.967  -5.571  1.00  0.00    -0.000 C 
BRANCH  22  23
ATOM     23  C   UNL     1     -22.022  46.039  -6.154  1.00  0.00    -0.000 C 
BRANCH  23  24
ATOM     24  C   UNL     1     -21.150  46.742  -7.207  1.00  0.00    -0.000 C 
BRANCH  24  25
ATOM     25  C   UNL     1     -20.060  45.820  -7.776  1.00  0.00    -0.003 C 
ATOM     26  C   UNL     1     -19.345  45.063  -6.660  1.00  0.00     0.004 C 
ENDBRANCH  24  25
ENDBRANCH  23  24
ENDBRANCH  22  23
ENDBRANCH  21  22
ENDBRANCH  20  21
ENDBRANCH  19  20
ENDBRANCH  18  19
ENDBRANCH  17  18
ENDBRANCH  16  17
ENDBRANCH  15  16
ENDBRANCH   1  15
TORSDOF 22
ENDMDL
MODEL 3
REMARK VINA RESULT:    -4.555      1.404      2.617
REMARK INTER + INTRA:         -14.581
REMARK INTER:                 -11.052
REMARK INTRA:                  -3.529
REMARK UNBOUND:                -4.169
REMARK SMILES CCCCCCCCCCCCCCCCCCCCCCCC(=O)[O-]
REMARK SMILES IDX 13 1 14 2 15 3 16 4 17 5 18 6 19 7 20 8 21 9 22 10 23 11
REMARK SMILES IDX 24 12 25 13 26 14 12 15 11 16 10 17 9 18 8 19 7 20 6 21 5 22
REMARK SMILES IDX 4 23 3 24 2 25 1 26
REMARK H PARENT
REMARK Flexibility Score: inf
ROOT
ATOM      1  C   UNL     1     -20.086  41.521  -4.812  1.00  0.00     0.000 C 
ENDROOT
BRANCH   1   2
ATOM      2  C   UNL     1     -19.909  42.986  -5.255  1.00  0.00     0.000 C 
BRANCH   2   3
ATOM      3  C   UNL     1     -18.785  43.224  -6.281  1.00  0.00     0.000 C 
BRANCH   3   4
ATOM      4  C   UNL     1     -19.002  44.491  -7.124  1.00  0.00     0.000 C 
BRANCH   4   5
ATOM      5  C   UNL     1     -19.790  44.220  -8.416  1.00  0.00     0.000 C 
BRANCH   5   6
ATOM      6  C   UNL     1     -20.285  45.500  -9.123  1.00  0.00     0.000 C 
BRANCH   6   7
ATOM      7  C   UNL     1     -21.811  45.671  -9.006  1.00  0.00     0.000 C 
BRANCH   7   8
ATOM      8  C   UNL     1     -22.209  46.822  -8.069  1.00  0.00     0.000 C 
BRANCH   8   9
ATOM      9  C   UNL     1     -22.570  46.337  -6.657  1.00  0.00     0.000 C 
BRANCH   9  10
ATOM     10  C   UNL     1     -23.007  44.865  -6.676  1.00  0.00     0.006 C 
BRANCH  10  11
ATOM     11  C   UNL     1     -24.424  44.672  -6.118  1.00  0.00     0.053 C 
BRANCH  11  12
ATOM     12  C   UNL     1     -25.428  45.509  -6.851  1.00  0.00     0.041 C 
ATOM     13  O   UNL     1     -26.049  46.424  -6.250  1.00  0.00    -0.550 OA
ATOM     14  O   UNL     1     -25.701  45.255  -8.190  1.00  0.00    -0.550 OA
ENDBRANCH  11  12
ENDBRANCH  10  11
ENDBRANCH   9  10
ENDBRANCH   8   9
ENDBRANCH   7   8
ENDBRANCH   6   7
ENDBRANCH   5   6
ENDBRANCH   4   5
ENDBRANCH   3   4
ENDBRANCH   2   3
ENDBRANCH   1   2
BRANCH   1  15
ATOM     15  C   UNL     1     -20.985  40.711  -5.758  1.00  0.00     0.000 C 
BRANCH  15  16
ATOM     16  C   UNL     1     -21.747  41.634  -6.717  1.00  0.00     0.000 C 
BRANCH  16  17
ATOM     17  C   UNL     1     -22.165  40.881  -7.989  1.00  0.00     0.000 C 
BRANCH  17  18
ATOM     18  C   UNL     1     -21.026  40.770  -9.016  1.00  0.00    -0.000 C 
BRANCH  18  19
ATOM     19  C   UNL     1     -19.909  39.818  -8.562  1.00  0.00    -0.000 C 
BRANCH  19  20
ATOM     20  C   UNL     1     -18.562  40.551  -8.484  1.00  0.00    -0.000 C 
BRANCH  20  21
ATOM     21  C   UNL     1     -17.477  39.738  -7.755  1.00  0.00    -0.000 C 
BRANCH  21  22
ATOM     22  C   UNL     1     -17.664  39.614  -6.231  1.00  0.00    -0.000 C 
BRANCH  22  23
ATOM     23  C   UNL     1     -16.597  40.383  -5.431  1.00  0.00    -0.000 C 
BRANCH  23  24
ATOM     24  C   UNL     1     -16.792  40.250  -3.912  1.00  0.00    -0.000 C 
BRANCH  24  25
ATOM     25  C   UNL     1     -16.501  41.561  -3.165  1.00  0.00    -0.003 C 
ATOM     26  C   UNL     1     -16.038  42.649  -4.128  1.00  0.00     0.004 C 
ENDBRANCH  24  25
ENDBRANCH  23  24
ENDBRANCH  22  23
ENDBRANCH  21  22
ENDBRANCH  20  21
ENDBRANCH  19  20
ENDBRANCH  18  19
ENDBRANCH  17  18
ENDBRANCH  16  17
ENDBRANCH  15  16
ENDBRANCH   1  15
TORSDOF 22
ENDMDL
MODEL 4
REMARK VINA RESULT:    -4.370      2.936      6.780
REMARK INTER + INTRA:         -14.160
REMARK INTER:                 -10.911
REMARK INTRA:                  -3.249
REMARK UNBOUND:                -4.169
REMARK SMILES CCCCCCCCCCCCCCCCCCCCCCCC(=O)[O-]
REMARK SMILES IDX 13 1 14 2 15 3 16 4 17 5 18 6 19 7 20 8 21 9 22 10 23 11
REMARK SMILES IDX 24 12 25 13 26 14 12 15 11 16 10 17 9 18 8 19 7 20 6 21 5 22
REMARK SMILES IDX 4 23 3 24 2 25 1 26
REMARK H PARENT
REMARK Flexibility Score: inf
ROOT
ATOM      1  C   UNL     1     -21.654  41.285  -9.124  1.00  0.00     0.000 C 
ENDROOT
BRANCH   1   2
ATOM      2  C   UNL     1     -22.647  41.107  -7.959  1.00  0.00     0.000 C 
BRANCH   2   3
ATOM      3  C   UNL     1     -23.029  42.407  -7.226  1.00  0.00     0.000 C 
BRANCH   3   4
ATOM      4  C   UNL     1     -22.228  42.620  -5.931  1.00  0.00     0.000 C 
BRANCH   4   5
ATOM      5  C   UNL     1     -21.396  41.389  -5.534  1.00  0.00     0.000 C 
BRANCH   5   6
ATOM      6  C   UNL     1     -19.876  41.654  -5.490  1.00  0.00     0.000 C 
BRANCH   6   7
ATOM      7  C   UNL     1     -19.090  40.425  -4.998  1.00  0.00     0.000 C 
BRANCH   7   8
ATOM      8  C   UNL     1     -18.022  39.963  -6.002  1.00  0.00     0.000 C 
BRANCH   8   9
ATOM      9  C   UNL     1     -16.591  40.221  -5.506  1.00  0.00     0.000 C 
BRANCH   9  10
ATOM     10  C   UNL     1     -16.541  40.265  -3.971  1.00  0.00     0.006 C 
BRANCH  10  11
ATOM     11  C   UNL     1     -15.997  41.601  -3.447  1.00  0.00     0.053 C 
BRANCH  11  12
ATOM     12  C   UNL     1     -17.042  42.674  -3.469  1.00  0.00     0.041 C 
ATOM     13  O   UNL     1     -17.863  42.778  -2.520  1.00  0.00    -0.550 OA
ATOM     14  O   UNL     1     -17.130  43.539  -4.554  1.00  0.00    -0.550 OA
ENDBRANCH  11  12
ENDBRANCH  10  11
ENDBRANCH   9  10
ENDBRANCH   8   9
ENDBRANCH   7   8
ENDBRANCH   6   7
ENDBRANCH   5   6
ENDBRANCH   4   5
ENDBRANCH   3   4
ENDBRANCH   2   3
ENDBRANCH   1   2
BRANCH   1  15
ATOM     15  C   UNL     1     -20.255  40.733  -8.810  1.00  0.00     0.000 C 
BRANCH  15  16
ATOM     16  C   UNL     1     -19.171  41.771  -9.124  1.00  0.00     0.000 C 
BRANCH  16  17
ATOM     17  C   UNL     1     -19.745  43.195  -9.081  1.00  0.00     0.000 C 
BRANCH  17  18
ATOM     18  C   UNL     1     -19.132  44.050  -7.960  1.00  0.00    -0.000 C 
BRANCH  18  19
ATOM     19  C   UNL     1     -19.846  45.399  -7.785  1.00  0.00    -0.000 C 
BRANCH  19  20
ATOM     20  C   UNL     1     -19.877  45.815  -6.307  1.00  0.00    -0.000 C 
BRANCH  20  21
ATOM     21  C   UNL     1     -20.719  47.080  -6.056  1.00  0.00    -0.000 C 
BRANCH  21  22
ATOM     22  C   UNL     1     -22.152  47.034  -6.619  1.00  0.00    -0.000 C 
BRANCH  22  23
ATOM     23  C   UNL     1     -23.118  46.224  -5.736  1.00  0.00    -0.000 C 
BRANCH  23  24
ATOM     24  C   UNL     1     -24.541  46.808  -5.733  1.00  0.00    -0.000 C 
BRANCH  24  25
ATOM     25  C   UNL     1     -25.191  46.777  -7.125  1.00  0.00    -0.003 C 
ATOM     26  C   UNL     1     -26.248  45.679  -7.212  1.00  0.00     0.004 C 
ENDBRANCH  24  25
ENDBRANCH  23  24
ENDBRANCH  22  23
ENDBRANCH  21  22
ENDBRANCH  20  21
ENDBRANCH  19  20
ENDBRANCH  18  19
ENDBRANCH  17  18
ENDBRANCH  16  17
ENDBRANCH  15  16
ENDBRANCH   1  15
TORSDOF 22
ENDMDL
MODEL 5
REMARK VINA RESULT:    -4.272      2.963      6.460
REMARK INTER + INTRA:         -13.936
REMARK INTER:                 -10.730
REMARK INTRA:                  -3.205
REMARK UNBOUND:                -4.169
REMARK SMILES CCCCCCCCCCCCCCCCCCCCCCCC(=O)[O-]
REMARK SMILES IDX 13 1 14 2 15 3 16 4 17 5 18 6 19 7 20 8 21 9 22 10 23 11
REMARK SMILES IDX 24 12 25 13 26 14 12 15 11 16 10 17 9 18 8 19 7 20 6 21 5 22
REMARK SMILES IDX 4 23 3 24 2 25 1 26
REMARK H PARENT
REMARK Flexibility Score: inf
ROOT
ATOM      1  C   UNL     1     -23.356  41.026  -6.181  1.00  0.00     0.000 C 
ENDROOT
BRANCH   1   2
ATOM      2  C   UNL     1     -21.884  40.580  -6.271  1.00  0.00     0.000 C 
BRANCH   2   3
ATOM      3  C   UNL     1     -21.611  39.428  -7.257  1.00  0.00     0.000 C 
BRANCH   3   4
ATOM      4  C   UNL     1     -20.811  39.874  -8.491  1.00  0.00     0.000 C 
BRANCH   4   5
ATOM      5  C   UNL     1     -19.999  38.731  -9.121  1.00  0.00     0.000 C 
BRANCH   5   6
ATOM      6  C   UNL     1     -18.471  38.929  -9.031  1.00  0.00     0.000 C 
BRANCH   6   7
ATOM      7  C   UNL     1     -18.096  40.145  -8.166  1.00  0.00     0.000 C 
BRANCH   7   8
ATOM      8  C   UNL     1     -17.450  39.747  -6.830  1.00  0.00     0.000 C 
BRANCH   8   9
ATOM      9  C   UNL     1     -17.892  40.647  -5.666  1.00  0.00     0.000 C 
BRANCH   9  10
ATOM     10  C   UNL     1     -18.297  42.040  -6.172  1.00  0.00     0.006 C 
BRANCH  10  11
ATOM     11  C   UNL     1     -17.603  43.165  -5.392  1.00  0.00     0.053 C 
BRANCH  11  12
ATOM     12  C   UNL     1     -17.475  42.835  -3.936  1.00  0.00     0.041 C 
ATOM     13  O   UNL     1     -16.339  42.652  -3.425  1.00  0.00    -0.550 OA
ATOM     14  O   UNL     1     -18.614  42.697  -3.151  1.00  0.00    -0.550 OA
ENDBRANCH  11  12
ENDBRANCH  10  11
ENDBRANCH   9  10
ENDBRANCH   8   9
ENDBRANCH   7   8
ENDBRANCH   6   7
ENDBRANCH   5   6
ENDBRANCH   4   5
ENDBRANCH   3   4
ENDBRANCH   2   3
ENDBRANCH   1   2
BRANCH   1  15
ATOM     15  C   UNL     1     -23.520  42.553  -6.139  1.00  0.00     0.000 C 
BRANCH  15  16
ATOM     16  C   UNL     1     -22.283  43.254  -6.714  1.00  0.00     0.000 C 
BRANCH  16  17
ATOM     17  C   UNL     1     -22.448  43.510  -8.220  1.00  0.00     0.000 C 
BRANCH  17  18
ATOM     18  C   UNL     1     -21.115  43.825  -8.918  1.00  0.00    -0.000 C 
BRANCH  18  19
ATOM     19  C   UNL     1     -20.727  45.309  -8.817  1.00  0.00    -0.000 C 
BRANCH  19  20
ATOM     20  C   UNL     1     -19.792  45.551  -7.623  1.00  0.00    -0.000 C 
BRANCH  20  21
ATOM     21  C   UNL     1     -19.953  46.953  -7.008  1.00  0.00    -0.000 C 
BRANCH  21  22
ATOM     22  C   UNL     1     -21.067  47.081  -5.952  1.00  0.00    -0.000 C 
BRANCH  22  23
ATOM     23  C   UNL     1     -22.478  46.917  -6.546  1.00  0.00    -0.000 C 
BRANCH  23  24
ATOM     24  C   UNL     1     -23.508  46.465  -5.498  1.00  0.00    -0.000 C 
BRANCH  24  25
ATOM     25  C   UNL     1     -24.951  46.541  -6.021  1.00  0.00    -0.003 C 
ATOM     26  C   UNL     1     -25.147  45.623  -7.225  1.00  0.00     0.004 C 
ENDBRANCH  24  25
ENDBRANCH  23  24
ENDBRANCH  22  23
ENDBRANCH  21  22
ENDBRANCH  20  21
ENDBRANCH  19  20
ENDBRANCH  18  19
ENDBRANCH  17  18
ENDBRANCH  16  17
ENDBRANCH  15  16
ENDBRANCH   1  15
TORSDOF 22
ENDMDL
MODEL 6
REMARK VINA RESULT:    -3.680      3.033      6.815
REMARK INTER + INTRA:         -12.582
REMARK INTER:                 -11.054
REMARK INTRA:                  -1.528
REMARK UNBOUND:                -4.169
REMARK SMILES CCCCCCCCCCCCCCCCCCCCCCCC(=O)[O-]
REMARK SMILES IDX 13 1 14 2 15 3 16 4 17 5 18 6 19 7 20 8 21 9 22 10 23 11
REMARK SMILES IDX 24 12 25 13 26 14 12 15 11 16 10 17 9 18 8 19 7 20 6 21 5 22
REMARK SMILES IDX 4 23 3 24 2 25 1 26
REMARK H PARENT
REMARK Flexibility Score: inf
ROOT
ATOM      1  C   UNL     1     -23.328  41.983  -6.528  1.00  0.00     0.000 C 
ENDROOT
BRANCH   1   2
ATOM      2  C   UNL     1     -21.987  41.227  -6.460  1.00  0.00     0.000 C 
BRANCH   2   3
ATOM      3  C   UNL     1     -21.669  40.353  -7.688  1.00  0.00     0.000 C 
BRANCH   3   4
ATOM      4  C   UNL     1     -20.161  40.216  -7.950  1.00  0.00     0.000 C 
BRANCH   4   5
ATOM      5  C   UNL     1     -19.826  39.079  -8.930  1.00  0.00     0.000 C 
BRANCH   5   6
ATOM      6  C   UNL     1     -18.492  38.366  -8.623  1.00  0.00     0.000 C 
BRANCH   6   7
ATOM      7  C   UNL     1     -17.513  39.276  -7.860  1.00  0.00     0.000 C 
BRANCH   7   8
ATOM      8  C   UNL     1     -17.802  39.327  -6.352  1.00  0.00     0.000 C 
BRANCH   8   9
ATOM      9  C   UNL     1     -17.298  40.621  -5.694  1.00  0.00     0.000 C 
BRANCH   9  10
ATOM     10  C   UNL     1     -16.105  40.339  -4.769  1.00  0.00     0.006 C 
BRANCH  10  11
ATOM     11  C   UNL     1     -16.231  41.063  -3.422  1.00  0.00     0.053 C 
BRANCH  11  12
ATOM     12  C   UNL     1     -16.835  42.425  -3.578  1.00  0.00     0.041 C 
ATOM     13  O   UNL     1     -16.283  43.281  -4.319  1.00  0.00    -0.550 OA
ATOM     14  O   UNL     1     -17.989  42.760  -2.880  1.00  0.00    -0.550 OA
ENDBRANCH  11  12
ENDBRANCH  10  11
ENDBRANCH   9  10
ENDBRANCH   8   9
ENDBRANCH   7   8
ENDBRANCH   6   7
ENDBRANCH   5   6
ENDBRANCH   4   5
ENDBRANCH   3   4
ENDBRANCH   2   3
ENDBRANCH   1   2
BRANCH   1  15
ATOM     15  C   UNL     1     -23.393  43.180  -5.568  1.00  0.00     0.000 C 
BRANCH  15  16
ATOM     16  C   UNL     1     -23.914  44.432  -6.284  1.00  0.00     0.000 C 
BRANCH  16  17
ATOM     17  C   UNL     1     -25.385  44.258  -6.692  1.00  0.00     0.000 C 
BRANCH  17  18
ATOM     18  C   UNL     1     -25.983  45.530  -7.317  1.00  0.00    -0.000 C 
BRANCH  18  19
ATOM     19  C   UNL     1     -24.912  46.468  -7.894  1.00  0.00    -0.000 C 
BRANCH  19  20
ATOM     20  C   UNL     1     -24.240  45.842  -9.125  1.00  0.00    -0.000 C 
BRANCH  20  21
ATOM     21  C   UNL     1     -22.704  45.950  -9.092  1.00  0.00    -0.000 C 
BRANCH  21  22
ATOM     22  C   UNL     1     -21.959  44.621  -8.869  1.00  0.00    -0.000 C 
BRANCH  22  23
ATOM     23  C   UNL     1     -20.436  44.803  -8.737  1.00  0.00    -0.000 C 
BRANCH  23  24
ATOM     24  C   UNL     1     -20.026  45.355  -7.362  1.00  0.00    -0.000 C 
BRANCH  24  25
ATOM     25  C   UNL     1     -19.585  44.247  -6.392  1.00  0.00    -0.003 C 
ATOM     26  C   UNL     1     -18.605  43.290  -7.063  1.00  0.00     0.004 C 
ENDBRANCH  24  25
ENDBRANCH  23  24
ENDBRANCH  22  23
ENDBRANCH  21  22
ENDBRANCH  20  21
ENDBRANCH  19  20
ENDBRANCH  18  19
ENDBRANCH  17  18
ENDBRANCH  16  17
ENDBRANCH  15  16
ENDBRANCH   1  15
TORSDOF 22
ENDMDL
MODEL 7
REMARK VINA RESULT:    -3.651      2.856      7.083
REMARK INTER + INTRA:         -12.515
REMARK INTER:                 -10.379
REMARK INTRA:                  -2.135
REMARK UNBOUND:                -4.169
REMARK SMILES CCCCCCCCCCCCCCCCCCCCCCCC(=O)[O-]
REMARK SMILES IDX 13 1 14 2 15 3 16 4 17 5 18 6 19 7 20 8 21 9 22 10 23 11
REMARK SMILES IDX 24 12 25 13 26 14 12 15 11 16 10 17 9 18 8 19 7 20 6 21 5 22
REMARK SMILES IDX 4 23 3 24 2 25 1 26
REMARK H PARENT
REMARK Flexibility Score: inf
ROOT
ATOM      1  C   UNL     1     -20.304  43.620  -6.405  1.00  0.00     0.000 C 
ENDROOT
BRANCH   1   2
ATOM      2  C   UNL     1     -20.074  42.261  -7.094  1.00  0.00     0.000 C 
BRANCH   2   3
ATOM      3  C   UNL     1     -18.786  42.167  -7.934  1.00  0.00     0.000 C 
BRANCH   3   4
ATOM      4  C   UNL     1     -18.913  41.193  -9.116  1.00  0.00     0.000 C 
BRANCH   4   5
ATOM      5  C   UNL     1     -18.152  39.876  -8.889  1.00  0.00     0.000 C 
BRANCH   5   6
ATOM      6  C   UNL     1     -18.290  39.317  -7.456  1.00  0.00     0.000 C 
BRANCH   6   7
ATOM      7  C   UNL     1     -17.087  39.692  -6.572  1.00  0.00     0.000 C 
BRANCH   7   8
ATOM      8  C   UNL     1     -17.487  39.983  -5.118  1.00  0.00     0.000 C 
BRANCH   8   9
ATOM      9  C   UNL     1     -16.288  40.372  -4.240  1.00  0.00     0.000 C 
BRANCH   9  10
ATOM     10  C   UNL     1     -16.016  41.882  -4.319  1.00  0.00     0.006 C 
BRANCH  10  11
ATOM     11  C   UNL     1     -17.299  42.692  -4.551  1.00  0.00     0.053 C 
BRANCH  11  12
ATOM     12  C   UNL     1     -18.217  42.628  -3.370  1.00  0.00     0.041 C 
ATOM     13  O   UNL     1     -17.808  42.971  -2.230  1.00  0.00    -0.550 OA
ATOM     14  O   UNL     1     -19.517  42.158  -3.523  1.00  0.00    -0.550 OA
ENDBRANCH  11  12
ENDBRANCH  10  11
ENDBRANCH   9  10
ENDBRANCH   8   9
ENDBRANCH   7   8
ENDBRANCH   6   7
ENDBRANCH   5   6
ENDBRANCH   4   5
ENDBRANCH   3   4
ENDBRANCH   2   3
ENDBRANCH   1   2
BRANCH   1  15
ATOM     15  C   UNL     1     -20.258  44.805  -7.382  1.00  0.00     0.000 C 
BRANCH  15  16
ATOM     16  C   UNL     1     -19.357  45.924  -6.846  1.00  0.00     0.000 C 
BRANCH  16  17
ATOM     17  C   UNL     1     -20.192  47.125  -6.378  1.00  0.00     0.000 C 
BRANCH  17  18
ATOM     18  C   UNL     1     -21.630  47.097  -6.922  1.00  0.00    -0.000 C 
BRANCH  18  19
ATOM     19  C   UNL     1     -22.686  47.050  -5.807  1.00  0.00    -0.000 C 
BRANCH  19  20
ATOM     20  C   UNL     1     -24.045  46.594  -6.358  1.00  0.00    -0.000 C 
BRANCH  20  21
ATOM     21  C   UNL     1     -24.026  46.350  -7.878  1.00  0.00    -0.000 C 
BRANCH  21  22
ATOM     22  C   UNL     1     -24.639  45.013  -8.334  1.00  0.00    -0.000 C 
BRANCH  22  23
ATOM     23  C   UNL     1     -23.885  43.789  -7.785  1.00  0.00    -0.000 C 
BRANCH  23  24
ATOM     24  C   UNL     1     -24.032  43.642  -6.262  1.00  0.00    -0.000 C 
BRANCH  24  25
ATOM     25  C   UNL     1     -23.482  42.304  -5.745  1.00  0.00    -0.003 C 
ATOM     26  C   UNL     1     -23.535  41.233  -6.830  1.00  0.00     0.004 C 
ENDBRANCH  24  25
ENDBRANCH  23  24
ENDBRANCH  22  23
ENDBRANCH  21  22
ENDBRANCH  20  21
ENDBRANCH  19  20
ENDBRANCH  18  19
ENDBRANCH  17  18
ENDBRANCH  16  17
ENDBRANCH  15  16
ENDBRANCH   1  15
TORSDOF 22
ENDMDL
MODEL 8
REMARK VINA RESULT:    -2.873      3.221      6.464
REMARK INTER + INTRA:         -10.737
REMARK INTER:                  -9.558
REMARK INTRA:                  -1.180
REMARK UNBOUND:                -4.169
REMARK SMILES CCCCCCCCCCCCCCCCCCCCCCCC(=O)[O-]
REMARK SMILES IDX 13 1 14 2 15 3 16 4 17 5 18 6 19 7 20 8 21 9 22 10 23 11
REMARK SMILES IDX 24 12 25 13 26 14 12 15 11 16 10 17 9 18 8 19 7 20 6 21 5 22
REMARK SMILES IDX 4 23 3 24 2 25 1 26
REMARK H PARENT
REMARK Flexibility Score: inf
ROOT
ATOM      1  C   UNL     1     -21.030  40.288  -7.900  1.00  0.00     0.000 C 
ENDROOT
BRANCH   1   2
ATOM      2  C   UNL     1     -22.000  39.834  -6.792  1.00  0.00     0.000 C 
BRANCH   2   3
ATOM      3  C   UNL     1     -23.328  40.613  -6.731  1.00  0.00     0.000 C 
BRANCH   3   4
ATOM      4  C   UNL     1     -23.230  42.012  -7.360  1.00  0.00     0.000 C 
BRANCH   4   5
ATOM      5  C   UNL     1     -22.974  43.117  -6.321  1.00  0.00     0.000 C 
BRANCH   5   6
ATOM      6  C   UNL     1     -22.010  42.698  -5.191  1.00  0.00     0.000 C 
BRANCH   6   7
ATOM      7  C   UNL     1     -20.551  43.071  -5.508  1.00  0.00     0.000 C 
BRANCH   7   8
ATOM      8  C   UNL     1     -19.541  42.318  -4.629  1.00  0.00     0.000 C 
BRANCH   8   9
ATOM      9  C   UNL     1     -18.454  43.238  -4.052  1.00  0.00     0.000 C 
BRANCH   9  10
ATOM     10  C   UNL     1     -17.397  42.427  -3.287  1.00  0.00     0.006 C 
BRANCH  10  11
ATOM     11  C   UNL     1     -16.285  41.908  -4.209  1.00  0.00     0.053 C 
BRANCH  11  12
ATOM     12  C   UNL     1     -16.646  40.593  -4.829  1.00  0.00     0.041 C 
ATOM     13  O   UNL     1     -16.745  39.562  -4.114  1.00  0.00    -0.550 OA
ATOM     14  O   UNL     1     -16.842  40.502  -6.202  1.00  0.00    -0.550 OA
ENDBRANCH  11  12
ENDBRANCH  10  11
ENDBRANCH   9  10
ENDBRANCH   8   9
ENDBRANCH   7   8
ENDBRANCH   6   7
ENDBRANCH   5   6
ENDBRANCH   4   5
ENDBRANCH   3   4
ENDBRANCH   2   3
ENDBRANCH   1   2
BRANCH   1  15
ATOM     15  C   UNL     1     -19.744  40.924  -7.350  1.00  0.00     0.000 C 
BRANCH  15  16
ATOM     16  C   UNL     1     -18.942  41.599  -8.469  1.00  0.00     0.000 C 
BRANCH  16  17
ATOM     17  C   UNL     1     -19.755  42.726  -9.125  1.00  0.00     0.000 C 
BRANCH  17  18
ATOM     18  C   UNL     1     -19.956  43.933  -8.193  1.00  0.00    -0.000 C 
BRANCH  18  19
ATOM     19  C   UNL     1     -19.978  45.270  -8.950  1.00  0.00    -0.000 C 
BRANCH  19  20
ATOM     20  C   UNL     1     -21.385  45.884  -8.937  1.00  0.00    -0.000 C 
BRANCH  20  21
ATOM     21  C   UNL     1     -21.586  46.902  -7.798  1.00  0.00    -0.000 C 
BRANCH  21  22
ATOM     22  C   UNL     1     -21.739  46.291  -6.393  1.00  0.00    -0.000 C 
BRANCH  22  23
ATOM     23  C   UNL     1     -22.672  47.108  -5.482  1.00  0.00    -0.000 C 
BRANCH  23  24
ATOM     24  C   UNL     1     -24.125  47.116  -5.984  1.00  0.00    -0.000 C 
BRANCH  24  25
ATOM     25  C   UNL     1     -24.658  45.702  -6.263  1.00  0.00    -0.003 C 
ATOM     26  C   UNL     1     -25.232  45.601  -7.674  1.00  0.00     0.004 C 
ENDBRANCH  24  25
ENDBRANCH  23  24
ENDBRANCH  22  23
ENDBRANCH  21  22
ENDBRANCH  20  21
ENDBRANCH  19  20
ENDBRANCH  18  19
ENDBRANCH  17  18
ENDBRANCH  16  17
ENDBRANCH  15  16
ENDBRANCH   1  15
TORSDOF 22
ENDMDL
