MODEL 1
REMARK VINA RESULT:    -4.387      0.000      0.000
REMARK INTER + INTRA:          -7.090
REMARK INTER:                  -6.438
REMARK INTRA:                  -0.651
REMARK UNBOUND:                -0.651
REMARK SMILES O=C([O-])CCCCCCCC(=O)[O-]
REMARK SMILES IDX 7 1 6 2 5 3 4 4 2 5 1 6 3 7 8 8 9 9 10 10 11 11 12 12 13 13
REMARK H PARENT
REMARK Flexibility Score: inf
ROOT
ATOM      1  C   UNL     1      74.119  11.998  19.479  1.00  0.00     0.000 C 
ENDROOT
BRANCH   1   2
ATOM      2  C   UNL     1      73.863  13.256  18.634  1.00  0.00     0.000 C 
BRANCH   2   3
ATOM      3  C   UNL     1      74.732  13.305  17.365  1.00  0.00     0.006 C 
BRANCH   3   4
ATOM      4  C   UNL     1      75.306  14.705  17.111  1.00  0.00     0.053 C 
BRANCH   4   5
ATOM      5  C   UNL     1      75.124  15.134  15.686  1.00  0.00     0.041 C 
ATOM      6  O   UNL     1      75.577  14.424  14.749  1.00  0.00    -0.550 OA
ATOM      7  O   UNL     1      74.426  16.298  15.393  1.00  0.00    -0.550 OA
ENDBRANCH   4   5
ENDBRANCH   3   4
ENDBRANCH   2   3
ENDBRANCH   1   2
BRANCH   1   8
ATOM      8  C   UNL     1      75.509  11.392  19.228  1.00  0.00     0.000 C 
BRANCH   8   9
ATOM      9  C   UNL     1      76.503  11.669  20.372  1.00  0.00     0.006 C 
BRANCH   9  10
ATOM     10  C   UNL     1      77.661  12.604  19.981  1.00  0.00     0.053 C 
BRANCH  10  11
ATOM     11  C   UNL     1      78.411  12.120  18.777  1.00  0.00     0.041 C 
ATOM     12  O   UNL     1      79.054  11.039  18.823  1.00  0.00    -0.550 OA
ATOM     13  O   UNL     1      78.430  12.881  17.614  1.00  0.00    -0.550 OA
ENDBRANCH  10  11
ENDBRANCH   9  10
ENDBRANCH   8   9
ENDBRANCH   1   8
TORSDOF 8
ENDMDL
MODEL 2
REMARK VINA RESULT:    -4.369      1.780      2.566
REMARK INTER + INTRA:          -7.063
REMARK INTER:                  -6.573
REMARK INTRA:                  -0.490
REMARK UNBOUND:                -0.651
REMARK SMILES O=C([O-])CCCCCCCC(=O)[O-]
REMARK SMILES IDX 7 1 6 2 5 3 4 4 2 5 1 6 3 7 8 8 9 9 10 10 11 11 12 12 13 13
REMARK H PARENT
REMARK Flexibility Score: inf
ROOT
ATOM      1  C   UNL     1      75.042  13.603  17.475  1.00  0.00     0.000 C 
ENDROOT
BRANCH   1   2
ATOM      2  C   UNL     1      75.164  13.005  16.064  1.00  0.00     0.000 C 
BRANCH   2   3
ATOM      3  C   UNL     1      75.568  14.052  15.010  1.00  0.00     0.006 C 
BRANCH   3   4
ATOM      4  C   UNL     1      76.124  15.331  15.649  1.00  0.00     0.053 C 
BRANCH   4   5
ATOM      5  C   UNL     1      75.353  16.546  15.231  1.00  0.00     0.041 C 
ATOM      6  O   UNL     1      75.960  17.580  14.847  1.00  0.00    -0.550 OA
ATOM      7  O   UNL     1      73.964  16.524  15.236  1.00  0.00    -0.550 OA
ENDBRANCH   4   5
ENDBRANCH   3   4
ENDBRANCH   2   3
ENDBRANCH   1   2
BRANCH   1   8
ATOM      8  C   UNL     1      73.862  13.014  18.265  1.00  0.00     0.000 C 
BRANCH   8   9
ATOM      9  C   UNL     1      74.307  12.074  19.402  1.00  0.00     0.006 C 
BRANCH   9  10
ATOM     10  C   UNL     1      75.819  12.107  19.684  1.00  0.00     0.053 C 
BRANCH  10  11
ATOM     11  C   UNL     1      76.477  10.779  19.459  1.00  0.00     0.041 C 
ATOM     12  O   UNL     1      76.318  10.171  18.368  1.00  0.00    -0.550 OA
ATOM     13  O   UNL     1      77.236  10.195  20.466  1.00  0.00    -0.550 OA
ENDBRANCH  10  11
ENDBRANCH   9  10
ENDBRANCH   8   9
ENDBRANCH   1   8
TORSDOF 8
ENDMDL
MODEL 3
REMARK VINA RESULT:    -4.345      1.149      5.065
REMARK INTER + INTRA:          -7.028
REMARK INTER:                  -6.466
REMARK INTRA:                  -0.563
REMARK UNBOUND:                -0.651
REMARK SMILES O=C([O-])CCCCCCCC(=O)[O-]
REMARK SMILES IDX 7 1 6 2 5 3 4 4 2 5 1 6 3 7 8 8 9 9 10 10 11 11 12 12 13 13
REMARK H PARENT
REMARK Flexibility Score: inf
ROOT
ATOM      1  C   UNL     1      73.860  13.104  18.467  1.00  0.00     0.000 C 
ENDROOT
BRANCH   1   2
ATOM      2  C   UNL     1      74.483  11.788  18.961  1.00  0.00     0.000 C 
BRANCH   2   3
ATOM      3  C   UNL     1      75.425  11.992  20.161  1.00  0.00     0.006 C 
BRANCH   3   4
ATOM      4  C   UNL     1      76.668  11.095  20.079  1.00  0.00     0.053 C 
BRANCH   4   5
ATOM      5  C   UNL     1      77.878  11.856  19.627  1.00  0.00     0.041 C 
ATOM      6  O   UNL     1      77.960  13.096  19.834  1.00  0.00    -0.550 OA
ATOM      7  O   UNL     1      78.927  11.191  19.006  1.00  0.00    -0.550 OA
ENDBRANCH   4   5
ENDBRANCH   3   4
ENDBRANCH   2   3
ENDBRANCH   1   2
BRANCH   1   8
ATOM      8  C   UNL     1      74.908  14.209  18.257  1.00  0.00     0.000 C 
BRANCH   8   9
ATOM      9  C   UNL     1      75.763  13.996  16.993  1.00  0.00     0.006 C 
BRANCH   9  10
ATOM     10  C   UNL     1      75.102  14.500  15.698  1.00  0.00     0.053 C 
BRANCH  10  11
ATOM     11  C   UNL     1      75.630  15.834  15.264  1.00  0.00     0.041 C 
ATOM     12  O   UNL     1      76.869  16.058  15.275  1.00  0.00    -0.550 OA
ATOM     13  O   UNL     1      74.754  16.842  14.880  1.00  0.00    -0.550 OA
ENDBRANCH  10  11
ENDBRANCH   9  10
ENDBRANCH   8   9
ENDBRANCH   1   8
TORSDOF 8
ENDMDL
MODEL 4
REMARK VINA RESULT:    -4.325      1.372      4.001
REMARK INTER + INTRA:          -7.000
REMARK INTER:                  -6.210
REMARK INTRA:                  -0.790
REMARK UNBOUND:                -0.651
REMARK SMILES O=C([O-])CCCCCCCC(=O)[O-]
REMARK SMILES IDX 7 1 6 2 5 3 4 4 2 5 1 6 3 7 8 8 9 9 10 10 11 11 12 12 13 13
REMARK H PARENT
REMARK Flexibility Score: inf
ROOT
ATOM      1  C   UNL     1      75.560  11.566  19.201  1.00  0.00     0.000 C 
ENDROOT
BRANCH   1   2
ATOM      2  C   UNL     1      76.499  11.681  20.414  1.00  0.00     0.000 C 
BRANCH   2   3
ATOM      3  C   UNL     1      77.757  12.514  20.113  1.00  0.00     0.006 C 
BRANCH   3   4
ATOM      4  C   UNL     1      78.081  12.551  18.613  1.00  0.00     0.053 C 
BRANCH   4   5
ATOM      5  C   UNL     1      78.309  13.950  18.126  1.00  0.00     0.041 C 
ATOM      6  O   UNL     1      78.646  14.156  16.929  1.00  0.00    -0.550 OA
ATOM      7  O   UNL     1      78.119  15.026  18.982  1.00  0.00    -0.550 OA
ENDBRANCH   4   5
ENDBRANCH   3   4
ENDBRANCH   2   3
ENDBRANCH   1   2
BRANCH   1   8
ATOM      8  C   UNL     1      74.124  12.012  19.523  1.00  0.00     0.000 C 
BRANCH   8   9
ATOM      9  C   UNL     1      73.620  13.135  18.598  1.00  0.00     0.006 C 
BRANCH   9  10
ATOM     10  C   UNL     1      74.713  14.130  18.170  1.00  0.00     0.053 C 
BRANCH  10  11
ATOM     11  C   UNL     1      74.881  14.198  16.682  1.00  0.00     0.041 C 
ATOM     12  O   UNL     1      75.190  13.164  16.032  1.00  0.00    -0.550 OA
ATOM     13  O   UNL     1      74.732  15.409  16.016  1.00  0.00    -0.550 OA
ENDBRANCH  10  11
ENDBRANCH   9  10
ENDBRANCH   8   9
ENDBRANCH   1   8
TORSDOF 8
ENDMDL
MODEL 5
REMARK VINA RESULT:    -4.298      1.754      5.457
REMARK INTER + INTRA:          -6.959
REMARK INTER:                  -6.494
REMARK INTRA:                  -0.466
REMARK UNBOUND:                -0.651
REMARK SMILES O=C([O-])CCCCCCCC(=O)[O-]
REMARK SMILES IDX 7 1 6 2 5 3 4 4 2 5 1 6 3 7 8 8 9 9 10 10 11 11 12 12 13 13
REMARK H PARENT
REMARK Flexibility Score: inf
ROOT
ATOM      1  C   UNL     1      75.079  13.730  17.693  1.00  0.00     0.000 C 
ENDROOT
BRANCH   1   2
ATOM      2  C   UNL     1      73.929  13.243  18.591  1.00  0.00     0.000 C 
BRANCH   2   3
ATOM      3  C   UNL     1      74.305  11.995  19.410  1.00  0.00     0.006 C 
BRANCH   3   4
ATOM      4  C   UNL     1      75.759  12.040  19.897  1.00  0.00     0.053 C 
BRANCH   4   5
ATOM      5  C   UNL     1      76.514  10.802  19.516  1.00  0.00     0.041 C 
ATOM      6  O   UNL     1      77.173  10.170  20.384  1.00  0.00    -0.550 OA
ATOM      7  O   UNL     1      76.464  10.330  18.211  1.00  0.00    -0.550 OA
ENDBRANCH   4   5
ENDBRANCH   3   4
ENDBRANCH   2   3
ENDBRANCH   1   2
BRANCH   1   8
ATOM      8  C   UNL     1      74.908  13.294  16.229  1.00  0.00     0.000 C 
BRANCH   8   9
ATOM      9  C   UNL     1      75.755  14.128  15.249  1.00  0.00     0.006 C 
BRANCH   9  10
ATOM     10  C   UNL     1      76.197  15.492  15.809  1.00  0.00     0.053 C 
BRANCH  10  11
ATOM     11  C   UNL     1      75.354  16.623  15.304  1.00  0.00     0.041 C 
ATOM     12  O   UNL     1      75.898  17.662  14.845  1.00  0.00    -0.550 OA
ATOM     13  O   UNL     1      73.968  16.547  15.374  1.00  0.00    -0.550 OA
ENDBRANCH  10  11
ENDBRANCH   9  10
ENDBRANCH   8   9
ENDBRANCH   1   8
TORSDOF 8
ENDMDL
MODEL 6
REMARK VINA RESULT:    -4.289      1.638      2.092
REMARK INTER + INTRA:          -6.946
REMARK INTER:                  -6.420
REMARK INTRA:                  -0.526
REMARK UNBOUND:                -0.651
REMARK SMILES O=C([O-])CCCCCCCC(=O)[O-]
REMARK SMILES IDX 7 1 6 2 5 3 4 4 2 5 1 6 3 7 8 8 9 9 10 10 11 11 12 12 13 13
REMARK H PARENT
REMARK Flexibility Score: inf
ROOT
ATOM      1  C   UNL     1      75.547  11.967  20.173  1.00  0.00     0.000 C 
ENDROOT
BRANCH   1   2
ATOM      2  C   UNL     1      74.469  11.690  19.112  1.00  0.00     0.000 C 
BRANCH   2   3
ATOM      3  C   UNL     1      73.793  12.976  18.604  1.00  0.00     0.006 C 
BRANCH   3   4
ATOM      4  C   UNL     1      74.815  14.052  18.216  1.00  0.00     0.053 C 
BRANCH   4   5
ATOM      5  C   UNL     1      74.868  14.264  16.732  1.00  0.00     0.041 C 
ATOM      6  O   UNL     1      74.746  15.422  16.254  1.00  0.00    -0.550 OA
ATOM      7  O   UNL     1      75.082  13.187  15.883  1.00  0.00    -0.550 OA
ENDBRANCH   4   5
ENDBRANCH   3   4
ENDBRANCH   2   3
ENDBRANCH   1   2
BRANCH   1   8
ATOM      8  C   UNL     1      76.701  10.953  20.119  1.00  0.00     0.000 C 
BRANCH   8   9
ATOM      9  C   UNL     1      77.994  11.542  19.524  1.00  0.00     0.006 C 
BRANCH   9  10
ATOM     10  C   UNL     1      78.135  13.062  19.716  1.00  0.00     0.053 C 
BRANCH  10  11
ATOM     11  C   UNL     1      79.556  13.487  19.926  1.00  0.00     0.041 C 
ATOM     12  O   UNL     1      80.496  12.845  19.387  1.00  0.00    -0.550 OA
ATOM     13  O   UNL     1      79.848  14.570  20.747  1.00  0.00    -0.550 OA
ENDBRANCH  10  11
ENDBRANCH   9  10
ENDBRANCH   8   9
ENDBRANCH   1   8
TORSDOF 8
ENDMDL
MODEL 7
REMARK VINA RESULT:    -4.248      1.591      2.137
REMARK INTER + INTRA:          -6.887
REMARK INTER:                  -6.465
REMARK INTRA:                  -0.422
REMARK UNBOUND:                -0.651
REMARK SMILES O=C([O-])CCCCCCCC(=O)[O-]
REMARK SMILES IDX 7 1 6 2 5 3 4 4 2 5 1 6 3 7 8 8 9 9 10 10 11 11 12 12 13 13
REMARK H PARENT
REMARK Flexibility Score: inf
ROOT
ATOM      1  C   UNL     1      73.835  13.120  18.668  1.00  0.00     0.000 C 
ENDROOT
BRANCH   1   2
ATOM      2  C   UNL     1      74.938  14.004  18.061  1.00  0.00     0.000 C 
BRANCH   2   3
ATOM      3  C   UNL     1      74.656  14.381  16.596  1.00  0.00     0.006 C 
BRANCH   3   4
ATOM      4  C   UNL     1      75.903  14.925  15.888  1.00  0.00     0.053 C 
BRANCH   4   5
ATOM      5  C   UNL     1      75.654  16.268  15.270  1.00  0.00     0.041 C 
ATOM      6  O   UNL     1      74.483  16.618  14.967  1.00  0.00    -0.550 OA
ATOM      7  O   UNL     1      76.711  17.144  15.059  1.00  0.00    -0.550 OA
ENDBRANCH   4   5
ENDBRANCH   3   4
ENDBRANCH   2   3
ENDBRANCH   1   2
BRANCH   1   8
ATOM      8  C   UNL     1      74.399  11.880  19.380  1.00  0.00     0.000 C 
BRANCH   8   9
ATOM      9  C   UNL     1      75.784  12.124  20.009  1.00  0.00     0.006 C 
BRANCH   9  10
ATOM     10  C   UNL     1      76.733  10.917  19.918  1.00  0.00     0.053 C 
BRANCH  10  11
ATOM     11  C   UNL     1      76.743  10.292  18.555  1.00  0.00     0.041 C 
ATOM     12  O   UNL     1      77.137  10.954  17.558  1.00  0.00    -0.550 OA
ATOM     13  O   UNL     1      76.282   8.993  18.378  1.00  0.00    -0.550 OA
ENDBRANCH  10  11
ENDBRANCH   9  10
ENDBRANCH   8   9
ENDBRANCH   1   8
TORSDOF 8
ENDMDL
MODEL 8
REMARK VINA RESULT:    -4.190      1.921      5.067
REMARK INTER + INTRA:          -6.801
REMARK INTER:                  -6.352
REMARK INTRA:                  -0.449
REMARK UNBOUND:                -0.651
REMARK SMILES O=C([O-])CCCCCCCC(=O)[O-]
REMARK SMILES IDX 7 1 6 2 5 3 4 4 2 5 1 6 3 7 8 8 9 9 10 10 11 11 12 12 13 13
REMARK H PARENT
REMARK Flexibility Score: inf
ROOT
ATOM      1  C   UNL     1      76.030  12.248  19.348  1.00  0.00     0.000 C 
ENDROOT
BRANCH   1   2
ATOM      2  C   UNL     1      76.644  11.276  20.369  1.00  0.00     0.000 C 
BRANCH   2   3
ATOM      3  C   UNL     1      77.440  10.140  19.703  1.00  0.00     0.006 C 
BRANCH   3   4
ATOM      4  C   UNL     1      76.623   9.419  18.622  1.00  0.00     0.053 C 
BRANCH   4   5
ATOM      5  C   UNL     1      77.364   9.341  17.321  1.00  0.00     0.041 C 
ATOM      6  O   UNL     1      77.253  10.267  16.474  1.00  0.00    -0.550 OA
ATOM      7  O   UNL     1      78.199   8.264  17.059  1.00  0.00    -0.550 OA
ENDBRANCH   4   5
ENDBRANCH   3   4
ENDBRANCH   2   3
ENDBRANCH   1   2
BRANCH   1   8
ATOM      8  C   UNL     1      74.493  12.234  19.371  1.00  0.00     0.000 C 
BRANCH   8   9
ATOM      9  C   UNL     1      73.868  13.348  18.510  1.00  0.00     0.006 C 
BRANCH   9  10
ATOM     10  C   UNL     1      74.894  14.329  17.916  1.00  0.00     0.053 C 
BRANCH  10  11
ATOM     11  C   UNL     1      74.896  14.322  16.417  1.00  0.00     0.041 C 
ATOM     12  O   UNL     1      74.635  15.376  15.778  1.00  0.00    -0.550 OA
ATOM     13  O   UNL     1      75.151  13.145  15.724  1.00  0.00    -0.550 OA
ENDBRANCH  10  11
ENDBRANCH   9  10
ENDBRANCH   8   9
ENDBRANCH   1   8
TORSDOF 8
ENDMDL
MODEL 9
REMARK VINA RESULT:    -4.099      1.751      2.259
REMARK INTER + INTRA:          -6.667
REMARK INTER:                  -5.746
REMARK INTRA:                  -0.921
REMARK UNBOUND:                -0.651
REMARK SMILES O=C([O-])CCCCCCCC(=O)[O-]
REMARK SMILES IDX 7 1 6 2 5 3 4 4 2 5 1 6 3 7 8 8 9 9 10 10 11 11 12 12 13 13
REMARK H PARENT
REMARK Flexibility Score: inf
ROOT
ATOM      1  C   UNL     1      75.577  12.002  20.134  1.00  0.00     0.000 C 
ENDROOT
BRANCH   1   2
ATOM      2  C   UNL     1      74.292  11.804  19.314  1.00  0.00     0.000 C 
BRANCH   2   3
ATOM      3  C   UNL     1      74.028  12.964  18.338  1.00  0.00     0.006 C 
BRANCH   3   4
ATOM      4  C   UNL     1      74.970  14.150  18.580  1.00  0.00     0.053 C 
BRANCH   4   5
ATOM      5  C   UNL     1      75.363  14.823  17.299  1.00  0.00     0.041 C 
ATOM      6  O   UNL     1      74.617  14.741  16.287  1.00  0.00    -0.550 OA
ATOM      7  O   UNL     1      76.534  15.565  17.234  1.00  0.00    -0.550 OA
ENDBRANCH   4   5
ENDBRANCH   3   4
ENDBRANCH   2   3
ENDBRANCH   1   2
BRANCH   1   8
ATOM      8  C   UNL     1      76.640  10.933  19.833  1.00  0.00     0.000 C 
BRANCH   8   9
ATOM      9  C   UNL     1      76.290  10.065  18.609  1.00  0.00     0.006 C 
BRANCH   9  10
ATOM     10  C   UNL     1      77.282  10.202  17.441  1.00  0.00     0.053 C 
BRANCH  10  11
ATOM     11  C   UNL     1      77.224  11.552  16.791  1.00  0.00     0.041 C 
ATOM     12  O   UNL     1      76.407  11.770  15.857  1.00  0.00    -0.550 OA
ATOM     13  O   UNL     1      78.095  12.558  17.190  1.00  0.00    -0.550 OA
ENDBRANCH  10  11
ENDBRANCH   9  10
ENDBRANCH   8   9
ENDBRANCH   1   8
TORSDOF 8
ENDMDL
