MODEL 1
REMARK VINA RESULT:    -5.450      0.000      0.000
REMARK INTER + INTRA:          -6.053
REMARK INTER:                  -5.928
REMARK INTRA:                  -0.125
REMARK UNBOUND:                -0.125
REMARK SMILES Cc1ccc(C(C)C)cc1O
REMARK SMILES IDX 1 1 2 2 10 3 9 4 5 5 4 6 3 7 11 8 6 10 7 11 8 12
REMARK H PARENT 11 9
REMARK Flexibility Score: inf
ROOT
ATOM      1  C   UNL     1     110.172   6.649 -25.966  1.00  0.00     0.048 C 
ATOM      2  C   UNL     1     111.284   7.543 -25.496  1.00  0.00    -0.009 A 
ATOM      3  C   UNL     1     111.355   7.935 -24.147  1.00  0.00     0.118 A 
ATOM      4  C   UNL     1     112.397   8.770 -23.716  1.00  0.00     0.050 A 
ATOM      5  C   UNL     1     113.376   9.222 -24.619  1.00  0.00    -0.042 A 
ATOM      6  C   UNL     1     113.296   8.824 -25.963  1.00  0.00     0.004 A 
ATOM      7  C   UNL     1     112.261   7.993 -26.398  1.00  0.00     0.007 A 
ENDROOT
BRANCH   3   8
ATOM      8  O   UNL     1     110.391   7.496 -23.240  1.00  0.00    -0.508 OA
ATOM      9  H   UNL     1     110.503   7.624 -22.242  1.00  0.00     0.293 HD
ENDBRANCH   3   8
BRANCH   5  10
ATOM     10  C   UNL     1     114.507  10.125 -24.161  1.00  0.00     0.013 C 
ATOM     11  C   UNL     1     114.132  10.871 -22.875  1.00  0.00     0.012 C 
ATOM     12  C   UNL     1     114.915  11.104 -25.268  1.00  0.00     0.012 C 
ENDBRANCH   5  10
TORSDOF 2
ENDMDL
MODEL 2
REMARK VINA RESULT:    -4.966     15.844     17.402
REMARK INTER + INTRA:          -5.526
REMARK INTER:                  -5.399
REMARK INTRA:                  -0.128
REMARK UNBOUND:                -0.125
REMARK SMILES Cc1ccc(C(C)C)cc1O
REMARK SMILES IDX 1 1 2 2 10 3 9 4 5 5 4 6 3 7 11 8 6 10 7 11 8 12
REMARK H PARENT 11 9
REMARK Flexibility Score: inf
ROOT
ATOM      1  C   UNL     1     112.148  10.807 -40.412  1.00  0.00     0.048 C 
ATOM      2  C   UNL     1     111.567   9.462 -40.747  1.00  0.00    -0.009 A 
ATOM      3  C   UNL     1     112.029   8.752 -41.870  1.00  0.00     0.118 A 
ATOM      4  C   UNL     1     111.483   7.497 -42.176  1.00  0.00     0.050 A 
ATOM      5  C   UNL     1     110.475   6.936 -41.370  1.00  0.00    -0.042 A 
ATOM      6  C   UNL     1     110.021   7.653 -40.252  1.00  0.00     0.004 A 
ATOM      7  C   UNL     1     110.563   8.904 -39.943  1.00  0.00     0.007 A 
ENDROOT
BRANCH   3   8
ATOM      8  O   UNL     1     113.027   9.295 -42.678  1.00  0.00    -0.508 OA
ATOM      9  H   UNL     1     113.712   9.946 -42.313  1.00  0.00     0.293 HD
ENDBRANCH   3   8
BRANCH   5  10
ATOM     10  C   UNL     1     109.878   5.579 -41.693  1.00  0.00     0.013 C 
ATOM     11  C   UNL     1     109.331   5.542 -43.125  1.00  0.00     0.012 C 
ATOM     12  C   UNL     1     108.795   5.195 -40.679  1.00  0.00     0.012 C 
ENDBRANCH   5  10
TORSDOF 2
ENDMDL
MODEL 3
REMARK VINA RESULT:    -4.789      1.430      2.042
REMARK INTER + INTRA:          -5.334
REMARK INTER:                  -5.208
REMARK INTRA:                  -0.126
REMARK UNBOUND:                -0.125
REMARK SMILES Cc1ccc(C(C)C)cc1O
REMARK SMILES IDX 1 1 2 2 10 3 9 4 5 5 4 6 3 7 11 8 6 10 7 11 8 12
REMARK H PARENT 11 9
REMARK Flexibility Score: inf
ROOT
ATOM      1  C   UNL     1     110.001   6.375 -25.756  1.00  0.00     0.048 C 
ATOM      2  C   UNL     1     111.098   7.316 -25.346  1.00  0.00    -0.009 A 
ATOM      3  C   UNL     1     111.966   7.856 -26.313  1.00  0.00     0.118 A 
ATOM      4  C   UNL     1     112.988   8.734 -25.922  1.00  0.00     0.050 A 
ATOM      5  C   UNL     1     113.157   9.084 -24.570  1.00  0.00    -0.042 A 
ATOM      6  C   UNL     1     112.285   8.539 -23.613  1.00  0.00     0.004 A 
ATOM      7  C   UNL     1     111.266   7.664 -23.997  1.00  0.00     0.007 A 
ENDROOT
BRANCH   3   8
ATOM      8  O   UNL     1     111.811   7.519 -27.657  1.00  0.00    -0.508 OA
ATOM      9  H   UNL     1     111.323   6.677 -27.941  1.00  0.00     0.293 HD
ENDBRANCH   3   8
BRANCH   5  10
ATOM     10  C   UNL     1     114.259  10.033 -24.138  1.00  0.00     0.013 C 
ATOM     11  C   UNL     1     113.861  10.805 -22.875  1.00  0.00     0.012 C 
ATOM     12  C   UNL     1     114.640  10.991 -25.273  1.00  0.00     0.012 C 
ENDBRANCH   5  10
TORSDOF 2
ENDMDL
MODEL 4
REMARK VINA RESULT:    -4.455      1.930      5.521
REMARK INTER + INTRA:          -4.970
REMARK INTER:                  -4.851
REMARK INTRA:                  -0.119
REMARK UNBOUND:                -0.125
REMARK SMILES Cc1ccc(C(C)C)cc1O
REMARK SMILES IDX 1 1 2 2 10 3 9 4 5 5 4 6 3 7 11 8 6 10 7 11 8 12
REMARK H PARENT 11 9
REMARK Flexibility Score: inf
ROOT
ATOM      1  C   UNL     1     112.135   9.199 -25.107  1.00  0.00     0.048 C 
ATOM      2  C   UNL     1     111.262   8.041 -25.502  1.00  0.00    -0.009 A 
ATOM      3  C   UNL     1     110.639   7.256 -24.516  1.00  0.00     0.118 A 
ATOM      4  C   UNL     1     109.825   6.177 -24.892  1.00  0.00     0.050 A 
ATOM      5  C   UNL     1     109.622   5.870 -26.250  1.00  0.00    -0.042 A 
ATOM      6  C   UNL     1     110.248   6.660 -27.227  1.00  0.00     0.004 A 
ATOM      7  C   UNL     1     111.060   7.736 -26.857  1.00  0.00     0.007 A 
ENDROOT
BRANCH   3   8
ATOM      8  O   UNL     1     110.831   7.548 -23.166  1.00  0.00    -0.508 OA
ATOM      9  H   UNL     1     111.615   7.172 -22.647  1.00  0.00     0.293 HD
ENDBRANCH   3   8
BRANCH   5  10
ATOM     10  C   UNL     1     108.743   4.705 -26.667  1.00  0.00     0.013 C 
ATOM     11  C   UNL     1     107.655   5.157 -27.648  1.00  0.00     0.012 C 
ATOM     12  C   UNL     1     108.131   4.009 -25.446  1.00  0.00     0.012 C 
ENDBRANCH   5  10
TORSDOF 2
ENDMDL
MODEL 5
REMARK VINA RESULT:    -4.346     15.361     16.959
REMARK INTER + INTRA:          -4.853
REMARK INTER:                  -4.725
REMARK INTRA:                  -0.127
REMARK UNBOUND:                -0.125
REMARK SMILES Cc1ccc(C(C)C)cc1O
REMARK SMILES IDX 1 1 2 2 10 3 9 4 5 5 4 6 3 7 11 8 6 10 7 11 8 12
REMARK H PARENT 11 9
REMARK Flexibility Score: inf
ROOT
ATOM      1  C   UNL     1     113.656  10.504 -40.693  1.00  0.00     0.048 C 
ATOM      2  C   UNL     1     112.587   9.477 -40.937  1.00  0.00    -0.009 A 
ATOM      3  C   UNL     1     111.603   9.234 -39.962  1.00  0.00     0.118 A 
ATOM      4  C   UNL     1     110.608   8.274 -40.196  1.00  0.00     0.050 A 
ATOM      5  C   UNL     1     110.581   7.547 -41.400  1.00  0.00    -0.042 A 
ATOM      6  C   UNL     1     111.567   7.797 -42.367  1.00  0.00     0.004 A 
ATOM      7  C   UNL     1     112.561   8.753 -42.139  1.00  0.00     0.007 A 
ENDROOT
BRANCH   3   8
ATOM      8  O   UNL     1     111.618   9.946 -38.763  1.00  0.00    -0.508 OA
ATOM      9  H   UNL     1     110.812   9.972 -38.150  1.00  0.00     0.293 HD
ENDBRANCH   3   8
BRANCH   5  10
ATOM     10  C   UNL     1     109.508   6.506 -41.663  1.00  0.00     0.013 C 
ATOM     11  C   UNL     1     109.645   5.317 -40.705  1.00  0.00     0.012 C 
ATOM     12  C   UNL     1     109.532   6.044 -43.124  1.00  0.00     0.012 C 
ENDBRANCH   5  10
TORSDOF 2
ENDMDL
MODEL 6
REMARK VINA RESULT:    -4.323     14.569     15.761
REMARK INTER + INTRA:          -4.827
REMARK INTER:                  -4.700
REMARK INTRA:                  -0.127
REMARK UNBOUND:                -0.125
REMARK SMILES Cc1ccc(C(C)C)cc1O
REMARK SMILES IDX 1 1 2 2 10 3 9 4 5 5 4 6 3 7 11 8 6 10 7 11 8 12
REMARK H PARENT 11 9
REMARK Flexibility Score: inf
ROOT
ATOM      1  C   UNL     1     111.501   7.053 -41.297  1.00  0.00     0.048 C 
ATOM      2  C   UNL     1     111.945   8.384 -40.760  1.00  0.00    -0.009 A 
ATOM      3  C   UNL     1     112.373   9.395 -41.639  1.00  0.00     0.118 A 
ATOM      4  C   UNL     1     112.786  10.636 -41.131  1.00  0.00     0.050 A 
ATOM      5  C   UNL     1     112.776  10.883 -39.745  1.00  0.00    -0.042 A 
ATOM      6  C   UNL     1     112.347   9.868 -38.877  1.00  0.00     0.004 A 
ATOM      7  C   UNL     1     111.935   8.630 -39.378  1.00  0.00     0.007 A 
ENDROOT
BRANCH   3   8
ATOM      8  O   UNL     1     112.388   9.165 -43.014  1.00  0.00    -0.508 OA
ATOM      9  H   UNL     1     111.536   8.985 -43.533  1.00  0.00     0.293 HD
ENDBRANCH   3   8
BRANCH   5  10
ATOM     10  C   UNL     1     113.221  12.222 -39.186  1.00  0.00     0.013 C 
ATOM     11  C   UNL     1     114.574  12.644 -39.771  1.00  0.00     0.012 C 
ATOM     12  C   UNL     1     113.267  12.194 -37.654  1.00  0.00     0.012 C 
ENDBRANCH   5  10
TORSDOF 2
ENDMDL
MODEL 7
REMARK VINA RESULT:    -4.258      1.618      2.697
REMARK INTER + INTRA:          -4.757
REMARK INTER:                  -4.658
REMARK INTRA:                  -0.099
REMARK UNBOUND:                -0.125
REMARK SMILES Cc1ccc(C(C)C)cc1O
REMARK SMILES IDX 1 1 2 2 10 3 9 4 5 5 4 6 3 7 11 8 6 10 7 11 8 12
REMARK H PARENT 11 9
REMARK Flexibility Score: inf
ROOT
ATOM      1  C   UNL     1     111.134   7.501 -24.002  1.00  0.00     0.048 C 
ATOM      2  C   UNL     1     112.213   8.461 -24.417  1.00  0.00    -0.009 A 
ATOM      3  C   UNL     1     112.660   8.491 -25.751  1.00  0.00     0.118 A 
ATOM      4  C   UNL     1     113.667   9.389 -26.132  1.00  0.00     0.050 A 
ATOM      5  C   UNL     1     114.239  10.267 -25.192  1.00  0.00    -0.042 A 
ATOM      6  C   UNL     1     113.787  10.229 -23.864  1.00  0.00     0.004 A 
ATOM      7  C   UNL     1     112.783   9.336 -23.480  1.00  0.00     0.007 A 
ENDROOT
BRANCH   3   8
ATOM      8  O   UNL     1     112.102   7.627 -26.693  1.00  0.00    -0.508 OA
ATOM      9  H   UNL     1     112.460   7.569 -27.639  1.00  0.00     0.293 HD
ENDBRANCH   3   8
BRANCH   5  10
ATOM     10  C   UNL     1     115.330  11.243 -25.594  1.00  0.00     0.013 C 
ATOM     11  C   UNL     1     114.878  12.124 -26.765  1.00  0.00     0.012 C 
ATOM     12  C   UNL     1     116.633  10.509 -25.927  1.00  0.00     0.012 C 
ENDBRANCH   5  10
TORSDOF 2
ENDMDL
MODEL 8
REMARK VINA RESULT:    -4.247     14.992     16.273
REMARK INTER + INTRA:          -4.744
REMARK INTER:                  -4.618
REMARK INTRA:                  -0.126
REMARK UNBOUND:                -0.125
REMARK SMILES Cc1ccc(C(C)C)cc1O
REMARK SMILES IDX 1 1 2 2 10 3 9 4 5 5 4 6 3 7 11 8 6 10 7 11 8 12
REMARK H PARENT 11 9
REMARK Flexibility Score: inf
ROOT
ATOM      1  C   UNL     1     109.667   5.823 -41.971  1.00  0.00     0.048 C 
ATOM      2  C   UNL     1     110.433   7.061 -41.598  1.00  0.00    -0.009 A 
ATOM      3  C   UNL     1     110.021   7.847 -40.508  1.00  0.00     0.118 A 
ATOM      4  C   UNL     1     110.741   9.001 -40.165  1.00  0.00     0.050 A 
ATOM      5  C   UNL     1     111.877   9.384 -40.902  1.00  0.00    -0.042 A 
ATOM      6  C   UNL     1     112.280   8.592 -41.989  1.00  0.00     0.004 A 
ATOM      7  C   UNL     1     111.566   7.441 -42.334  1.00  0.00     0.007 A 
ENDROOT
BRANCH   3   8
ATOM      8  O   UNL     1     108.897   7.480 -39.768  1.00  0.00    -0.508 OA
ATOM      9  H   UNL     1     108.606   8.002 -38.949  1.00  0.00     0.293 HD
ENDBRANCH   3   8
BRANCH   5  10
ATOM     10  C   UNL     1     112.663  10.630 -40.540  1.00  0.00     0.013 C 
ATOM     11  C   UNL     1     114.104  10.545 -41.056  1.00  0.00     0.012 C 
ATOM     12  C   UNL     1     112.632  10.883 -39.028  1.00  0.00     0.012 C 
ENDBRANCH   5  10
TORSDOF 2
ENDMDL
