MODEL 1
REMARK VINA RESULT:    -2.740      0.000      0.000
REMARK INTER + INTRA:          -6.230
REMARK INTER:                  -4.822
REMARK INTRA:                  -1.407
REMARK UNBOUND:                -1.407
REMARK SMILES CCCCCCCCCCCCCCC(=O)[O-]
REMARK SMILES IDX 9 1 10 2 11 3 12 4 13 5 14 6 15 7 16 8 17 9 8 10 7 11 6 12
REMARK SMILES IDX 5 13 4 14 3 15 2 16 1 17
REMARK H PARENT
REMARK Flexibility Score: inf
ROOT
ATOM      1  C   UNL     1      -6.230  -6.252  -9.378  1.00  0.00     0.000 C 
ENDROOT
BRANCH   1   2
ATOM      2  C   UNL     1      -4.736  -6.596  -9.462  1.00  0.00     0.000 C 
BRANCH   2   3
ATOM      3  C   UNL     1      -4.290  -7.589  -8.378  1.00  0.00     0.000 C 
BRANCH   3   4
ATOM      4  C   UNL     1      -4.114  -9.018  -8.921  1.00  0.00     0.000 C 
BRANCH   4   5
ATOM      5  C   UNL     1      -5.144 -10.000  -8.341  1.00  0.00     0.006 C 
BRANCH   5   6
ATOM      6  C   UNL     1      -5.270  -9.893  -6.816  1.00  0.00     0.053 C 
BRANCH   6   7
ATOM      7  C   UNL     1      -6.711  -9.897  -6.410  1.00  0.00     0.041 C 
ATOM      8  O   UNL     1      -7.615  -9.943  -7.284  1.00  0.00    -0.550 OA
ATOM      9  O   UNL     1      -7.055  -9.800  -5.067  1.00  0.00    -0.550 OA
ENDBRANCH   6   7
ENDBRANCH   5   6
ENDBRANCH   4   5
ENDBRANCH   3   4
ENDBRANCH   2   3
ENDBRANCH   1   2
BRANCH   1  10
ATOM     10  C   UNL     1      -7.083  -7.350 -10.034  1.00  0.00     0.000 C 
BRANCH  10  11
ATOM     11  C   UNL     1      -8.521  -7.390  -9.493  1.00  0.00    -0.000 C 
BRANCH  11  12
ATOM     12  C   UNL     1      -9.254  -6.049  -9.665  1.00  0.00    -0.000 C 
BRANCH  12  13
ATOM     13  C   UNL     1     -10.104  -5.668  -8.438  1.00  0.00    -0.000 C 
BRANCH  13  14
ATOM     14  C   UNL     1     -10.125  -4.168  -8.091  1.00  0.00    -0.000 C 
BRANCH  14  15
ATOM     15  C   UNL     1      -9.644  -3.877  -6.659  1.00  0.00    -0.000 C 
BRANCH  15  16
ATOM     16  C   UNL     1      -8.650  -4.931  -6.147  1.00  0.00    -0.003 C 
ATOM     17  C   UNL     1      -7.193  -4.554  -6.418  1.00  0.00     0.004 C 
ENDBRANCH  15  16
ENDBRANCH  14  15
ENDBRANCH  13  14
ENDBRANCH  12  13
ENDBRANCH  11  12
ENDBRANCH  10  11
ENDBRANCH   1  10
TORSDOF 13
ENDMDL
MODEL 2
REMARK VINA RESULT:    -2.678      1.802      3.124
REMARK INTER + INTRA:          -6.120
REMARK INTER:                  -4.580
REMARK INTRA:                  -1.541
REMARK UNBOUND:                -1.407
REMARK SMILES CCCCCCCCCCCCCCC(=O)[O-]
REMARK SMILES IDX 9 1 10 2 11 3 12 4 13 5 14 6 15 7 16 8 17 9 8 10 7 11 6 12
REMARK SMILES IDX 5 13 4 14 3 15 2 16 1 17
REMARK H PARENT
REMARK Flexibility Score: inf
ROOT
ATOM      1  C   UNL     1      -6.557  -5.948  -8.880  1.00  0.00     0.000 C 
ENDROOT
BRANCH   1   2
ATOM      2  C   UNL     1      -5.106  -5.892  -9.381  1.00  0.00     0.000 C 
BRANCH   2   3
ATOM      3  C   UNL     1      -4.526  -7.282  -9.683  1.00  0.00     0.000 C 
BRANCH   3   4
ATOM      4  C   UNL     1      -5.204  -8.396  -8.867  1.00  0.00     0.000 C 
BRANCH   4   5
ATOM      5  C   UNL     1      -4.546  -9.769  -9.081  1.00  0.00     0.006 C 
BRANCH   5   6
ATOM      6  C   UNL     1      -3.337  -9.995  -8.163  1.00  0.00     0.053 C 
BRANCH   6   7
ATOM      7  C   UNL     1      -3.666  -9.596  -6.759  1.00  0.00     0.041 C 
ATOM      8  O   UNL     1      -4.656 -10.104  -6.172  1.00  0.00    -0.550 OA
ATOM      9  O   UNL     1      -2.908  -8.625  -6.117  1.00  0.00    -0.550 OA
ENDBRANCH   6   7
ENDBRANCH   5   6
ENDBRANCH   4   5
ENDBRANCH   3   4
ENDBRANCH   2   3
ENDBRANCH   1   2
BRANCH   1  10
ATOM     10  C   UNL     1      -6.696  -5.239  -7.523  1.00  0.00     0.000 C 
BRANCH  10  11
ATOM     11  C   UNL     1      -7.951  -5.675  -6.750  1.00  0.00    -0.000 C 
BRANCH  11  12
ATOM     12  C   UNL     1      -9.233  -5.012  -7.282  1.00  0.00    -0.000 C 
BRANCH  12  13
ATOM     13  C   UNL     1     -10.050  -5.938  -8.201  1.00  0.00    -0.000 C 
BRANCH  13  14
ATOM     14  C   UNL     1     -10.042  -7.427  -7.811  1.00  0.00    -0.000 C 
BRANCH  14  15
ATOM     15  C   UNL     1      -9.613  -8.348  -8.966  1.00  0.00    -0.000 C 
BRANCH  15  16
ATOM     16  C   UNL     1      -8.713  -9.501  -8.495  1.00  0.00    -0.003 C 
ATOM     17  C   UNL     1      -8.290  -9.363  -7.032  1.00  0.00     0.004 C 
ENDBRANCH  15  16
ENDBRANCH  14  15
ENDBRANCH  13  14
ENDBRANCH  12  13
ENDBRANCH  11  12
ENDBRANCH  10  11
ENDBRANCH   1  10
TORSDOF 13
ENDMDL
MODEL 3
REMARK VINA RESULT:    -2.425      2.159      3.554
REMARK INTER + INTRA:          -5.675
REMARK INTER:                  -4.379
REMARK INTRA:                  -1.296
REMARK UNBOUND:                -1.407
REMARK SMILES CCCCCCCCCCCCCCC(=O)[O-]
REMARK SMILES IDX 9 1 10 2 11 3 12 4 13 5 14 6 15 7 16 8 17 9 8 10 7 11 6 12
REMARK SMILES IDX 5 13 4 14 3 15 2 16 1 17
REMARK H PARENT
REMARK Flexibility Score: inf
ROOT
ATOM      1  C   UNL     1      -5.453  -9.227  -6.452  1.00  0.00     0.000 C 
ENDROOT
BRANCH   1   2
ATOM      2  C   UNL     1      -4.151 -10.040  -6.462  1.00  0.00     0.000 C 
BRANCH   2   3
ATOM      3  C   UNL     1      -3.224  -9.667  -7.630  1.00  0.00     0.000 C 
BRANCH   3   4
ATOM      4  C   UNL     1      -3.816 -10.045  -8.999  1.00  0.00     0.000 C 
BRANCH   4   5
ATOM      5  C   UNL     1      -4.153  -8.814  -9.856  1.00  0.00     0.006 C 
BRANCH   5   6
ATOM      6  C   UNL     1      -4.060  -7.501  -9.069  1.00  0.00     0.053 C 
BRANCH   6   7
ATOM      7  C   UNL     1      -5.147  -6.562  -9.490  1.00  0.00     0.041 C 
ATOM      8  O   UNL     1      -6.173  -7.002 -10.072  1.00  0.00    -0.550 OA
ATOM      9  O   UNL     1      -5.004  -5.196  -9.284  1.00  0.00    -0.550 OA
ENDBRANCH   6   7
ENDBRANCH   5   6
ENDBRANCH   4   5
ENDBRANCH   3   4
ENDBRANCH   2   3
ENDBRANCH   1   2
BRANCH   1  10
ATOM     10  C   UNL     1      -6.663 -10.125  -6.759  1.00  0.00     0.000 C 
BRANCH  10  11
ATOM     11  C   UNL     1      -7.608  -9.513  -7.805  1.00  0.00    -0.000 C 
BRANCH  11  12
ATOM     12  C   UNL     1      -9.080  -9.543  -7.360  1.00  0.00    -0.000 C 
BRANCH  12  13
ATOM     13  C   UNL     1      -9.890  -8.343  -7.883  1.00  0.00    -0.000 C 
BRANCH  13  14
ATOM     14  C   UNL     1      -9.103  -7.026  -8.019  1.00  0.00    -0.000 C 
BRANCH  14  15
ATOM     15  C   UNL     1      -9.890  -5.802  -7.521  1.00  0.00    -0.000 C 
BRANCH  15  16
ATOM     16  C   UNL     1      -9.020  -4.838  -6.699  1.00  0.00    -0.003 C 
ATOM     17  C   UNL     1      -7.545  -5.240  -6.682  1.00  0.00     0.004 C 
ENDBRANCH  15  16
ENDBRANCH  14  15
ENDBRANCH  13  14
ENDBRANCH  12  13
ENDBRANCH  11  12
ENDBRANCH  10  11
ENDBRANCH   1  10
TORSDOF 13
ENDMDL
MODEL 4
REMARK VINA RESULT:    -2.403      1.990      5.376
REMARK INTER + INTRA:          -5.636
REMARK INTER:                  -3.822
REMARK INTRA:                  -1.814
REMARK UNBOUND:                -1.407
REMARK SMILES CCCCCCCCCCCCCCC(=O)[O-]
REMARK SMILES IDX 9 1 10 2 11 3 12 4 13 5 14 6 15 7 16 8 17 9 8 10 7 11 6 12
REMARK SMILES IDX 5 13 4 14 3 15 2 16 1 17
REMARK H PARENT
REMARK Flexibility Score: inf
ROOT
ATOM      1  C   UNL     1      -6.540  -5.520  -9.986  1.00  0.00     0.000 C 
ENDROOT
BRANCH   1   2
ATOM      2  C   UNL     1      -7.618  -6.609 -10.094  1.00  0.00     0.000 C 
BRANCH   2   3
ATOM      3  C   UNL     1      -9.042  -6.057  -9.926  1.00  0.00     0.000 C 
BRANCH   3   4
ATOM      4  C   UNL     1      -9.882  -6.880  -8.934  1.00  0.00     0.000 C 
BRANCH   4   5
ATOM      5  C   UNL     1      -9.872  -6.284  -7.517  1.00  0.00     0.006 C 
BRANCH   5   6
ATOM      6  C   UNL     1      -9.138  -4.938  -7.445  1.00  0.00     0.053 C 
BRANCH   6   7
ATOM      7  C   UNL     1      -7.976  -5.027  -6.506  1.00  0.00     0.041 C 
ATOM      8  O   UNL     1      -7.940  -5.927  -5.627  1.00  0.00    -0.550 OA
ATOM      9  O   UNL     1      -6.958  -4.084  -6.570  1.00  0.00    -0.550 OA
ENDBRANCH   6   7
ENDBRANCH   5   6
ENDBRANCH   4   5
ENDBRANCH   3   4
ENDBRANCH   2   3
ENDBRANCH   1   2
BRANCH   1  10
ATOM     10  C   UNL     1      -5.382  -5.983  -9.088  1.00  0.00     0.000 C 
BRANCH  10  11
ATOM     11  C   UNL     1      -4.249  -6.657  -9.878  1.00  0.00    -0.000 C 
BRANCH  11  12
ATOM     12  C   UNL     1      -4.135  -8.162  -9.581  1.00  0.00    -0.000 C 
BRANCH  12  13
ATOM     13  C   UNL     1      -4.165  -8.479  -8.074  1.00  0.00    -0.000 C 
BRANCH  13  14
ATOM     14  C   UNL     1      -4.652  -9.893  -7.708  1.00  0.00    -0.000 C 
BRANCH  14  15
ATOM     15  C   UNL     1      -6.140 -10.117  -8.029  1.00  0.00    -0.000 C 
BRANCH  15  16
ATOM     16  C   UNL     1      -7.036  -9.001  -7.469  1.00  0.00    -0.003 C 
ATOM     17  C   UNL     1      -7.987  -9.495  -6.378  1.00  0.00     0.004 C 
ENDBRANCH  15  16
ENDBRANCH  14  15
ENDBRANCH  13  14
ENDBRANCH  12  13
ENDBRANCH  11  12
ENDBRANCH  10  11
ENDBRANCH   1  10
TORSDOF 13
ENDMDL
MODEL 5
REMARK VINA RESULT:    -2.105     21.659     23.574
REMARK INTER + INTRA:          -5.112
REMARK INTER:                  -4.204
REMARK INTRA:                  -0.908
REMARK UNBOUND:                -1.407
REMARK SMILES CCCCCCCCCCCCCCC(=O)[O-]
REMARK SMILES IDX 9 1 10 2 11 3 12 4 13 5 14 6 15 7 16 8 17 9 8 10 7 11 6 12
REMARK SMILES IDX 5 13 4 14 3 15 2 16 1 17
REMARK H PARENT
REMARK Flexibility Score: inf
ROOT
ATOM      1  C   UNL     1       5.776   5.614   2.187  1.00  0.00     0.000 C 
ENDROOT
BRANCH   1   2
ATOM      2  C   UNL     1       6.563   5.915   0.903  1.00  0.00     0.000 C 
BRANCH   2   3
ATOM      3  C   UNL     1       8.083   5.938   1.128  1.00  0.00     0.000 C 
BRANCH   3   4
ATOM      4  C   UNL     1       8.774   4.658   0.625  1.00  0.00     0.000 C 
BRANCH   4   5
ATOM      5  C   UNL     1      10.060   4.337   1.403  1.00  0.00     0.006 C 
BRANCH   5   6
ATOM      6  C   UNL     1      10.125   2.875   1.863  1.00  0.00     0.053 C 
BRANCH   6   7
ATOM      7  C   UNL     1      10.097   2.797   3.358  1.00  0.00     0.041 C 
ATOM      8  O   UNL     1      10.099   3.850   4.047  1.00  0.00    -0.550 OA
ATOM      9  O   UNL     1      10.119   1.560   3.989  1.00  0.00    -0.550 OA
ENDBRANCH   6   7
ENDBRANCH   5   6
ENDBRANCH   4   5
ENDBRANCH   3   4
ENDBRANCH   2   3
ENDBRANCH   1   2
BRANCH   1  10
ATOM     10  C   UNL     1       5.582   6.890   3.022  1.00  0.00     0.000 C 
BRANCH  10  11
ATOM     11  C   UNL     1       6.317   6.834   4.372  1.00  0.00    -0.000 C 
BRANCH  11  12
ATOM     12  C   UNL     1       7.783   6.389   4.228  1.00  0.00    -0.000 C 
BRANCH  12  13
ATOM     13  C   UNL     1       8.657   6.810   5.423  1.00  0.00    -0.000 C 
BRANCH  13  14
ATOM     14  C   UNL     1      10.022   7.423   5.058  1.00  0.00    -0.000 C 
BRANCH  14  15
ATOM     15  C   UNL     1       9.994   8.960   5.005  1.00  0.00    -0.000 C 
BRANCH  15  16
ATOM     16  C   UNL     1       9.956   9.498   3.566  1.00  0.00    -0.003 C 
ATOM     17  C   UNL     1      10.125   8.398   2.517  1.00  0.00     0.004 C 
ENDBRANCH  15  16
ENDBRANCH  14  15
ENDBRANCH  13  14
ENDBRANCH  12  13
ENDBRANCH  11  12
ENDBRANCH  10  11
ENDBRANCH   1  10
TORSDOF 13
ENDMDL
MODEL 6
REMARK VINA RESULT:    -1.832     21.896     24.049
REMARK INTER + INTRA:          -4.631
REMARK INTER:                  -3.544
REMARK INTRA:                  -1.087
REMARK UNBOUND:                -1.407
REMARK SMILES CCCCCCCCCCCCCCC(=O)[O-]
REMARK SMILES IDX 9 1 10 2 11 3 12 4 13 5 14 6 15 7 16 8 17 9 8 10 7 11 6 12
REMARK SMILES IDX 5 13 4 14 3 15 2 16 1 17
REMARK H PARENT
REMARK Flexibility Score: inf
ROOT
ATOM      1  C   UNL     1       5.571   6.059   2.056  1.00  0.00     0.000 C 
ENDROOT
BRANCH   1   2
ATOM      2  C   UNL     1       6.407   5.982   3.342  1.00  0.00     0.000 C 
BRANCH   2   3
ATOM      3  C   UNL     1       6.354   7.278   4.167  1.00  0.00     0.000 C 
BRANCH   3   4
ATOM      4  C   UNL     1       7.649   7.528   4.959  1.00  0.00     0.000 C 
BRANCH   4   5
ATOM      5  C   UNL     1       8.137   8.981   4.847  1.00  0.00     0.006 C 
BRANCH   5   6
ATOM      6  C   UNL     1       9.644   9.081   4.575  1.00  0.00     0.053 C 
BRANCH   6   7
ATOM      7  C   UNL     1       9.912   9.045   3.103  1.00  0.00     0.041 C 
ATOM      8  O   UNL     1       9.901  10.108   2.431  1.00  0.00    -0.550 OA
ATOM      9  O   UNL     1      10.125   7.829   2.467  1.00  0.00    -0.550 OA
ENDBRANCH   6   7
ENDBRANCH   5   6
ENDBRANCH   4   5
ENDBRANCH   3   4
ENDBRANCH   2   3
ENDBRANCH   1   2
BRANCH   1  10
ATOM     10  C   UNL     1       6.363   5.520   0.855  1.00  0.00     0.000 C 
BRANCH  10  11
ATOM     11  C   UNL     1       7.881   5.705   1.011  1.00  0.00    -0.000 C 
BRANCH  11  12
ATOM     12  C   UNL     1       8.685   4.561   0.370  1.00  0.00    -0.000 C 
BRANCH  12  13
ATOM     13  C   UNL     1      10.069   4.366   1.015  1.00  0.00    -0.000 C 
BRANCH  13  14
ATOM     14  C   UNL     1      10.112   3.382   2.199  1.00  0.00    -0.000 C 
BRANCH  14  15
ATOM     15  C   UNL     1       9.857   4.064   3.555  1.00  0.00    -0.000 C 
BRANCH  15  16
ATOM     16  C   UNL     1      10.125   3.127   4.743  1.00  0.00    -0.003 C 
ATOM     17  C   UNL     1       9.962   1.650   4.382  1.00  0.00     0.004 C 
ENDBRANCH  15  16
ENDBRANCH  14  15
ENDBRANCH  13  14
ENDBRANCH  12  13
ENDBRANCH  11  12
ENDBRANCH  10  11
ENDBRANCH   1  10
TORSDOF 13
ENDMDL
MODEL 7
REMARK VINA RESULT:    -1.715      1.993      5.204
REMARK INTER + INTRA:          -4.426
REMARK INTER:                  -2.980
REMARK INTRA:                  -1.446
REMARK UNBOUND:                -1.407
REMARK SMILES CCCCCCCCCCCCCCC(=O)[O-]
REMARK SMILES IDX 9 1 10 2 11 3 12 4 13 5 14 6 15 7 16 8 17 9 8 10 7 11 6 12
REMARK SMILES IDX 5 13 4 14 3 15 2 16 1 17
REMARK H PARENT
REMARK Flexibility Score: inf
ROOT
ATOM      1  C   UNL     1      -6.527  -5.176  -8.580  1.00  0.00     0.000 C 
ENDROOT
BRANCH   1   2
ATOM      2  C   UNL     1      -6.914  -5.143  -7.094  1.00  0.00     0.000 C 
BRANCH   2   3
ATOM      3  C   UNL     1      -8.206  -5.919  -6.797  1.00  0.00     0.000 C 
BRANCH   3   4
ATOM      4  C   UNL     1      -9.238  -5.807  -7.933  1.00  0.00     0.000 C 
BRANCH   4   5
ATOM      5  C   UNL     1     -10.016  -7.114  -8.156  1.00  0.00     0.006 C 
BRANCH   5   6
ATOM      6  C   UNL     1     -10.117  -7.498  -9.637  1.00  0.00     0.053 C 
BRANCH   6   7
ATOM      7  C   UNL     1      -9.413  -8.795  -9.889  1.00  0.00     0.041 C 
ATOM      8  O   UNL     1     -10.052  -9.879  -9.856  1.00  0.00    -0.550 OA
ATOM      9  O   UNL     1      -8.042  -8.809 -10.111  1.00  0.00    -0.550 OA
ENDBRANCH   6   7
ENDBRANCH   5   6
ENDBRANCH   4   5
ENDBRANCH   3   4
ENDBRANCH   2   3
ENDBRANCH   1   2
BRANCH   1  10
ATOM     10  C   UNL     1      -5.091  -5.692  -8.761  1.00  0.00     0.000 C 
BRANCH  10  11
ATOM     11  C   UNL     1      -4.868  -6.366 -10.125  1.00  0.00    -0.000 C 
BRANCH  11  12
ATOM     12  C   UNL     1      -4.619  -7.879 -10.003  1.00  0.00    -0.000 C 
BRANCH  12  13
ATOM     13  C   UNL     1      -3.757  -8.248  -8.781  1.00  0.00    -0.000 C 
BRANCH  13  14
ATOM     14  C   UNL     1      -4.346  -9.336  -7.864  1.00  0.00    -0.000 C 
BRANCH  14  15
ATOM     15  C   UNL     1      -5.883  -9.310  -7.813  1.00  0.00    -0.000 C 
BRANCH  15  16
ATOM     16  C   UNL     1      -6.439  -9.963  -6.538  1.00  0.00    -0.003 C 
ATOM     17  C   UNL     1      -7.940  -9.731  -6.360  1.00  0.00     0.004 C 
ENDBRANCH  15  16
ENDBRANCH  14  15
ENDBRANCH  13  14
ENDBRANCH  12  13
ENDBRANCH  11  12
ENDBRANCH  10  11
ENDBRANCH   1  10
TORSDOF 13
ENDMDL
MODEL 8
REMARK VINA RESULT:    -1.708     21.551     23.312
REMARK INTER + INTRA:          -4.414
REMARK INTER:                  -3.583
REMARK INTRA:                  -0.830
REMARK UNBOUND:                -1.407
REMARK SMILES CCCCCCCCCCCCCCC(=O)[O-]
REMARK SMILES IDX 9 1 10 2 11 3 12 4 13 5 14 6 15 7 16 8 17 9 8 10 7 11 6 12
REMARK SMILES IDX 5 13 4 14 3 15 2 16 1 17
REMARK H PARENT
REMARK Flexibility Score: inf
ROOT
ATOM      1  C   UNL     1       7.842   5.224   1.394  1.00  0.00     0.000 C 
ENDROOT
BRANCH   1   2
ATOM      2  C   UNL     1       9.089   5.783   2.094  1.00  0.00     0.000 C 
BRANCH   2   3
ATOM      3  C   UNL     1       9.439   5.025   3.384  1.00  0.00     0.000 C 
BRANCH   3   4
ATOM      4  C   UNL     1      10.124   3.675   3.109  1.00  0.00     0.000 C 
BRANCH   4   5
ATOM      5  C   UNL     1      10.053   2.721   4.312  1.00  0.00     0.006 C 
BRANCH   5   6
ATOM      6  C   UNL     1       9.431   1.364   3.956  1.00  0.00     0.053 C 
BRANCH   6   7
ATOM      7  C   UNL     1       8.909   0.690   5.187  1.00  0.00     0.041 C 
ATOM      8  O   UNL     1       9.249   1.102   6.326  1.00  0.00    -0.550 OA
ATOM      9  O   UNL     1       8.086  -0.422   5.073  1.00  0.00    -0.550 OA
ENDBRANCH   6   7
ENDBRANCH   5   6
ENDBRANCH   4   5
ENDBRANCH   3   4
ENDBRANCH   2   3
ENDBRANCH   1   2
BRANCH   1  10
ATOM     10  C   UNL     1       6.648   6.178   1.557  1.00  0.00     0.000 C 
BRANCH  10  11
ATOM     11  C   UNL     1       5.850   5.919   2.846  1.00  0.00    -0.000 C 
BRANCH  11  12
ATOM     12  C   UNL     1       6.548   6.483   4.095  1.00  0.00    -0.000 C 
BRANCH  12  13
ATOM     13  C   UNL     1       6.468   8.018   4.185  1.00  0.00    -0.000 C 
BRANCH  13  14
ATOM     14  C   UNL     1       7.561   8.686   5.039  1.00  0.00    -0.000 C 
BRANCH  14  15
ATOM     15  C   UNL     1       8.826   7.821   5.178  1.00  0.00    -0.000 C 
BRANCH  15  16
ATOM     16  C   UNL     1      10.117   8.653   5.116  1.00  0.00    -0.003 C 
ATOM     17  C   UNL     1      10.001   9.857   4.180  1.00  0.00     0.004 C 
ENDBRANCH  15  16
ENDBRANCH  14  15
ENDBRANCH  13  14
ENDBRANCH  12  13
ENDBRANCH  11  12
ENDBRANCH  10  11
ENDBRANCH   1  10
TORSDOF 13
ENDMDL
