MODEL 1
REMARK VINA RESULT:    16.319      0.000      0.000
REMARK INTER + INTRA:          22.482
REMARK INTER:                  22.043
REMARK INTRA:                   0.439
REMARK UNBOUND:                 0.439
REMARK SMILES O=c1c(-c2ccc(O)cc2)coc2c([C@H]3O[C@H](CO)[C@H](O)[C@H](O)[C@H]3O)c(O)ccc12
REMARK SMILES IDX 3 1 11 2 12 3 13 4 30 5 2 6 1 7 29 8 28 9 26 10 14 11 4 12
REMARK SMILES IDX 5 13 6 14 7 15 10 16 9 17 8 18 15 20 24 21 16 22 22 23 17 24
REMARK SMILES IDX 20 25 25 26 23 28 18 30 19 31 21 33 27 35
REMARK H PARENT 8 19 25 27 23 29 19 32 21 34 27 36
REMARK Flexibility Score: inf
ROOT
ATOM      1  C   UNL     1      12.825  -8.939 -27.559  1.00  0.00     0.065 A 
ATOM      2  C   UNL     1      11.981  -9.322 -26.508  1.00  0.00     0.208 A 
ATOM      3  O   UNL     1      12.023 -10.554 -26.014  1.00  0.00    -0.463 OA
ATOM      4  C   UNL     1      12.849 -11.494 -26.470  1.00  0.00     0.147 A 
ATOM      5  C   UNL     1      13.742 -11.189 -27.524  1.00  0.00     0.066 A 
ATOM      6  C   UNL     1      13.727  -9.892 -28.067  1.00  0.00     0.200 A 
ATOM      7  O   UNL     1      14.531  -9.577 -28.987  1.00  0.00    -0.288 OA
ATOM      8  C   UNL     1      14.624 -12.174 -27.991  1.00  0.00     0.020 A 
ATOM      9  C   UNL     1      14.629 -13.442 -27.414  1.00  0.00     0.047 A 
ATOM     10  C   UNL     1      13.752 -13.756 -26.368  1.00  0.00     0.125 A 
ATOM     11  C   UNL     1      12.832 -12.788 -25.897  1.00  0.00     0.069 A 
ENDROOT
BRANCH   1  12
ATOM     12  C   UNL     1      12.755  -7.557 -28.099  1.00  0.00    -0.011 A 
ATOM     13  C   UNL     1      11.733  -7.188 -28.992  1.00  0.00     0.013 A 
ATOM     14  C   UNL     1      11.666  -5.883 -29.490  1.00  0.00     0.047 A 
ATOM     15  C   UNL     1      12.615  -4.931 -29.099  1.00  0.00     0.115 A 
ATOM     16  C   UNL     1      13.700  -6.593 -27.707  1.00  0.00     0.013 A 
ATOM     17  C   UNL     1      13.630  -5.289 -28.207  1.00  0.00     0.047 A 
BRANCH  15  18
ATOM     18  O   UNL     1      12.558  -3.629 -29.589  1.00  0.00    -0.508 OA
ATOM     19  H   UNL     1      13.209  -3.299 -30.293  1.00  0.00     0.293 HD
ENDBRANCH  15  18
ENDBRANCH   1  12
BRANCH  11  20
ATOM     20  C   UNL     1      11.882 -13.085 -24.740  1.00  0.00     0.188 C 
ATOM     21  C   UNL     1      11.150 -14.428 -24.975  1.00  0.00     0.179 C 
ATOM     22  O   UNL     1      10.967 -12.016 -24.559  1.00  0.00    -0.362 OA
ATOM     23  C   UNL     1      10.193 -14.733 -23.806  1.00  0.00     0.177 C 
ATOM     24  C   UNL     1      10.141 -12.186 -23.414  1.00  0.00     0.176 C 
ATOM     25  C   UNL     1       9.321 -13.505 -23.472  1.00  0.00     0.177 C 
BRANCH  21  26
ATOM     26  O   UNL     1      10.467 -14.448 -26.207  1.00  0.00    -0.387 OA
ATOM     27  H   UNL     1      11.131 -14.599 -26.926  1.00  0.00     0.211 HD
ENDBRANCH  21  26
BRANCH  23  28
ATOM     28  O   UNL     1      10.923 -15.125 -22.671  1.00  0.00    -0.387 OA
ATOM     29  H   UNL     1      11.885 -15.035 -22.900  1.00  0.00     0.211 HD
ENDBRANCH  23  28
BRANCH  24  30
ATOM     30  C   UNL     1      10.920 -11.956 -22.099  1.00  0.00     0.191 C 
BRANCH  30  31
ATOM     31  O   UNL     1      10.139 -11.223 -21.196  1.00  0.00    -0.394 OA
ATOM     32  H   UNL     1      10.436 -11.494 -20.289  1.00  0.00     0.210 HD
ENDBRANCH  30  31
ENDBRANCH  24  30
BRANCH  25  33
ATOM     33  O   UNL     1       8.628 -13.707 -22.266  1.00  0.00    -0.388 OA
ATOM     34  H   UNL     1       7.972 -14.435 -22.429  1.00  0.00     0.211 HD
ENDBRANCH  25  33
ENDBRANCH  11  20
BRANCH  10  35
ATOM     35  O   UNL     1      13.804 -15.028 -25.798  1.00  0.00    -0.507 OA
ATOM     36  H   UNL     1      13.628 -15.864 -26.343  1.00  0.00     0.293 HD
ENDBRANCH  10  35
TORSDOF 9
ENDMDL
MODEL 2
REMARK VINA RESULT:    16.713      1.809      2.637
REMARK INTER + INTRA:          23.013
REMARK INTER:                  22.620
REMARK INTRA:                   0.394
REMARK UNBOUND:                 0.439
REMARK SMILES O=c1c(-c2ccc(O)cc2)coc2c([C@H]3O[C@H](CO)[C@H](O)[C@H](O)[C@H]3O)c(O)ccc12
REMARK SMILES IDX 3 1 11 2 12 3 13 4 30 5 2 6 1 7 29 8 28 9 26 10 14 11 4 12
REMARK SMILES IDX 5 13 6 14 7 15 10 16 9 17 8 18 15 20 24 21 16 22 22 23 17 24
REMARK SMILES IDX 20 25 25 26 23 28 18 30 19 31 21 33 27 35
REMARK H PARENT 8 19 25 27 23 29 19 32 21 34 27 36
REMARK Flexibility Score: inf
ROOT
ATOM      1  C   UNL     1      12.417  -9.259 -28.094  1.00  0.00     0.065 A 
ATOM      2  C   UNL     1      12.176  -9.507 -26.735  1.00  0.00     0.208 A 
ATOM      3  O   UNL     1      11.659 -10.662 -26.334  1.00  0.00    -0.463 OA
ATOM      4  C   UNL     1      11.338 -11.647 -27.170  1.00  0.00     0.147 A 
ATOM      5  C   UNL     1      11.558 -11.485 -28.558  1.00  0.00     0.066 A 
ATOM      6  C   UNL     1      12.108 -10.275 -29.017  1.00  0.00     0.200 A 
ATOM      7  O   UNL     1      12.345 -10.108 -30.246  1.00  0.00    -0.288 OA
ATOM      8  C   UNL     1      11.237 -12.530 -29.436  1.00  0.00     0.020 A 
ATOM      9  C   UNL     1      10.716 -13.724 -28.945  1.00  0.00     0.047 A 
ATOM     10  C   UNL     1      10.497 -13.899 -27.573  1.00  0.00     0.125 A 
ATOM     11  C   UNL     1      10.785 -12.849 -26.667  1.00  0.00     0.069 A 
ENDROOT
BRANCH   1  12
ATOM     12  C   UNL     1      12.988  -7.957 -28.519  1.00  0.00    -0.011 A 
ATOM     13  C   UNL     1      14.340  -7.853 -28.891  1.00  0.00     0.013 A 
ATOM     14  C   UNL     1      14.871  -6.626 -29.299  1.00  0.00     0.047 A 
ATOM     15  C   UNL     1      14.057  -5.489 -29.346  1.00  0.00     0.115 A 
ATOM     16  C   UNL     1      12.176  -6.810 -28.574  1.00  0.00     0.013 A 
ATOM     17  C   UNL     1      12.710  -5.584 -28.983  1.00  0.00     0.047 A 
BRANCH  15  18
ATOM     18  O   UNL     1      14.574  -4.260 -29.750  1.00  0.00    -0.508 OA
ATOM     19  H   UNL     1      15.573  -4.088 -29.772  1.00  0.00     0.293 HD
ENDBRANCH  15  18
ENDBRANCH   1  12
BRANCH  11  20
ATOM     20  C   UNL     1      10.586 -13.014 -25.163  1.00  0.00     0.188 C 
ATOM     21  C   UNL     1      11.576 -12.114 -24.386  1.00  0.00     0.179 C 
ATOM     22  O   UNL     1      10.715 -14.377 -24.790  1.00  0.00    -0.362 OA
ATOM     23  C   UNL     1      11.373 -12.275 -22.867  1.00  0.00     0.177 C 
ATOM     24  C   UNL     1      10.413 -14.602 -23.419  1.00  0.00     0.176 C 
ATOM     25  C   UNL     1      11.319 -13.766 -22.473  1.00  0.00     0.177 C 
BRANCH  21  26
ATOM     26  O   UNL     1      12.913 -12.366 -24.748  1.00  0.00    -0.387 OA
ATOM     27  H   UNL     1      13.425 -12.565 -23.924  1.00  0.00     0.211 HD
ENDBRANCH  21  26
BRANCH  23  28
ATOM     28  O   UNL     1      10.193 -11.630 -22.464  1.00  0.00    -0.387 OA
ATOM     29  H   UNL     1      10.446 -10.712 -22.182  1.00  0.00     0.211 HD
ENDBRANCH  23  28
BRANCH  24  30
ATOM     30  C   UNL     1       8.897 -14.500 -23.135  1.00  0.00     0.191 C 
BRANCH  30  31
ATOM     31  O   UNL     1       8.595 -15.096 -21.903  1.00  0.00    -0.394 OA
ATOM     32  H   UNL     1       8.180 -14.387 -21.347  1.00  0.00     0.210 HD
ENDBRANCH  30  31
ENDBRANCH  24  30
BRANCH  25  33
ATOM     33  O   UNL     1      10.901 -13.907 -21.139  1.00  0.00    -0.388 OA
ATOM     34  H   UNL     1      11.020 -14.863 -20.899  1.00  0.00     0.211 HD
ENDBRANCH  25  33
ENDBRANCH  11  20
BRANCH  10  35
ATOM     35  O   UNL     1       9.997 -15.118 -27.116  1.00  0.00    -0.507 OA
ATOM     36  H   UNL     1       9.230 -15.588 -27.581  1.00  0.00     0.293 HD
ENDBRANCH  10  35
TORSDOF 9
ENDMDL
MODEL 3
REMARK VINA RESULT:    18.384      1.856      2.387
REMARK INTER + INTRA:          25.271
REMARK INTER:                  21.922
REMARK INTRA:                   3.350
REMARK UNBOUND:                 0.439
REMARK SMILES O=c1c(-c2ccc(O)cc2)coc2c([C@H]3O[C@H](CO)[C@H](O)[C@H](O)[C@H]3O)c(O)ccc12
REMARK SMILES IDX 3 1 11 2 12 3 13 4 30 5 2 6 1 7 29 8 28 9 26 10 14 11 4 12
REMARK SMILES IDX 5 13 6 14 7 15 10 16 9 17 8 18 15 20 24 21 16 22 22 23 17 24
REMARK SMILES IDX 20 25 25 26 23 28 18 30 19 31 21 33 27 35
REMARK H PARENT 8 19 25 27 23 29 19 32 21 34 27 36
REMARK Flexibility Score: inf
ROOT
ATOM      1  C   UNL     1      12.734  -8.257 -28.045  1.00  0.00     0.065 A 
ATOM      2  C   UNL     1      12.767  -8.952 -26.828  1.00  0.00     0.208 A 
ATOM      3  O   UNL     1      12.301 -10.192 -26.738  1.00  0.00    -0.463 OA
ATOM      4  C   UNL     1      11.778 -10.851 -27.770  1.00  0.00     0.147 A 
ATOM      5  C   UNL     1      11.715 -10.227 -29.038  1.00  0.00     0.066 A 
ATOM      6  C   UNL     1      12.204  -8.915 -29.170  1.00  0.00     0.200 A 
ATOM      7  O   UNL     1      12.191  -8.339 -30.293  1.00  0.00    -0.288 OA
ATOM      8  C   UNL     1      11.182 -10.928 -30.130  1.00  0.00     0.020 A 
ATOM      9  C   UNL     1      10.729 -12.236 -29.969  1.00  0.00     0.047 A 
ATOM     10  C   UNL     1      10.789 -12.865 -28.720  1.00  0.00     0.125 A 
ATOM     11  C   UNL     1      11.296 -12.170 -27.596  1.00  0.00     0.069 A 
ENDROOT
BRANCH   1  12
ATOM     12  C   UNL     1      13.255  -6.868 -28.119  1.00  0.00    -0.011 A 
ATOM     13  C   UNL     1      13.602  -6.297 -29.355  1.00  0.00     0.013 A 
ATOM     14  C   UNL     1      14.083  -4.986 -29.420  1.00  0.00     0.047 A 
ATOM     15  C   UNL     1      14.218  -4.228 -28.251  1.00  0.00     0.115 A 
ATOM     16  C   UNL     1      13.388  -6.098 -26.950  1.00  0.00     0.013 A 
ATOM     17  C   UNL     1      13.870  -4.786 -27.018  1.00  0.00     0.047 A 
BRANCH  15  18
ATOM     18  O   UNL     1      14.697  -2.921 -28.303  1.00  0.00    -0.508 OA
ATOM     19  H   UNL     1      15.570  -2.696 -28.765  1.00  0.00     0.293 HD
ENDBRANCH  15  18
ENDBRANCH   1  12
BRANCH  11  20
ATOM     20  C   UNL     1      11.403 -12.834 -26.226  1.00  0.00     0.188 C 
ATOM     21  C   UNL     1      11.707 -14.343 -26.381  1.00  0.00     0.179 C 
ATOM     22  O   UNL     1      10.221 -12.614 -25.472  1.00  0.00    -0.362 OA
ATOM     23  C   UNL     1      11.820 -15.015 -24.999  1.00  0.00     0.177 C 
ATOM     24  C   UNL     1      10.320 -13.105 -24.140  1.00  0.00     0.176 C 
ATOM     25  C   UNL     1      10.631 -14.627 -24.097  1.00  0.00     0.177 C 
BRANCH  21  26
ATOM     26  O   UNL     1      10.751 -14.994 -27.184  1.00  0.00    -0.387 OA
ATOM     27  H   UNL     1      11.037 -14.918 -28.130  1.00  0.00     0.211 HD
ENDBRANCH  21  26
BRANCH  23  28
ATOM     28  O   UNL     1      13.029 -14.654 -24.381  1.00  0.00    -0.387 OA
ATOM     29  H   UNL     1      12.797 -14.246 -23.506  1.00  0.00     0.211 HD
ENDBRANCH  23  28
BRANCH  24  30
ATOM     30  C   UNL     1      11.238 -12.222 -23.264  1.00  0.00     0.191 C 
BRANCH  30  31
ATOM     31  O   UNL     1      10.738 -10.915 -23.205  1.00  0.00    -0.394 OA
ATOM     32  H   UNL     1      11.529 -10.316 -23.194  1.00  0.00     0.210 HD
ENDBRANCH  30  31
ENDBRANCH  24  30
BRANCH  25  33
ATOM     33  O   UNL     1      10.859 -15.045 -22.775  1.00  0.00    -0.388 OA
ATOM     34  H   UNL     1      11.211 -15.972 -22.822  1.00  0.00     0.211 HD
ENDBRANCH  25  33
ENDBRANCH  11  20
BRANCH  10  35
ATOM     35  O   UNL     1      10.348 -14.184 -28.604  1.00  0.00    -0.507 OA
ATOM     36  H   UNL     1      10.812 -14.850 -27.998  1.00  0.00     0.293 HD
ENDBRANCH  10  35
TORSDOF 9
ENDMDL
