MODEL 1
REMARK VINA RESULT:    -3.978      0.000      0.000
REMARK INTER + INTRA:          -8.934
REMARK INTER:                  -6.768
REMARK INTRA:                  -2.166
REMARK UNBOUND:                -2.166
REMARK SMILES CCCCCCCCCCCCCC(=O)[O-]
REMARK SMILES IDX 8 1 9 2 10 3 11 4 12 5 13 6 14 7 15 8 16 9 7 10 6 11 5 12
REMARK SMILES IDX 4 13 3 14 2 15 1 16
REMARK H PARENT
REMARK Flexibility Score: inf
ROOT
ATOM      1  C   UNL     1       2.104   5.879  31.378  1.00  0.00     0.000 C 
ENDROOT
BRANCH   1   2
ATOM      2  C   UNL     1       2.842   4.604  30.941  1.00  0.00     0.000 C 
BRANCH   2   3
ATOM      3  C   UNL     1       4.326   4.852  30.636  1.00  0.00     0.000 C 
BRANCH   3   4
ATOM      4  C   UNL     1       4.691   4.350  29.234  1.00  0.00     0.000 C 
BRANCH   4   5
ATOM      5  C   UNL     1       3.441   3.883  28.473  1.00  0.00     0.006 C 
BRANCH   5   6
ATOM      6  C   UNL     1       3.753   3.505  27.019  1.00  0.00     0.053 C 
BRANCH   6   7
ATOM      7  C   UNL     1       3.428   4.621  26.072  1.00  0.00     0.041 C 
ATOM      8  O   UNL     1       4.346   5.358  25.625  1.00  0.00    -0.550 OA
ATOM      9  O   UNL     1       2.110   4.866  25.710  1.00  0.00    -0.550 OA
ENDBRANCH   6   7
ENDBRANCH   5   6
ENDBRANCH   4   5
ENDBRANCH   3   4
ENDBRANCH   2   3
ENDBRANCH   1   2
BRANCH   1  10
ATOM     10  C   UNL     1       0.820   6.126  30.572  1.00  0.00     0.000 C 
BRANCH  10  11
ATOM     11  C   UNL     1       1.142   6.694  29.185  1.00  0.00    -0.000 C 
BRANCH  11  12
ATOM     12  C   UNL     1       2.244   7.760  29.269  1.00  0.00    -0.000 C 
BRANCH  12  13
ATOM     13  C   UNL     1       3.276   7.636  28.136  1.00  0.00    -0.000 C 
BRANCH  13  14
ATOM     14  C   UNL     1       4.677   8.104  28.557  1.00  0.00    -0.000 C 
BRANCH  14  15
ATOM     15  C   UNL     1       4.675   8.605  30.005  1.00  0.00    -0.003 C 
ATOM     16  C   UNL     1       5.897   8.096  30.766  1.00  0.00     0.004 C 
ENDBRANCH  14  15
ENDBRANCH  13  14
ENDBRANCH  12  13
ENDBRANCH  11  12
ENDBRANCH  10  11
ENDBRANCH   1  10
TORSDOF 12
ENDMDL
MODEL 2
REMARK VINA RESULT:    -3.946      2.205      3.682
REMARK INTER + INTRA:          -8.880
REMARK INTER:                  -7.093
REMARK INTRA:                  -1.787
REMARK UNBOUND:                -2.166
REMARK SMILES CCCCCCCCCCCCCC(=O)[O-]
REMARK SMILES IDX 8 1 9 2 10 3 11 4 12 5 13 6 14 7 15 8 16 9 7 10 6 11 5 12
REMARK SMILES IDX 4 13 3 14 2 15 1 16
REMARK H PARENT
REMARK Flexibility Score: inf
ROOT
ATOM      1  C   UNL     1       1.333   5.810  32.157  1.00  0.00     0.000 C 
ENDROOT
BRANCH   1   2
ATOM      2  C   UNL     1       2.472   5.194  31.329  1.00  0.00     0.000 C 
BRANCH   2   3
ATOM      3  C   UNL     1       2.010   4.001  30.480  1.00  0.00     0.000 C 
BRANCH   3   4
ATOM      4  C   UNL     1       1.760   4.424  29.028  1.00  0.00     0.000 C 
BRANCH   4   5
ATOM      5  C   UNL     1       2.737   5.529  28.599  1.00  0.00     0.006 C 
BRANCH   5   6
ATOM      6  C   UNL     1       3.835   5.003  27.664  1.00  0.00     0.053 C 
BRANCH   6   7
ATOM      7  C   UNL     1       3.585   5.392  26.239  1.00  0.00     0.041 C 
ATOM      8  O   UNL     1       4.124   4.744  25.303  1.00  0.00    -0.550 OA
ATOM      9  O   UNL     1       2.785   6.488  25.946  1.00  0.00    -0.550 OA
ENDBRANCH   6   7
ENDBRANCH   5   6
ENDBRANCH   4   5
ENDBRANCH   3   4
ENDBRANCH   2   3
ENDBRANCH   1   2
BRANCH   1  10
ATOM     10  C   UNL     1       1.519   7.315  32.394  1.00  0.00     0.000 C 
BRANCH  10  11
ATOM     11  C   UNL     1       1.220   8.114  31.119  1.00  0.00    -0.000 C 
BRANCH  11  12
ATOM     12  C   UNL     1      -0.088   7.643  30.468  1.00  0.00    -0.000 C 
BRANCH  12  13
ATOM     13  C   UNL     1      -0.127   7.912  28.955  1.00  0.00    -0.000 C 
BRANCH  13  14
ATOM     14  C   UNL     1      -1.006   6.906  28.196  1.00  0.00    -0.000 C 
BRANCH  14  15
ATOM     15  C   UNL     1      -1.514   5.806  29.136  1.00  0.00    -0.003 C 
ATOM     16  C   UNL     1      -1.897   4.550  28.358  1.00  0.00     0.004 C 
ENDBRANCH  14  15
ENDBRANCH  13  14
ENDBRANCH  12  13
ENDBRANCH  11  12
ENDBRANCH  10  11
ENDBRANCH   1  10
TORSDOF 12
ENDMDL
MODEL 3
REMARK VINA RESULT:    -3.931      1.685      3.815
REMARK INTER + INTRA:          -8.855
REMARK INTER:                  -7.186
REMARK INTRA:                  -1.669
REMARK UNBOUND:                -2.166
REMARK SMILES CCCCCCCCCCCCCC(=O)[O-]
REMARK SMILES IDX 8 1 9 2 10 3 11 4 12 5 13 6 14 7 15 8 16 9 7 10 6 11 5 12
REMARK SMILES IDX 4 13 3 14 2 15 1 16
REMARK H PARENT
REMARK Flexibility Score: inf
ROOT
ATOM      1  C   UNL     1       4.540   7.286  30.141  1.00  0.00     0.000 C 
ENDROOT
BRANCH   1   2
ATOM      2  C   UNL     1       4.652   7.879  28.728  1.00  0.00     0.000 C 
BRANCH   2   3
ATOM      3  C   UNL     1       3.476   7.483  27.824  1.00  0.00     0.000 C 
BRANCH   3   4
ATOM      4  C   UNL     1       3.931   6.518  26.722  1.00  0.00     0.000 C 
BRANCH   4   5
ATOM      5  C   UNL     1       2.851   6.367  25.640  1.00  0.00     0.006 C 
BRANCH   5   6
ATOM      6  C   UNL     1       2.514   4.898  25.354  1.00  0.00     0.053 C 
BRANCH   6   7
ATOM      7  C   UNL     1       1.651   4.306  26.427  1.00  0.00     0.041 C 
ATOM      8  O   UNL     1       1.786   3.097  26.752  1.00  0.00    -0.550 OA
ATOM      9  O   UNL     1       0.677   5.080  27.043  1.00  0.00    -0.550 OA
ENDBRANCH   6   7
ENDBRANCH   5   6
ENDBRANCH   4   5
ENDBRANCH   3   4
ENDBRANCH   2   3
ENDBRANCH   1   2
BRANCH   1  10
ATOM     10  C   UNL     1       5.244   5.927  30.271  1.00  0.00     0.000 C 
BRANCH  10  11
ATOM     11  C   UNL     1       4.289   4.863  30.828  1.00  0.00    -0.000 C 
BRANCH  11  12
ATOM     12  C   UNL     1       3.231   4.474  29.785  1.00  0.00    -0.000 C 
BRANCH  12  13
ATOM     13  C   UNL     1       1.829   4.316  30.395  1.00  0.00    -0.000 C 
BRANCH  13  14
ATOM     14  C   UNL     1       1.664   5.089  31.713  1.00  0.00    -0.000 C 
BRANCH  14  15
ATOM     15  C   UNL     1       1.010   6.454  31.468  1.00  0.00    -0.003 C 
ATOM     16  C   UNL     1       1.535   7.500  32.448  1.00  0.00     0.004 C 
ENDBRANCH  14  15
ENDBRANCH  13  14
ENDBRANCH  12  13
ENDBRANCH  11  12
ENDBRANCH  10  11
ENDBRANCH   1  10
TORSDOF 12
ENDMDL
MODEL 4
REMARK VINA RESULT:    -3.929      2.367      4.586
REMARK INTER + INTRA:          -8.851
REMARK INTER:                  -7.134
REMARK INTRA:                  -1.717
REMARK UNBOUND:                -2.166
REMARK SMILES CCCCCCCCCCCCCC(=O)[O-]
REMARK SMILES IDX 8 1 9 2 10 3 11 4 12 5 13 6 14 7 15 8 16 9 7 10 6 11 5 12
REMARK SMILES IDX 4 13 3 14 2 15 1 16
REMARK H PARENT
REMARK Flexibility Score: inf
ROOT
ATOM      1  C   UNL     1       3.895   5.637  28.505  1.00  0.00     0.000 C 
ENDROOT
BRANCH   1   2
ATOM      2  C   UNL     1       3.745   4.972  27.128  1.00  0.00     0.000 C 
BRANCH   2   3
ATOM      3  C   UNL     1       3.470   3.465  27.223  1.00  0.00     0.000 C 
BRANCH   3   4
ATOM      4  C   UNL     1       1.968   3.188  27.361  1.00  0.00     0.000 C 
BRANCH   4   5
ATOM      5  C   UNL     1       1.171   3.910  26.264  1.00  0.00     0.006 C 
BRANCH   5   6
ATOM      6  C   UNL     1      -0.259   3.370  26.132  1.00  0.00     0.053 C 
BRANCH   6   7
ATOM      7  C   UNL     1      -1.253   4.472  25.927  1.00  0.00     0.041 C 
ATOM      8  O   UNL     1      -2.476   4.273  26.154  1.00  0.00    -0.550 OA
ATOM      9  O   UNL     1      -0.834   5.709  25.454  1.00  0.00    -0.550 OA
ENDBRANCH   6   7
ENDBRANCH   5   6
ENDBRANCH   4   5
ENDBRANCH   3   4
ENDBRANCH   2   3
ENDBRANCH   1   2
BRANCH   1  10
ATOM     10  C   UNL     1       4.618   4.739  29.520  1.00  0.00     0.000 C 
BRANCH  10  11
ATOM     11  C   UNL     1       3.963   4.834  30.904  1.00  0.00    -0.000 C 
BRANCH  11  12
ATOM     12  C   UNL     1       2.513   4.333  30.862  1.00  0.00    -0.000 C 
BRANCH  12  13
ATOM     13  C   UNL     1       1.557   5.217  31.679  1.00  0.00    -0.000 C 
BRANCH  13  14
ATOM     14  C   UNL     1       0.816   6.248  30.814  1.00  0.00    -0.000 C 
BRANCH  14  15
ATOM     15  C   UNL     1       0.310   5.610  29.516  1.00  0.00    -0.003 C 
ATOM     16  C   UNL     1      -1.185   5.854  29.327  1.00  0.00     0.004 C 
ENDBRANCH  14  15
ENDBRANCH  13  14
ENDBRANCH  12  13
ENDBRANCH  11  12
ENDBRANCH  10  11
ENDBRANCH   1  10
TORSDOF 12
ENDMDL
MODEL 5
REMARK VINA RESULT:    -3.893      2.767      4.728
REMARK INTER + INTRA:          -8.790
REMARK INTER:                  -7.061
REMARK INTRA:                  -1.729
REMARK UNBOUND:                -2.166
REMARK SMILES CCCCCCCCCCCCCC(=O)[O-]
REMARK SMILES IDX 8 1 9 2 10 3 11 4 12 5 13 6 14 7 15 8 16 9 7 10 6 11 5 12
REMARK SMILES IDX 4 13 3 14 2 15 1 16
REMARK H PARENT
REMARK Flexibility Score: inf
ROOT
ATOM      1  C   UNL     1       3.086   3.751  28.694  1.00  0.00     0.000 C 
ENDROOT
BRANCH   1   2
ATOM      2  C   UNL     1       1.894   4.094  29.601  1.00  0.00     0.000 C 
BRANCH   2   3
ATOM      3  C   UNL     1       0.648   4.515  28.809  1.00  0.00     0.000 C 
BRANCH   3   4
ATOM      4  C   UNL     1      -0.050   5.707  29.475  1.00  0.00     0.000 C 
BRANCH   4   5
ATOM      5  C   UNL     1      -1.431   5.957  28.851  1.00  0.00     0.006 C 
BRANCH   5   6
ATOM      6  C   UNL     1      -2.114   4.656  28.409  1.00  0.00     0.053 C 
BRANCH   6   7
ATOM      7  C   UNL     1      -2.711   4.778  27.040  1.00  0.00     0.041 C 
ATOM      8  O   UNL     1      -3.959   4.730  26.888  1.00  0.00    -0.550 OA
ATOM      9  O   UNL     1      -1.886   4.911  25.931  1.00  0.00    -0.550 OA
ENDBRANCH   6   7
ENDBRANCH   5   6
ENDBRANCH   4   5
ENDBRANCH   3   4
ENDBRANCH   2   3
ENDBRANCH   1   2
BRANCH   1  10
ATOM     10  C   UNL     1       4.355   4.534  29.061  1.00  0.00     0.000 C 
BRANCH  10  11
ATOM     11  C   UNL     1       4.006   5.931  29.590  1.00  0.00    -0.000 C 
BRANCH  11  12
ATOM     12  C   UNL     1       4.318   7.010  28.543  1.00  0.00    -0.000 C 
BRANCH  12  13
ATOM     13  C   UNL     1       3.060   7.509  27.814  1.00  0.00    -0.000 C 
BRANCH  13  14
ATOM     14  C   UNL     1       2.768   6.721  26.528  1.00  0.00    -0.000 C 
BRANCH  14  15
ATOM     15  C   UNL     1       4.069   6.300  25.837  1.00  0.00    -0.003 C 
ATOM     16  C   UNL     1       3.944   4.907  25.227  1.00  0.00     0.004 C 
ENDBRANCH  14  15
ENDBRANCH  13  14
ENDBRANCH  12  13
ENDBRANCH  11  12
ENDBRANCH  10  11
ENDBRANCH   1  10
TORSDOF 12
ENDMDL
MODEL 6
REMARK VINA RESULT:    -3.885      2.088      3.623
REMARK INTER + INTRA:          -8.776
REMARK INTER:                  -6.521
REMARK INTRA:                  -2.255
REMARK UNBOUND:                -2.166
REMARK SMILES CCCCCCCCCCCCCC(=O)[O-]
REMARK SMILES IDX 8 1 9 2 10 3 11 4 12 5 13 6 14 7 15 8 16 9 7 10 6 11 5 12
REMARK SMILES IDX 4 13 3 14 2 15 1 16
REMARK H PARENT
REMARK Flexibility Score: inf
ROOT
ATOM      1  C   UNL     1       0.487   7.505  31.225  1.00  0.00     0.000 C 
ENDROOT
BRANCH   1   2
ATOM      2  C   UNL     1       0.946   7.909  29.815  1.00  0.00     0.000 C 
BRANCH   2   3
ATOM      3  C   UNL     1       0.253   7.097  28.711  1.00  0.00     0.000 C 
BRANCH   3   4
ATOM      4  C   UNL     1      -0.936   6.308  29.273  1.00  0.00     0.000 C 
BRANCH   4   5
ATOM      5  C   UNL     1      -0.953   4.873  28.726  1.00  0.00     0.006 C 
BRANCH   5   6
ATOM      6  C   UNL     1       0.369   4.493  28.046  1.00  0.00     0.053 C 
BRANCH   6   7
ATOM      7  C   UNL     1       0.147   3.905  26.686  1.00  0.00     0.041 C 
ATOM      8  O   UNL     1       0.567   2.748  26.420  1.00  0.00    -0.550 OA
ATOM      9  O   UNL     1      -0.494   4.648  25.703  1.00  0.00    -0.550 OA
ENDBRANCH   6   7
ENDBRANCH   5   6
ENDBRANCH   4   5
ENDBRANCH   3   4
ENDBRANCH   2   3
ENDBRANCH   1   2
BRANCH   1  10
ATOM     10  C   UNL     1       1.573   6.751  32.007  1.00  0.00     0.000 C 
BRANCH  10  11
ATOM     11  C   UNL     1       1.292   5.244  32.025  1.00  0.00    -0.000 C 
BRANCH  11  12
ATOM     12  C   UNL     1       2.275   4.490  31.117  1.00  0.00    -0.000 C 
BRANCH  12  13
ATOM     13  C   UNL     1       3.519   5.323  30.771  1.00  0.00    -0.000 C 
BRANCH  13  14
ATOM     14  C   UNL     1       3.715   5.496  29.257  1.00  0.00    -0.000 C 
BRANCH  14  15
ATOM     15  C   UNL     1       4.405   6.828  28.943  1.00  0.00    -0.003 C 
ATOM     16  C   UNL     1       4.772   7.575  30.223  1.00  0.00     0.004 C 
ENDBRANCH  14  15
ENDBRANCH  13  14
ENDBRANCH  12  13
ENDBRANCH  11  12
ENDBRANCH  10  11
ENDBRANCH   1  10
TORSDOF 12
ENDMDL
MODEL 7
REMARK VINA RESULT:    -3.873      1.438      3.422
REMARK INTER + INTRA:          -8.756
REMARK INTER:                  -6.773
REMARK INTRA:                  -1.983
REMARK UNBOUND:                -2.166
REMARK SMILES CCCCCCCCCCCCCC(=O)[O-]
REMARK SMILES IDX 8 1 9 2 10 3 11 4 12 5 13 6 14 7 15 8 16 9 7 10 6 11 5 12
REMARK SMILES IDX 4 13 3 14 2 15 1 16
REMARK H PARENT
REMARK Flexibility Score: inf
ROOT
ATOM      1  C   UNL     1       1.680   8.507  31.339  1.00  0.00     0.000 C 
ENDROOT
BRANCH   1   2
ATOM      2  C   UNL     1       3.067   9.158  31.213  1.00  0.00     0.000 C 
BRANCH   2   3
ATOM      3  C   UNL     1       3.831   8.689  29.967  1.00  0.00     0.000 C 
BRANCH   3   4
ATOM      4  C   UNL     1       3.080   9.073  28.686  1.00  0.00     0.000 C 
BRANCH   4   5
ATOM      5  C   UNL     1       2.876   7.850  27.779  1.00  0.00     0.006 C 
BRANCH   5   6
ATOM      6  C   UNL     1       4.206   7.244  27.312  1.00  0.00     0.053 C 
BRANCH   6   7
ATOM      7  C   UNL     1       3.998   6.161  26.296  1.00  0.00     0.041 C 
ATOM      8  O   UNL     1       4.694   6.136  25.247  1.00  0.00    -0.550 OA
ATOM      9  O   UNL     1       3.015   5.201  26.494  1.00  0.00    -0.550 OA
ENDBRANCH   6   7
ENDBRANCH   5   6
ENDBRANCH   4   5
ENDBRANCH   3   4
ENDBRANCH   2   3
ENDBRANCH   1   2
BRANCH   1  10
ATOM     10  C   UNL     1       1.571   7.578  32.557  1.00  0.00     0.000 C 
BRANCH  10  11
ATOM     11  C   UNL     1       1.170   6.159  32.132  1.00  0.00    -0.000 C 
BRANCH  11  12
ATOM     12  C   UNL     1       1.072   6.050  30.604  1.00  0.00    -0.000 C 
BRANCH  12  13
ATOM     13  C   UNL     1       2.031   4.997  30.023  1.00  0.00    -0.000 C 
BRANCH  13  14
ATOM     14  C   UNL     1       3.117   4.569  31.022  1.00  0.00    -0.000 C 
BRANCH  14  15
ATOM     15  C   UNL     1       4.474   5.177  30.650  1.00  0.00    -0.003 C 
ATOM     16  C   UNL     1       5.146   4.384  29.532  1.00  0.00     0.004 C 
ENDBRANCH  14  15
ENDBRANCH  13  14
ENDBRANCH  12  13
ENDBRANCH  11  12
ENDBRANCH  10  11
ENDBRANCH   1  10
TORSDOF 12
ENDMDL
MODEL 8
REMARK VINA RESULT:    -3.873      3.279      5.233
REMARK INTER + INTRA:          -8.756
REMARK INTER:                  -6.695
REMARK INTRA:                  -2.061
REMARK UNBOUND:                -2.166
REMARK SMILES CCCCCCCCCCCCCC(=O)[O-]
REMARK SMILES IDX 8 1 9 2 10 3 11 4 12 5 13 6 14 7 15 8 16 9 7 10 6 11 5 12
REMARK SMILES IDX 4 13 3 14 2 15 1 16
REMARK H PARENT
REMARK Flexibility Score: inf
ROOT
ATOM      1  C   UNL     1       0.132   7.129  30.819  1.00  0.00     0.000 C 
ENDROOT
BRANCH   1   2
ATOM      2  C   UNL     1       0.004   7.697  29.397  1.00  0.00     0.000 C 
BRANCH   2   3
ATOM      3  C   UNL     1      -1.020   6.934  28.544  1.00  0.00     0.000 C 
BRANCH   3   4
ATOM      4  C   UNL     1      -1.456   5.637  29.237  1.00  0.00     0.000 C 
BRANCH   4   5
ATOM      5  C   UNL     1      -1.578   4.486  28.227  1.00  0.00     0.006 C 
BRANCH   5   6
ATOM      6  C   UNL     1      -1.811   4.990  26.796  1.00  0.00     0.053 C 
BRANCH   6   7
ATOM      7  C   UNL     1      -3.104   4.485  26.233  1.00  0.00     0.041 C 
ATOM      8  O   UNL     1      -4.198   4.821  26.759  1.00  0.00    -0.550 OA
ATOM      9  O   UNL     1      -3.100   3.619  25.148  1.00  0.00    -0.550 OA
ENDBRANCH   6   7
ENDBRANCH   5   6
ENDBRANCH   4   5
ENDBRANCH   3   4
ENDBRANCH   2   3
ENDBRANCH   1   2
BRANCH   1  10
ATOM     10  C   UNL     1       1.554   6.646  31.139  1.00  0.00     0.000 C 
BRANCH  10  11
ATOM     11  C   UNL     1       1.532   5.249  31.771  1.00  0.00    -0.000 C 
BRANCH  11  12
ATOM     12  C   UNL     1       2.271   4.234  30.888  1.00  0.00    -0.000 C 
BRANCH  12  13
ATOM     13  C   UNL     1       2.450   4.726  29.442  1.00  0.00    -0.000 C 
BRANCH  13  14
ATOM     14  C   UNL     1       1.907   3.730  28.406  1.00  0.00    -0.000 C 
BRANCH  14  15
ATOM     15  C   UNL     1       1.992   4.313  26.990  1.00  0.00    -0.003 C 
ATOM     16  C   UNL     1       2.177   5.828  27.027  1.00  0.00     0.004 C 
ENDBRANCH  14  15
ENDBRANCH  13  14
ENDBRANCH  12  13
ENDBRANCH  11  12
ENDBRANCH  10  11
ENDBRANCH   1  10
TORSDOF 12
ENDMDL
MODEL 9
REMARK VINA RESULT:    -3.872      1.569      2.693
REMARK INTER + INTRA:          -8.754
REMARK INTER:                  -6.732
REMARK INTRA:                  -2.023
REMARK UNBOUND:                -2.166
REMARK SMILES CCCCCCCCCCCCCC(=O)[O-]
REMARK SMILES IDX 8 1 9 2 10 3 11 4 12 5 13 6 14 7 15 8 16 9 7 10 6 11 5 12
REMARK SMILES IDX 4 13 3 14 2 15 1 16
REMARK H PARENT
REMARK Flexibility Score: inf
ROOT
ATOM      1  C   UNL     1       0.786   7.702  31.456  1.00  0.00     0.000 C 
ENDROOT
BRANCH   1   2
ATOM      2  C   UNL     1       0.742   6.303  30.824  1.00  0.00     0.000 C 
BRANCH   2   3
ATOM      3  C   UNL     1       1.548   5.267  31.620  1.00  0.00     0.000 C 
BRANCH   3   4
ATOM      4  C   UNL     1       2.112   4.181  30.696  1.00  0.00     0.000 C 
BRANCH   4   5
ATOM      5  C   UNL     1       1.826   4.506  29.223  1.00  0.00     0.006 C 
BRANCH   5   6
ATOM      6  C   UNL     1       2.335   3.412  28.275  1.00  0.00     0.053 C 
BRANCH   6   7
ATOM      7  C   UNL     1       3.664   3.767  27.680  1.00  0.00     0.041 C 
ATOM      8  O   UNL     1       4.728   3.440  28.268  1.00  0.00    -0.550 OA
ATOM      9  O   UNL     1       3.726   4.486  26.493  1.00  0.00    -0.550 OA
ENDBRANCH   6   7
ENDBRANCH   5   6
ENDBRANCH   4   5
ENDBRANCH   3   4
ENDBRANCH   2   3
ENDBRANCH   1   2
BRANCH   1  10
ATOM     10  C   UNL     1       2.177   8.066  31.994  1.00  0.00     0.000 C 
BRANCH  10  11
ATOM     11  C   UNL     1       2.753   9.280  31.254  1.00  0.00    -0.000 C 
BRANCH  11  12
ATOM     12  C   UNL     1       4.141   8.967  30.679  1.00  0.00    -0.000 C 
BRANCH  12  13
ATOM     13  C   UNL     1       4.440   7.459  30.642  1.00  0.00    -0.000 C 
BRANCH  13  14
ATOM     14  C   UNL     1       4.592   6.920  29.212  1.00  0.00    -0.000 C 
BRANCH  14  15
ATOM     15  C   UNL     1       4.192   7.981  28.181  1.00  0.00    -0.003 C 
ATOM     16  C   UNL     1       2.785   7.728  27.646  1.00  0.00     0.004 C 
ENDBRANCH  14  15
ENDBRANCH  13  14
ENDBRANCH  12  13
ENDBRANCH  11  12
ENDBRANCH  10  11
ENDBRANCH   1  10
TORSDOF 12
ENDMDL
