MODEL 1
REMARK VINA RESULT:    -7.448      0.000      0.000
REMARK INTER + INTRA:          -7.978
REMARK INTER:                  -8.102
REMARK INTRA:                   0.123
REMARK UNBOUND:                 0.123
REMARK SMILES CC1(C)CC[C@]2(C(=O)[O-])CC[C@@]3(C)C(=CC[C@H]4[C@]5(C)CC[C@@H](O)C(C)(C)[C@@H]5CC[C@]43C)[C@H]2C1
REMARK SMILES IDX 6 1 5 2 10 3 32 4 4 5 11 6 14 7 33 8 2 9 12 10 15 11 1 12
REMARK SMILES IDX 3 13 13 14 30 15 16 16 17 17 29 18 31 19 18 20 28 21 27 22
REMARK SMILES IDX 20 23 19 24 24 25 21 26 22 27 25 28 26 29 7 30 8 31 9 32
REMARK SMILES IDX 23 33
REMARK H PARENT 23 34
REMARK Flexibility Score: inf
ROOT
ATOM      1  C   UNL     1     -11.703  -9.881  97.573  1.00  0.00     0.017 C 
ATOM      2  C   UNL     1     -10.473  -9.925  98.514  1.00  0.00     0.014 C 
ATOM      3  C   UNL     1     -11.827 -11.246  96.875  1.00  0.00     0.014 C 
ATOM      4  C   UNL     1     -11.462  -8.831  96.450  1.00  0.00     0.028 C 
ATOM      5  C   UNL     1     -10.179  -8.555  99.138  1.00  0.00     0.007 C 
ATOM      6  C   UNL     1     -13.091 -11.344  96.012  1.00  0.00     0.013 C 
ATOM      7  C   UNL     1     -12.587  -8.838  95.394  1.00  0.00    -0.064 C 
ATOM      8  C   UNL     1     -11.105  -7.427  97.036  1.00  0.00     0.015 C 
ATOM      9  C   UNL     1      -9.947  -7.451  98.077  1.00  0.00    -0.035 C 
ATOM     10  C   UNL     1     -13.468 -10.083  95.115  1.00  0.00    -0.006 C 
ATOM     11  C   UNL     1     -12.672  -7.818  94.512  1.00  0.00    -0.027 C 
ATOM     12  C   UNL     1      -9.903  -6.086  98.798  1.00  0.00     0.011 C 
ATOM     13  C   UNL     1      -8.584  -7.657  97.372  1.00  0.00     0.011 C 
ATOM     14  C   UNL     1     -14.949  -9.692  95.485  1.00  0.00     0.017 C 
ATOM     15  C   UNL     1     -13.349 -10.435  93.539  1.00  0.00    -0.020 C 
ATOM     16  C   UNL     1     -13.656  -7.819  93.384  1.00  0.00     0.032 C 
ATOM     17  C   UNL     1     -13.751  -9.190  92.619  1.00  0.00     0.006 C 
ATOM     18  C   UNL     1     -11.880 -10.881  93.181  1.00  0.00     0.008 C 
ATOM     19  C   UNL     1     -14.315 -11.642  93.230  1.00  0.00     0.012 C 
ATOM     20  C   UNL     1     -13.035  -9.125  91.190  1.00  0.00    -0.025 C 
ATOM     21  C   UNL     1     -10.948  -9.792  92.625  1.00  0.00     0.005 C 
ATOM     22  C   UNL     1     -11.474  -8.957  91.399  1.00  0.00     0.003 C 
ATOM     23  C   UNL     1     -13.339 -10.402  90.333  1.00  0.00     0.010 C 
ATOM     24  C   UNL     1     -13.660  -7.912  90.411  1.00  0.00     0.012 C 
ATOM     25  C   UNL     1     -10.597  -9.126  90.078  1.00  0.00    -0.006 C 
ATOM     26  C   UNL     1     -12.495 -10.528  89.056  1.00  0.00     0.033 C 
ATOM     27  C   UNL     1     -10.988 -10.447  89.354  1.00  0.00     0.120 C 
ATOM     28  C   UNL     1      -9.070  -9.165  90.398  1.00  0.00     0.014 C 
ATOM     29  C   UNL     1     -10.770  -7.903  89.128  1.00  0.00     0.014 C 
ENDROOT
BRANCH   1  30
ATOM     30  C   UNL     1     -12.950  -9.624  98.421  1.00  0.00     0.048 C 
ATOM     31  O   UNL     1     -13.369 -10.519  99.204  1.00  0.00    -0.550 OA
ATOM     32  O   UNL     1     -13.619  -8.409  98.387  1.00  0.00    -0.550 OA
ENDBRANCH   1  30
BRANCH  27  33
ATOM     33  O   UNL     1     -10.266 -10.574  88.154  1.00  0.00    -0.393 OA
ATOM     34  H   UNL     1     -10.757 -10.056  87.465  1.00  0.00     0.210 HD
ENDBRANCH  27  33
TORSDOF 2
ENDMDL
MODEL 2
REMARK VINA RESULT:    -7.049      3.341      5.109
REMARK INTER + INTRA:          -7.544
REMARK INTER:                  -7.667
REMARK INTRA:                   0.122
REMARK UNBOUND:                 0.123
REMARK SMILES CC1(C)CC[C@]2(C(=O)[O-])CC[C@@]3(C)C(=CC[C@H]4[C@]5(C)CC[C@@H](O)C(C)(C)[C@@H]5CC[C@]43C)[C@H]2C1
REMARK SMILES IDX 6 1 5 2 10 3 32 4 4 5 11 6 14 7 33 8 2 9 12 10 15 11 1 12
REMARK SMILES IDX 3 13 13 14 30 15 16 16 17 17 29 18 31 19 18 20 28 21 27 22
REMARK SMILES IDX 20 23 19 24 24 25 21 26 22 27 25 28 26 29 7 30 8 31 9 32
REMARK SMILES IDX 23 33
REMARK H PARENT 23 34
REMARK Flexibility Score: inf
ROOT
ATOM      1  C   UNL     1     -12.112 -10.794  94.965  1.00  0.00     0.017 C 
ATOM      2  C   UNL     1     -12.133 -11.677  96.238  1.00  0.00     0.014 C 
ATOM      3  C   UNL     1     -11.017 -11.326  94.026  1.00  0.00     0.014 C 
ATOM      4  C   UNL     1     -11.700  -9.342  95.346  1.00  0.00     0.028 C 
ATOM      5  C   UNL     1     -13.092 -11.128  97.302  1.00  0.00     0.007 C 
ATOM      6  C   UNL     1     -10.999 -10.591  92.680  1.00  0.00     0.013 C 
ATOM      7  C   UNL     1     -11.519  -8.443  94.106  1.00  0.00    -0.064 C 
ATOM      8  C   UNL     1     -12.616  -8.756  96.469  1.00  0.00     0.015 C 
ATOM      9  C   UNL     1     -12.755  -9.675  97.718  1.00  0.00    -0.035 C 
ATOM     10  C   UNL     1     -11.165  -9.007  92.705  1.00  0.00    -0.006 C 
ATOM     11  C   UNL     1     -11.429  -7.105  94.266  1.00  0.00    -0.027 C 
ATOM     12  C   UNL     1     -13.907  -9.141  98.597  1.00  0.00     0.011 C 
ATOM     13  C   UNL     1     -11.460  -9.642  98.566  1.00  0.00     0.011 C 
ATOM     14  C   UNL     1     -12.372  -8.663  91.752  1.00  0.00     0.017 C 
ATOM     15  C   UNL     1      -9.813  -8.274  92.199  1.00  0.00    -0.020 C 
ATOM     16  C   UNL     1     -11.128  -6.183  93.127  1.00  0.00     0.032 C 
ATOM     17  C   UNL     1      -9.968  -6.681  92.190  1.00  0.00     0.006 C 
ATOM     18  C   UNL     1      -8.594  -8.663  93.120  1.00  0.00     0.008 C 
ATOM     19  C   UNL     1      -9.500  -8.774  90.737  1.00  0.00     0.012 C 
ATOM     20  C   UNL     1      -8.619  -5.854  92.421  1.00  0.00    -0.025 C 
ATOM     21  C   UNL     1      -8.252  -7.686  94.257  1.00  0.00     0.005 C 
ATOM     22  C   UNL     1      -8.053  -6.175  93.865  1.00  0.00     0.003 C 
ATOM     23  C   UNL     1      -7.544  -6.182  91.327  1.00  0.00     0.010 C 
ATOM     24  C   UNL     1      -8.971  -4.332  92.249  1.00  0.00     0.012 C 
ATOM     25  C   UNL     1      -6.586  -5.621  94.151  1.00  0.00    -0.006 C 
ATOM     26  C   UNL     1      -6.146  -5.619  91.618  1.00  0.00     0.033 C 
ATOM     27  C   UNL     1      -5.630  -6.050  93.001  1.00  0.00     0.120 C 
ATOM     28  C   UNL     1      -6.017  -6.158  95.501  1.00  0.00     0.014 C 
ATOM     29  C   UNL     1      -6.592  -4.071  94.315  1.00  0.00     0.014 C 
ENDROOT
BRANCH   1  30
ATOM     30  C   UNL     1     -13.474 -10.904  94.279  1.00  0.00     0.048 C 
ATOM     31  O   UNL     1     -13.827 -11.998  93.760  1.00  0.00    -0.550 OA
ATOM     32  O   UNL     1     -14.364  -9.840  94.244  1.00  0.00    -0.550 OA
ENDBRANCH   1  30
BRANCH  27  33
ATOM     33  O   UNL     1      -4.347  -5.514  93.211  1.00  0.00    -0.393 OA
ATOM     34  H   UNL     1      -4.458  -4.722  93.800  1.00  0.00     0.210 HD
ENDBRANCH  27  33
TORSDOF 2
ENDMDL
MODEL 3
REMARK VINA RESULT:    -6.945      3.744      6.052
REMARK INTER + INTRA:          -7.431
REMARK INTER:                  -7.552
REMARK INTRA:                   0.121
REMARK UNBOUND:                 0.123
REMARK SMILES CC1(C)CC[C@]2(C(=O)[O-])CC[C@@]3(C)C(=CC[C@H]4[C@]5(C)CC[C@@H](O)C(C)(C)[C@@H]5CC[C@]43C)[C@H]2C1
REMARK SMILES IDX 6 1 5 2 10 3 32 4 4 5 11 6 14 7 33 8 2 9 12 10 15 11 1 12
REMARK SMILES IDX 3 13 13 14 30 15 16 16 17 17 29 18 31 19 18 20 28 21 27 22
REMARK SMILES IDX 20 23 19 24 24 25 21 26 22 27 25 28 26 29 7 30 8 31 9 32
REMARK SMILES IDX 23 33
REMARK H PARENT 23 34
REMARK Flexibility Score: inf
ROOT
ATOM      1  C   UNL     1     -11.554 -10.379  94.337  1.00  0.00     0.017 C 
ATOM      2  C   UNL     1     -11.791 -11.535  95.342  1.00  0.00     0.014 C 
ATOM      3  C   UNL     1     -10.453 -10.811  93.354  1.00  0.00     0.014 C 
ATOM      4  C   UNL     1     -11.007  -9.135  95.095  1.00  0.00     0.028 C 
ATOM      5  C   UNL     1     -12.766 -11.135  96.457  1.00  0.00     0.007 C 
ATOM      6  C   UNL     1     -10.231  -9.780  92.241  1.00  0.00     0.013 C 
ATOM      7  C   UNL     1     -10.613  -7.994  94.134  1.00  0.00    -0.064 C 
ATOM      8  C   UNL     1     -11.940  -8.720  96.278  1.00  0.00     0.015 C 
ATOM      9  C   UNL     1     -12.295  -9.887  97.244  1.00  0.00    -0.035 C 
ATOM     10  C   UNL     1     -10.209  -8.242  92.657  1.00  0.00    -0.006 C 
ATOM     11  C   UNL     1     -10.379  -6.761  94.632  1.00  0.00    -0.027 C 
ATOM     12  C   UNL     1     -13.447  -9.431  98.166  1.00  0.00     0.011 C 
ATOM     13  C   UNL     1     -11.084 -10.240  98.142  1.00  0.00     0.011 C 
ATOM     14  C   UNL     1     -11.278  -7.515  91.758  1.00  0.00     0.017 C 
ATOM     15  C   UNL     1      -8.741  -7.601  92.427  1.00  0.00    -0.020 C 
ATOM     16  C   UNL     1      -9.872  -5.639  93.781  1.00  0.00     0.032 C 
ATOM     17  C   UNL     1      -8.703  -6.048  92.813  1.00  0.00     0.006 C 
ATOM     18  C   UNL     1      -7.661  -8.366  93.285  1.00  0.00     0.008 C 
ATOM     19  C   UNL     1      -8.363  -7.767  90.905  1.00  0.00     0.012 C 
ATOM     20  C   UNL     1      -7.290  -5.495  93.318  1.00  0.00    -0.025 C 
ATOM     21  C   UNL     1      -7.305  -7.752  94.648  1.00  0.00     0.005 C 
ATOM     22  C   UNL     1      -6.894  -6.233  94.663  1.00  0.00     0.003 C 
ATOM     23  C   UNL     1      -6.171  -5.691  92.237  1.00  0.00     0.010 C 
ATOM     24  C   UNL     1      -7.442  -3.944  93.518  1.00  0.00     0.012 C 
ATOM     25  C   UNL     1      -5.401  -5.971  95.158  1.00  0.00    -0.006 C 
ATOM     26  C   UNL     1      -4.746  -5.413  92.736  1.00  0.00     0.033 C 
ATOM     27  C   UNL     1      -4.407  -6.235  93.991  1.00  0.00     0.120 C 
ATOM     28  C   UNL     1      -5.020  -6.895  96.358  1.00  0.00     0.014 C 
ATOM     29  C   UNL     1      -5.236  -4.523  95.709  1.00  0.00     0.014 C 
ENDROOT
BRANCH   1  30
ATOM     30  C   UNL     1     -12.855 -10.131  93.573  1.00  0.00     0.048 C 
ATOM     31  O   UNL     1     -13.267 -10.988  92.744  1.00  0.00    -0.550 OA
ATOM     32  O   UNL     1     -13.629  -9.000  93.793  1.00  0.00    -0.550 OA
ENDBRANCH   1  30
BRANCH  27  33
ATOM     33  O   UNL     1      -3.093  -5.946  94.399  1.00  0.00    -0.393 OA
ATOM     34  H   UNL     1      -2.556  -5.816  93.574  1.00  0.00     0.210 HD
ENDBRANCH  27  33
TORSDOF 2
ENDMDL
MODEL 4
REMARK VINA RESULT:    -6.921      1.912      2.663
REMARK INTER + INTRA:          -7.405
REMARK INTER:                  -7.540
REMARK INTRA:                   0.135
REMARK UNBOUND:                 0.123
REMARK SMILES CC1(C)CC[C@]2(C(=O)[O-])CC[C@@]3(C)C(=CC[C@H]4[C@]5(C)CC[C@@H](O)C(C)(C)[C@@H]5CC[C@]43C)[C@H]2C1
REMARK SMILES IDX 6 1 5 2 10 3 32 4 4 5 11 6 14 7 33 8 2 9 12 10 15 11 1 12
REMARK SMILES IDX 3 13 13 14 30 15 16 16 17 17 29 18 31 19 18 20 28 21 27 22
REMARK SMILES IDX 20 23 19 24 24 25 21 26 22 27 25 28 26 29 7 30 8 31 9 32
REMARK SMILES IDX 23 33
REMARK H PARENT 23 34
REMARK Flexibility Score: inf
ROOT
ATOM      1  C   UNL     1     -12.667  -8.819  97.926  1.00  0.00     0.017 C 
ATOM      2  C   UNL     1     -12.437  -7.713  98.986  1.00  0.00     0.014 C 
ATOM      3  C   UNL     1     -11.321  -9.506  97.643  1.00  0.00     0.014 C 
ATOM      4  C   UNL     1     -13.122  -8.169  96.586  1.00  0.00     0.028 C 
ATOM      5  C   UNL     1     -13.697  -6.869  99.219  1.00  0.00     0.007 C 
ATOM      6  C   UNL     1     -11.468 -10.702  96.694  1.00  0.00     0.013 C 
ATOM      7  C   UNL     1     -13.230  -9.201  95.445  1.00  0.00    -0.064 C 
ATOM      8  C   UNL     1     -14.373  -7.254  96.781  1.00  0.00     0.015 C 
ATOM      9  C   UNL     1     -14.220  -6.205  97.921  1.00  0.00    -0.035 C 
ATOM     10  C   UNL     1     -12.421 -10.524  95.430  1.00  0.00    -0.006 C 
ATOM     11  C   UNL     1     -13.864  -8.859  94.302  1.00  0.00    -0.027 C 
ATOM     12  C   UNL     1     -15.606  -5.589  98.215  1.00  0.00     0.011 C 
ATOM     13  C   UNL     1     -13.277  -5.057  97.483  1.00  0.00     0.011 C 
ATOM     14  C   UNL     1     -13.464 -11.703  95.481  1.00  0.00     0.017 C 
ATOM     15  C   UNL     1     -11.572 -10.574  94.052  1.00  0.00    -0.020 C 
ATOM     16  C   UNL     1     -13.898  -9.761  93.109  1.00  0.00     0.032 C 
ATOM     17  C   UNL     1     -12.515 -10.426  92.767  1.00  0.00     0.006 C 
ATOM     18  C   UNL     1     -10.490  -9.427  94.027  1.00  0.00     0.008 C 
ATOM     19  C   UNL     1     -10.820 -11.958  93.987  1.00  0.00     0.012 C 
ATOM     20  C   UNL     1     -11.834  -9.758  91.483  1.00  0.00    -0.025 C 
ATOM     21  C   UNL     1     -10.881  -8.130  93.301  1.00  0.00     0.005 C 
ATOM     22  C   UNL     1     -11.422  -8.268  91.829  1.00  0.00     0.003 C 
ATOM     23  C   UNL     1     -10.584 -10.573  91.001  1.00  0.00     0.010 C 
ATOM     24  C   UNL     1     -12.881  -9.825  90.314  1.00  0.00     0.012 C 
ATOM     25  C   UNL     1     -10.510  -7.551  90.735  1.00  0.00    -0.006 C 
ATOM     26  C   UNL     1      -9.736  -9.868  89.933  1.00  0.00     0.033 C 
ATOM     27  C   UNL     1      -9.300  -8.463  90.382  1.00  0.00     0.120 C 
ATOM     28  C   UNL     1      -9.970  -6.177  91.242  1.00  0.00     0.014 C 
ATOM     29  C   UNL     1     -11.333  -7.204  89.458  1.00  0.00     0.014 C 
ENDROOT
BRANCH   1  30
ATOM     30  C   UNL     1     -13.653  -9.838  98.499  1.00  0.00     0.048 C 
ATOM     31  O   UNL     1     -13.280 -10.625  99.411  1.00  0.00    -0.550 OA
ATOM     32  O   UNL     1     -14.973  -9.899  98.073  1.00  0.00    -0.550 OA
ENDBRANCH   1  30
BRANCH  27  33
ATOM     33  O   UNL     1      -8.524  -7.869  89.371  1.00  0.00    -0.393 OA
ATOM     34  H   UNL     1      -8.487  -6.896  89.569  1.00  0.00     0.210 HD
ENDBRANCH  27  33
TORSDOF 2
ENDMDL
MODEL 5
REMARK VINA RESULT:    -6.921      2.014      3.777
REMARK INTER + INTRA:          -7.404
REMARK INTER:                  -7.527
REMARK INTRA:                   0.123
REMARK UNBOUND:                 0.123
REMARK SMILES CC1(C)CC[C@]2(C(=O)[O-])CC[C@@]3(C)C(=CC[C@H]4[C@]5(C)CC[C@@H](O)C(C)(C)[C@@H]5CC[C@]43C)[C@H]2C1
REMARK SMILES IDX 6 1 5 2 10 3 32 4 4 5 11 6 14 7 33 8 2 9 12 10 15 11 1 12
REMARK SMILES IDX 3 13 13 14 30 15 16 16 17 17 29 18 31 19 18 20 28 21 27 22
REMARK SMILES IDX 20 23 19 24 24 25 21 26 22 27 25 28 26 29 7 30 8 31 9 32
REMARK SMILES IDX 23 33
REMARK H PARENT 23 34
REMARK Flexibility Score: inf
ROOT
ATOM      1  C   UNL     1     -12.266  -8.570  96.693  1.00  0.00     0.017 C 
ATOM      2  C   UNL     1     -12.499  -7.460  97.750  1.00  0.00     0.014 C 
ATOM      3  C   UNL     1     -11.128  -8.119  95.762  1.00  0.00     0.014 C 
ATOM      4  C   UNL     1     -13.534  -8.716  95.803  1.00  0.00     0.028 C 
ATOM      5  C   UNL     1     -13.720  -7.753  98.630  1.00  0.00     0.007 C 
ATOM      6  C   UNL     1     -10.739  -9.207  94.754  1.00  0.00     0.013 C 
ATOM      7  C   UNL     1     -13.319  -9.704  94.639  1.00  0.00    -0.064 C 
ATOM      8  C   UNL     1     -14.818  -8.962  96.660  1.00  0.00     0.015 C 
ATOM      9  C   UNL     1     -15.021  -7.932  97.809  1.00  0.00    -0.035 C 
ATOM     10  C   UNL     1     -11.918 -10.013  94.049  1.00  0.00    -0.006 C 
ATOM     11  C   UNL     1     -14.387 -10.147  93.941  1.00  0.00    -0.027 C 
ATOM     12  C   UNL     1     -16.124  -8.457  98.754  1.00  0.00     0.011 C 
ATOM     13  C   UNL     1     -15.494  -6.570  97.243  1.00  0.00     0.011 C 
ATOM     14  C   UNL     1     -11.637 -11.542  94.306  1.00  0.00     0.017 C 
ATOM     15  C   UNL     1     -11.965  -9.701  92.461  1.00  0.00    -0.020 C 
ATOM     16  C   UNL     1     -14.244 -11.005  92.723  1.00  0.00     0.032 C 
ATOM     17  C   UNL     1     -13.126 -10.523  91.728  1.00  0.00     0.006 C 
ATOM     18  C   UNL     1     -12.190  -8.162  92.205  1.00  0.00     0.008 C 
ATOM     19  C   UNL     1     -10.573 -10.102  91.839  1.00  0.00     0.012 C 
ATOM     20  C   UNL     1     -13.746  -9.833  90.425  1.00  0.00    -0.025 C 
ATOM     21  C   UNL     1     -13.639  -7.711  91.957  1.00  0.00     0.005 C 
ATOM     22  C   UNL     1     -14.444  -8.473  90.840  1.00  0.00     0.003 C 
ATOM     23  C   UNL     1     -12.653  -9.576  89.331  1.00  0.00     0.010 C 
ATOM     24  C   UNL     1     -14.764 -10.852  89.798  1.00  0.00     0.012 C 
ATOM     25  C   UNL     1     -14.892  -7.548  89.620  1.00  0.00    -0.006 C 
ATOM     26  C   UNL     1     -13.117  -8.700  88.159  1.00  0.00     0.033 C 
ATOM     27  C   UNL     1     -13.698  -7.359  88.640  1.00  0.00     0.120 C 
ATOM     28  C   UNL     1     -15.368  -6.143  90.105  1.00  0.00     0.014 C 
ATOM     29  C   UNL     1     -16.125  -8.149  88.882  1.00  0.00     0.014 C 
ENDROOT
BRANCH   1  30
ATOM     30  C   UNL     1     -11.855  -9.850  97.422  1.00  0.00     0.048 C 
ATOM     31  O   UNL     1     -10.735  -9.910  97.999  1.00  0.00    -0.550 OA
ATOM     32  O   UNL     1     -12.700 -10.947  97.506  1.00  0.00    -0.550 OA
ENDBRANCH   1  30
BRANCH  27  33
ATOM     33  O   UNL     1     -14.100  -6.597  87.528  1.00  0.00    -0.393 OA
ATOM     34  H   UNL     1     -14.787  -7.128  87.047  1.00  0.00     0.210 HD
ENDBRANCH  27  33
TORSDOF 2
ENDMDL
MODEL 6
REMARK VINA RESULT:    -6.819      2.507      6.933
REMARK INTER + INTRA:          -7.294
REMARK INTER:                  -7.414
REMARK INTRA:                   0.120
REMARK UNBOUND:                 0.123
REMARK SMILES CC1(C)CC[C@]2(C(=O)[O-])CC[C@@]3(C)C(=CC[C@H]4[C@]5(C)CC[C@@H](O)C(C)(C)[C@@H]5CC[C@]43C)[C@H]2C1
REMARK SMILES IDX 6 1 5 2 10 3 32 4 4 5 11 6 14 7 33 8 2 9 12 10 15 11 1 12
REMARK SMILES IDX 3 13 13 14 30 15 16 16 17 17 29 18 31 19 18 20 28 21 27 22
REMARK SMILES IDX 20 23 19 24 24 25 21 26 22 27 25 28 26 29 7 30 8 31 9 32
REMARK SMILES IDX 23 33
REMARK H PARENT 23 34
REMARK Flexibility Score: inf
ROOT
ATOM      1  C   UNL     1      -9.654  -6.364  91.167  1.00  0.00     0.017 C 
ATOM      2  C   UNL     1      -8.918  -5.002  91.101  1.00  0.00     0.014 C 
ATOM      3  C   UNL     1     -11.164  -6.104  91.032  1.00  0.00     0.014 C 
ATOM      4  C   UNL     1      -9.440  -7.004  92.570  1.00  0.00     0.028 C 
ATOM      5  C   UNL     1      -7.417  -5.147  91.382  1.00  0.00     0.007 C 
ATOM      6  C   UNL     1     -11.972  -7.406  90.962  1.00  0.00     0.013 C 
ATOM      7  C   UNL     1     -10.264  -8.294  92.754  1.00  0.00    -0.064 C 
ATOM      8  C   UNL     1      -7.923  -7.123  92.926  1.00  0.00     0.015 C 
ATOM      9  C   UNL     1      -7.125  -5.797  92.757  1.00  0.00    -0.035 C 
ATOM     10  C   UNL     1     -11.569  -8.576  91.964  1.00  0.00    -0.006 C 
ATOM     11  C   UNL     1      -9.991  -9.111  93.794  1.00  0.00    -0.027 C 
ATOM     12  C   UNL     1      -5.616  -6.116  92.834  1.00  0.00     0.011 C 
ATOM     13  C   UNL     1      -7.458  -4.810  93.903  1.00  0.00     0.011 C 
ATOM     14  C   UNL     1     -11.307  -9.855  91.083  1.00  0.00     0.017 C 
ATOM     15  C   UNL     1     -12.750  -8.856  93.035  1.00  0.00    -0.020 C 
ATOM     16  C   UNL     1     -10.828 -10.311  94.108  1.00  0.00     0.032 C 
ATOM     17  C   UNL     1     -12.377 -10.048  94.035  1.00  0.00     0.006 C 
ATOM     18  C   UNL     1     -13.051  -7.558  93.879  1.00  0.00     0.008 C 
ATOM     19  C   UNL     1     -14.057  -9.235  92.240  1.00  0.00     0.012 C 
ATOM     20  C   UNL     1     -13.036  -9.964  95.490  1.00  0.00    -0.025 C 
ATOM     21  C   UNL     1     -12.350  -7.447  95.243  1.00  0.00     0.005 C 
ATOM     22  C   UNL     1     -12.503  -8.666  96.227  1.00  0.00     0.003 C 
ATOM     23  C   UNL     1     -14.602  -9.946  95.416  1.00  0.00     0.010 C 
ATOM     24  C   UNL     1     -12.646 -11.279  96.255  1.00  0.00     0.012 C 
ATOM     25  C   UNL     1     -13.255  -8.310  97.587  1.00  0.00    -0.006 C 
ATOM     26  C   UNL     1     -15.300  -9.620  96.744  1.00  0.00     0.033 C 
ATOM     27  C   UNL     1     -14.793  -8.301  97.349  1.00  0.00     0.120 C 
ATOM     28  C   UNL     1     -12.825  -6.913  98.136  1.00  0.00     0.014 C 
ATOM     29  C   UNL     1     -12.876  -9.312  98.719  1.00  0.00     0.014 C 
ENDROOT
BRANCH   1  30
ATOM     30  C   UNL     1      -9.176  -7.227  89.999  1.00  0.00     0.048 C 
ATOM     31  O   UNL     1      -9.503  -6.922  88.820  1.00  0.00    -0.550 OA
ATOM     32  O   UNL     1      -8.349  -8.325  90.192  1.00  0.00    -0.550 OA
ENDBRANCH   1  30
BRANCH  27  33
ATOM     33  O   UNL     1     -15.468  -8.050  98.557  1.00  0.00    -0.393 OA
ATOM     34  H   UNL     1     -16.422  -7.895  98.328  1.00  0.00     0.210 HD
ENDBRANCH  27  33
TORSDOF 2
ENDMDL
MODEL 7
REMARK VINA RESULT:    -6.811      1.965      7.329
REMARK INTER + INTRA:          -7.285
REMARK INTER:                  -7.409
REMARK INTRA:                   0.123
REMARK UNBOUND:                 0.123
REMARK SMILES CC1(C)CC[C@]2(C(=O)[O-])CC[C@@]3(C)C(=CC[C@H]4[C@]5(C)CC[C@@H](O)C(C)(C)[C@@H]5CC[C@]43C)[C@H]2C1
REMARK SMILES IDX 6 1 5 2 10 3 32 4 4 5 11 6 14 7 33 8 2 9 12 10 15 11 1 12
REMARK SMILES IDX 3 13 13 14 30 15 16 16 17 17 29 18 31 19 18 20 28 21 27 22
REMARK SMILES IDX 20 23 19 24 24 25 21 26 22 27 25 28 26 29 7 30 8 31 9 32
REMARK SMILES IDX 23 33
REMARK H PARENT 23 34
REMARK Flexibility Score: inf
ROOT
ATOM      1  C   UNL     1     -12.064  -8.468  90.633  1.00  0.00     0.017 C 
ATOM      2  C   UNL     1     -12.742  -7.615  89.531  1.00  0.00     0.014 C 
ATOM      3  C   UNL     1     -13.006  -9.628  90.996  1.00  0.00     0.014 C 
ATOM      4  C   UNL     1     -11.896  -7.614  91.923  1.00  0.00     0.028 C 
ATOM      5  C   UNL     1     -11.942  -6.346  89.213  1.00  0.00     0.007 C 
ATOM      6  C   UNL     1     -12.369 -10.602  91.994  1.00  0.00     0.013 C 
ATOM      7  C   UNL     1     -11.358  -8.444  93.106  1.00  0.00    -0.064 C 
ATOM      8  C   UNL     1     -11.133  -6.280  91.640  1.00  0.00     0.015 C 
ATOM      9  C   UNL     1     -11.718  -5.453  90.458  1.00  0.00    -0.035 C 
ATOM     10  C   UNL     1     -11.554  -9.978  93.213  1.00  0.00    -0.006 C 
ATOM     11  C   UNL     1     -10.904  -7.808  94.208  1.00  0.00    -0.027 C 
ATOM     12  C   UNL     1     -10.710  -4.343  90.086  1.00  0.00     0.011 C 
ATOM     13  C   UNL     1     -13.042  -4.766  90.876  1.00  0.00     0.011 C 
ATOM     14  C   UNL     1     -10.120 -10.630  93.178  1.00  0.00     0.017 C 
ATOM     15  C   UNL     1     -12.288 -10.291  94.621  1.00  0.00    -0.020 C 
ATOM     16  C   UNL     1     -10.486  -8.547  95.440  1.00  0.00     0.032 C 
ATOM     17  C   UNL     1     -11.470  -9.697  95.862  1.00  0.00     0.006 C 
ATOM     18  C   UNL     1     -13.744  -9.687  94.633  1.00  0.00     0.008 C 
ATOM     19  C   UNL     1     -12.406 -11.855  94.778  1.00  0.00     0.012 C 
ATOM     20  C   UNL     1     -12.346  -9.293  97.138  1.00  0.00    -0.025 C 
ATOM     21  C   UNL     1     -13.909  -8.304  95.283  1.00  0.00     0.005 C 
ATOM     22  C   UNL     1     -13.338  -8.124  96.738  1.00  0.00     0.003 C 
ATOM     23  C   UNL     1     -13.145 -10.518  97.703  1.00  0.00     0.010 C 
ATOM     24  C   UNL     1     -11.347  -8.859  98.270  1.00  0.00     0.012 C 
ATOM     25  C   UNL     1     -14.447  -7.780  97.831  1.00  0.00    -0.006 C 
ATOM     26  C   UNL     1     -14.192 -10.161  98.768  1.00  0.00     0.033 C 
ATOM     27  C   UNL     1     -15.172  -9.085  98.270  1.00  0.00     0.120 C 
ATOM     28  C   UNL     1     -15.510  -6.778  97.280  1.00  0.00     0.014 C 
ATOM     29  C   UNL     1     -13.821  -7.054  99.059  1.00  0.00     0.014 C 
ENDROOT
BRANCH   1  30
ATOM     30  C   UNL     1     -10.755  -9.027  90.072  1.00  0.00     0.048 C 
ATOM     31  O   UNL     1     -10.787  -9.909  89.172  1.00  0.00    -0.550 OA
ATOM     32  O   UNL     1      -9.519  -8.560  90.496  1.00  0.00    -0.550 OA
ENDBRANCH   1  30
BRANCH  27  33
ATOM     33  O   UNL     1     -16.109  -8.802  99.280  1.00  0.00    -0.393 OA
ATOM     34  H   UNL     1     -16.923  -9.332  99.075  1.00  0.00     0.210 HD
ENDBRANCH  27  33
TORSDOF 2
ENDMDL
MODEL 8
REMARK VINA RESULT:    -6.472      1.600      1.934
REMARK INTER + INTRA:          -6.916
REMARK INTER:                  -7.172
REMARK INTRA:                   0.256
REMARK UNBOUND:                 0.123
REMARK SMILES CC1(C)CC[C@]2(C(=O)[O-])CC[C@@]3(C)C(=CC[C@H]4[C@]5(C)CC[C@@H](O)C(C)(C)[C@@H]5CC[C@]43C)[C@H]2C1
REMARK SMILES IDX 6 1 5 2 10 3 32 4 4 5 11 6 14 7 33 8 2 9 12 10 15 11 1 12
REMARK SMILES IDX 3 13 13 14 30 15 16 16 17 17 29 18 31 19 18 20 28 21 27 22
REMARK SMILES IDX 20 23 19 24 24 25 21 26 22 27 25 28 26 29 7 30 8 31 9 32
REMARK SMILES IDX 23 33
REMARK H PARENT 23 34
REMARK Flexibility Score: inf
ROOT
ATOM      1  C   UNL     1     -12.416  -9.110  99.042  1.00  0.00     0.017 C 
ATOM      2  C   UNL     1     -11.451  -8.890 100.234  1.00  0.00     0.014 C 
ATOM      3  C   UNL     1     -12.148 -10.505  98.454  1.00  0.00     0.014 C 
ATOM      4  C   UNL     1     -12.092  -8.086  97.915  1.00  0.00     0.028 C 
ATOM      5  C   UNL     1     -11.539  -7.462 100.788  1.00  0.00     0.007 C 
ATOM      6  C   UNL     1     -13.140 -10.867  97.342  1.00  0.00     0.013 C 
ATOM      7  C   UNL     1     -12.920  -8.342  96.639  1.00  0.00    -0.064 C 
ATOM      8  C   UNL     1     -12.115  -6.616  98.443  1.00  0.00     0.015 C 
ATOM      9  C   UNL     1     -11.247  -6.385  99.715  1.00  0.00    -0.035 C 
ATOM     10  C   UNL     1     -13.496  -9.736  96.278  1.00  0.00    -0.006 C 
ATOM     11  C   UNL     1     -12.960  -7.396  95.676  1.00  0.00    -0.027 C 
ATOM     12  C   UNL     1     -11.596  -5.002 100.307  1.00  0.00     0.011 C 
ATOM     13  C   UNL     1      -9.741  -6.376  99.353  1.00  0.00     0.011 C 
ATOM     14  C   UNL     1     -15.066  -9.599  96.272  1.00  0.00     0.017 C 
ATOM     15  C   UNL     1     -12.954 -10.134  94.806  1.00  0.00    -0.020 C 
ATOM     16  C   UNL     1     -13.637  -7.624  94.361  1.00  0.00     0.032 C 
ATOM     17  C   UNL     1     -13.326  -9.023  93.715  1.00  0.00     0.006 C 
ATOM     18  C   UNL     1     -11.389 -10.326  94.825  1.00  0.00     0.008 C 
ATOM     19  C   UNL     1     -13.610 -11.507  94.393  1.00  0.00     0.012 C 
ATOM     20  C   UNL     1     -12.314  -8.898  92.482  1.00  0.00    -0.025 C 
ATOM     21  C   UNL     1     -10.543  -9.116  94.400  1.00  0.00     0.005 C 
ATOM     22  C   UNL     1     -10.894  -8.445  93.020  1.00  0.00     0.003 C 
ATOM     23  C   UNL     1     -12.195 -10.247  91.692  1.00  0.00     0.010 C 
ATOM     24  C   UNL     1     -12.927  -7.854  91.481  1.00  0.00     0.012 C 
ATOM     25  C   UNL     1      -9.716  -8.516  91.948  1.00  0.00    -0.006 C 
ATOM     26  C   UNL     1     -11.066 -10.279  90.652  1.00  0.00     0.033 C 
ATOM     27  C   UNL     1      -9.706  -9.917  91.271  1.00  0.00     0.120 C 
ATOM     28  C   UNL     1      -8.322  -8.267  92.604  1.00  0.00     0.014 C 
ATOM     29  C   UNL     1      -9.857  -7.388  90.882  1.00  0.00     0.014 C 
ENDROOT
BRANCH   1  30
ATOM     30  C   UNL     1     -13.851  -9.040  99.564  1.00  0.00     0.048 C 
ATOM     31  O   UNL     1     -14.593  -8.077  99.229  1.00  0.00    -0.550 OA
ATOM     32  O   UNL     1     -14.385 -10.034 100.372  1.00  0.00    -0.550 OA
ENDBRANCH   1  30
BRANCH  27  33
ATOM     33  O   UNL     1      -8.711  -9.969  90.279  1.00  0.00    -0.393 OA
ATOM     34  H   UNL     1      -8.853 -10.810  89.771  1.00  0.00     0.210 HD
ENDBRANCH  27  33
TORSDOF 2
ENDMDL
MODEL 9
REMARK VINA RESULT:    -6.448      4.046      6.678
REMARK INTER + INTRA:          -6.890
REMARK INTER:                  -7.015
REMARK INTRA:                   0.125
REMARK UNBOUND:                 0.123
REMARK SMILES CC1(C)CC[C@]2(C(=O)[O-])CC[C@@]3(C)C(=CC[C@H]4[C@]5(C)CC[C@@H](O)C(C)(C)[C@@H]5CC[C@]43C)[C@H]2C1
REMARK SMILES IDX 6 1 5 2 10 3 32 4 4 5 11 6 14 7 33 8 2 9 12 10 15 11 1 12
REMARK SMILES IDX 3 13 13 14 30 15 16 16 17 17 29 18 31 19 18 20 28 21 27 22
REMARK SMILES IDX 20 23 19 24 24 25 21 26 22 27 25 28 26 29 7 30 8 31 9 32
REMARK SMILES IDX 23 33
REMARK H PARENT 23 34
REMARK Flexibility Score: inf
ROOT
ATOM      1  C   UNL     1      -6.026  -5.461  94.871  1.00  0.00     0.017 C 
ATOM      2  C   UNL     1      -5.269  -5.268  96.209  1.00  0.00     0.014 C 
ATOM      3  C   UNL     1      -7.354  -4.691  94.952  1.00  0.00     0.014 C 
ATOM      4  C   UNL     1      -6.395  -6.963  94.693  1.00  0.00     0.028 C 
ATOM      5  C   UNL     1      -4.000  -6.127  96.280  1.00  0.00     0.007 C 
ATOM      6  C   UNL     1      -8.123  -4.719  93.625  1.00  0.00     0.013 C 
ATOM      7  C   UNL     1      -7.276  -7.203  93.451  1.00  0.00    -0.064 C 
ATOM      8  C   UNL     1      -5.140  -7.886  94.812  1.00  0.00     0.015 C 
ATOM      9  C   UNL     1      -4.288  -7.637  96.091  1.00  0.00    -0.035 C 
ATOM     10  C   UNL     1      -8.184  -6.104  92.840  1.00  0.00    -0.006 C 
ATOM     11  C   UNL     1      -7.458  -8.464  93.003  1.00  0.00    -0.027 C 
ATOM     12  C   UNL     1      -2.940  -8.374  95.937  1.00  0.00     0.011 C 
ATOM     13  C   UNL     1      -5.000  -8.212  97.341  1.00  0.00     0.011 C 
ATOM     14  C   UNL     1      -7.651  -5.822  91.384  1.00  0.00     0.017 C 
ATOM     15  C   UNL     1      -9.697  -6.676  92.791  1.00  0.00    -0.020 C 
ATOM     16  C   UNL     1      -8.398  -8.786  91.884  1.00  0.00     0.032 C 
ATOM     17  C   UNL     1      -9.786  -8.054  91.982  1.00  0.00     0.006 C 
ATOM     18  C   UNL     1     -10.250  -6.905  94.251  1.00  0.00     0.008 C 
ATOM     19  C   UNL     1     -10.609  -5.600  92.086  1.00  0.00     0.012 C 
ATOM     20  C   UNL     1     -10.953  -9.049  92.437  1.00  0.00    -0.025 C 
ATOM     21  C   UNL     1     -10.128  -8.329  94.816  1.00  0.00     0.005 C 
ATOM     22  C   UNL     1     -10.696  -9.501  93.934  1.00  0.00     0.003 C 
ATOM     23  C   UNL     1     -12.366  -8.385  92.300  1.00  0.00     0.010 C 
ATOM     24  C   UNL     1     -10.940 -10.266  91.443  1.00  0.00     0.012 C 
ATOM     25  C   UNL     1     -11.901 -10.295  94.611  1.00  0.00    -0.006 C 
ATOM     26  C   UNL     1     -13.510  -9.181  92.944  1.00  0.00     0.033 C 
ATOM     27  C   UNL     1     -13.226  -9.502  94.421  1.00  0.00     0.120 C 
ATOM     28  C   UNL     1     -11.663 -10.513  96.139  1.00  0.00     0.014 C 
ATOM     29  C   UNL     1     -12.028 -11.733  94.024  1.00  0.00     0.014 C 
ENDROOT
BRANCH   1  30
ATOM     30  C   UNL     1      -5.166  -4.884  93.745  1.00  0.00     0.048 C 
ATOM     31  O   UNL     1      -5.019  -3.636  93.646  1.00  0.00    -0.550 OA
ATOM     32  O   UNL     1      -4.502  -5.701  92.840  1.00  0.00    -0.550 OA
ENDBRANCH   1  30
BRANCH  27  33
ATOM     33  O   UNL     1     -14.305 -10.224  94.960  1.00  0.00    -0.393 OA
ATOM     34  H   UNL     1     -15.115  -9.661  94.846  1.00  0.00     0.210 HD
ENDBRANCH  27  33
TORSDOF 2
ENDMDL
