MODEL 1
REMARK VINA RESULT:    -3.669      0.000      0.000
REMARK INTER + INTRA:          -6.648
REMARK INTER:                  -5.599
REMARK INTRA:                  -1.049
REMARK UNBOUND:                -1.049
REMARK SMILES CCCCCCCCCCC(=O)[O-]
REMARK SMILES IDX 7 1 8 2 9 3 10 4 11 5 12 6 13 7 6 8 5 9 4 10 3 11 2 12 1 13
REMARK H PARENT
REMARK Flexibility Score: inf
ROOT
ATOM      1  C   UNL     1     174.458 174.583 151.105  1.00  0.00     0.000 C 
ENDROOT
BRANCH   1   2
ATOM      2  C   UNL     1     175.919 174.629 150.622  1.00  0.00     0.000 C 
BRANCH   2   3
ATOM      3  C   UNL     1     176.891 173.952 151.599  1.00  0.00     0.006 C 
BRANCH   3   4
ATOM      4  C   UNL     1     176.137 173.080 152.606  1.00  0.00     0.053 C 
BRANCH   4   5
ATOM      5  C   UNL     1     177.095 172.265 153.415  1.00  0.00     0.041 C 
ATOM      6  O   UNL     1     177.922 172.832 154.177  1.00  0.00    -0.550 OA
ATOM      7  O   UNL     1     177.044 170.878 153.365  1.00  0.00    -0.550 OA
ENDBRANCH   4   5
ENDBRANCH   3   4
ENDBRANCH   2   3
ENDBRANCH   1   2
BRANCH   1   8
ATOM      8  C   UNL     1     173.614 175.827 150.760  1.00  0.00     0.000 C 
BRANCH   8   9
ATOM      9  C   UNL     1     174.330 177.180 150.938  1.00  0.00    -0.000 C 
BRANCH   9  10
ATOM     10  C   UNL     1     173.594 178.125 151.900  1.00  0.00    -0.000 C 
BRANCH  10  11
ATOM     11  C   UNL     1     174.153 178.069 153.332  1.00  0.00    -0.000 C 
BRANCH  11  12
ATOM     12  C   UNL     1     175.648 177.690 153.399  1.00  0.00    -0.003 C 
ATOM     13  C   UNL     1     175.895 176.456 154.268  1.00  0.00     0.004 C 
ENDBRANCH  11  12
ENDBRANCH  10  11
ENDBRANCH   9  10
ENDBRANCH   8   9
ENDBRANCH   1   8
TORSDOF 9
ENDMDL
MODEL 2
REMARK VINA RESULT:    -3.653     11.570     13.304
REMARK INTER + INTRA:          -6.624
REMARK INTER:                  -6.026
REMARK INTRA:                  -0.598
REMARK UNBOUND:                -1.049
REMARK SMILES CCCCCCCCCCC(=O)[O-]
REMARK SMILES IDX 7 1 8 2 9 3 10 4 11 5 12 6 13 7 6 8 5 9 4 10 3 11 2 12 1 13
REMARK H PARENT
REMARK Flexibility Score: inf
ROOT
ATOM      1  C   UNL     1     163.203 177.751 151.483  1.00  0.00     0.000 C 
ENDROOT
BRANCH   1   2
ATOM      2  C   UNL     1     162.403 176.676 150.724  1.00  0.00     0.000 C 
BRANCH   2   3
ATOM      3  C   UNL     1     160.953 177.097 150.448  1.00  0.00     0.006 C 
BRANCH   3   4
ATOM      4  C   UNL     1     160.240 177.491 151.745  1.00  0.00     0.053 C 
BRANCH   4   5
ATOM      5  C   UNL     1     159.926 176.277 152.560  1.00  0.00     0.041 C 
ATOM      6  O   UNL     1     160.068 176.300 153.811  1.00  0.00    -0.550 OA
ATOM      7  O   UNL     1     159.431 175.134 151.944  1.00  0.00    -0.550 OA
ENDBRANCH   4   5
ENDBRANCH   3   4
ENDBRANCH   2   3
ENDBRANCH   1   2
BRANCH   1   8
ATOM      8  C   UNL     1     164.602 178.055 150.907  1.00  0.00     0.000 C 
BRANCH   8   9
ATOM      9  C   UNL     1     165.764 177.961 151.914  1.00  0.00    -0.000 C 
BRANCH   9  10
ATOM     10  C   UNL     1     166.704 176.779 151.635  1.00  0.00    -0.000 C 
BRANCH  10  11
ATOM     11  C   UNL     1     167.638 177.033 150.439  1.00  0.00    -0.000 C 
BRANCH  11  12
ATOM     12  C   UNL     1     167.275 176.211 149.184  1.00  0.00    -0.003 C 
ATOM     13  C   UNL     1     166.462 174.961 149.525  1.00  0.00     0.004 C 
ENDBRANCH  11  12
ENDBRANCH  10  11
ENDBRANCH   9  10
ENDBRANCH   8   9
ENDBRANCH   1   8
TORSDOF 9
ENDMDL
MODEL 3
REMARK VINA RESULT:    -3.617      2.268      4.952
REMARK INTER + INTRA:          -6.569
REMARK INTER:                  -5.770
REMARK INTRA:                  -0.799
REMARK UNBOUND:                -1.049
REMARK SMILES CCCCCCCCCCC(=O)[O-]
REMARK SMILES IDX 7 1 8 2 9 3 10 4 11 5 12 6 13 7 6 8 5 9 4 10 3 11 2 12 1 13
REMARK H PARENT
REMARK Flexibility Score: inf
ROOT
ATOM      1  C   UNL     1     175.037 176.832 150.545  1.00  0.00     0.000 C 
ENDROOT
BRANCH   1   2
ATOM      2  C   UNL     1     175.263 178.125 151.350  1.00  0.00     0.000 C 
BRANCH   2   3
ATOM      3  C   UNL     1     174.659 178.062 152.760  1.00  0.00     0.006 C 
BRANCH   3   4
ATOM      4  C   UNL     1     175.759 178.047 153.826  1.00  0.00     0.053 C 
BRANCH   4   5
ATOM      5  C   UNL     1     175.640 176.829 154.685  1.00  0.00     0.041 C 
ATOM      6  O   UNL     1     176.210 175.758 154.347  1.00  0.00    -0.550 OA
ATOM      7  O   UNL     1     174.940 176.887 155.883  1.00  0.00    -0.550 OA
ENDBRANCH   4   5
ENDBRANCH   3   4
ENDBRANCH   2   3
ENDBRANCH   1   2
BRANCH   1   8
ATOM      8  C   UNL     1     174.197 175.753 151.260  1.00  0.00     0.000 C 
BRANCH   8   9
ATOM      9  C   UNL     1     174.885 174.385 151.425  1.00  0.00    -0.000 C 
BRANCH   9  10
ATOM     10  C   UNL     1     176.299 174.349 150.823  1.00  0.00    -0.000 C 
BRANCH  10  11
ATOM     11  C   UNL     1     176.755 172.926 150.459  1.00  0.00    -0.000 C 
BRANCH  11  12
ATOM     12  C   UNL     1     175.656 171.858 150.644  1.00  0.00    -0.003 C 
ATOM     13  C   UNL     1     175.273 171.186 149.325  1.00  0.00     0.004 C 
ENDBRANCH  11  12
ENDBRANCH  10  11
ENDBRANCH   9  10
ENDBRANCH   8   9
ENDBRANCH   1   8
TORSDOF 9
ENDMDL
MODEL 4
REMARK VINA RESULT:    -3.555     10.817     12.359
REMARK INTER + INTRA:          -6.475
REMARK INTER:                  -5.852
REMARK INTRA:                  -0.622
REMARK UNBOUND:                -1.049
REMARK SMILES CCCCCCCCCCC(=O)[O-]
REMARK SMILES IDX 7 1 8 2 9 3 10 4 11 5 12 6 13 7 6 8 5 9 4 10 3 11 2 12 1 13
REMARK H PARENT
REMARK Flexibility Score: inf
ROOT
ATOM      1  C   UNL     1     164.910 177.564 151.513  1.00  0.00     0.000 C 
ENDROOT
BRANCH   1   2
ATOM      2  C   UNL     1     165.700 178.075 150.294  1.00  0.00     0.000 C 
BRANCH   2   3
ATOM      3  C   UNL     1     166.777 177.086 149.826  1.00  0.00     0.006 C 
BRANCH   3   4
ATOM      4  C   UNL     1     166.755 175.810 150.673  1.00  0.00     0.053 C 
BRANCH   4   5
ATOM      5  C   UNL     1     166.508 174.614 149.812  1.00  0.00     0.041 C 
ATOM      6  O   UNL     1     165.353 174.383 149.364  1.00  0.00    -0.550 OA
ATOM      7  O   UNL     1     167.561 173.778 149.462  1.00  0.00    -0.550 OA
ENDBRANCH   4   5
ENDBRANCH   3   4
ENDBRANCH   2   3
ENDBRANCH   1   2
BRANCH   1   8
ATOM      8  C   UNL     1     163.380 177.747 151.426  1.00  0.00     0.000 C 
BRANCH   8   9
ATOM      9  C   UNL     1     162.605 176.548 150.850  1.00  0.00    -0.000 C 
BRANCH   9  10
ATOM     10  C   UNL     1     161.149 176.890 150.496  1.00  0.00    -0.000 C 
BRANCH  10  11
ATOM     11  C   UNL     1     160.291 177.191 151.737  1.00  0.00    -0.000 C 
BRANCH  11  12
ATOM     12  C   UNL     1     160.099 175.975 152.667  1.00  0.00    -0.003 C 
ATOM     13  C   UNL     1     159.363 174.826 151.975  1.00  0.00     0.004 C 
ENDBRANCH  11  12
ENDBRANCH  10  11
ENDBRANCH   9  10
ENDBRANCH   8   9
ENDBRANCH   1   8
TORSDOF 9
ENDMDL
MODEL 5
REMARK VINA RESULT:    -3.539      2.842      5.613
REMARK INTER + INTRA:          -6.450
REMARK INTER:                  -5.613
REMARK INTRA:                  -0.837
REMARK UNBOUND:                -1.049
REMARK SMILES CCCCCCCCCCC(=O)[O-]
REMARK SMILES IDX 7 1 8 2 9 3 10 4 11 5 12 6 13 7 6 8 5 9 4 10 3 11 2 12 1 13
REMARK H PARENT
REMARK Flexibility Score: inf
ROOT
ATOM      1  C   UNL     1     174.702 174.544 151.258  1.00  0.00     0.000 C 
ENDROOT
BRANCH   1   2
ATOM      2  C   UNL     1     173.843 175.748 150.833  1.00  0.00     0.000 C 
BRANCH   2   3
ATOM      3  C   UNL     1     174.650 177.050 150.733  1.00  0.00     0.006 C 
BRANCH   3   4
ATOM      4  C   UNL     1     174.078 178.122 151.666  1.00  0.00     0.053 C 
BRANCH   4   5
ATOM      5  C   UNL     1     174.501 177.869 153.077  1.00  0.00     0.041 C 
ATOM      6  O   UNL     1     175.668 177.466 153.326  1.00  0.00    -0.550 OA
ATOM      7  O   UNL     1     173.623 178.123 154.123  1.00  0.00    -0.550 OA
ENDBRANCH   4   5
ENDBRANCH   3   4
ENDBRANCH   2   3
ENDBRANCH   1   2
BRANCH   1   8
ATOM      8  C   UNL     1     176.226 174.742 151.115  1.00  0.00     0.000 C 
BRANCH   8   9
ATOM      9  C   UNL     1     176.991 173.550 150.510  1.00  0.00    -0.000 C 
BRANCH   9  10
ATOM     10  C   UNL     1     176.063 172.418 150.041  1.00  0.00    -0.000 C 
BRANCH  10  11
ATOM     11  C   UNL     1     176.620 171.021 150.363  1.00  0.00    -0.000 C 
BRANCH  11  12
ATOM     12  C   UNL     1     176.183 170.483 151.742  1.00  0.00    -0.003 C 
ATOM     13  C   UNL     1     174.738 170.855 152.078  1.00  0.00     0.004 C 
ENDBRANCH  11  12
ENDBRANCH  10  11
ENDBRANCH   9  10
ENDBRANCH   8   9
ENDBRANCH   1   8
TORSDOF 9
ENDMDL
MODEL 6
REMARK VINA RESULT:    -3.525     10.941     12.396
REMARK INTER + INTRA:          -6.428
REMARK INTER:                  -5.730
REMARK INTRA:                  -0.699
REMARK UNBOUND:                -1.049
REMARK SMILES CCCCCCCCCCC(=O)[O-]
REMARK SMILES IDX 7 1 8 2 9 3 10 4 11 5 12 6 13 7 6 8 5 9 4 10 3 11 2 12 1 13
REMARK H PARENT
REMARK Flexibility Score: inf
ROOT
ATOM      1  C   UNL     1     163.407 176.284 151.347  1.00  0.00     0.000 C 
ENDROOT
BRANCH   1   2
ATOM      2  C   UNL     1     163.931 177.670 150.929  1.00  0.00     0.000 C 
BRANCH   2   3
ATOM      3  C   UNL     1     165.461 177.719 150.814  1.00  0.00     0.006 C 
BRANCH   3   4
ATOM      4  C   UNL     1     166.123 177.082 152.039  1.00  0.00     0.053 C 
BRANCH   4   5
ATOM      5  C   UNL     1     167.612 177.110 151.904  1.00  0.00     0.041 C 
ATOM      6  O   UNL     1     168.151 176.882 150.789  1.00  0.00    -0.550 OA
ATOM      7  O   UNL     1     168.404 177.435 152.998  1.00  0.00    -0.550 OA
ENDBRANCH   4   5
ENDBRANCH   3   4
ENDBRANCH   2   3
ENDBRANCH   1   2
BRANCH   1   8
ATOM      8  C   UNL     1     161.963 175.968 150.904  1.00  0.00     0.000 C 
BRANCH   8   9
ATOM      9  C   UNL     1     161.203 177.138 150.252  1.00  0.00    -0.000 C 
BRANCH   9  10
ATOM     10  C   UNL     1     160.503 178.043 151.279  1.00  0.00    -0.000 C 
BRANCH  10  11
ATOM     11  C   UNL     1     160.201 177.318 152.602  1.00  0.00    -0.000 C 
BRANCH  11  12
ATOM     12  C   UNL     1     160.600 178.125 153.855  1.00  0.00    -0.003 C 
ATOM     13  C   UNL     1     161.888 177.605 154.495  1.00  0.00     0.004 C 
ENDBRANCH  11  12
ENDBRANCH  10  11
ENDBRANCH   9  10
ENDBRANCH   8   9
ENDBRANCH   1   8
TORSDOF 9
ENDMDL
MODEL 7
REMARK VINA RESULT:    -3.522      1.834      3.842
REMARK INTER + INTRA:          -6.424
REMARK INTER:                  -5.446
REMARK INTRA:                  -0.978
REMARK UNBOUND:                -1.049
REMARK SMILES CCCCCCCCCCC(=O)[O-]
REMARK SMILES IDX 7 1 8 2 9 3 10 4 11 5 12 6 13 7 6 8 5 9 4 10 3 11 2 12 1 13
REMARK H PARENT
REMARK Flexibility Score: inf
ROOT
ATOM      1  C   UNL     1     173.753 177.983 152.661  1.00  0.00     0.000 C 
ENDROOT
BRANCH   1   2
ATOM      2  C   UNL     1     175.291 177.919 152.630  1.00  0.00     0.000 C 
BRANCH   2   3
ATOM      3  C   UNL     1     175.894 177.440 153.959  1.00  0.00     0.006 C 
BRANCH   3   4
ATOM      4  C   UNL     1     174.938 176.486 154.681  1.00  0.00     0.053 C 
BRANCH   4   5
ATOM      5  C   UNL     1     175.705 175.419 155.396  1.00  0.00     0.041 C 
ATOM      6  O   UNL     1     175.490 175.195 156.617  1.00  0.00    -0.550 OA
ATOM      7  O   UNL     1     176.622 174.638 154.704  1.00  0.00    -0.550 OA
ENDBRANCH   4   5
ENDBRANCH   3   4
ENDBRANCH   2   3
ENDBRANCH   1   2
BRANCH   1   8
ATOM      8  C   UNL     1     173.038 177.072 151.640  1.00  0.00     0.000 C 
BRANCH   8   9
ATOM      9  C   UNL     1     173.967 176.240 150.737  1.00  0.00    -0.000 C 
BRANCH   9  10
ATOM     10  C   UNL     1     173.636 174.739 150.759  1.00  0.00    -0.000 C 
BRANCH  10  11
ATOM     11  C   UNL     1     174.864 173.865 151.069  1.00  0.00    -0.000 C 
BRANCH  11  12
ATOM     12  C   UNL     1     176.178 174.664 151.194  1.00  0.00    -0.003 C 
ATOM     13  C   UNL     1     177.340 173.986 150.465  1.00  0.00     0.004 C 
ENDBRANCH  11  12
ENDBRANCH  10  11
ENDBRANCH   9  10
ENDBRANCH   8   9
ENDBRANCH   1   8
TORSDOF 9
ENDMDL
MODEL 8
REMARK VINA RESULT:    -3.502     11.978     13.625
REMARK INTER + INTRA:          -6.394
REMARK INTER:                  -5.928
REMARK INTRA:                  -0.466
REMARK UNBOUND:                -1.049
REMARK SMILES CCCCCCCCCCC(=O)[O-]
REMARK SMILES IDX 7 1 8 2 9 3 10 4 11 5 12 6 13 7 6 8 5 9 4 10 3 11 2 12 1 13
REMARK H PARENT
REMARK Flexibility Score: inf
ROOT
ATOM      1  C   UNL     1     161.727 177.008 150.796  1.00  0.00     0.000 C 
ENDROOT
BRANCH   1   2
ATOM      2  C   UNL     1     160.570 177.401 151.733  1.00  0.00     0.000 C 
BRANCH   2   3
ATOM      3  C   UNL     1     160.144 176.258 152.665  1.00  0.00     0.006 C 
BRANCH   3   4
ATOM      4  C   UNL     1     159.478 175.127 151.876  1.00  0.00     0.053 C 
BRANCH   4   5
ATOM      5  C   UNL     1     160.106 173.813 152.212  1.00  0.00     0.041 C 
ATOM      6  O   UNL     1     159.395 172.857 152.621  1.00  0.00    -0.550 OA
ATOM      7  O   UNL     1     161.470 173.626 152.028  1.00  0.00    -0.550 OA
ENDBRANCH   4   5
ENDBRANCH   3   4
ENDBRANCH   2   3
ENDBRANCH   1   2
BRANCH   1   8
ATOM      8  C   UNL     1     163.077 177.690 151.101  1.00  0.00     0.000 C 
BRANCH   8   9
ATOM      9  C   UNL     1     164.247 176.733 151.399  1.00  0.00    -0.000 C 
BRANCH   9  10
ATOM     10  C   UNL     1     165.608 177.446 151.442  1.00  0.00    -0.000 C 
BRANCH  10  11
ATOM     11  C   UNL     1     166.153 177.771 150.040  1.00  0.00    -0.000 C 
BRANCH  11  12
ATOM     12  C   UNL     1     167.427 176.982 149.673  1.00  0.00    -0.003 C 
ATOM     13  C   UNL     1     167.114 175.560 149.205  1.00  0.00     0.004 C 
ENDBRANCH  11  12
ENDBRANCH  10  11
ENDBRANCH   9  10
ENDBRANCH   8   9
ENDBRANCH   1   8
TORSDOF 9
ENDMDL
