MODEL 1
REMARK VINA RESULT:    -3.195      0.000      0.000
REMARK INTER + INTRA:          -8.588
REMARK INTER:                  -6.183
REMARK INTRA:                  -2.405
REMARK UNBOUND:                -2.405
REMARK SMILES CCCCCCCCCCCCCCCCCC(=O)[O-]
REMARK SMILES IDX 10 1 11 2 12 3 13 4 14 5 15 6 16 7 17 8 18 9 19 10 20 11
REMARK SMILES IDX 9 12 8 13 7 14 6 15 5 16 4 17 3 18 2 19 1 20
REMARK H PARENT
REMARK Flexibility Score: inf
ROOT
ATOM      1  C   UNL     1     168.983 168.999 151.428  1.00  0.00     0.000 C 
ENDROOT
BRANCH   1   2
ATOM      2  C   UNL     1     169.449 170.427 151.080  1.00  0.00     0.000 C 
BRANCH   2   3
ATOM      3  C   UNL     1     170.598 170.512 150.055  1.00  0.00     0.000 C 
BRANCH   3   4
ATOM      4  C   UNL     1     171.430 169.226 149.896  1.00  0.00     0.000 C 
BRANCH   4   5
ATOM      5  C   UNL     1     171.561 168.777 148.431  1.00  0.00     0.000 C 
BRANCH   5   6
ATOM      6  C   UNL     1     170.233 168.864 147.657  1.00  0.00     0.000 C 
BRANCH   6   7
ATOM      7  C   UNL     1     169.686 167.521 147.132  1.00  0.00     0.006 C 
BRANCH   7   8
ATOM      8  C   UNL     1     169.928 167.273 145.635  1.00  0.00     0.053 C 
BRANCH   8   9
ATOM      9  C   UNL     1     168.723 167.606 144.811  1.00  0.00     0.041 C 
ATOM     10  O   UNL     1     167.633 167.900 145.369  1.00  0.00    -0.550 OA
ATOM     11  O   UNL     1     168.813 167.626 143.424  1.00  0.00    -0.550 OA
ENDBRANCH   8   9
ENDBRANCH   7   8
ENDBRANCH   6   7
ENDBRANCH   5   6
ENDBRANCH   4   5
ENDBRANCH   3   4
ENDBRANCH   2   3
ENDBRANCH   1   2
BRANCH   1  12
ATOM     12  C   UNL     1     167.851 168.926 152.469  1.00  0.00     0.000 C 
BRANCH  12  13
ATOM     13  C   UNL     1     167.776 170.182 153.355  1.00  0.00    -0.000 C 
BRANCH  13  14
ATOM     14  C   UNL     1     166.351 170.744 153.467  1.00  0.00    -0.000 C 
BRANCH  14  15
ATOM     15  C   UNL     1     165.304 169.835 152.798  1.00  0.00    -0.000 C 
BRANCH  15  16
ATOM     16  C   UNL     1     164.589 170.522 151.625  1.00  0.00    -0.000 C 
BRANCH  16  17
ATOM     17  C   UNL     1     164.818 169.805 150.286  1.00  0.00    -0.000 C 
BRANCH  17  18
ATOM     18  C   UNL     1     166.024 170.401 149.545  1.00  0.00    -0.000 C 
BRANCH  18  19
ATOM     19  C   UNL     1     166.732 169.375 148.646  1.00  0.00    -0.003 C 
ATOM     20  C   UNL     1     165.945 168.073 148.501  1.00  0.00     0.004 C 
ENDBRANCH  18  19
ENDBRANCH  17  18
ENDBRANCH  16  17
ENDBRANCH  15  16
ENDBRANCH  14  15
ENDBRANCH  13  14
ENDBRANCH  12  13
ENDBRANCH   1  12
TORSDOF 16
ENDMDL
MODEL 2
REMARK VINA RESULT:    -3.182      2.245      4.425
REMARK INTER + INTRA:          -8.564
REMARK INTER:                  -6.037
REMARK INTRA:                  -2.527
REMARK UNBOUND:                -2.405
REMARK SMILES CCCCCCCCCCCCCCCCCC(=O)[O-]
REMARK SMILES IDX 10 1 11 2 12 3 13 4 14 5 15 6 16 7 17 8 18 9 19 10 20 11
REMARK SMILES IDX 9 12 8 13 7 14 6 15 5 16 4 17 3 18 2 19 1 20
REMARK H PARENT
REMARK Flexibility Score: inf
ROOT
ATOM      1  C   UNL     1     164.680 169.201 154.348  1.00  0.00     0.000 C 
ENDROOT
BRANCH   1   2
ATOM      2  C   UNL     1     166.071 168.685 153.924  1.00  0.00     0.000 C 
BRANCH   2   3
ATOM      3  C   UNL     1     167.255 169.589 154.320  1.00  0.00     0.000 C 
BRANCH   3   4
ATOM      4  C   UNL     1     168.190 169.988 153.164  1.00  0.00     0.000 C 
BRANCH   4   5
ATOM      5  C   UNL     1     168.239 168.934 152.045  1.00  0.00     0.000 C 
BRANCH   5   6
ATOM      6  C   UNL     1     169.357 169.201 151.020  1.00  0.00     0.000 C 
BRANCH   6   7
ATOM      7  C   UNL     1     169.666 170.689 150.754  1.00  0.00     0.006 C 
BRANCH   7   8
ATOM      8  C   UNL     1     169.829 171.053 149.270  1.00  0.00     0.053 C 
BRANCH   8   9
ATOM      9  C   UNL     1     171.237 170.865 148.798  1.00  0.00     0.041 C 
ATOM     10  O   UNL     1     172.184 170.826 149.627  1.00  0.00    -0.550 OA
ATOM     11  O   UNL     1     171.501 170.699 147.444  1.00  0.00    -0.550 OA
ENDBRANCH   8   9
ENDBRANCH   7   8
ENDBRANCH   6   7
ENDBRANCH   5   6
ENDBRANCH   4   5
ENDBRANCH   3   4
ENDBRANCH   2   3
ENDBRANCH   1   2
BRANCH   1  12
ATOM     12  C   UNL     1     163.726 169.515 153.181  1.00  0.00     0.000 C 
BRANCH  12  13
ATOM     13  C   UNL     1     164.282 170.593 152.233  1.00  0.00    -0.000 C 
BRANCH  13  14
ATOM     14  C   UNL     1     164.639 170.034 150.847  1.00  0.00    -0.000 C 
BRANCH  14  15
ATOM     15  C   UNL     1     165.761 170.832 150.160  1.00  0.00    -0.000 C 
BRANCH  15  16
ATOM     16  C   UNL     1     166.299 170.132 148.902  1.00  0.00    -0.000 C 
BRANCH  16  17
ATOM     17  C   UNL     1     165.677 168.745 148.682  1.00  0.00    -0.000 C 
BRANCH  17  18
ATOM     18  C   UNL     1     166.522 167.914 147.706  1.00  0.00    -0.000 C 
BRANCH  18  19
ATOM     19  C   UNL     1     168.003 168.323 147.709  1.00  0.00    -0.003 C 
ATOM     20  C   UNL     1     168.488 168.800 146.341  1.00  0.00     0.004 C 
ENDBRANCH  18  19
ENDBRANCH  17  18
ENDBRANCH  16  17
ENDBRANCH  15  16
ENDBRANCH  14  15
ENDBRANCH  13  14
ENDBRANCH  12  13
ENDBRANCH   1  12
TORSDOF 16
ENDMDL
MODEL 3
REMARK VINA RESULT:    -3.137      5.935      8.252
REMARK INTER + INTRA:          -8.475
REMARK INTER:                  -5.861
REMARK INTRA:                  -2.614
REMARK UNBOUND:                -2.405
REMARK SMILES CCCCCCCCCCCCCCCCCC(=O)[O-]
REMARK SMILES IDX 10 1 11 2 12 3 13 4 14 5 15 6 16 7 17 8 18 9 19 10 20 11
REMARK SMILES IDX 9 12 8 13 7 14 6 15 5 16 4 17 3 18 2 19 1 20
REMARK H PARENT
REMARK Flexibility Score: inf
ROOT
ATOM      1  C   UNL     1     172.269 163.543 144.660  1.00  0.00     0.000 C 
ENDROOT
BRANCH   1   2
ATOM      2  C   UNL     1     172.956 164.603 145.545  1.00  0.00     0.000 C 
BRANCH   2   3
ATOM      3  C   UNL     1     172.040 165.292 146.576  1.00  0.00     0.000 C 
BRANCH   3   4
ATOM      4  C   UNL     1     172.365 166.770 146.857  1.00  0.00     0.000 C 
BRANCH   4   5
ATOM      5  C   UNL     1     171.813 167.719 145.780  1.00  0.00     0.000 C 
BRANCH   5   6
ATOM      6  C   UNL     1     170.301 167.548 145.549  1.00  0.00     0.000 C 
BRANCH   6   7
ATOM      7  C   UNL     1     169.857 167.525 144.072  1.00  0.00     0.006 C 
BRANCH   7   8
ATOM      8  C   UNL     1     170.429 166.361 143.250  1.00  0.00     0.053 C 
BRANCH   8   9
ATOM      9  C   UNL     1     171.306 166.840 142.135  1.00  0.00     0.041 C 
ATOM     10  O   UNL     1     172.537 166.575 142.136  1.00  0.00    -0.550 OA
ATOM     11  O   UNL     1     170.757 167.554 141.076  1.00  0.00    -0.550 OA
ENDBRANCH   8   9
ENDBRANCH   7   8
ENDBRANCH   6   7
ENDBRANCH   5   6
ENDBRANCH   4   5
ENDBRANCH   3   4
ENDBRANCH   2   3
ENDBRANCH   1   2
BRANCH   1  12
ATOM     12  C   UNL     1     173.110 162.281 144.394  1.00  0.00     0.000 C 
BRANCH  12  13
ATOM     13  C   UNL     1     172.251 161.011 144.269  1.00  0.00    -0.000 C 
BRANCH  13  14
ATOM     14  C   UNL     1     172.007 160.325 145.623  1.00  0.00    -0.000 C 
BRANCH  14  15
ATOM     15  C   UNL     1     170.570 160.526 146.135  1.00  0.00    -0.000 C 
BRANCH  15  16
ATOM     16  C   UNL     1     170.524 160.991 147.598  1.00  0.00    -0.000 C 
BRANCH  16  17
ATOM     17  C   UNL     1     169.916 162.393 147.758  1.00  0.00    -0.000 C 
BRANCH  17  18
ATOM     18  C   UNL     1     169.187 162.824 146.477  1.00  0.00    -0.000 C 
BRANCH  18  19
ATOM     19  C   UNL     1     168.520 164.202 146.611  1.00  0.00    -0.003 C 
ATOM     20  C   UNL     1     167.836 164.655 145.322  1.00  0.00     0.004 C 
ENDBRANCH  18  19
ENDBRANCH  17  18
ENDBRANCH  16  17
ENDBRANCH  15  16
ENDBRANCH  14  15
ENDBRANCH  13  14
ENDBRANCH  12  13
ENDBRANCH   1  12
TORSDOF 16
ENDMDL
MODEL 4
REMARK VINA RESULT:    -3.054      2.359      5.325
REMARK INTER + INTRA:          -8.315
REMARK INTER:                  -5.798
REMARK INTRA:                  -2.517
REMARK UNBOUND:                -2.405
REMARK SMILES CCCCCCCCCCCCCCCCCC(=O)[O-]
REMARK SMILES IDX 10 1 11 2 12 3 13 4 14 5 15 6 16 7 17 8 18 9 19 10 20 11
REMARK SMILES IDX 9 12 8 13 7 14 6 15 5 16 4 17 3 18 2 19 1 20
REMARK H PARENT
REMARK Flexibility Score: inf
ROOT
ATOM      1  C   UNL     1     163.209 168.055 154.979  1.00  0.00     0.000 C 
ENDROOT
BRANCH   1   2
ATOM      2  C   UNL     1     164.317 168.088 153.906  1.00  0.00     0.000 C 
BRANCH   2   3
ATOM      3  C   UNL     1     163.943 168.811 152.597  1.00  0.00     0.000 C 
BRANCH   3   4
ATOM      4  C   UNL     1     164.016 170.348 152.652  1.00  0.00     0.000 C 
BRANCH   4   5
ATOM      5  C   UNL     1     164.784 170.952 151.464  1.00  0.00     0.000 C 
BRANCH   5   6
ATOM      6  C   UNL     1     164.610 170.144 150.165  1.00  0.00     0.000 C 
BRANCH   6   7
ATOM      7  C   UNL     1     165.906 169.891 149.368  1.00  0.00     0.006 C 
BRANCH   7   8
ATOM      8  C   UNL     1     166.271 168.409 149.193  1.00  0.00     0.053 C 
BRANCH   8   9
ATOM      9  C   UNL     1     166.643 168.088 147.779  1.00  0.00     0.041 C 
ATOM     10  O   UNL     1     165.790 167.596 146.993  1.00  0.00    -0.550 OA
ATOM     11  O   UNL     1     167.926 168.362 147.317  1.00  0.00    -0.550 OA
ENDBRANCH   8   9
ENDBRANCH   7   8
ENDBRANCH   6   7
ENDBRANCH   5   6
ENDBRANCH   4   5
ENDBRANCH   3   4
ENDBRANCH   2   3
ENDBRANCH   1   2
BRANCH   1  12
ATOM     12  C   UNL     1     163.641 168.561 156.367  1.00  0.00     0.000 C 
BRANCH  12  13
ATOM     13  C   UNL     1     163.842 170.086 156.408  1.00  0.00    -0.000 C 
BRANCH  13  14
ATOM     14  C   UNL     1     165.296 170.485 156.705  1.00  0.00    -0.000 C 
BRANCH  14  15
ATOM     15  C   UNL     1     165.993 171.124 155.491  1.00  0.00    -0.000 C 
BRANCH  15  16
ATOM     16  C   UNL     1     167.142 170.261 154.948  1.00  0.00    -0.000 C 
BRANCH  16  17
ATOM     17  C   UNL     1     168.220 171.088 154.232  1.00  0.00    -0.000 C 
BRANCH  17  18
ATOM     18  C   UNL     1     168.172 170.854 152.715  1.00  0.00    -0.000 C 
BRANCH  18  19
ATOM     19  C   UNL     1     168.162 169.362 152.346  1.00  0.00    -0.003 C 
ATOM     20  C   UNL     1     169.219 169.005 151.301  1.00  0.00     0.004 C 
ENDBRANCH  18  19
ENDBRANCH  17  18
ENDBRANCH  16  17
ENDBRANCH  15  16
ENDBRANCH  14  15
ENDBRANCH  13  14
ENDBRANCH  12  13
ENDBRANCH   1  12
TORSDOF 16
ENDMDL
MODEL 5
REMARK VINA RESULT:    -3.043     15.180     16.783
REMARK INTER + INTRA:          -8.294
REMARK INTER:                  -5.649
REMARK INTRA:                  -2.645
REMARK UNBOUND:                -2.405
REMARK SMILES CCCCCCCCCCCCCCCCCC(=O)[O-]
REMARK SMILES IDX 10 1 11 2 12 3 13 4 14 5 15 6 16 7 17 8 18 9 19 10 20 11
REMARK SMILES IDX 9 12 8 13 7 14 6 15 5 16 4 17 3 18 2 19 1 20
REMARK H PARENT
REMARK Flexibility Score: inf
ROOT
ATOM      1  C   UNL     1     170.846 153.295 151.102  1.00  0.00     0.000 C 
ENDROOT
BRANCH   1   2
ATOM      2  C   UNL     1     172.375 153.493 151.127  1.00  0.00     0.000 C 
BRANCH   2   3
ATOM      3  C   UNL     1     173.097 152.882 152.346  1.00  0.00     0.000 C 
BRANCH   3   4
ATOM      4  C   UNL     1     172.174 152.386 153.473  1.00  0.00     0.000 C 
BRANCH   4   5
ATOM      5  C   UNL     1     172.825 152.479 154.863  1.00  0.00     0.000 C 
BRANCH   5   6
ATOM      6  C   UNL     1     171.928 151.920 155.983  1.00  0.00     0.000 C 
BRANCH   6   7
ATOM      7  C   UNL     1     171.607 152.907 157.124  1.00  0.00     0.006 C 
BRANCH   7   8
ATOM      8  C   UNL     1     170.295 153.686 156.946  1.00  0.00     0.053 C 
BRANCH   8   9
ATOM      9  C   UNL     1     169.277 152.900 156.180  1.00  0.00     0.041 C 
ATOM     10  O   UNL     1     168.624 151.985 156.747  1.00  0.00    -0.550 OA
ATOM     11  O   UNL     1     169.025 153.199 154.846  1.00  0.00    -0.550 OA
ENDBRANCH   8   9
ENDBRANCH   7   8
ENDBRANCH   6   7
ENDBRANCH   5   6
ENDBRANCH   4   5
ENDBRANCH   3   4
ENDBRANCH   2   3
ENDBRANCH   1   2
BRANCH   1  12
ATOM     12  C   UNL     1     170.088 154.250 150.163  1.00  0.00     0.000 C 
BRANCH  12  13
ATOM     13  C   UNL     1     168.918 154.965 150.861  1.00  0.00    -0.000 C 
BRANCH  13  14
ATOM     14  C   UNL     1     169.357 155.728 152.121  1.00  0.00    -0.000 C 
BRANCH  14  15
ATOM     15  C   UNL     1     170.281 156.917 151.798  1.00  0.00    -0.000 C 
BRANCH  15  16
ATOM     16  C   UNL     1     171.614 156.851 152.558  1.00  0.00    -0.000 C 
BRANCH  16  17
ATOM     17  C   UNL     1     171.529 156.004 153.837  1.00  0.00    -0.000 C 
BRANCH  17  18
ATOM     18  C   UNL     1     172.760 156.231 154.727  1.00  0.00    -0.000 C 
BRANCH  18  19
ATOM     19  C   UNL     1     172.387 156.548 156.183  1.00  0.00    -0.003 C 
ATOM     20  C   UNL     1     171.556 157.824 156.317  1.00  0.00     0.004 C 
ENDBRANCH  18  19
ENDBRANCH  17  18
ENDBRANCH  16  17
ENDBRANCH  15  16
ENDBRANCH  14  15
ENDBRANCH  13  14
ENDBRANCH  12  13
ENDBRANCH   1  12
TORSDOF 16
ENDMDL
MODEL 6
REMARK VINA RESULT:    -3.008      5.615      8.992
REMARK INTER + INTRA:          -8.226
REMARK INTER:                  -5.166
REMARK INTRA:                  -3.060
REMARK UNBOUND:                -2.405
REMARK SMILES CCCCCCCCCCCCCCCCCC(=O)[O-]
REMARK SMILES IDX 10 1 11 2 12 3 13 4 14 5 15 6 16 7 17 8 18 9 19 10 20 11
REMARK SMILES IDX 9 12 8 13 7 14 6 15 5 16 4 17 3 18 2 19 1 20
REMARK H PARENT
REMARK Flexibility Score: inf
ROOT
ATOM      1  C   UNL     1     169.363 163.846 143.840  1.00  0.00     0.000 C 
ENDROOT
BRANCH   1   2
ATOM      2  C   UNL     1     170.076 162.661 143.157  1.00  0.00     0.000 C 
BRANCH   2   3
ATOM      3  C   UNL     1     171.607 162.796 143.037  1.00  0.00     0.000 C 
BRANCH   3   4
ATOM      4  C   UNL     1     172.339 163.148 144.345  1.00  0.00     0.000 C 
BRANCH   4   5
ATOM      5  C   UNL     1     172.776 164.622 144.407  1.00  0.00     0.000 C 
BRANCH   5   6
ATOM      6  C   UNL     1     173.125 165.083 145.834  1.00  0.00     0.000 C 
BRANCH   6   7
ATOM      7  C   UNL     1     171.920 165.489 146.708  1.00  0.00     0.006 C 
BRANCH   7   8
ATOM      8  C   UNL     1     171.003 166.550 146.082  1.00  0.00     0.053 C 
BRANCH   8   9
ATOM      9  C   UNL     1     171.216 167.902 146.688  1.00  0.00     0.041 C 
ATOM     10  O   UNL     1     171.844 168.790 146.052  1.00  0.00    -0.550 OA
ATOM     11  O   UNL     1     170.693 168.193 147.942  1.00  0.00    -0.550 OA
ENDBRANCH   8   9
ENDBRANCH   7   8
ENDBRANCH   6   7
ENDBRANCH   5   6
ENDBRANCH   4   5
ENDBRANCH   3   4
ENDBRANCH   2   3
ENDBRANCH   1   2
BRANCH   1  12
ATOM     12  C   UNL     1     168.179 163.454 144.741  1.00  0.00     0.000 C 
BRANCH  12  13
ATOM     13  C   UNL     1     168.364 163.912 146.198  1.00  0.00    -0.000 C 
BRANCH  13  14
ATOM     14  C   UNL     1     168.665 162.746 147.153  1.00  0.00    -0.000 C 
BRANCH  14  15
ATOM     15  C   UNL     1     170.174 162.497 147.324  1.00  0.00    -0.000 C 
BRANCH  15  16
ATOM     16  C   UNL     1     170.602 161.106 146.834  1.00  0.00    -0.000 C 
BRANCH  16  17
ATOM     17  C   UNL     1     169.456 160.330 146.169  1.00  0.00    -0.000 C 
BRANCH  17  18
ATOM     18  C   UNL     1     169.974 159.481 144.999  1.00  0.00    -0.000 C 
BRANCH  18  19
ATOM     19  C   UNL     1     171.509 159.424 144.944  1.00  0.00    -0.003 C 
ATOM     20  C   UNL     1     172.041 159.165 143.535  1.00  0.00     0.004 C 
ENDBRANCH  18  19
ENDBRANCH  17  18
ENDBRANCH  16  17
ENDBRANCH  15  16
ENDBRANCH  14  15
ENDBRANCH  13  14
ENDBRANCH  12  13
ENDBRANCH   1  12
TORSDOF 16
ENDMDL
MODEL 7
REMARK VINA RESULT:    -2.999      2.045      3.587
REMARK INTER + INTRA:          -8.208
REMARK INTER:                  -6.179
REMARK INTRA:                  -2.029
REMARK UNBOUND:                -2.405
REMARK SMILES CCCCCCCCCCCCCCCCCC(=O)[O-]
REMARK SMILES IDX 10 1 11 2 12 3 13 4 14 5 15 6 16 7 17 8 18 9 19 10 20 11
REMARK SMILES IDX 9 12 8 13 7 14 6 15 5 16 4 17 3 18 2 19 1 20
REMARK H PARENT
REMARK Flexibility Score: inf
ROOT
ATOM      1  C   UNL     1     166.649 169.294 153.537  1.00  0.00     0.000 C 
ENDROOT
BRANCH   1   2
ATOM      2  C   UNL     1     167.858 169.252 152.580  1.00  0.00     0.000 C 
BRANCH   2   3
ATOM      3  C   UNL     1     168.645 170.573 152.458  1.00  0.00     0.000 C 
BRANCH   3   4
ATOM      4  C   UNL     1     169.331 170.804 151.099  1.00  0.00     0.000 C 
BRANCH   4   5
ATOM      5  C   UNL     1     169.380 169.535 150.232  1.00  0.00     0.000 C 
BRANCH   5   6
ATOM      6  C   UNL     1     170.704 168.762 150.378  1.00  0.00     0.000 C 
BRANCH   6   7
ATOM      7  C   UNL     1     171.913 169.381 149.646  1.00  0.00     0.006 C 
BRANCH   7   8
ATOM      8  C   UNL     1     172.982 168.368 149.206  1.00  0.00     0.053 C 
BRANCH   8   9
ATOM      9  C   UNL     1     172.840 167.997 147.763  1.00  0.00     0.041 C 
ATOM     10  O   UNL     1     172.724 166.789 147.426  1.00  0.00    -0.550 OA
ATOM     11  O   UNL     1     172.804 168.989 146.790  1.00  0.00    -0.550 OA
ENDBRANCH   8   9
ENDBRANCH   7   8
ENDBRANCH   6   7
ENDBRANCH   5   6
ENDBRANCH   4   5
ENDBRANCH   3   4
ENDBRANCH   2   3
ENDBRANCH   1   2
BRANCH   1  12
ATOM     12  C   UNL     1     165.289 169.505 152.848  1.00  0.00     0.000 C 
BRANCH  12  13
ATOM     13  C   UNL     1     165.143 170.910 152.238  1.00  0.00    -0.000 C 
BRANCH  13  14
ATOM     14  C   UNL     1     164.937 170.876 150.716  1.00  0.00    -0.000 C 
BRANCH  14  15
ATOM     15  C   UNL     1     164.913 169.443 150.155  1.00  0.00    -0.000 C 
BRANCH  15  16
ATOM     16  C   UNL     1     165.951 169.227 149.044  1.00  0.00    -0.000 C 
BRANCH  16  17
ATOM     17  C   UNL     1     165.523 168.154 148.031  1.00  0.00    -0.000 C 
BRANCH  17  18
ATOM     18  C   UNL     1     166.747 167.508 147.366  1.00  0.00    -0.000 C 
BRANCH  18  19
ATOM     19  C   UNL     1     167.847 168.528 147.032  1.00  0.00    -0.003 C 
ATOM     20  C   UNL     1     169.228 167.888 146.903  1.00  0.00     0.004 C 
ENDBRANCH  18  19
ENDBRANCH  17  18
ENDBRANCH  16  17
ENDBRANCH  15  16
ENDBRANCH  14  15
ENDBRANCH  13  14
ENDBRANCH  12  13
ENDBRANCH   1  12
TORSDOF 16
ENDMDL
MODEL 8
REMARK VINA RESULT:    -2.977     15.285     16.568
REMARK INTER + INTRA:          -8.165
REMARK INTER:                  -5.412
REMARK INTRA:                  -2.753
REMARK UNBOUND:                -2.405
REMARK SMILES CCCCCCCCCCCCCCCCCC(=O)[O-]
REMARK SMILES IDX 10 1 11 2 12 3 13 4 14 5 15 6 16 7 17 8 18 9 19 10 20 11
REMARK SMILES IDX 9 12 8 13 7 14 6 15 5 16 4 17 3 18 2 19 1 20
REMARK H PARENT
REMARK Flexibility Score: inf
ROOT
ATOM      1  C   UNL     1     172.934 155.325 156.072  1.00  0.00     0.000 C 
ENDROOT
BRANCH   1   2
ATOM      2  C   UNL     1     172.097 155.301 154.776  1.00  0.00     0.000 C 
BRANCH   2   3
ATOM      3  C   UNL     1     172.827 155.801 153.513  1.00  0.00     0.000 C 
BRANCH   3   4
ATOM      4  C   UNL     1     171.945 156.561 152.505  1.00  0.00     0.000 C 
BRANCH   4   5
ATOM      5  C   UNL     1     171.193 155.624 151.545  1.00  0.00     0.000 C 
BRANCH   5   6
ATOM      6  C   UNL     1     169.686 155.931 151.467  1.00  0.00     0.000 C 
BRANCH   6   7
ATOM      7  C   UNL     1     169.106 156.696 152.675  1.00  0.00     0.006 C 
BRANCH   7   8
ATOM      8  C   UNL     1     168.302 155.828 153.655  1.00  0.00     0.053 C 
BRANCH   8   9
ATOM      9  C   UNL     1     168.627 156.147 155.081  1.00  0.00     0.041 C 
ATOM     10  O   UNL     1     168.407 155.300 155.987  1.00  0.00    -0.550 OA
ATOM     11  O   UNL     1     169.206 157.368 155.406  1.00  0.00    -0.550 OA
ENDBRANCH   8   9
ENDBRANCH   7   8
ENDBRANCH   6   7
ENDBRANCH   5   6
ENDBRANCH   4   5
ENDBRANCH   3   4
ENDBRANCH   2   3
ENDBRANCH   1   2
BRANCH   1  12
ATOM     12  C   UNL     1     173.031 153.973 156.801  1.00  0.00     0.000 C 
BRANCH  12  13
ATOM     13  C   UNL     1     172.952 152.773 155.841  1.00  0.00    -0.000 C 
BRANCH  13  14
ATOM     14  C   UNL     1     172.118 151.614 156.410  1.00  0.00    -0.000 C 
BRANCH  14  15
ATOM     15  C   UNL     1     170.987 151.179 155.461  1.00  0.00    -0.000 C 
BRANCH  15  16
ATOM     16  C   UNL     1     170.130 152.362 154.983  1.00  0.00    -0.000 C 
BRANCH  16  17
ATOM     17  C   UNL     1     170.117 152.509 153.454  1.00  0.00    -0.000 C 
BRANCH  17  18
ATOM     18  C   UNL     1     171.144 151.569 152.805  1.00  0.00    -0.000 C 
BRANCH  18  19
ATOM     19  C   UNL     1     172.353 152.321 152.229  1.00  0.00    -0.003 C 
ATOM     20  C   UNL     1     172.646 151.946 150.777  1.00  0.00     0.004 C 
ENDBRANCH  18  19
ENDBRANCH  17  18
ENDBRANCH  16  17
ENDBRANCH  15  16
ENDBRANCH  14  15
ENDBRANCH  13  14
ENDBRANCH  12  13
ENDBRANCH   1  12
TORSDOF 16
ENDMDL
MODEL 9
REMARK VINA RESULT:    -2.923      4.485      8.437
REMARK INTER + INTRA:          -8.061
REMARK INTER:                  -5.068
REMARK INTRA:                  -2.993
REMARK UNBOUND:                -2.405
REMARK SMILES CCCCCCCCCCCCCCCCCC(=O)[O-]
REMARK SMILES IDX 10 1 11 2 12 3 13 4 14 5 15 6 16 7 17 8 18 9 19 10 20 11
REMARK SMILES IDX 9 12 8 13 7 14 6 15 5 16 4 17 3 18 2 19 1 20
REMARK H PARENT
REMARK Flexibility Score: inf
ROOT
ATOM      1  C   UNL     1     172.284 166.110 141.961  1.00  0.00     0.000 C 
ENDROOT
BRANCH   1   2
ATOM      2  C   UNL     1     171.729 167.537 141.771  1.00  0.00     0.000 C 
BRANCH   2   3
ATOM      3  C   UNL     1     170.226 167.617 141.433  1.00  0.00     0.000 C 
BRANCH   3   4
ATOM      4  C   UNL     1     169.284 167.013 142.490  1.00  0.00     0.000 C 
BRANCH   4   5
ATOM      5  C   UNL     1     169.363 167.738 143.844  1.00  0.00     0.000 C 
BRANCH   5   6
ATOM      6  C   UNL     1     169.195 166.786 145.043  1.00  0.00     0.000 C 
BRANCH   6   7
ATOM      7  C   UNL     1     168.753 167.456 146.360  1.00  0.00     0.006 C 
BRANCH   7   8
ATOM      8  C   UNL     1     169.906 167.846 147.298  1.00  0.00     0.053 C 
BRANCH   8   9
ATOM      9  C   UNL     1     170.086 169.330 147.376  1.00  0.00     0.041 C 
ATOM     10  O   UNL     1     171.242 169.829 147.380  1.00  0.00    -0.550 OA
ATOM     11  O   UNL     1     168.976 170.165 147.410  1.00  0.00    -0.550 OA
ENDBRANCH   8   9
ENDBRANCH   7   8
ENDBRANCH   6   7
ENDBRANCH   5   6
ENDBRANCH   4   5
ENDBRANCH   3   4
ENDBRANCH   2   3
ENDBRANCH   1   2
BRANCH   1  12
ATOM     12  C   UNL     1     173.124 165.910 143.234  1.00  0.00     0.000 C 
BRANCH  12  13
ATOM     13  C   UNL     1     173.027 167.101 144.204  1.00  0.00    -0.000 C 
BRANCH  13  14
ATOM     14  C   UNL     1     173.095 166.672 145.678  1.00  0.00    -0.000 C 
BRANCH  14  15
ATOM     15  C   UNL     1     172.982 165.148 145.855  1.00  0.00    -0.000 C 
BRANCH  15  16
ATOM     16  C   UNL     1     171.724 164.736 146.635  1.00  0.00    -0.000 C 
BRANCH  16  17
ATOM     17  C   UNL     1     171.053 163.479 146.061  1.00  0.00    -0.000 C 
BRANCH  17  18
ATOM     18  C   UNL     1     171.896 162.876 144.929  1.00  0.00    -0.000 C 
BRANCH  18  19
ATOM     19  C   UNL     1     171.045 162.436 143.727  1.00  0.00    -0.003 C 
ATOM     20  C   UNL     1     170.036 163.500 143.296  1.00  0.00     0.004 C 
ENDBRANCH  18  19
ENDBRANCH  17  18
ENDBRANCH  16  17
ENDBRANCH  15  16
ENDBRANCH  14  15
ENDBRANCH  13  14
ENDBRANCH  12  13
ENDBRANCH   1  12
TORSDOF 16
ENDMDL
