MODEL 1
REMARK VINA RESULT:    -5.012      0.000      0.000
REMARK INTER + INTRA:          -6.892
REMARK INTER:                  -6.331
REMARK INTRA:                  -0.561
REMARK UNBOUND:                -0.561
REMARK SMILES Oc1cc(O)cc(CCc2ccccc2O)c1
REMARK SMILES IDX 9 1 10 2 12 3 13 4 11 5 14 6 15 7 16 8 8 10 7 11 6 12 17 13
REMARK SMILES IDX 4 14 2 15 3 16 5 17 1 19
REMARK H PARENT 16 9 5 18 1 20
REMARK Flexibility Score: inf
ROOT
ATOM      1  C   UNL     1      -6.399  83.706  -8.966  1.00  0.00     0.044 C 
ENDROOT
BRANCH   1   2
ATOM      2  C   UNL     1      -5.192  82.903  -8.552  1.00  0.00    -0.006 A 
ATOM      3  C   UNL     1      -3.861  81.882  -6.790  1.00  0.00     0.001 A 
ATOM      4  C   UNL     1      -2.919  81.470  -7.735  1.00  0.00     0.004 A 
ATOM      5  C   UNL     1      -4.990  82.600  -7.194  1.00  0.00     0.007 A 
ATOM      6  C   UNL     1      -3.101  81.777  -9.085  1.00  0.00     0.046 A 
ATOM      7  C   UNL     1      -4.230  82.498  -9.500  1.00  0.00     0.118 A 
BRANCH   7   8
ATOM      8  O   UNL     1      -4.398  82.813 -10.849  1.00  0.00    -0.508 OA
ATOM      9  H   UNL     1      -4.677  83.740 -11.147  1.00  0.00     0.293 HD
ENDBRANCH   7   8
ENDBRANCH   1   2
BRANCH   1  10
ATOM     10  C   UNL     1      -7.354  83.892  -7.784  1.00  0.00     0.040 C 
BRANCH  10  11
ATOM     11  C   UNL     1      -8.651  83.171  -8.032  1.00  0.00    -0.040 A 
ATOM     12  C   UNL     1      -9.547  82.941  -6.975  1.00  0.00     0.050 A 
ATOM     13  C   UNL     1      -8.949  82.671  -9.309  1.00  0.00     0.050 A 
ATOM     14  C   UNL     1     -10.740  82.240  -7.199  1.00  0.00     0.119 A 
ATOM     15  C   UNL     1     -10.142  81.969  -9.534  1.00  0.00     0.119 A 
ATOM     16  C   UNL     1     -11.034  81.759  -8.479  1.00  0.00     0.092 A 
BRANCH  14  17
ATOM     17  O   UNL     1     -11.637  82.014  -6.156  1.00  0.00    -0.508 OA
ATOM     18  H   UNL     1     -12.218  82.757  -5.787  1.00  0.00     0.293 HD
ENDBRANCH  14  17
BRANCH  15  19
ATOM     19  O   UNL     1     -10.447  81.477 -10.801  1.00  0.00    -0.508 OA
ATOM     20  H   UNL     1     -10.164  80.548 -11.090  1.00  0.00     0.293 HD
ENDBRANCH  15  19
ENDBRANCH  10  11
ENDBRANCH   1  10
TORSDOF 6
ENDMDL
MODEL 2
REMARK VINA RESULT:    -4.966      0.352      2.047
REMARK INTER + INTRA:          -6.833
REMARK INTER:                  -6.260
REMARK INTRA:                  -0.573
REMARK UNBOUND:                -0.561
REMARK SMILES Oc1cc(O)cc(CCc2ccccc2O)c1
REMARK SMILES IDX 9 1 10 2 12 3 13 4 11 5 14 6 15 7 16 8 8 10 7 11 6 12 17 13
REMARK SMILES IDX 4 14 2 15 3 16 5 17 1 19
REMARK H PARENT 16 9 5 18 1 20
REMARK Flexibility Score: inf
ROOT
ATOM      1  C   UNL     1      -6.364  83.901  -8.650  1.00  0.00     0.044 C 
ENDROOT
BRANCH   1   2
ATOM      2  C   UNL     1      -5.158  83.013  -8.485  1.00  0.00    -0.006 A 
ATOM      3  C   UNL     1      -3.642  81.791  -7.026  1.00  0.00     0.001 A 
ATOM      4  C   UNL     1      -2.875  81.416  -8.131  1.00  0.00     0.004 A 
ATOM      5  C   UNL     1      -4.775  82.590  -7.200  1.00  0.00     0.007 A 
ATOM      6  C   UNL     1      -3.236  81.841  -9.411  1.00  0.00     0.046 A 
ATOM      7  C   UNL     1      -4.371  82.644  -9.595  1.00  0.00     0.118 A 
BRANCH   7   8
ATOM      8  O   UNL     1      -4.717  83.077 -10.876  1.00  0.00    -0.508 OA
ATOM      9  H   UNL     1      -4.021  83.200 -11.601  1.00  0.00     0.293 HD
ENDBRANCH   7   8
ENDBRANCH   1   2
BRANCH   1  10
ATOM     10  C   UNL     1      -7.280  83.800  -7.427  1.00  0.00     0.040 C 
BRANCH  10  11
ATOM     11  C   UNL     1      -8.515  83.004  -7.753  1.00  0.00    -0.040 A 
ATOM     12  C   UNL     1      -8.838  82.715  -9.089  1.00  0.00     0.050 A 
ATOM     13  C   UNL     1      -9.383  82.594  -6.729  1.00  0.00     0.050 A 
ATOM     14  C   UNL     1     -10.006  82.002  -9.395  1.00  0.00     0.119 A 
ATOM     15  C   UNL     1     -10.551  81.882  -7.034  1.00  0.00     0.119 A 
ATOM     16  C   UNL     1     -10.856  81.585  -8.366  1.00  0.00     0.092 A 
BRANCH  14  17
ATOM     17  O   UNL     1     -10.330  81.706 -10.718  1.00  0.00    -0.508 OA
ATOM     18  H   UNL     1     -10.058  80.829 -11.146  1.00  0.00     0.293 HD
ENDBRANCH  14  17
BRANCH  15  19
ATOM     19  O   UNL     1     -11.414  81.466  -6.023  1.00  0.00    -0.508 OA
ATOM     20  H   UNL     1     -12.235  80.907  -6.224  1.00  0.00     0.293 HD
ENDBRANCH  15  19
ENDBRANCH  10  11
ENDBRANCH   1  10
TORSDOF 6
ENDMDL
MODEL 3
REMARK VINA RESULT:    -4.965      6.200      7.736
REMARK INTER + INTRA:          -6.832
REMARK INTER:                  -6.302
REMARK INTRA:                  -0.530
REMARK UNBOUND:                -0.561
REMARK SMILES Oc1cc(O)cc(CCc2ccccc2O)c1
REMARK SMILES IDX 9 1 10 2 12 3 13 4 11 5 14 6 15 7 16 8 8 10 7 11 6 12 17 13
REMARK SMILES IDX 4 14 2 15 3 16 5 17 1 19
REMARK H PARENT 16 9 5 18 1 20
REMARK Flexibility Score: inf
ROOT
ATOM      1  C   UNL     1     -12.026  80.352  -7.338  1.00  0.00     0.044 C 
ENDROOT
BRANCH   1   2
ATOM      2  C   UNL     1     -12.959  79.228  -6.964  1.00  0.00    -0.006 A 
ATOM      3  C   UNL     1     -15.200  78.468  -6.402  1.00  0.00     0.001 A 
ATOM      4  C   UNL     1     -14.715  77.174  -6.198  1.00  0.00     0.004 A 
ATOM      5  C   UNL     1     -14.327  79.492  -6.778  1.00  0.00     0.007 A 
ATOM      6  C   UNL     1     -13.355  76.903  -6.366  1.00  0.00     0.046 A 
ATOM      7  C   UNL     1     -12.471  77.924  -6.742  1.00  0.00     0.118 A 
BRANCH   7   8
ATOM      8  O   UNL     1     -11.112  77.648  -6.894  1.00  0.00    -0.508 OA
ATOM      9  H   UNL     1     -10.786  76.745  -7.216  1.00  0.00     0.293 HD
ENDBRANCH   7   8
ENDBRANCH   1   2
BRANCH   1  10
ATOM     10  C   UNL     1     -12.712  81.708  -7.147  1.00  0.00     0.040 C 
BRANCH  10  11
ATOM     11  C   UNL     1     -13.034  82.331  -8.478  1.00  0.00    -0.040 A 
ATOM     12  C   UNL     1     -13.753  83.536  -8.540  1.00  0.00     0.050 A 
ATOM     13  C   UNL     1     -12.670  81.683  -9.669  1.00  0.00     0.050 A 
ATOM     14  C   UNL     1     -14.082  84.099  -9.781  1.00  0.00     0.119 A 
ATOM     15  C   UNL     1     -13.000  82.245 -10.910  1.00  0.00     0.119 A 
ATOM     16  C   UNL     1     -13.702  83.453 -10.961  1.00  0.00     0.092 A 
BRANCH  14  17
ATOM     17  O   UNL     1     -14.790  85.298  -9.851  1.00  0.00    -0.508 OA
ATOM     18  H   UNL     1     -14.706  85.916 -10.649  1.00  0.00     0.293 HD
ENDBRANCH  14  17
BRANCH  15  19
ATOM     19  O   UNL     1     -12.635  81.611 -12.096  1.00  0.00    -0.508 OA
ATOM     20  H   UNL     1     -13.166  80.831 -12.464  1.00  0.00     0.293 HD
ENDBRANCH  15  19
ENDBRANCH  10  11
ENDBRANCH   1  10
TORSDOF 6
ENDMDL
MODEL 4
REMARK VINA RESULT:    -4.922      6.221      7.940
REMARK INTER + INTRA:          -6.778
REMARK INTER:                  -6.260
REMARK INTRA:                  -0.518
REMARK UNBOUND:                -0.561
REMARK SMILES Oc1cc(O)cc(CCc2ccccc2O)c1
REMARK SMILES IDX 9 1 10 2 12 3 13 4 11 5 14 6 15 7 16 8 8 10 7 11 6 12 17 13
REMARK SMILES IDX 4 14 2 15 3 16 5 17 1 19
REMARK H PARENT 16 9 5 18 1 20
REMARK Flexibility Score: inf
ROOT
ATOM      1  C   UNL     1     -12.059  80.320  -7.330  1.00  0.00     0.044 C 
ENDROOT
BRANCH   1   2
ATOM      2  C   UNL     1     -12.988  79.192  -6.959  1.00  0.00    -0.006 A 
ATOM      3  C   UNL     1     -15.235  78.413  -6.445  1.00  0.00     0.001 A 
ATOM      4  C   UNL     1     -14.738  77.132  -6.200  1.00  0.00     0.004 A 
ATOM      5  C   UNL     1     -14.364  79.441  -6.818  1.00  0.00     0.007 A 
ATOM      6  C   UNL     1     -13.371  76.875  -6.322  1.00  0.00     0.046 A 
ATOM      7  C   UNL     1     -12.490  77.900  -6.696  1.00  0.00     0.118 A 
BRANCH   7   8
ATOM      8  O   UNL     1     -11.123  77.639  -6.802  1.00  0.00    -0.508 OA
ATOM      9  H   UNL     1     -10.732  77.178  -7.615  1.00  0.00     0.293 HD
ENDBRANCH   7   8
ENDBRANCH   1   2
BRANCH   1  10
ATOM     10  C   UNL     1     -12.741  81.674  -7.111  1.00  0.00     0.040 C 
BRANCH  10  11
ATOM     11  C   UNL     1     -13.112  82.300  -8.428  1.00  0.00    -0.040 A 
ATOM     12  C   UNL     1     -12.694  81.714  -9.633  1.00  0.00     0.050 A 
ATOM     13  C   UNL     1     -13.829  83.507  -8.461  1.00  0.00     0.050 A 
ATOM     14  C   UNL     1     -13.011  82.315 -10.859  1.00  0.00     0.119 A 
ATOM     15  C   UNL     1     -14.146  84.109  -9.686  1.00  0.00     0.119 A 
ATOM     16  C   UNL     1     -13.739  83.509 -10.881  1.00  0.00     0.092 A 
BRANCH  14  17
ATOM     17  O   UNL     1     -12.604  81.735 -12.060  1.00  0.00    -0.508 OA
ATOM     18  H   UNL     1     -11.964  82.208 -12.686  1.00  0.00     0.293 HD
ENDBRANCH  14  17
BRANCH  15  19
ATOM     19  O   UNL     1     -14.864  85.302  -9.726  1.00  0.00    -0.508 OA
ATOM     20  H   UNL     1     -14.875  85.886 -10.554  1.00  0.00     0.293 HD
ENDBRANCH  15  19
ENDBRANCH  10  11
ENDBRANCH   1  10
TORSDOF 6
ENDMDL
MODEL 5
REMARK VINA RESULT:    -4.876      5.402      7.219
REMARK INTER + INTRA:          -6.719
REMARK INTER:                  -6.020
REMARK INTRA:                  -0.699
REMARK UNBOUND:                -0.561
REMARK SMILES Oc1cc(O)cc(CCc2ccccc2O)c1
REMARK SMILES IDX 9 1 10 2 12 3 13 4 11 5 14 6 15 7 16 8 8 10 7 11 6 12 17 13
REMARK SMILES IDX 4 14 2 15 3 16 5 17 1 19
REMARK H PARENT 16 9 5 18 1 20
REMARK Flexibility Score: inf
ROOT
ATOM      1  C   UNL     1     -11.984  81.457  -6.987  1.00  0.00     0.044 C 
ENDROOT
BRANCH   1   2
ATOM      2  C   UNL     1     -12.420  80.025  -6.811  1.00  0.00    -0.006 A 
ATOM      3  C   UNL     1     -11.865  77.719  -6.270  1.00  0.00     0.001 A 
ATOM      4  C   UNL     1     -13.180  77.335  -6.540  1.00  0.00     0.004 A 
ATOM      5  C   UNL     1     -11.484  79.056  -6.409  1.00  0.00     0.007 A 
ATOM      6  C   UNL     1     -14.116  78.285  -6.953  1.00  0.00     0.046 A 
ATOM      7  C   UNL     1     -13.743  79.630  -7.097  1.00  0.00     0.118 A 
BRANCH   7   8
ATOM      8  O   UNL     1     -14.680  80.571  -7.524  1.00  0.00    -0.508 OA
ATOM      9  H   UNL     1     -15.603  80.297  -7.838  1.00  0.00     0.293 HD
ENDBRANCH   7   8
ENDBRANCH   1   2
BRANCH   1  10
ATOM     10  C   UNL     1     -11.158  81.616  -8.267  1.00  0.00     0.040 C 
BRANCH  10  11
ATOM     11  C   UNL     1     -12.032  82.061  -9.409  1.00  0.00    -0.040 A 
ATOM     12  C   UNL     1     -12.841  83.202  -9.279  1.00  0.00     0.050 A 
ATOM     13  C   UNL     1     -12.090  81.306 -10.591  1.00  0.00     0.050 A 
ATOM     14  C   UNL     1     -13.680  83.597 -10.330  1.00  0.00     0.119 A 
ATOM     15  C   UNL     1     -12.929  81.701 -11.643  1.00  0.00     0.119 A 
ATOM     16  C   UNL     1     -13.718  82.847 -11.509  1.00  0.00     0.092 A 
BRANCH  14  17
ATOM     17  O   UNL     1     -14.480  84.732 -10.210  1.00  0.00    -0.508 OA
ATOM     18  H   UNL     1     -15.164  84.975 -10.917  1.00  0.00     0.293 HD
ENDBRANCH  14  17
BRANCH  15  19
ATOM     19  O   UNL     1     -12.986  80.961 -12.822  1.00  0.00    -0.508 OA
ATOM     20  H   UNL     1     -12.391  80.154 -12.969  1.00  0.00     0.293 HD
ENDBRANCH  15  19
ENDBRANCH  10  11
ENDBRANCH   1  10
TORSDOF 6
ENDMDL
MODEL 6
REMARK VINA RESULT:    -4.863     10.309     12.326
REMARK INTER + INTRA:          -6.704
REMARK INTER:                  -6.183
REMARK INTRA:                  -0.521
REMARK UNBOUND:                -0.561
REMARK SMILES Oc1cc(O)cc(CCc2ccccc2O)c1
REMARK SMILES IDX 9 1 10 2 12 3 13 4 11 5 14 6 15 7 16 8 8 10 7 11 6 12 17 13
REMARK SMILES IDX 4 14 2 15 3 16 5 17 1 19
REMARK H PARENT 16 9 5 18 1 20
REMARK Flexibility Score: inf
ROOT
ATOM      1  C   UNL     1      -3.999  90.782 -13.304  1.00  0.00     0.044 C 
ENDROOT
BRANCH   1   2
ATOM      2  C   UNL     1      -4.214  91.024 -14.777  1.00  0.00    -0.006 A 
ATOM      3  C   UNL     1      -3.921  92.445 -16.729  1.00  0.00     0.001 A 
ATOM      4  C   UNL     1      -4.655  91.543 -17.501  1.00  0.00     0.004 A 
ATOM      5  C   UNL     1      -3.704  92.191 -15.372  1.00  0.00     0.007 A 
ATOM      6  C   UNL     1      -5.179  90.388 -16.918  1.00  0.00     0.046 A 
ATOM      7  C   UNL     1      -4.968  90.124 -15.557  1.00  0.00     0.118 A 
BRANCH   7   8
ATOM      8  O   UNL     1      -5.507  88.974 -14.978  1.00  0.00    -0.508 OA
ATOM      9  H   UNL     1      -5.370  88.059 -15.389  1.00  0.00     0.293 HD
ENDBRANCH   7   8
ENDBRANCH   1   2
BRANCH   1  10
ATOM     10  C   UNL     1      -5.154  91.368 -12.487  1.00  0.00     0.040 C 
BRANCH  10  11
ATOM     11  C   UNL     1      -4.650  92.417 -11.533  1.00  0.00    -0.040 A 
ATOM     12  C   UNL     1      -4.008  93.567 -12.022  1.00  0.00     0.050 A 
ATOM     13  C   UNL     1      -4.766  92.228 -10.147  1.00  0.00     0.050 A 
ATOM     14  C   UNL     1      -3.508  94.528 -11.132  1.00  0.00     0.119 A 
ATOM     15  C   UNL     1      -4.266  93.189  -9.258  1.00  0.00     0.119 A 
ATOM     16  C   UNL     1      -3.642  94.337  -9.754  1.00  0.00     0.092 A 
BRANCH  14  17
ATOM     17  O   UNL     1      -2.875  95.675 -11.610  1.00  0.00    -0.508 OA
ATOM     18  H   UNL     1      -3.386  96.536 -11.764  1.00  0.00     0.293 HD
ENDBRANCH  14  17
BRANCH  15  19
ATOM     19  O   UNL     1      -4.384  93.011  -7.881  1.00  0.00    -0.508 OA
ATOM     20  H   UNL     1      -3.778  93.497  -7.231  1.00  0.00     0.293 HD
ENDBRANCH  15  19
ENDBRANCH  10  11
ENDBRANCH   1  10
TORSDOF 6
ENDMDL
MODEL 7
REMARK VINA RESULT:    -4.839      5.496      7.496
REMARK INTER + INTRA:          -6.673
REMARK INTER:                  -5.991
REMARK INTRA:                  -0.682
REMARK UNBOUND:                -0.561
REMARK SMILES Oc1cc(O)cc(CCc2ccccc2O)c1
REMARK SMILES IDX 9 1 10 2 12 3 13 4 11 5 14 6 15 7 16 8 8 10 7 11 6 12 17 13
REMARK SMILES IDX 4 14 2 15 3 16 5 17 1 19
REMARK H PARENT 16 9 5 18 1 20
REMARK Flexibility Score: inf
ROOT
ATOM      1  C   UNL     1     -12.142  81.437  -6.863  1.00  0.00     0.044 C 
ENDROOT
BRANCH   1   2
ATOM      2  C   UNL     1     -12.550  79.994  -6.719  1.00  0.00    -0.006 A 
ATOM      3  C   UNL     1     -11.949  77.686  -6.235  1.00  0.00     0.001 A 
ATOM      4  C   UNL     1     -13.258  77.284  -6.508  1.00  0.00     0.004 A 
ATOM      5  C   UNL     1     -11.594  79.033  -6.344  1.00  0.00     0.007 A 
ATOM      6  C   UNL     1     -14.213  78.226  -6.895  1.00  0.00     0.046 A 
ATOM      7  C   UNL     1     -13.867  79.580  -7.008  1.00  0.00     0.118 A 
BRANCH   7   8
ATOM      8  O   UNL     1     -14.823  80.513  -7.409  1.00  0.00    -0.508 OA
ATOM      9  H   UNL     1     -15.755  80.522  -7.013  1.00  0.00     0.293 HD
ENDBRANCH   7   8
ENDBRANCH   1   2
BRANCH   1  10
ATOM     10  C   UNL     1     -11.304  81.637  -8.130  1.00  0.00     0.040 C 
BRANCH  10  11
ATOM     11  C   UNL     1     -12.176  82.069  -9.279  1.00  0.00    -0.040 A 
ATOM     12  C   UNL     1     -12.196  81.326 -10.470  1.00  0.00     0.050 A 
ATOM     13  C   UNL     1     -12.930  83.249  -9.189  1.00  0.00     0.050 A 
ATOM     14  C   UNL     1     -12.982  81.747 -11.552  1.00  0.00     0.119 A 
ATOM     15  C   UNL     1     -13.716  83.671 -10.270  1.00  0.00     0.119 A 
ATOM     16  C   UNL     1     -13.742  82.916 -11.447  1.00  0.00     0.092 A 
BRANCH  14  17
ATOM     17  O   UNL     1     -13.012  81.011 -12.736  1.00  0.00    -0.508 OA
ATOM     18  H   UNL     1     -12.250  81.048 -13.402  1.00  0.00     0.293 HD
ENDBRANCH  14  17
BRANCH  15  19
ATOM     19  O   UNL     1     -14.473  84.837 -10.185  1.00  0.00    -0.508 OA
ATOM     20  H   UNL     1     -14.729  85.363 -11.012  1.00  0.00     0.293 HD
ENDBRANCH  15  19
ENDBRANCH  10  11
ENDBRANCH   1  10
TORSDOF 6
ENDMDL
MODEL 8
REMARK VINA RESULT:    -4.820     10.708     12.516
REMARK INTER + INTRA:          -6.649
REMARK INTER:                  -5.919
REMARK INTRA:                  -0.730
REMARK UNBOUND:                -0.561
REMARK SMILES Oc1cc(O)cc(CCc2ccccc2O)c1
REMARK SMILES IDX 9 1 10 2 12 3 13 4 11 5 14 6 15 7 16 8 8 10 7 11 6 12 17 13
REMARK SMILES IDX 4 14 2 15 3 16 5 17 1 19
REMARK H PARENT 16 9 5 18 1 20
REMARK Flexibility Score: inf
ROOT
ATOM      1  C   UNL     1      -3.275  90.721 -15.374  1.00  0.00     0.044 C 
ENDROOT
BRANCH   1   2
ATOM      2  C   UNL     1      -4.178  90.538 -14.181  1.00  0.00    -0.006 A 
ATOM      3  C   UNL     1      -4.749  91.093 -11.882  1.00  0.00     0.001 A 
ATOM      4  C   UNL     1      -5.797  90.172 -11.916  1.00  0.00     0.004 A 
ATOM      5  C   UNL     1      -3.939  91.273 -13.007  1.00  0.00     0.007 A 
ATOM      6  C   UNL     1      -6.036  89.425 -13.071  1.00  0.00     0.046 A 
ATOM      7  C   UNL     1      -5.228  89.597 -14.205  1.00  0.00     0.118 A 
BRANCH   7   8
ATOM      8  O   UNL     1      -5.464  88.837 -15.350  1.00  0.00    -0.508 OA
ATOM      9  H   UNL     1      -5.833  89.252 -16.197  1.00  0.00     0.293 HD
ENDBRANCH   7   8
ENDBRANCH   1   2
BRANCH   1  10
ATOM     10  C   UNL     1      -3.310  92.174 -15.859  1.00  0.00     0.040 C 
BRANCH  10  11
ATOM     11  C   UNL     1      -4.539  92.424 -16.692  1.00  0.00    -0.040 A 
ATOM     12  C   UNL     1      -4.914  91.511 -17.691  1.00  0.00     0.050 A 
ATOM     13  C   UNL     1      -5.285  93.600 -16.517  1.00  0.00     0.050 A 
ATOM     14  C   UNL     1      -6.039  91.761 -18.490  1.00  0.00     0.119 A 
ATOM     15  C   UNL     1      -6.409  93.851 -17.315  1.00  0.00     0.119 A 
ATOM     16  C   UNL     1      -6.784  92.928 -18.297  1.00  0.00     0.092 A 
BRANCH  14  17
ATOM     17  O   UNL     1      -6.421  90.857 -19.479  1.00  0.00    -0.508 OA
ATOM     18  H   UNL     1      -6.258  89.862 -19.379  1.00  0.00     0.293 HD
ENDBRANCH  14  17
BRANCH  15  19
ATOM     19  O   UNL     1      -7.159  95.012 -17.141  1.00  0.00    -0.508 OA
ATOM     20  H   UNL     1      -8.158  95.027 -17.306  1.00  0.00     0.293 HD
ENDBRANCH  15  19
ENDBRANCH  10  11
ENDBRANCH   1  10
TORSDOF 6
ENDMDL
