MODEL 1
REMARK VINA RESULT:    -4.700      0.000      0.000
REMARK INTER + INTRA:          -8.036
REMARK INTER:                  -6.623
REMARK INTRA:                  -1.412
REMARK UNBOUND:                -1.412
REMARK SMILES C=CC(=C)CCC=C(C)CCC=C(C)C
REMARK SMILES IDX 8 1 7 2 9 3 10 4 11 5 12 6 14 7 13 8 15 9 6 10 5 11 3 12
REMARK SMILES IDX 4 13 2 14 1 15
REMARK H PARENT
REMARK Flexibility Score: inf
ROOT
ATOM      1  C   UNL     1      30.652   7.835  34.086  1.00  0.00    -0.077 C 
ATOM      2  C   UNL     1      31.790   7.893  33.356  1.00  0.00    -0.028 C 
ATOM      3  C   UNL     1      29.523   8.818  33.882  1.00  0.00     0.039 C 
ENDROOT
BRANCH   1   4
ATOM      4  C   UNL     1      30.513   6.759  35.140  1.00  0.00     0.034 C 
BRANCH   4   5
ATOM      5  C   UNL     1      31.411   7.055  36.346  1.00  0.00     0.032 C 
BRANCH   5   6
ATOM      6  C   UNL     1      30.678   7.885  37.370  1.00  0.00    -0.028 C 
ATOM      7  C   UNL     1      31.890   9.992  36.766  1.00  0.00     0.039 C 
ATOM      8  C   UNL     1      30.906   9.198  37.591  1.00  0.00    -0.080 C 
ATOM      9  C   UNL     1      30.130   9.925  38.659  1.00  0.00     0.039 C 
ENDBRANCH   5   6
ENDBRANCH   4   5
ENDBRANCH   1   4
BRANCH   2  10
ATOM     10  C   UNL     1      32.044   8.885  32.248  1.00  0.00     0.032 C 
BRANCH  10  11
ATOM     11  C   UNL     1      33.124   9.892  32.659  1.00  0.00     0.039 C 
BRANCH  11  12
ATOM     12  C   UNL     1      32.650  11.310  32.433  1.00  0.00    -0.055 C 
ATOM     13  C   UNL     1      31.885  11.895  33.361  1.00  0.00     0.012 C 
BRANCH  12  14
ATOM     14  C   UNL     1      33.045  12.096  31.234  1.00  0.00    -0.005 C 
ATOM     15  C   UNL     1      32.542  11.902  30.015  1.00  0.00     0.009 C 
ENDBRANCH  12  14
ENDBRANCH  11  12
ENDBRANCH  10  11
ENDBRANCH   2  10
TORSDOF 7
ENDMDL
MODEL 2
REMARK VINA RESULT:    -4.686      1.429      3.296
REMARK INTER + INTRA:          -8.016
REMARK INTER:                  -6.478
REMARK INTRA:                  -1.538
REMARK UNBOUND:                -1.412
REMARK SMILES C=CC(=C)CCC=C(C)CCC=C(C)C
REMARK SMILES IDX 8 1 7 2 9 3 10 4 11 5 12 6 14 7 13 8 15 9 6 10 5 11 3 12
REMARK SMILES IDX 4 13 2 14 1 15
REMARK H PARENT
REMARK Flexibility Score: inf
ROOT
ATOM      1  C   UNL     1      30.801  10.909  35.055  1.00  0.00    -0.077 C 
ATOM      2  C   UNL     1      32.089  11.127  34.703  1.00  0.00    -0.028 C 
ATOM      3  C   UNL     1      29.672  11.013  34.056  1.00  0.00     0.039 C 
ENDROOT
BRANCH   1   4
ATOM      4  C   UNL     1      30.484  10.559  36.493  1.00  0.00     0.034 C 
BRANCH   4   5
ATOM      5  C   UNL     1      31.507   9.564  37.052  1.00  0.00     0.032 C 
BRANCH   5   6
ATOM      6  C   UNL     1      31.269   8.182  36.496  1.00  0.00    -0.028 C 
ATOM      7  C   UNL     1      29.717   7.528  38.350  1.00  0.00     0.039 C 
ATOM      8  C   UNL     1      30.494   7.246  37.087  1.00  0.00    -0.080 C 
ATOM      9  C   UNL     1      30.346   5.887  36.454  1.00  0.00     0.039 C 
ENDBRANCH   5   6
ENDBRANCH   4   5
ENDBRANCH   1   4
BRANCH   2  10
ATOM     10  C   UNL     1      32.549  11.441  33.301  1.00  0.00     0.032 C 
BRANCH  10  11
ATOM     11  C   UNL     1      33.125  10.190  32.627  1.00  0.00     0.039 C 
BRANCH  11  12
ATOM     12  C   UNL     1      32.057   9.469  31.834  1.00  0.00    -0.055 C 
ATOM     13  C   UNL     1      31.581  10.036  30.720  1.00  0.00     0.012 C 
BRANCH  12  14
ATOM     14  C   UNL     1      31.552   8.126  32.224  1.00  0.00    -0.005 C 
ATOM     15  C   UNL     1      32.124   7.352  33.147  1.00  0.00     0.009 C 
ENDBRANCH  12  14
ENDBRANCH  11  12
ENDBRANCH  10  11
ENDBRANCH   2  10
TORSDOF 7
ENDMDL
MODEL 3
REMARK VINA RESULT:    -4.665      1.240      5.898
REMARK INTER + INTRA:          -7.987
REMARK INTER:                  -6.507
REMARK INTRA:                  -1.479
REMARK UNBOUND:                -1.412
REMARK SMILES C=CC(=C)CCC=C(C)CCC=C(C)C
REMARK SMILES IDX 8 1 7 2 9 3 10 4 11 5 12 6 14 7 13 8 15 9 6 10 5 11 3 12
REMARK SMILES IDX 4 13 2 14 1 15
REMARK H PARENT
REMARK Flexibility Score: inf
ROOT
ATOM      1  C   UNL     1      31.140  10.916  34.452  1.00  0.00    -0.077 C 
ATOM      2  C   UNL     1      31.601  10.263  35.544  1.00  0.00    -0.028 C 
ATOM      3  C   UNL     1      29.720  10.747  33.962  1.00  0.00     0.039 C 
ENDROOT
BRANCH   1   4
ATOM      4  C   UNL     1      32.077  11.833  33.697  1.00  0.00     0.034 C 
BRANCH   4   5
ATOM      5  C   UNL     1      33.068  11.026  32.851  1.00  0.00     0.032 C 
BRANCH   5   6
ATOM      6  C   UNL     1      33.051  11.491  31.416  1.00  0.00    -0.028 C 
ATOM      7  C   UNL     1      31.386   9.758  30.708  1.00  0.00     0.039 C 
ATOM      8  C   UNL     1      32.324  10.909  30.436  1.00  0.00    -0.080 C 
ATOM      9  C   UNL     1      32.402  11.442  29.029  1.00  0.00     0.039 C 
ENDBRANCH   5   6
ENDBRANCH   4   5
ENDBRANCH   1   4
BRANCH   2  10
ATOM     10  C   UNL     1      30.766   9.354  36.410  1.00  0.00     0.032 C 
BRANCH  10  11
ATOM     11  C   UNL     1      31.425   7.976  36.543  1.00  0.00     0.039 C 
BRANCH  11  12
ATOM     12  C   UNL     1      30.800   6.987  35.584  1.00  0.00    -0.055 C 
ATOM     13  C   UNL     1      30.142   5.932  36.077  1.00  0.00     0.012 C 
BRANCH  12  14
ATOM     14  C   UNL     1      30.851   7.172  34.110  1.00  0.00    -0.005 C 
ATOM     15  C   UNL     1      31.980   7.288  33.410  1.00  0.00     0.009 C 
ENDBRANCH  12  14
ENDBRANCH  11  12
ENDBRANCH  10  11
ENDBRANCH   2  10
TORSDOF 7
ENDMDL
MODEL 4
REMARK VINA RESULT:    -4.658      1.329      6.244
REMARK INTER + INTRA:          -7.977
REMARK INTER:                  -6.413
REMARK INTRA:                  -1.564
REMARK UNBOUND:                -1.412
REMARK SMILES C=CC(=C)CCC=C(C)CCC=C(C)C
REMARK SMILES IDX 8 1 7 2 9 3 10 4 11 5 12 6 14 7 13 8 15 9 6 10 5 11 3 12
REMARK SMILES IDX 4 13 2 14 1 15
REMARK H PARENT
REMARK Flexibility Score: inf
ROOT
ATOM      1  C   UNL     1      32.029  10.053  32.798  1.00  0.00    -0.077 C 
ATOM      2  C   UNL     1      32.365   8.755  32.984  1.00  0.00    -0.028 C 
ATOM      3  C   UNL     1      30.593  10.520  32.846  1.00  0.00     0.039 C 
ENDROOT
BRANCH   1   4
ATOM      4  C   UNL     1      33.125  11.060  32.526  1.00  0.00     0.034 C 
BRANCH   4   5
ATOM      5  C   UNL     1      32.671  12.095  31.490  1.00  0.00     0.032 C 
BRANCH   5   6
ATOM      6  C   UNL     1      32.901  11.587  30.089  1.00  0.00    -0.028 C 
ATOM      7  C   UNL     1      30.521  11.949  29.396  1.00  0.00     0.039 C 
ATOM      8  C   UNL     1      31.936  11.485  29.147  1.00  0.00    -0.080 C 
ATOM      9  C   UNL     1      32.273  10.939  27.784  1.00  0.00     0.039 C 
ENDBRANCH   5   6
ENDBRANCH   4   5
ENDBRANCH   1   4
BRANCH   2  10
ATOM     10  C   UNL     1      31.382   7.657  33.304  1.00  0.00     0.032 C 
BRANCH  10  11
ATOM     11  C   UNL     1      31.514   7.220  34.767  1.00  0.00     0.039 C 
BRANCH  11  12
ATOM     12  C   UNL     1      30.754   8.158  35.678  1.00  0.00    -0.055 C 
ATOM     13  C   UNL     1      29.420   8.204  35.595  1.00  0.00     0.012 C 
BRANCH  12  14
ATOM     14  C   UNL     1      31.435   8.998  36.698  1.00  0.00    -0.005 C 
ATOM     15  C   UNL     1      31.673  10.302  36.554  1.00  0.00     0.009 C 
ENDBRANCH  12  14
ENDBRANCH  11  12
ENDBRANCH  10  11
ENDBRANCH   2  10
TORSDOF 7
ENDMDL
MODEL 5
REMARK VINA RESULT:    -4.632      1.717      6.595
REMARK INTER + INTRA:          -7.940
REMARK INTER:                  -6.883
REMARK INTRA:                  -1.057
REMARK UNBOUND:                -1.412
REMARK SMILES C=CC(=C)CCC=C(C)CCC=C(C)C
REMARK SMILES IDX 8 1 7 2 9 3 10 4 11 5 12 6 14 7 13 8 15 9 6 10 5 11 3 12
REMARK SMILES IDX 4 13 2 14 1 15
REMARK H PARENT
REMARK Flexibility Score: inf
ROOT
ATOM      1  C   UNL     1      32.781  10.715  32.482  1.00  0.00    -0.077 C 
ATOM      2  C   UNL     1      32.431   9.447  32.165  1.00  0.00    -0.028 C 
ATOM      3  C   UNL     1      33.035  11.139  33.910  1.00  0.00     0.039 C 
ENDROOT
BRANCH   1   4
ATOM      4  C   UNL     1      32.914  11.736  31.374  1.00  0.00     0.034 C 
BRANCH   4   5
ATOM      5  C   UNL     1      31.721  11.660  30.414  1.00  0.00     0.032 C 
BRANCH   5   6
ATOM      6  C   UNL     1      32.130  11.046  29.099  1.00  0.00    -0.028 C 
ATOM      7  C   UNL     1      30.340   9.296  29.176  1.00  0.00     0.039 C 
ATOM      8  C   UNL     1      31.539   9.963  28.547  1.00  0.00    -0.080 C 
ATOM      9  C   UNL     1      32.046   9.418  27.237  1.00  0.00     0.039 C 
ENDBRANCH   5   6
ENDBRANCH   4   5
ENDBRANCH   1   4
BRANCH   2  10
ATOM     10  C   UNL     1      32.304   8.322  33.162  1.00  0.00     0.032 C 
BRANCH  10  11
ATOM     11  C   UNL     1      30.911   8.320  33.802  1.00  0.00     0.039 C 
BRANCH  11  12
ATOM     12  C   UNL     1      31.009   8.137  35.301  1.00  0.00    -0.055 C 
ATOM     13  C   UNL     1      31.440   6.968  35.785  1.00  0.00     0.012 C 
BRANCH  12  14
ATOM     14  C   UNL     1      30.687   9.231  36.255  1.00  0.00    -0.005 C 
ATOM     15  C   UNL     1      31.573   9.781  37.087  1.00  0.00     0.009 C 
ENDBRANCH  12  14
ENDBRANCH  11  12
ENDBRANCH  10  11
ENDBRANCH   2  10
TORSDOF 7
ENDMDL
MODEL 6
REMARK VINA RESULT:    -4.619      2.819      5.620
REMARK INTER + INTRA:          -7.921
REMARK INTER:                  -6.132
REMARK INTRA:                  -1.789
REMARK UNBOUND:                -1.412
REMARK SMILES C=CC(=C)CCC=C(C)CCC=C(C)C
REMARK SMILES IDX 8 1 7 2 9 3 10 4 11 5 12 6 14 7 13 8 15 9 6 10 5 11 3 12
REMARK SMILES IDX 4 13 2 14 1 15
REMARK H PARENT
REMARK Flexibility Score: inf
ROOT
ATOM      1  C   UNL     1      32.196  11.550  30.037  1.00  0.00    -0.077 C 
ATOM      2  C   UNL     1      32.725  11.149  28.858  1.00  0.00    -0.028 C 
ATOM      3  C   UNL     1      30.707  11.730  30.224  1.00  0.00     0.039 C 
ENDROOT
BRANCH   1   4
ATOM      4  C   UNL     1      33.125  11.833  31.198  1.00  0.00     0.034 C 
BRANCH   4   5
ATOM      5  C   UNL     1      32.560  11.262  32.503  1.00  0.00     0.032 C 
BRANCH   5   6
ATOM      6  C   UNL     1      32.842   9.785  32.609  1.00  0.00    -0.028 C 
ATOM      7  C   UNL     1      30.442   9.193  33.015  1.00  0.00     0.039 C 
ATOM      8  C   UNL     1      31.904   8.847  32.871  1.00  0.00    -0.080 C 
ATOM      9  C   UNL     1      32.303   7.398  32.979  1.00  0.00     0.039 C 
ENDBRANCH   5   6
ENDBRANCH   4   5
ENDBRANCH   1   4
BRANCH   2  10
ATOM     10  C   UNL     1      31.915  10.794  27.637  1.00  0.00     0.032 C 
BRANCH  10  11
ATOM     11  C   UNL     1      31.880   9.275  27.432  1.00  0.00     0.039 C 
BRANCH  11  12
ATOM     12  C   UNL     1      30.670   8.669  28.110  1.00  0.00    -0.055 C 
ATOM     13  C   UNL     1      29.497   8.673  27.468  1.00  0.00     0.012 C 
BRANCH  12  14
ATOM     14  C   UNL     1      30.750   8.026  29.448  1.00  0.00    -0.005 C 
ATOM     15  C   UNL     1      30.765   6.707  29.643  1.00  0.00     0.009 C 
ENDBRANCH  12  14
ENDBRANCH  11  12
ENDBRANCH  10  11
ENDBRANCH   2  10
TORSDOF 7
ENDMDL
MODEL 7
REMARK VINA RESULT:    -4.540      1.373      4.835
REMARK INTER + INTRA:          -7.810
REMARK INTER:                  -5.859
REMARK INTRA:                  -1.950
REMARK UNBOUND:                -1.412
REMARK SMILES C=CC(=C)CCC=C(C)CCC=C(C)C
REMARK SMILES IDX 8 1 7 2 9 3 10 4 11 5 12 6 14 7 13 8 15 9 6 10 5 11 3 12
REMARK SMILES IDX 4 13 2 14 1 15
REMARK H PARENT
REMARK Flexibility Score: inf
ROOT
ATOM      1  C   UNL     1      30.861   7.155  33.835  1.00  0.00    -0.077 C 
ATOM      2  C   UNL     1      31.603   7.393  34.941  1.00  0.00    -0.028 C 
ATOM      3  C   UNL     1      29.514   6.474  33.909  1.00  0.00     0.039 C 
ENDROOT
BRANCH   1   4
ATOM      4  C   UNL     1      31.403   7.575  32.486  1.00  0.00     0.034 C 
BRANCH   4   5
ATOM      5  C   UNL     1      32.510   8.623  32.644  1.00  0.00     0.032 C 
BRANCH   5   6
ATOM      6  C   UNL     1      32.102   9.932  32.017  1.00  0.00    -0.028 C 
ATOM      7  C   UNL     1      32.857  11.292  33.980  1.00  0.00     0.039 C 
ATOM      8  C   UNL     1      32.222  11.136  32.620  1.00  0.00    -0.080 C 
ATOM      9  C   UNL     1      31.759  12.381  31.908  1.00  0.00     0.039 C 
ENDBRANCH   5   6
ENDBRANCH   4   5
ENDBRANCH   1   4
BRANCH   2  10
ATOM     10  C   UNL     1      31.168   7.065  36.348  1.00  0.00     0.032 C 
BRANCH  10  11
ATOM     11  C   UNL     1      30.947   8.346  37.160  1.00  0.00     0.039 C 
BRANCH  11  12
ATOM     12  C   UNL     1      29.706   9.073  36.690  1.00  0.00    -0.055 C 
ATOM     13  C   UNL     1      28.506   8.611  37.055  1.00  0.00     0.012 C 
BRANCH  12  14
ATOM     14  C   UNL     1      29.776  10.313  35.873  1.00  0.00    -0.005 C 
ATOM     15  C   UNL     1      29.211  10.450  34.673  1.00  0.00     0.009 C 
ENDBRANCH  12  14
ENDBRANCH  11  12
ENDBRANCH  10  11
ENDBRANCH   2  10
TORSDOF 7
ENDMDL
MODEL 8
REMARK VINA RESULT:    -4.484      3.042      6.645
REMARK INTER + INTRA:          -7.732
REMARK INTER:                  -6.258
REMARK INTRA:                  -1.473
REMARK UNBOUND:                -1.412
REMARK SMILES C=CC(=C)CCC=C(C)CCC=C(C)C
REMARK SMILES IDX 8 1 7 2 9 3 10 4 11 5 12 6 14 7 13 8 15 9 6 10 5 11 3 12
REMARK SMILES IDX 4 13 2 14 1 15
REMARK H PARENT
REMARK Flexibility Score: inf
ROOT
ATOM      1  C   UNL     1      30.206   8.803  29.917  1.00  0.00    -0.077 C 
ATOM      2  C   UNL     1      30.943   8.123  30.825  1.00  0.00    -0.028 C 
ATOM      3  C   UNL     1      29.379  10.009  30.300  1.00  0.00     0.039 C 
ENDROOT
BRANCH   1   4
ATOM      4  C   UNL     1      30.205   8.335  28.478  1.00  0.00     0.034 C 
BRANCH   4   5
ATOM      5  C   UNL     1      31.589   8.512  27.844  1.00  0.00     0.032 C 
BRANCH   5   6
ATOM      6  C   UNL     1      31.996   9.964  27.842  1.00  0.00    -0.028 C 
ATOM      7  C   UNL     1      31.198  10.349  25.499  1.00  0.00     0.039 C 
ATOM      8  C   UNL     1      31.856  10.792  26.783  1.00  0.00    -0.080 C 
ATOM      9  C   UNL     1      32.320  12.222  26.883  1.00  0.00     0.039 C 
ENDBRANCH   5   6
ENDBRANCH   4   5
ENDBRANCH   1   4
BRANCH   2  10
ATOM     10  C   UNL     1      31.067   8.504  32.280  1.00  0.00     0.032 C 
BRANCH  10  11
ATOM     11  C   UNL     1      32.511   8.892  32.617  1.00  0.00     0.039 C 
BRANCH  11  12
ATOM     12  C   UNL     1      32.688  10.394  32.575  1.00  0.00    -0.055 C 
ATOM     13  C   UNL     1      32.798  11.067  33.725  1.00  0.00     0.012 C 
BRANCH  12  14
ATOM     14  C   UNL     1      32.792  11.143  31.296  1.00  0.00    -0.005 C 
ATOM     15  C   UNL     1      32.508  12.440  31.164  1.00  0.00     0.009 C 
ENDBRANCH  12  14
ENDBRANCH  11  12
ENDBRANCH  10  11
ENDBRANCH   2  10
TORSDOF 7
ENDMDL
