MODEL 1
REMARK VINA RESULT:    -3.282      0.000      0.000
REMARK INTER + INTRA:          -7.575
REMARK INTER:                  -5.584
REMARK INTRA:                  -1.991
REMARK UNBOUND:                -1.991
REMARK SMILES CCCCCCCCCCCCCC(=O)[O-]
REMARK SMILES IDX 8 1 9 2 10 3 11 4 12 5 13 6 14 7 15 8 16 9 7 10 6 11 5 12
REMARK SMILES IDX 4 13 3 14 2 15 1 16
REMARK H PARENT
REMARK Flexibility Score: inf
ROOT
ATOM      1  C   UNL     1     153.128 151.663 159.746  1.00  0.00     0.000 C 
ENDROOT
BRANCH   1   2
ATOM      2  C   UNL     1     152.004 152.711 159.736  1.00  0.00     0.000 C 
BRANCH   2   3
ATOM      3  C   UNL     1     151.253 152.773 158.394  1.00  0.00     0.000 C 
BRANCH   3   4
ATOM      4  C   UNL     1     151.010 154.192 157.839  1.00  0.00     0.000 C 
BRANCH   4   5
ATOM      5  C   UNL     1     151.254 155.338 158.841  1.00  0.00     0.006 C 
BRANCH   5   6
ATOM      6  C   UNL     1     150.698 156.699 158.394  1.00  0.00     0.053 C 
BRANCH   6   7
ATOM      7  C   UNL     1     150.988 156.975 156.952  1.00  0.00     0.041 C 
ATOM      8  O   UNL     1     152.157 157.265 156.583  1.00  0.00    -0.550 OA
ATOM      9  O   UNL     1     149.961 156.943 156.017  1.00  0.00    -0.550 OA
ENDBRANCH   6   7
ENDBRANCH   5   6
ENDBRANCH   4   5
ENDBRANCH   3   4
ENDBRANCH   2   3
ENDBRANCH   1   2
BRANCH   1  10
ATOM     10  C   UNL     1     153.260 150.918 158.408  1.00  0.00     0.000 C 
BRANCH  10  11
ATOM     11  C   UNL     1     154.649 151.067 157.749  1.00  0.00    -0.000 C 
BRANCH  11  12
ATOM     12  C   UNL     1     155.192 152.504 157.865  1.00  0.00    -0.000 C 
BRANCH  12  13
ATOM     13  C   UNL     1     154.572 153.448 156.819  1.00  0.00    -0.000 C 
BRANCH  13  14
ATOM     14  C   UNL     1     154.788 154.944 157.139  1.00  0.00    -0.000 C 
BRANCH  14  15
ATOM     15  C   UNL     1     154.948 155.232 158.641  1.00  0.00    -0.003 C 
ATOM     16  C   UNL     1     154.624 156.679 159.007  1.00  0.00     0.004 C 
ENDBRANCH  14  15
ENDBRANCH  13  14
ENDBRANCH  12  13
ENDBRANCH  11  12
ENDBRANCH  10  11
ENDBRANCH   1  10
TORSDOF 12
ENDMDL
MODEL 2
REMARK VINA RESULT:    -3.177      2.443      4.407
REMARK INTER + INTRA:          -7.397
REMARK INTER:                  -5.582
REMARK INTRA:                  -1.815
REMARK UNBOUND:                -1.991
REMARK SMILES CCCCCCCCCCCCCC(=O)[O-]
REMARK SMILES IDX 8 1 9 2 10 3 11 4 12 5 13 6 14 7 15 8 16 9 7 10 6 11 5 12
REMARK SMILES IDX 4 13 3 14 2 15 1 16
REMARK H PARENT
REMARK Flexibility Score: inf
ROOT
ATOM      1  C   UNL     1     153.157 151.103 158.028  1.00  0.00     0.000 C 
ENDROOT
BRANCH   1   2
ATOM      2  C   UNL     1     154.537 151.158 157.354  1.00  0.00     0.000 C 
BRANCH   2   3
ATOM      3  C   UNL     1     155.425 152.293 157.896  1.00  0.00     0.000 C 
BRANCH   3   4
ATOM      4  C   UNL     1     154.973 153.720 157.525  1.00  0.00     0.000 C 
BRANCH   4   5
ATOM      5  C   UNL     1     155.080 154.758 158.660  1.00  0.00     0.006 C 
BRANCH   5   6
ATOM      6  C   UNL     1     155.347 156.194 158.182  1.00  0.00     0.053 C 
BRANCH   6   7
ATOM      7  C   UNL     1     156.800 156.548 158.262  1.00  0.00     0.041 C 
ATOM      8  O   UNL     1     157.234 157.583 157.691  1.00  0.00    -0.550 OA
ATOM      9  O   UNL     1     157.681 155.717 158.942  1.00  0.00    -0.550 OA
ENDBRANCH   6   7
ENDBRANCH   5   6
ENDBRANCH   4   5
ENDBRANCH   3   4
ENDBRANCH   2   3
ENDBRANCH   1   2
BRANCH   1  10
ATOM     10  C   UNL     1     153.238 151.201 159.560  1.00  0.00     0.000 C 
BRANCH  10  11
ATOM     11  C   UNL     1     152.454 152.395 160.148  1.00  0.00    -0.000 C 
BRANCH  11  12
ATOM     12  C   UNL     1     151.363 152.899 159.184  1.00  0.00    -0.000 C 
BRANCH  12  13
ATOM     13  C   UNL     1     151.420 154.425 158.985  1.00  0.00    -0.000 C 
BRANCH  13  14
ATOM     14  C   UNL     1     151.009 154.873 157.565  1.00  0.00    -0.000 C 
BRANCH  14  15
ATOM     15  C   UNL     1     151.813 156.077 157.047  1.00  0.00    -0.003 C 
ATOM     16  C   UNL     1     152.475 155.815 155.696  1.00  0.00     0.004 C 
ENDBRANCH  14  15
ENDBRANCH  13  14
ENDBRANCH  12  13
ENDBRANCH  11  12
ENDBRANCH  10  11
ENDBRANCH   1  10
TORSDOF 12
ENDMDL
MODEL 3
REMARK VINA RESULT:    -3.113      1.259      3.427
REMARK INTER + INTRA:          -7.289
REMARK INTER:                  -5.603
REMARK INTRA:                  -1.685
REMARK UNBOUND:                -1.991
REMARK SMILES CCCCCCCCCCCCCC(=O)[O-]
REMARK SMILES IDX 8 1 9 2 10 3 11 4 12 5 13 6 14 7 15 8 16 9 7 10 6 11 5 12
REMARK SMILES IDX 4 13 3 14 2 15 1 16
REMARK H PARENT
REMARK Flexibility Score: inf
ROOT
ATOM      1  C   UNL     1     153.350 150.884 158.168  1.00  0.00     0.000 C 
ENDROOT
BRANCH   1   2
ATOM      2  C   UNL     1     154.839 150.945 157.793  1.00  0.00     0.000 C 
BRANCH   2   3
ATOM      3  C   UNL     1     155.371 152.386 157.677  1.00  0.00     0.000 C 
BRANCH   3   4
ATOM      4  C   UNL     1     154.507 153.341 156.828  1.00  0.00     0.000 C 
BRANCH   4   5
ATOM      5  C   UNL     1     154.975 154.811 156.815  1.00  0.00     0.006 C 
BRANCH   5   6
ATOM      6  C   UNL     1     154.877 155.495 155.442  1.00  0.00     0.053 C 
BRANCH   6   7
ATOM      7  C   UNL     1     153.639 156.329 155.321  1.00  0.00     0.041 C 
ATOM      8  O   UNL     1     153.700 157.579 155.454  1.00  0.00    -0.550 OA
ATOM      9  O   UNL     1     152.411 155.721 155.092  1.00  0.00    -0.550 OA
ENDBRANCH   6   7
ENDBRANCH   5   6
ENDBRANCH   4   5
ENDBRANCH   3   4
ENDBRANCH   2   3
ENDBRANCH   1   2
BRANCH   1  10
ATOM     10  C   UNL     1     153.089 151.262 159.636  1.00  0.00     0.000 C 
BRANCH  10  11
ATOM     11  C   UNL     1     152.139 152.468 159.806  1.00  0.00    -0.000 C 
BRANCH  11  12
ATOM     12  C   UNL     1     151.284 152.711 158.548  1.00  0.00    -0.000 C 
BRANCH  12  13
ATOM     13  C   UNL     1     150.994 154.206 158.320  1.00  0.00    -0.000 C 
BRANCH  13  14
ATOM     14  C   UNL     1     152.117 155.134 158.834  1.00  0.00    -0.000 C 
BRANCH  14  15
ATOM     15  C   UNL     1     151.896 156.614 158.483  1.00  0.00    -0.003 C 
ATOM     16  C   UNL     1     153.013 157.521 158.994  1.00  0.00     0.004 C 
ENDBRANCH  14  15
ENDBRANCH  13  14
ENDBRANCH  12  13
ENDBRANCH  11  12
ENDBRANCH  10  11
ENDBRANCH   1  10
TORSDOF 12
ENDMDL
MODEL 4
REMARK VINA RESULT:    -3.064      1.501      3.002
REMARK INTER + INTRA:          -7.206
REMARK INTER:                  -5.889
REMARK INTRA:                  -1.317
REMARK UNBOUND:                -1.991
REMARK SMILES CCCCCCCCCCCCCC(=O)[O-]
REMARK SMILES IDX 8 1 9 2 10 3 11 4 12 5 13 6 14 7 15 8 16 9 7 10 6 11 5 12
REMARK SMILES IDX 4 13 3 14 2 15 1 16
REMARK H PARENT
REMARK Flexibility Score: inf
ROOT
ATOM      1  C   UNL     1     155.055 151.554 157.683  1.00  0.00     0.000 C 
ENDROOT
BRANCH   1   2
ATOM      2  C   UNL     1     153.673 150.905 157.849  1.00  0.00     0.000 C 
BRANCH   2   3
ATOM      3  C   UNL     1     153.194 150.876 159.312  1.00  0.00     0.000 C 
BRANCH   3   4
ATOM      4  C   UNL     1     152.569 152.189 159.828  1.00  0.00     0.000 C 
BRANCH   4   5
ATOM      5  C   UNL     1     151.676 152.932 158.814  1.00  0.00     0.006 C 
BRANCH   5   6
ATOM      6  C   UNL     1     151.358 154.386 159.197  1.00  0.00     0.053 C 
BRANCH   6   7
ATOM      7  C   UNL     1     150.614 155.100 158.111  1.00  0.00     0.041 C 
ATOM      8  O   UNL     1     149.504 154.662 157.709  1.00  0.00    -0.550 OA
ATOM      9  O   UNL     1     151.161 156.231 157.520  1.00  0.00    -0.550 OA
ENDBRANCH   6   7
ENDBRANCH   5   6
ENDBRANCH   4   5
ENDBRANCH   3   4
ENDBRANCH   2   3
ENDBRANCH   1   2
BRANCH   1  10
ATOM     10  C   UNL     1     154.981 152.972 157.093  1.00  0.00     0.000 C 
BRANCH  10  11
ATOM     11  C   UNL     1     155.266 154.088 158.121  1.00  0.00    -0.000 C 
BRANCH  11  12
ATOM     12  C   UNL     1     154.626 155.428 157.711  1.00  0.00    -0.000 C 
BRANCH  12  13
ATOM     13  C   UNL     1     154.538 156.417 158.888  1.00  0.00    -0.000 C 
BRANCH  13  14
ATOM     14  C   UNL     1     155.523 157.601 158.769  1.00  0.00    -0.000 C 
BRANCH  14  15
ATOM     15  C   UNL     1     156.477 157.727 159.969  1.00  0.00    -0.003 C 
ATOM     16  C   UNL     1     155.997 158.737 161.008  1.00  0.00     0.004 C 
ENDBRANCH  14  15
ENDBRANCH  13  14
ENDBRANCH  12  13
ENDBRANCH  11  12
ENDBRANCH  10  11
ENDBRANCH   1  10
TORSDOF 12
ENDMDL
MODEL 5
REMARK VINA RESULT:    -3.062      1.561      2.249
REMARK INTER + INTRA:          -7.202
REMARK INTER:                  -5.599
REMARK INTRA:                  -1.603
REMARK UNBOUND:                -1.991
REMARK SMILES CCCCCCCCCCCCCC(=O)[O-]
REMARK SMILES IDX 8 1 9 2 10 3 11 4 12 5 13 6 14 7 15 8 16 9 7 10 6 11 5 12
REMARK SMILES IDX 4 13 3 14 2 15 1 16
REMARK H PARENT
REMARK Flexibility Score: inf
ROOT
ATOM      1  C   UNL     1     152.080 152.844 159.753  1.00  0.00     0.000 C 
ENDROOT
BRANCH   1   2
ATOM      2  C   UNL     1     151.153 152.750 158.532  1.00  0.00     0.000 C 
BRANCH   2   3
ATOM      3  C   UNL     1     150.897 154.115 157.867  1.00  0.00     0.000 C 
BRANCH   3   4
ATOM      4  C   UNL     1     150.036 154.074 156.588  1.00  0.00     0.000 C 
BRANCH   4   5
ATOM      5  C   UNL     1     149.912 155.416 155.838  1.00  0.00     0.006 C 
BRANCH   5   6
ATOM      6  C   UNL     1     150.517 155.411 154.425  1.00  0.00     0.053 C 
BRANCH   6   7
ATOM      7  C   UNL     1     151.891 156.006 154.404  1.00  0.00     0.041 C 
ATOM      8  O   UNL     1     152.716 155.667 153.515  1.00  0.00    -0.550 OA
ATOM      9  O   UNL     1     152.272 156.911 155.386  1.00  0.00    -0.550 OA
ENDBRANCH   6   7
ENDBRANCH   5   6
ENDBRANCH   4   5
ENDBRANCH   3   4
ENDBRANCH   2   3
ENDBRANCH   1   2
BRANCH   1  10
ATOM     10  C   UNL     1     153.211 151.802 159.723  1.00  0.00     0.000 C 
BRANCH  10  11
ATOM     11  C   UNL     1     153.230 150.944 158.439  1.00  0.00    -0.000 C 
BRANCH  11  12
ATOM     12  C   UNL     1     154.572 151.056 157.690  1.00  0.00    -0.000 C 
BRANCH  12  13
ATOM     13  C   UNL     1     155.200 152.456 157.823  1.00  0.00    -0.000 C 
BRANCH  13  14
ATOM     14  C   UNL     1     154.652 153.473 156.797  1.00  0.00    -0.000 C 
BRANCH  14  15
ATOM     15  C   UNL     1     154.324 154.844 157.411  1.00  0.00    -0.003 C 
ATOM     16  C   UNL     1     155.149 155.151 158.659  1.00  0.00     0.004 C 
ENDBRANCH  14  15
ENDBRANCH  13  14
ENDBRANCH  12  13
ENDBRANCH  11  12
ENDBRANCH  10  11
ENDBRANCH   1  10
TORSDOF 12
ENDMDL
MODEL 6
REMARK VINA RESULT:    -3.045      1.907      2.263
REMARK INTER + INTRA:          -7.173
REMARK INTER:                  -5.645
REMARK INTRA:                  -1.528
REMARK UNBOUND:                -1.991
REMARK SMILES CCCCCCCCCCCCCC(=O)[O-]
REMARK SMILES IDX 8 1 9 2 10 3 11 4 12 5 13 6 14 7 15 8 16 9 7 10 6 11 5 12
REMARK SMILES IDX 4 13 3 14 2 15 1 16
REMARK H PARENT
REMARK Flexibility Score: inf
ROOT
ATOM      1  C   UNL     1     151.992 152.819 159.624  1.00  0.00     0.000 C 
ENDROOT
BRANCH   1   2
ATOM      2  C   UNL     1     151.055 153.018 158.422  1.00  0.00     0.000 C 
BRANCH   2   3
ATOM      3  C   UNL     1     151.121 154.441 157.838  1.00  0.00     0.000 C 
BRANCH   3   4
ATOM      4  C   UNL     1     152.098 155.401 158.547  1.00  0.00     0.000 C 
BRANCH   4   5
ATOM      5  C   UNL     1     151.583 156.843 158.731  1.00  0.00     0.006 C 
BRANCH   5   6
ATOM      6  C   UNL     1     150.052 156.971 158.746  1.00  0.00     0.053 C 
BRANCH   6   7
ATOM      7  C   UNL     1     149.528 157.256 160.119  1.00  0.00     0.041 C 
ATOM      8  O   UNL     1     150.255 157.838 160.967  1.00  0.00    -0.550 OA
ATOM      9  O   UNL     1     148.249 156.849 160.474  1.00  0.00    -0.550 OA
ENDBRANCH   6   7
ENDBRANCH   5   6
ENDBRANCH   4   5
ENDBRANCH   3   4
ENDBRANCH   2   3
ENDBRANCH   1   2
BRANCH   1  10
ATOM     10  C   UNL     1     152.974 151.652 159.428  1.00  0.00     0.000 C 
BRANCH  10  11
ATOM     11  C   UNL     1     153.363 151.411 157.953  1.00  0.00    -0.000 C 
BRANCH  11  12
ATOM     12  C   UNL     1     154.806 151.861 157.656  1.00  0.00    -0.000 C 
BRANCH  12  13
ATOM     13  C   UNL     1     154.884 153.349 157.266  1.00  0.00    -0.000 C 
BRANCH  13  14
ATOM     14  C   UNL     1     155.472 154.244 158.380  1.00  0.00    -0.000 C 
BRANCH  14  15
ATOM     15  C   UNL     1     155.790 155.674 157.911  1.00  0.00    -0.003 C 
ATOM     16  C   UNL     1     155.495 156.729 158.975  1.00  0.00     0.004 C 
ENDBRANCH  14  15
ENDBRANCH  13  14
ENDBRANCH  12  13
ENDBRANCH  11  12
ENDBRANCH  10  11
ENDBRANCH   1  10
TORSDOF 12
ENDMDL
MODEL 7
REMARK VINA RESULT:    -3.031      2.077      3.720
REMARK INTER + INTRA:          -7.149
REMARK INTER:                  -5.329
REMARK INTRA:                  -1.821
REMARK UNBOUND:                -1.991
REMARK SMILES CCCCCCCCCCCCCC(=O)[O-]
REMARK SMILES IDX 8 1 9 2 10 3 11 4 12 5 13 6 14 7 15 8 16 9 7 10 6 11 5 12
REMARK SMILES IDX 4 13 3 14 2 15 1 16
REMARK H PARENT
REMARK Flexibility Score: inf
ROOT
ATOM      1  C   UNL     1     151.616 154.291 158.642  1.00  0.00     0.000 C 
ENDROOT
BRANCH   1   2
ATOM      2  C   UNL     1     151.186 154.471 157.178  1.00  0.00     0.000 C 
BRANCH   2   3
ATOM      3  C   UNL     1     152.084 155.455 156.406  1.00  0.00     0.000 C 
BRANCH   3   4
ATOM      4  C   UNL     1     153.069 156.268 157.271  1.00  0.00     0.000 C 
BRANCH   4   5
ATOM      5  C   UNL     1     154.312 156.799 156.526  1.00  0.00     0.006 C 
BRANCH   5   6
ATOM      6  C   UNL     1     154.744 155.943 155.325  1.00  0.00     0.053 C 
BRANCH   6   7
ATOM      7  C   UNL     1     154.676 156.710 154.041  1.00  0.00     0.041 C 
ATOM      8  O   UNL     1     155.184 156.235 152.991  1.00  0.00    -0.550 OA
ATOM      9  O   UNL     1     154.080 157.964 154.010  1.00  0.00    -0.550 OA
ENDBRANCH   6   7
ENDBRANCH   5   6
ENDBRANCH   4   5
ENDBRANCH   3   4
ENDBRANCH   2   3
ENDBRANCH   1   2
BRANCH   1  10
ATOM     10  C   UNL     1     151.418 152.853 159.148  1.00  0.00     0.000 C 
BRANCH  10  11
ATOM     11  C   UNL     1     152.524 152.377 160.116  1.00  0.00    -0.000 C 
BRANCH  11  12
ATOM     12  C   UNL     1     153.177 151.064 159.646  1.00  0.00    -0.000 C 
BRANCH  12  13
ATOM     13  C   UNL     1     153.282 150.980 158.112  1.00  0.00    -0.000 C 
BRANCH  13  14
ATOM     14  C   UNL     1     154.680 151.354 157.572  1.00  0.00    -0.000 C 
BRANCH  14  15
ATOM     15  C   UNL     1     154.811 152.837 157.187  1.00  0.00    -0.003 C 
ATOM     16  C   UNL     1     155.466 153.680 158.279  1.00  0.00     0.004 C 
ENDBRANCH  14  15
ENDBRANCH  13  14
ENDBRANCH  12  13
ENDBRANCH  11  12
ENDBRANCH  10  11
ENDBRANCH   1  10
TORSDOF 12
ENDMDL
MODEL 8
REMARK VINA RESULT:    -3.024      2.810      5.170
REMARK INTER + INTRA:          -7.137
REMARK INTER:                  -5.733
REMARK INTRA:                  -1.404
REMARK UNBOUND:                -1.991
REMARK SMILES CCCCCCCCCCCCCC(=O)[O-]
REMARK SMILES IDX 8 1 9 2 10 3 11 4 12 5 13 6 14 7 15 8 16 9 7 10 6 11 5 12
REMARK SMILES IDX 4 13 3 14 2 15 1 16
REMARK H PARENT
REMARK Flexibility Score: inf
ROOT
ATOM      1  C   UNL     1     152.270 155.198 157.467  1.00  0.00     0.000 C 
ENDROOT
BRANCH   1   2
ATOM      2  C   UNL     1     152.428 156.416 158.391  1.00  0.00     0.000 C 
BRANCH   2   3
ATOM      3  C   UNL     1     153.869 156.597 158.903  1.00  0.00     0.000 C 
BRANCH   3   4
ATOM      4  C   UNL     1     154.815 155.405 158.649  1.00  0.00     0.000 C 
BRANCH   4   5
ATOM      5  C   UNL     1     156.317 155.752 158.629  1.00  0.00     0.006 C 
BRANCH   5   6
ATOM      6  C   UNL     1     156.624 157.247 158.813  1.00  0.00     0.053 C 
BRANCH   6   7
ATOM      7  C   UNL     1     157.115 157.551 160.194  1.00  0.00     0.041 C 
ATOM      8  O   UNL     1     157.978 156.812 160.738  1.00  0.00    -0.550 OA
ATOM      9  O   UNL     1     156.596 158.632 160.895  1.00  0.00    -0.550 OA
ENDBRANCH   6   7
ENDBRANCH   5   6
ENDBRANCH   4   5
ENDBRANCH   3   4
ENDBRANCH   2   3
ENDBRANCH   1   2
BRANCH   1  10
ATOM     10  C   UNL     1     150.992 154.394 157.757  1.00  0.00     0.000 C 
BRANCH  10  11
ATOM     11  C   UNL     1     151.263 152.974 158.300  1.00  0.00    -0.000 C 
BRANCH  11  12
ATOM     12  C   UNL     1     151.981 153.005 159.663  1.00  0.00    -0.000 C 
BRANCH  12  13
ATOM     13  C   UNL     1     153.118 151.970 159.748  1.00  0.00    -0.000 C 
BRANCH  13  14
ATOM     14  C   UNL     1     153.111 150.955 158.584  1.00  0.00    -0.000 C 
BRANCH  14  15
ATOM     15  C   UNL     1     154.451 150.875 157.834  1.00  0.00    -0.003 C 
ATOM     16  C   UNL     1     154.910 152.226 157.289  1.00  0.00     0.004 C 
ENDBRANCH  14  15
ENDBRANCH  13  14
ENDBRANCH  12  13
ENDBRANCH  11  12
ENDBRANCH  10  11
ENDBRANCH   1  10
TORSDOF 12
ENDMDL
MODEL 9
REMARK VINA RESULT:    -1.777      1.614      2.044
REMARK INTER + INTRA:          -5.015
REMARK INTER:                  -3.324
REMARK INTRA:                  -1.691
REMARK UNBOUND:                -1.991
REMARK SMILES CCCCCCCCCCCCCC(=O)[O-]
REMARK SMILES IDX 8 1 9 2 10 3 11 4 12 5 13 6 14 7 15 8 16 9 7 10 6 11 5 12
REMARK SMILES IDX 4 13 3 14 2 15 1 16
REMARK H PARENT
REMARK Flexibility Score: inf
ROOT
ATOM      1  C   UNL     1     153.034 151.780 160.018  1.00  0.00     0.000 C 
ENDROOT
BRANCH   1   2
ATOM      2  C   UNL     1     151.971 152.881 159.879  1.00  0.00     0.000 C 
BRANCH   2   3
ATOM      3  C   UNL     1     151.322 152.917 158.484  1.00  0.00     0.000 C 
BRANCH   3   4
ATOM      4  C   UNL     1     150.720 154.276 158.071  1.00  0.00     0.000 C 
BRANCH   4   5
ATOM      5  C   UNL     1     151.078 155.459 158.993  1.00  0.00     0.006 C 
BRANCH   5   6
ATOM      6  C   UNL     1     151.479 156.743 158.250  1.00  0.00     0.053 C 
BRANCH   6   7
ATOM      7  C   UNL     1     152.191 157.708 159.146  1.00  0.00     0.041 C 
ATOM      8  O   UNL     1     151.574 158.684 159.647  1.00  0.00    -0.550 OA
ATOM      9  O   UNL     1     153.547 157.547 159.404  1.00  0.00    -0.550 OA
ENDBRANCH   6   7
ENDBRANCH   5   6
ENDBRANCH   4   5
ENDBRANCH   3   4
ENDBRANCH   2   3
ENDBRANCH   1   2
BRANCH   1  10
ATOM     10  C   UNL     1     153.121 150.876 158.777  1.00  0.00     0.000 C 
BRANCH  10  11
ATOM     11  C   UNL     1     154.512 150.875 158.107  1.00  0.00    -0.000 C 
BRANCH  11  12
ATOM     12  C   UNL     1     154.755 152.151 157.279  1.00  0.00    -0.000 C 
BRANCH  12  13
ATOM     13  C   UNL     1     155.366 153.286 158.121  1.00  0.00    -0.000 C 
BRANCH  13  14
ATOM     14  C   UNL     1     154.675 154.651 157.904  1.00  0.00    -0.000 C 
BRANCH  14  15
ATOM     15  C   UNL     1     154.084 154.820 156.494  1.00  0.00    -0.003 C 
ATOM     16  C   UNL     1     154.978 155.643 155.569  1.00  0.00     0.004 C 
ENDBRANCH  14  15
ENDBRANCH  13  14
ENDBRANCH  12  13
ENDBRANCH  11  12
ENDBRANCH  10  11
ENDBRANCH   1  10
TORSDOF 12
ENDMDL
