MODEL 1
REMARK VINA RESULT:     2.978      0.000      0.000
REMARK INTER + INTRA:           4.377
REMARK INTER:                   5.241
REMARK INTRA:                  -0.864
REMARK UNBOUND:                -0.864
REMARK SMILES CCCCCCC=CCCCCCCCC(=O)[O-]
REMARK SMILES IDX 10 1 11 2 12 3 13 4 14 5 15 6 16 7 17 8 18 9 9 10 8 11 7 12
REMARK SMILES IDX 6 13 5 14 4 15 3 16 2 17 1 18
REMARK H PARENT
REMARK Flexibility Score: inf
ROOT
ATOM      1  C   UNL     1      11.772  20.693  31.256  1.00  0.00     0.004 C 
ENDROOT
BRANCH   1   2
ATOM      2  C   UNL     1      10.627  21.007  30.278  1.00  0.00     0.000 C 
BRANCH   2   3
ATOM      3  C   UNL     1       9.913  19.741  29.777  1.00  0.00     0.000 C 
BRANCH   3   4
ATOM      4  C   UNL     1       9.103  19.987  28.496  1.00  0.00     0.000 C 
BRANCH   4   5
ATOM      5  C   UNL     1       8.156  21.185  28.667  1.00  0.00     0.006 C 
BRANCH   5   6
ATOM      6  C   UNL     1       6.702  20.831  28.330  1.00  0.00     0.053 C 
BRANCH   6   7
ATOM      7  C   UNL     1       5.838  20.807  29.553  1.00  0.00     0.041 C 
ATOM      8  O   UNL     1       5.859  21.771  30.363  1.00  0.00    -0.550 OA
ATOM      9  O   UNL     1       5.035  19.704  29.817  1.00  0.00    -0.550 OA
ENDBRANCH   6   7
ENDBRANCH   5   6
ENDBRANCH   4   5
ENDBRANCH   3   4
ENDBRANCH   2   3
ENDBRANCH   1   2
BRANCH   1  10
ATOM     10  C   UNL     1      11.938  19.184  31.480  1.00  0.00     0.027 C 
BRANCH  10  11
ATOM     11  C   UNL     1      13.175  18.885  32.295  1.00  0.00    -0.031 C 
ATOM     12  C   UNL     1      13.202  18.717  33.630  1.00  0.00    -0.031 C 
BRANCH  12  13
ATOM     13  C   UNL     1      12.012  18.863  34.547  1.00  0.00     0.027 C 
BRANCH  13  14
ATOM     14  C   UNL     1      12.047  20.177  35.350  1.00  0.00     0.004 C 
BRANCH  14  15
ATOM     15  C   UNL     1      12.445  21.414  34.523  1.00  0.00     0.000 C 
BRANCH  15  16
ATOM     16  C   UNL     1      11.943  22.731  35.142  1.00  0.00    -0.000 C 
BRANCH  16  17
ATOM     17  C   UNL     1      11.169  22.507  36.450  1.00  0.00    -0.003 C 
ATOM     18  C   UNL     1      10.963  23.796  37.246  1.00  0.00     0.004 C 
ENDBRANCH  16  17
ENDBRANCH  15  16
ENDBRANCH  14  15
ENDBRANCH  13  14
ENDBRANCH  12  13
ENDBRANCH  10  11
ENDBRANCH   1  10
TORSDOF 13
ENDMDL
MODEL 2
REMARK VINA RESULT:     3.022      4.524      7.511
REMARK INTER + INTRA:           4.454
REMARK INTER:                   5.227
REMARK INTRA:                  -0.772
REMARK UNBOUND:                -0.864
REMARK SMILES CCCCCCC=CCCCCCCCC(=O)[O-]
REMARK SMILES IDX 10 1 11 2 12 3 13 4 14 5 15 6 16 7 17 8 18 9 9 10 8 11 7 12
REMARK SMILES IDX 6 13 5 14 4 15 3 16 2 17 1 18
REMARK H PARENT
REMARK Flexibility Score: inf
ROOT
ATOM      1  C   UNL     1      12.496  19.466  35.012  1.00  0.00     0.004 C 
ENDROOT
BRANCH   1   2
ATOM      2  C   UNL     1      11.843  18.634  33.895  1.00  0.00     0.000 C 
BRANCH   2   3
ATOM      3  C   UNL     1      12.846  18.211  32.810  1.00  0.00     0.000 C 
BRANCH   3   4
ATOM      4  C   UNL     1      13.588  19.405  32.193  1.00  0.00     0.000 C 
BRANCH   4   5
ATOM      5  C   UNL     1      14.996  19.545  32.791  1.00  0.00     0.006 C 
BRANCH   5   6
ATOM      6  C   UNL     1      16.085  19.594  31.712  1.00  0.00     0.053 C 
BRANCH   6   7
ATOM      7  C   UNL     1      17.459  19.621  32.308  1.00  0.00     0.041 C 
ATOM      8  O   UNL     1      17.728  20.420  33.243  1.00  0.00    -0.550 OA
ATOM      9  O   UNL     1      18.452  18.787  31.808  1.00  0.00    -0.550 OA
ENDBRANCH   6   7
ENDBRANCH   5   6
ENDBRANCH   4   5
ENDBRANCH   3   4
ENDBRANCH   2   3
ENDBRANCH   1   2
BRANCH   1  10
ATOM     10  C   UNL     1      11.583  20.602  35.492  1.00  0.00     0.027 C 
BRANCH  10  11
ATOM     11  C   UNL     1      12.166  21.953  35.152  1.00  0.00    -0.031 C 
ATOM     12  C   UNL     1      12.214  22.490  33.919  1.00  0.00    -0.031 C 
BRANCH  12  13
ATOM     13  C   UNL     1      11.753  21.805  32.656  1.00  0.00     0.027 C 
BRANCH  13  14
ATOM     14  C   UNL     1      11.127  22.787  31.649  1.00  0.00     0.004 C 
BRANCH  14  15
ATOM     15  C   UNL     1      10.359  22.112  30.498  1.00  0.00     0.000 C 
BRANCH  15  16
ATOM     16  C   UNL     1      10.784  20.649  30.276  1.00  0.00    -0.000 C 
BRANCH  16  17
ATOM     17  C   UNL     1       9.790  19.875  29.398  1.00  0.00    -0.003 C 
ATOM     18  C   UNL     1       8.554  20.698  29.032  1.00  0.00     0.004 C 
ENDBRANCH  16  17
ENDBRANCH  15  16
ENDBRANCH  14  15
ENDBRANCH  13  14
ENDBRANCH  12  13
ENDBRANCH  10  11
ENDBRANCH   1  10
TORSDOF 13
ENDMDL
MODEL 3
REMARK VINA RESULT:     3.158      2.971      7.742
REMARK INTER + INTRA:           4.694
REMARK INTER:                   5.194
REMARK INTRA:                  -0.500
REMARK UNBOUND:                -0.864
REMARK SMILES CCCCCCC=CCCCCCCCC(=O)[O-]
REMARK SMILES IDX 10 1 11 2 12 3 13 4 14 5 15 6 16 7 17 8 18 9 9 10 8 11 7 12
REMARK SMILES IDX 6 13 5 14 4 15 3 16 2 17 1 18
REMARK H PARENT
REMARK Flexibility Score: inf
ROOT
ATOM      1  C   UNL     1      12.163  20.394  31.570  1.00  0.00     0.004 C 
ENDROOT
BRANCH   1   2
ATOM      2  C   UNL     1      12.243  18.858  31.531  1.00  0.00     0.000 C 
BRANCH   2   3
ATOM      3  C   UNL     1      12.911  18.269  32.783  1.00  0.00     0.000 C 
BRANCH   3   4
ATOM      4  C   UNL     1      13.187  19.329  33.859  1.00  0.00     0.000 C 
BRANCH   4   5
ATOM      5  C   UNL     1      11.943  19.561  34.731  1.00  0.00     0.006 C 
BRANCH   5   6
ATOM      6  C   UNL     1      12.207  20.560  35.866  1.00  0.00     0.053 C 
BRANCH   6   7
ATOM      7  C   UNL     1      11.861  21.962  35.465  1.00  0.00     0.041 C 
ATOM      8  O   UNL     1      11.343  22.750  36.299  1.00  0.00    -0.550 OA
ATOM      9  O   UNL     1      12.079  22.386  34.160  1.00  0.00    -0.550 OA
ENDBRANCH   6   7
ENDBRANCH   5   6
ENDBRANCH   4   5
ENDBRANCH   3   4
ENDBRANCH   2   3
ENDBRANCH   1   2
BRANCH   1  10
ATOM     10  C   UNL     1      11.073  20.937  30.636  1.00  0.00     0.027 C 
BRANCH  10  11
ATOM     11  C   UNL     1      10.492  19.839  29.776  1.00  0.00    -0.031 C 
ATOM     12  C   UNL     1       9.358  19.934  29.058  1.00  0.00    -0.031 C 
BRANCH  12  13
ATOM     13  C   UNL     1       8.439  21.131  29.043  1.00  0.00     0.027 C 
BRANCH  13  14
ATOM     14  C   UNL     1       6.957  20.733  28.908  1.00  0.00     0.004 C 
BRANCH  14  15
ATOM     15  C   UNL     1       6.330  21.079  27.544  1.00  0.00     0.000 C 
BRANCH  15  16
ATOM     16  C   UNL     1       7.277  21.890  26.642  1.00  0.00    -0.000 C 
BRANCH  16  17
ATOM     17  C   UNL     1       6.536  22.600  25.499  1.00  0.00    -0.003 C 
ATOM     18  C   UNL     1       6.469  24.116  25.686  1.00  0.00     0.004 C 
ENDBRANCH  16  17
ENDBRANCH  15  16
ENDBRANCH  14  15
ENDBRANCH  13  14
ENDBRANCH  12  13
ENDBRANCH  10  11
ENDBRANCH   1  10
TORSDOF 13
ENDMDL
MODEL 4
REMARK VINA RESULT:     3.169      2.846      6.985
REMARK INTER + INTRA:           4.714
REMARK INTER:                   4.754
REMARK INTRA:                  -0.040
REMARK UNBOUND:                -0.864
REMARK SMILES CCCCCCC=CCCCCCCCC(=O)[O-]
REMARK SMILES IDX 10 1 11 2 12 3 13 4 14 5 15 6 16 7 17 8 18 9 9 10 8 11 7 12
REMARK SMILES IDX 6 13 5 14 4 15 3 16 2 17 1 18
REMARK H PARENT
REMARK Flexibility Score: inf
ROOT
ATOM      1  C   UNL     1      11.731  19.229  31.123  1.00  0.00     0.004 C 
ENDROOT
BRANCH   1   2
ATOM      2  C   UNL     1      12.472  18.279  32.080  1.00  0.00     0.000 C 
BRANCH   2   3
ATOM      3  C   UNL     1      13.518  19.004  32.941  1.00  0.00     0.000 C 
BRANCH   3   4
ATOM      4  C   UNL     1      13.198  18.935  34.442  1.00  0.00     0.000 C 
BRANCH   4   5
ATOM      5  C   UNL     1      11.880  19.660  34.756  1.00  0.00     0.006 C 
BRANCH   5   6
ATOM      6  C   UNL     1      12.030  20.666  35.904  1.00  0.00     0.053 C 
BRANCH   6   7
ATOM      7  C   UNL     1      11.834  22.076  35.437  1.00  0.00     0.041 C 
ATOM      8  O   UNL     1      11.353  22.941  36.216  1.00  0.00    -0.550 OA
ATOM      9  O   UNL     1      12.149  22.427  34.130  1.00  0.00    -0.550 OA
ENDBRANCH   6   7
ENDBRANCH   5   6
ENDBRANCH   4   5
ENDBRANCH   3   4
ENDBRANCH   2   3
ENDBRANCH   1   2
BRANCH   1  10
ATOM     10  C   UNL     1      12.138  20.692  31.338  1.00  0.00     0.027 C 
BRANCH  10  11
ATOM     11  C   UNL     1      11.050  21.636  30.880  1.00  0.00    -0.031 C 
ATOM     12  C   UNL     1       9.998  21.294  30.114  1.00  0.00    -0.031 C 
BRANCH  12  13
ATOM     13  C   UNL     1       9.762  19.923  29.528  1.00  0.00     0.027 C 
BRANCH  13  14
ATOM     14  C   UNL     1       8.954  19.976  28.217  1.00  0.00     0.004 C 
BRANCH  14  15
ATOM     15  C   UNL     1       8.000  21.181  28.109  1.00  0.00     0.000 C 
BRANCH  15  16
ATOM     16  C   UNL     1       6.527  20.795  28.332  1.00  0.00    -0.000 C 
BRANCH  16  17
ATOM     17  C   UNL     1       6.209  20.520  29.810  1.00  0.00    -0.003 C 
ATOM     18  C   UNL     1       5.441  21.662  30.475  1.00  0.00     0.004 C 
ENDBRANCH  16  17
ENDBRANCH  15  16
ENDBRANCH  14  15
ENDBRANCH  13  14
ENDBRANCH  12  13
ENDBRANCH  10  11
ENDBRANCH   1  10
TORSDOF 13
ENDMDL
MODEL 5
REMARK VINA RESULT:     3.206      4.454      7.734
REMARK INTER + INTRA:           4.779
REMARK INTER:                   5.278
REMARK INTRA:                  -0.499
REMARK UNBOUND:                -0.864
REMARK SMILES CCCCCCC=CCCCCCCCC(=O)[O-]
REMARK SMILES IDX 10 1 11 2 12 3 13 4 14 5 15 6 16 7 17 8 18 9 9 10 8 11 7 12
REMARK SMILES IDX 6 13 5 14 4 15 3 16 2 17 1 18
REMARK H PARENT
REMARK Flexibility Score: inf
ROOT
ATOM      1  C   UNL     1      11.766  20.459  34.745  1.00  0.00     0.004 C 
ENDROOT
BRANCH   1   2
ATOM      2  C   UNL     1      12.661  19.208  34.734  1.00  0.00     0.000 C 
BRANCH   2   3
ATOM      3  C   UNL     1      12.606  18.454  33.396  1.00  0.00     0.000 C 
BRANCH   3   4
ATOM      4  C   UNL     1      13.548  19.053  32.341  1.00  0.00     0.000 C 
BRANCH   4   5
ATOM      5  C   UNL     1      14.970  19.207  32.900  1.00  0.00     0.006 C 
BRANCH   5   6
ATOM      6  C   UNL     1      15.975  19.640  31.824  1.00  0.00     0.053 C 
BRANCH   6   7
ATOM      7  C   UNL     1      17.371  19.710  32.362  1.00  0.00     0.041 C 
ATOM      8  O   UNL     1      17.657  20.525  33.278  1.00  0.00    -0.550 OA
ATOM      9  O   UNL     1      18.365  18.899  31.828  1.00  0.00    -0.550 OA
ENDBRANCH   6   7
ENDBRANCH   5   6
ENDBRANCH   4   5
ENDBRANCH   3   4
ENDBRANCH   2   3
ENDBRANCH   1   2
BRANCH   1  10
ATOM     10  C   UNL     1      12.570  21.743  34.497  1.00  0.00     0.027 C 
BRANCH  10  11
ATOM     11  C   UNL     1      11.811  22.701  33.609  1.00  0.00    -0.031 C 
ATOM     12  C   UNL     1      11.433  22.451  32.341  1.00  0.00    -0.031 C 
BRANCH  12  13
ATOM     13  C   UNL     1      11.761  21.195  31.571  1.00  0.00     0.027 C 
BRANCH  13  14
ATOM     14  C   UNL     1      10.941  21.071  30.273  1.00  0.00     0.004 C 
BRANCH  14  15
ATOM     15  C   UNL     1      10.449  19.643  29.968  1.00  0.00     0.000 C 
BRANCH  15  16
ATOM     16  C   UNL     1       9.288  19.617  28.959  1.00  0.00    -0.000 C 
BRANCH  16  17
ATOM     17  C   UNL     1       8.535  20.955  28.894  1.00  0.00    -0.003 C 
ATOM     18  C   UNL     1       7.017  20.784  28.930  1.00  0.00     0.004 C 
ENDBRANCH  16  17
ENDBRANCH  15  16
ENDBRANCH  14  15
ENDBRANCH  13  14
ENDBRANCH  12  13
ENDBRANCH  10  11
ENDBRANCH   1  10
TORSDOF 13
ENDMDL
MODEL 6
REMARK VINA RESULT:     3.371      2.987      6.986
REMARK INTER + INTRA:           5.070
REMARK INTER:                   5.813
REMARK INTRA:                  -0.743
REMARK UNBOUND:                -0.864
REMARK SMILES CCCCCCC=CCCCCCCCC(=O)[O-]
REMARK SMILES IDX 10 1 11 2 12 3 13 4 14 5 15 6 16 7 17 8 18 9 9 10 8 11 7 12
REMARK SMILES IDX 6 13 5 14 4 15 3 16 2 17 1 18
REMARK H PARENT
REMARK Flexibility Score: inf
ROOT
ATOM      1  C   UNL     1      11.298  22.960  32.298  1.00  0.00     0.004 C 
ENDROOT
BRANCH   1   2
ATOM      2  C   UNL     1      12.133  21.974  33.133  1.00  0.00     0.000 C 
BRANCH   2   3
ATOM      3  C   UNL     1      12.092  22.289  34.637  1.00  0.00     0.000 C 
BRANCH   3   4
ATOM      4  C   UNL     1      11.594  21.104  35.476  1.00  0.00     0.000 C 
BRANCH   4   5
ATOM      5  C   UNL     1      12.499  19.877  35.284  1.00  0.00     0.006 C 
BRANCH   5   6
ATOM      6  C   UNL     1      11.932  18.891  34.254  1.00  0.00     0.053 C 
BRANCH   6   7
ATOM      7  C   UNL     1      12.858  18.708  33.091  1.00  0.00     0.041 C 
ATOM      8  O   UNL     1      12.528  17.965  32.129  1.00  0.00    -0.550 OA
ATOM      9  O   UNL     1      14.100  19.330  33.084  1.00  0.00    -0.550 OA
ENDBRANCH   6   7
ENDBRANCH   5   6
ENDBRANCH   4   5
ENDBRANCH   3   4
ENDBRANCH   2   3
ENDBRANCH   1   2
BRANCH   1  10
ATOM     10  C   UNL     1      10.747  22.310  31.022  1.00  0.00     0.027 C 
BRANCH  10  11
ATOM     11  C   UNL     1      11.538  21.078  30.649  1.00  0.00    -0.031 C 
ATOM     12  C   UNL     1      11.016  19.944  30.148  1.00  0.00    -0.031 C 
BRANCH  12  13
ATOM     13  C   UNL     1       9.545  19.687  29.934  1.00  0.00     0.027 C 
BRANCH  13  14
ATOM     14  C   UNL     1       9.077  20.090  28.524  1.00  0.00     0.004 C 
BRANCH  14  15
ATOM     15  C   UNL     1       8.048  21.237  28.501  1.00  0.00     0.000 C 
BRANCH  15  16
ATOM     16  C   UNL     1       6.606  20.738  28.299  1.00  0.00    -0.000 C 
BRANCH  16  17
ATOM     17  C   UNL     1       5.918  20.378  29.624  1.00  0.00    -0.003 C 
ATOM     18  C   UNL     1       5.519  21.608  30.440  1.00  0.00     0.004 C 
ENDBRANCH  16  17
ENDBRANCH  15  16
ENDBRANCH  14  15
ENDBRANCH  13  14
ENDBRANCH  12  13
ENDBRANCH  10  11
ENDBRANCH   1  10
TORSDOF 13
ENDMDL
MODEL 7
REMARK VINA RESULT:     3.577      2.116      4.293
REMARK INTER + INTRA:           5.431
REMARK INTER:                   6.198
REMARK INTRA:                  -0.767
REMARK UNBOUND:                -0.864
REMARK SMILES CCCCCCC=CCCCCCCCC(=O)[O-]
REMARK SMILES IDX 10 1 11 2 12 3 13 4 14 5 15 6 16 7 17 8 18 9 9 10 8 11 7 12
REMARK SMILES IDX 6 13 5 14 4 15 3 16 2 17 1 18
REMARK H PARENT
REMARK Flexibility Score: inf
ROOT
ATOM      1  C   UNL     1      12.449  22.170  34.038  1.00  0.00     0.004 C 
ENDROOT
BRANCH   1   2
ATOM      2  C   UNL     1      11.610  22.557  32.809  1.00  0.00     0.000 C 
BRANCH   2   3
ATOM      3  C   UNL     1      11.730  21.537  31.666  1.00  0.00     0.000 C 
BRANCH   3   4
ATOM      4  C   UNL     1      10.622  21.694  30.614  1.00  0.00     0.000 C 
BRANCH   4   5
ATOM      5  C   UNL     1      10.568  20.470  29.687  1.00  0.00     0.006 C 
BRANCH   5   6
ATOM      6  C   UNL     1       9.161  19.865  29.605  1.00  0.00     0.053 C 
BRANCH   6   7
ATOM      7  C   UNL     1       8.239  20.710  28.780  1.00  0.00     0.041 C 
ATOM      8  O   UNL     1       8.671  21.307  27.759  1.00  0.00    -0.550 OA
ATOM      9  O   UNL     1       6.912  20.866  29.159  1.00  0.00    -0.550 OA
ENDBRANCH   6   7
ENDBRANCH   5   6
ENDBRANCH   4   5
ENDBRANCH   3   4
ENDBRANCH   2   3
ENDBRANCH   1   2
BRANCH   1  10
ATOM     10  C   UNL     1      11.606  21.474  35.114  1.00  0.00     0.027 C 
BRANCH  10  11
ATOM     11  C   UNL     1      12.294  20.232  35.631  1.00  0.00    -0.031 C 
ATOM     12  C   UNL     1      12.531  19.119  34.911  1.00  0.00    -0.031 C 
BRANCH  12  13
ATOM     13  C   UNL     1      12.090  18.900  33.485  1.00  0.00     0.027 C 
BRANCH  13  14
ATOM     14  C   UNL     1      13.279  18.809  32.510  1.00  0.00     0.004 C 
BRANCH  14  15
ATOM     15  C   UNL     1      14.573  19.467  33.025  1.00  0.00     0.000 C 
BRANCH  15  16
ATOM     16  C   UNL     1      15.672  19.541  31.950  1.00  0.00    -0.000 C 
BRANCH  16  17
ATOM     17  C   UNL     1      17.031  19.964  32.528  1.00  0.00    -0.003 C 
ATOM     18  C   UNL     1      18.171  19.037  32.106  1.00  0.00     0.004 C 
ENDBRANCH  16  17
ENDBRANCH  15  16
ENDBRANCH  14  15
ENDBRANCH  13  14
ENDBRANCH  12  13
ENDBRANCH  10  11
ENDBRANCH   1  10
TORSDOF 13
ENDMDL
MODEL 8
REMARK VINA RESULT:     3.762      1.273      3.413
REMARK INTER + INTRA:           5.757
REMARK INTER:                   6.020
REMARK INTRA:                  -0.263
REMARK UNBOUND:                -0.864
REMARK SMILES CCCCCCC=CCCCCCCCC(=O)[O-]
REMARK SMILES IDX 10 1 11 2 12 3 13 4 14 5 15 6 16 7 17 8 18 9 9 10 8 11 7 12
REMARK SMILES IDX 6 13 5 14 4 15 3 16 2 17 1 18
REMARK H PARENT
REMARK Flexibility Score: inf
ROOT
ATOM      1  C   UNL     1      11.036  22.848  31.664  1.00  0.00     0.004 C 
ENDROOT
BRANCH   1   2
ATOM      2  C   UNL     1      10.659  22.081  30.385  1.00  0.00     0.000 C 
BRANCH   2   3
ATOM      3  C   UNL     1      11.231  20.654  30.362  1.00  0.00     0.000 C 
BRANCH   3   4
ATOM      4  C   UNL     1      10.199  19.611  29.908  1.00  0.00     0.000 C 
BRANCH   4   5
ATOM      5  C   UNL     1       9.261  20.197  28.840  1.00  0.00     0.006 C 
BRANCH   5   6
ATOM      6  C   UNL     1       8.145  21.053  29.452  1.00  0.00     0.053 C 
BRANCH   6   7
ATOM      7  C   UNL     1       6.827  20.810  28.782  1.00  0.00     0.041 C 
ATOM      8  O   UNL     1       6.718  20.936  27.535  1.00  0.00    -0.550 OA
ATOM      9  O   UNL     1       5.712  20.479  29.541  1.00  0.00    -0.550 OA
ENDBRANCH   6   7
ENDBRANCH   5   6
ENDBRANCH   4   5
ENDBRANCH   3   4
ENDBRANCH   2   3
ENDBRANCH   1   2
BRANCH   1  10
ATOM     10  C   UNL     1      11.693  21.937  32.708  1.00  0.00     0.027 C 
BRANCH  10  11
ATOM     11  C   UNL     1      12.286  22.742  33.841  1.00  0.00    -0.031 C 
ATOM     12  C   UNL     1      12.169  22.445  35.149  1.00  0.00    -0.031 C 
BRANCH  12  13
ATOM     13  C   UNL     1      11.369  21.294  35.708  1.00  0.00     0.027 C 
BRANCH  13  14
ATOM     14  C   UNL     1      12.181  19.986  35.759  1.00  0.00     0.004 C 
BRANCH  14  15
ATOM     15  C   UNL     1      12.155  19.172  34.451  1.00  0.00     0.000 C 
BRANCH  15  16
ATOM     16  C   UNL     1      13.482  19.250  33.675  1.00  0.00    -0.000 C 
BRANCH  16  17
ATOM     17  C   UNL     1      13.322  18.861  32.197  1.00  0.00    -0.003 C 
ATOM     18  C   UNL     1      12.560  17.549  32.008  1.00  0.00     0.004 C 
ENDBRANCH  16  17
ENDBRANCH  15  16
ENDBRANCH  14  15
ENDBRANCH  13  14
ENDBRANCH  12  13
ENDBRANCH  10  11
ENDBRANCH   1  10
TORSDOF 13
ENDMDL
MODEL 9
REMARK VINA RESULT:     4.271      1.366      2.639
REMARK INTER + INTRA:           6.654
REMARK INTER:                   7.826
REMARK INTRA:                  -1.172
REMARK UNBOUND:                -0.864
REMARK SMILES CCCCCCC=CCCCCCCCC(=O)[O-]
REMARK SMILES IDX 10 1 11 2 12 3 13 4 14 5 15 6 16 7 17 8 18 9 9 10 8 11 7 12
REMARK SMILES IDX 6 13 5 14 4 15 3 16 2 17 1 18
REMARK H PARENT
REMARK Flexibility Score: inf
ROOT
ATOM      1  C   UNL     1      13.173  19.231  31.891  1.00  0.00     0.004 C 
ENDROOT
BRANCH   1   2
ATOM      2  C   UNL     1      11.783  18.770  31.419  1.00  0.00     0.000 C 
BRANCH   2   3
ATOM      3  C   UNL     1      11.104  19.791  30.493  1.00  0.00     0.000 C 
BRANCH   3   4
ATOM      4  C   UNL     1       9.891  19.205  29.756  1.00  0.00     0.000 C 
BRANCH   4   5
ATOM      5  C   UNL     1       9.297  20.230  28.777  1.00  0.00     0.006 C 
BRANCH   5   6
ATOM      6  C   UNL     1       8.216  21.100  29.431  1.00  0.00     0.053 C 
BRANCH   6   7
ATOM      7  C   UNL     1       6.866  20.856  28.828  1.00  0.00     0.041 C 
ATOM      8  O   UNL     1       6.706  20.928  27.582  1.00  0.00    -0.550 OA
ATOM      9  O   UNL     1       5.777  20.584  29.647  1.00  0.00    -0.550 OA
ENDBRANCH   6   7
ENDBRANCH   5   6
ENDBRANCH   4   5
ENDBRANCH   3   4
ENDBRANCH   2   3
ENDBRANCH   1   2
BRANCH   1  10
ATOM     10  C   UNL     1      13.412  18.914  33.373  1.00  0.00     0.027 C 
BRANCH  10  11
ATOM     11  C   UNL     1      12.113  18.611  34.084  1.00  0.00    -0.031 C 
ATOM     12  C   UNL     1      11.634  19.287  35.145  1.00  0.00    -0.031 C 
BRANCH  12  13
ATOM     13  C   UNL     1      12.344  20.421  35.843  1.00  0.00     0.027 C 
BRANCH  13  14
ATOM     14  C   UNL     1      11.739  21.794  35.499  1.00  0.00     0.004 C 
BRANCH  14  15
ATOM     15  C   UNL     1      12.395  22.492  34.293  1.00  0.00     0.000 C 
BRANCH  15  16
ATOM     16  C   UNL     1      11.719  22.132  32.958  1.00  0.00    -0.000 C 
BRANCH  16  17
ATOM     17  C   UNL     1      11.351  23.374  32.132  1.00  0.00    -0.003 C 
ATOM     18  C   UNL     1      10.736  23.025  30.776  1.00  0.00     0.004 C 
ENDBRANCH  16  17
ENDBRANCH  15  16
ENDBRANCH  14  15
ENDBRANCH  13  14
ENDBRANCH  12  13
ENDBRANCH  10  11
ENDBRANCH   1  10
TORSDOF 13
ENDMDL
