MODEL 1
REMARK VINA RESULT:    -4.797      0.000      0.000
REMARK INTER + INTRA:          -8.839
REMARK INTER:                  -8.303
REMARK INTRA:                  -0.536
REMARK UNBOUND:                -0.536
REMARK SMILES CCCCCCCCCCCCCCO
REMARK SMILES IDX 8 1 7 2 6 3 5 4 4 5 3 6 2 7 1 8 9 9 10 10 11 11 12 12 13 13
REMARK SMILES IDX 14 14 15 15
REMARK H PARENT 15 16
REMARK Flexibility Score: inf
ROOT
ATOM      1  C   UNL     1       5.518  23.633  20.178  1.00  0.00     0.000 C 
ENDROOT
BRANCH   1   2
ATOM      2  C   UNL     1       6.824  24.428  20.009  1.00  0.00    -0.000 C 
BRANCH   2   3
ATOM      3  C   UNL     1       7.789  24.237  21.192  1.00  0.00    -0.000 C 
BRANCH   3   4
ATOM      4  C   UNL     1       7.940  25.511  22.043  1.00  0.00    -0.000 C 
BRANCH   4   5
ATOM      5  C   UNL     1       7.567  26.785  21.268  1.00  0.00    -0.000 C 
BRANCH   5   6
ATOM      6  C   UNL     1       7.279  27.978  22.192  1.00  0.00    -0.000 C 
BRANCH   6   7
ATOM      7  C   UNL     1       7.400  29.304  21.429  1.00  0.00    -0.003 C 
ATOM      8  C   UNL     1       7.130  29.111  19.940  1.00  0.00     0.004 C 
ENDBRANCH   6   7
ENDBRANCH   5   6
ENDBRANCH   4   5
ENDBRANCH   3   4
ENDBRANCH   2   3
ENDBRANCH   1   2
BRANCH   1   9
ATOM      9  C   UNL     1       5.726  22.316  20.944  1.00  0.00     0.000 C 
BRANCH   9  10
ATOM     10  C   UNL     1       4.399  21.661  21.369  1.00  0.00     0.000 C 
BRANCH  10  11
ATOM     11  C   UNL     1       4.237  20.236  20.816  1.00  0.00     0.000 C 
BRANCH  11  12
ATOM     12  C   UNL     1       2.831  19.663  21.066  1.00  0.00     0.002 C 
BRANCH  12  13
ATOM     13  C   UNL     1       2.324  18.803  19.895  1.00  0.00     0.028 C 
BRANCH  13  14
ATOM     14  C   UNL     1       3.178  17.559  19.618  1.00  0.00     0.156 C 
BRANCH  14  15
ATOM     15  O   UNL     1       3.105  17.193  18.266  1.00  0.00    -0.396 OA
ATOM     16  H   UNL     1       2.349  16.553  18.183  1.00  0.00     0.210 HD
ENDBRANCH  14  15
ENDBRANCH  13  14
ENDBRANCH  12  13
ENDBRANCH  11  12
ENDBRANCH  10  11
ENDBRANCH   9  10
ENDBRANCH   1   9
TORSDOF 13
ENDMDL
MODEL 2
REMARK VINA RESULT:    -4.768      3.304      8.727
REMARK INTER + INTRA:          -8.789
REMARK INTER:                  -7.770
REMARK INTRA:                  -1.019
REMARK UNBOUND:                -0.536
REMARK SMILES CCCCCCCCCCCCCCO
REMARK SMILES IDX 8 1 7 2 6 3 5 4 4 5 3 6 2 7 1 8 9 9 10 10 11 11 12 12 13 13
REMARK SMILES IDX 14 14 15 15
REMARK H PARENT 15 16
REMARK Flexibility Score: inf
ROOT
ATOM      1  C   UNL     1       2.582  20.924  21.653  1.00  0.00     0.000 C 
ENDROOT
BRANCH   1   2
ATOM      2  C   UNL     1       1.996  19.545  21.302  1.00  0.00    -0.000 C 
BRANCH   2   3
ATOM      3  C   UNL     1       2.652  18.925  20.056  1.00  0.00    -0.000 C 
BRANCH   3   4
ATOM      4  C   UNL     1       3.552  17.724  20.399  1.00  0.00    -0.000 C 
BRANCH   4   5
ATOM      5  C   UNL     1       3.415  17.283  21.866  1.00  0.00    -0.000 C 
BRANCH   5   6
ATOM      6  C   UNL     1       3.515  15.761  22.040  1.00  0.00    -0.000 C 
BRANCH   6   7
ATOM      7  C   UNL     1       4.756  15.208  21.329  1.00  0.00    -0.003 C 
ATOM      8  C   UNL     1       4.471  13.851  20.693  1.00  0.00     0.004 C 
ENDBRANCH   6   7
ENDBRANCH   5   6
ENDBRANCH   4   5
ENDBRANCH   3   4
ENDBRANCH   2   3
ENDBRANCH   1   2
BRANCH   1   9
ATOM      9  C   UNL     1       3.483  20.880  22.898  1.00  0.00     0.000 C 
BRANCH   9  10
ATOM     10  C   UNL     1       4.954  21.201  22.578  1.00  0.00     0.000 C 
BRANCH  10  11
ATOM     11  C   UNL     1       5.169  21.606  21.111  1.00  0.00     0.000 C 
BRANCH  11  12
ATOM     12  C   UNL     1       6.224  22.714  20.954  1.00  0.00     0.002 C 
BRANCH  12  13
ATOM     13  C   UNL     1       5.742  23.871  20.061  1.00  0.00     0.028 C 
BRANCH  13  14
ATOM     14  C   UNL     1       6.864  24.806  19.591  1.00  0.00     0.156 C 
BRANCH  14  15
ATOM     15  O   UNL     1       8.114  24.348  20.032  1.00  0.00    -0.396 OA
ATOM     16  H   UNL     1       8.420  24.980  20.734  1.00  0.00     0.210 HD
ENDBRANCH  14  15
ENDBRANCH  13  14
ENDBRANCH  12  13
ENDBRANCH  11  12
ENDBRANCH  10  11
ENDBRANCH   9  10
ENDBRANCH   1   9
TORSDOF 13
ENDMDL
MODEL 3
REMARK VINA RESULT:    -4.747      3.034      7.981
REMARK INTER + INTRA:          -8.753
REMARK INTER:                  -7.777
REMARK INTRA:                  -0.976
REMARK UNBOUND:                -0.536
REMARK SMILES CCCCCCCCCCCCCCO
REMARK SMILES IDX 8 1 7 2 6 3 5 4 4 5 3 6 2 7 1 8 9 9 10 10 11 11 12 12 13 13
REMARK SMILES IDX 14 14 15 15
REMARK H PARENT 15 16
REMARK Flexibility Score: inf
ROOT
ATOM      1  C   UNL     1       5.222  21.673  22.205  1.00  0.00     0.000 C 
ENDROOT
BRANCH   1   2
ATOM      2  C   UNL     1       3.756  21.206  22.180  1.00  0.00    -0.000 C 
BRANCH   2   3
ATOM      3  C   UNL     1       3.535  19.912  22.981  1.00  0.00    -0.000 C 
BRANCH   3   4
ATOM      4  C   UNL     1       3.538  18.657  22.089  1.00  0.00    -0.000 C 
BRANCH   4   5
ATOM      5  C   UNL     1       3.437  18.997  20.593  1.00  0.00    -0.000 C 
BRANCH   5   6
ATOM      6  C   UNL     1       2.303  18.238  19.888  1.00  0.00    -0.000 C 
BRANCH   6   7
ATOM      7  C   UNL     1       0.951  18.532  20.552  1.00  0.00    -0.003 C 
ATOM      8  C   UNL     1       0.580  20.006  20.422  1.00  0.00     0.004 C 
ENDBRANCH   6   7
ENDBRANCH   5   6
ENDBRANCH   4   5
ENDBRANCH   3   4
ENDBRANCH   2   3
ENDBRANCH   1   2
BRANCH   1   9
ATOM      9  C   UNL     1       5.716  22.135  20.825  1.00  0.00     0.000 C 
BRANCH   9  10
ATOM     10  C   UNL     1       5.331  23.592  20.513  1.00  0.00     0.000 C 
BRANCH  10  11
ATOM     11  C   UNL     1       5.957  24.106  19.206  1.00  0.00     0.000 C 
BRANCH  11  12
ATOM     12  C   UNL     1       6.845  25.342  19.425  1.00  0.00     0.002 C 
BRANCH  12  13
ATOM     13  C   UNL     1       7.290  25.503  20.889  1.00  0.00     0.028 C 
BRANCH  13  14
ATOM     14  C   UNL     1       8.787  25.255  21.117  1.00  0.00     0.156 C 
BRANCH  14  15
ATOM     15  O   UNL     1       9.164  23.993  20.637  1.00  0.00    -0.396 OA
ATOM     16  H   UNL     1       9.735  24.148  19.839  1.00  0.00     0.210 HD
ENDBRANCH  14  15
ENDBRANCH  13  14
ENDBRANCH  12  13
ENDBRANCH  11  12
ENDBRANCH  10  11
ENDBRANCH   9  10
ENDBRANCH   1   9
TORSDOF 13
ENDMDL
MODEL 4
REMARK VINA RESULT:    -4.739      3.365      8.454
REMARK INTER + INTRA:          -8.739
REMARK INTER:                  -8.172
REMARK INTRA:                  -0.567
REMARK UNBOUND:                -0.536
REMARK SMILES CCCCCCCCCCCCCCO
REMARK SMILES IDX 8 1 7 2 6 3 5 4 4 5 3 6 2 7 1 8 9 9 10 10 11 11 12 12 13 13
REMARK SMILES IDX 14 14 15 15
REMARK H PARENT 15 16
REMARK Flexibility Score: inf
ROOT
ATOM      1  C   UNL     1       5.356  23.414  20.459  1.00  0.00     0.000 C 
ENDROOT
BRANCH   1   2
ATOM      2  C   UNL     1       6.061  22.187  21.062  1.00  0.00    -0.000 C 
BRANCH   2   3
ATOM      3  C   UNL     1       5.253  21.544  22.202  1.00  0.00    -0.000 C 
BRANCH   3   4
ATOM      4  C   UNL     1       3.746  21.482  21.896  1.00  0.00    -0.000 C 
BRANCH   4   5
ATOM      5  C   UNL     1       3.198  20.046  21.911  1.00  0.00    -0.000 C 
BRANCH   5   6
ATOM      6  C   UNL     1       3.505  19.279  20.616  1.00  0.00    -0.000 C 
BRANCH   6   7
ATOM      7  C   UNL     1       2.211  18.846  19.915  1.00  0.00    -0.003 C 
ATOM      8  C   UNL     1       0.992  19.507  20.550  1.00  0.00     0.004 C 
ENDBRANCH   6   7
ENDBRANCH   5   6
ENDBRANCH   4   5
ENDBRANCH   3   4
ENDBRANCH   2   3
ENDBRANCH   1   2
BRANCH   1   9
ATOM      9  C   UNL     1       6.320  24.321  19.676  1.00  0.00     0.000 C 
BRANCH   9  10
ATOM     10  C   UNL     1       7.461  24.872  20.551  1.00  0.00     0.000 C 
BRANCH  10  11
ATOM     11  C   UNL     1       7.387  26.396  20.731  1.00  0.00     0.000 C 
BRANCH  11  12
ATOM     12  C   UNL     1       7.502  27.154  19.397  1.00  0.00     0.002 C 
BRANCH  12  13
ATOM     13  C   UNL     1       7.348  28.676  19.565  1.00  0.00     0.028 C 
BRANCH  13  14
ATOM     14  C   UNL     1       7.509  29.466  18.259  1.00  0.00     0.156 C 
BRANCH  14  15
ATOM     15  O   UNL     1       6.864  28.815  17.198  1.00  0.00    -0.396 OA
ATOM     16  H   UNL     1       6.238  29.474  16.795  1.00  0.00     0.210 HD
ENDBRANCH  14  15
ENDBRANCH  13  14
ENDBRANCH  12  13
ENDBRANCH  11  12
ENDBRANCH  10  11
ENDBRANCH   9  10
ENDBRANCH   1   9
TORSDOF 13
ENDMDL
MODEL 5
REMARK VINA RESULT:    -4.644      3.264      9.413
REMARK INTER + INTRA:          -8.575
REMARK INTER:                  -7.919
REMARK INTRA:                  -0.656
REMARK UNBOUND:                -0.536
REMARK SMILES CCCCCCCCCCCCCCO
REMARK SMILES IDX 8 1 7 2 6 3 5 4 4 5 3 6 2 7 1 8 9 9 10 10 11 11 12 12 13 13
REMARK SMILES IDX 14 14 15 15
REMARK H PARENT 15 16
REMARK Flexibility Score: inf
ROOT
ATOM      1  C   UNL     1       2.920  19.546  20.793  1.00  0.00     0.000 C 
ENDROOT
BRANCH   1   2
ATOM      2  C   UNL     1       3.758  18.320  20.392  1.00  0.00    -0.000 C 
BRANCH   2   3
ATOM      3  C   UNL     1       2.907  17.201  19.768  1.00  0.00    -0.000 C 
BRANCH   3   4
ATOM      4  C   UNL     1       2.836  15.947  20.657  1.00  0.00    -0.000 C 
BRANCH   4   5
ATOM      5  C   UNL     1       3.925  15.931  21.743  1.00  0.00    -0.000 C 
BRANCH   5   6
ATOM      6  C   UNL     1       5.086  14.985  21.406  1.00  0.00    -0.000 C 
BRANCH   6   7
ATOM      7  C   UNL     1       4.583  13.746  20.654  1.00  0.00    -0.003 C 
ATOM      8  C   UNL     1       4.418  12.557  21.596  1.00  0.00     0.004 C 
ENDBRANCH   6   7
ENDBRANCH   5   6
ENDBRANCH   4   5
ENDBRANCH   3   4
ENDBRANCH   2   3
ENDBRANCH   1   2
BRANCH   1   9
ATOM      9  C   UNL     1       3.463  20.246  22.049  1.00  0.00     0.000 C 
BRANCH   9  10
ATOM     10  C   UNL     1       4.068  21.628  21.744  1.00  0.00     0.000 C 
BRANCH  10  11
ATOM     11  C   UNL     1       5.375  21.541  20.940  1.00  0.00     0.000 C 
BRANCH  11  12
ATOM     12  C   UNL     1       6.230  22.814  21.064  1.00  0.00     0.002 C 
BRANCH  12  13
ATOM     13  C   UNL     1       5.891  23.863  19.990  1.00  0.00     0.028 C 
BRANCH  13  14
ATOM     14  C   UNL     1       7.005  24.889  19.747  1.00  0.00     0.156 C 
BRANCH  14  15
ATOM     15  O   UNL     1       8.258  24.356  20.082  1.00  0.00    -0.396 OA
ATOM     16  H   UNL     1       8.521  24.763  20.949  1.00  0.00     0.210 HD
ENDBRANCH  14  15
ENDBRANCH  13  14
ENDBRANCH  12  13
ENDBRANCH  11  12
ENDBRANCH  10  11
ENDBRANCH   9  10
ENDBRANCH   1   9
TORSDOF 13
ENDMDL
MODEL 6
REMARK VINA RESULT:    -4.444      1.830      3.048
REMARK INTER + INTRA:          -8.228
REMARK INTER:                  -7.502
REMARK INTRA:                  -0.726
REMARK UNBOUND:                -0.536
REMARK SMILES CCCCCCCCCCCCCCO
REMARK SMILES IDX 8 1 7 2 6 3 5 4 4 5 3 6 2 7 1 8 9 9 10 10 11 11 12 12 13 13
REMARK SMILES IDX 14 14 15 15
REMARK H PARENT 15 16
REMARK Flexibility Score: inf
ROOT
ATOM      1  C   UNL     1       4.290  20.913  22.772  1.00  0.00     0.000 C 
ENDROOT
BRANCH   1   2
ATOM      2  C   UNL     1       5.582  21.593  22.288  1.00  0.00    -0.000 C 
BRANCH   2   3
ATOM      3  C   UNL     1       5.525  21.978  20.800  1.00  0.00    -0.000 C 
BRANCH   3   4
ATOM      4  C   UNL     1       6.234  23.313  20.508  1.00  0.00    -0.000 C 
BRANCH   4   5
ATOM      5  C   UNL     1       7.284  23.669  21.574  1.00  0.00    -0.000 C 
BRANCH   5   6
ATOM      6  C   UNL     1       8.348  24.648  21.056  1.00  0.00    -0.000 C 
BRANCH   6   7
ATOM      7  C   UNL     1       7.776  26.066  20.937  1.00  0.00    -0.003 C 
ATOM      8  C   UNL     1       7.623  26.480  19.477  1.00  0.00     0.004 C 
ENDBRANCH   6   7
ENDBRANCH   5   6
ENDBRANCH   4   5
ENDBRANCH   3   4
ENDBRANCH   2   3
ENDBRANCH   1   2
BRANCH   1   9
ATOM      9  C   UNL     1       3.063  21.321  21.940  1.00  0.00     0.000 C 
BRANCH   9  10
ATOM     10  C   UNL     1       2.276  20.110  21.408  1.00  0.00     0.000 C 
BRANCH  10  11
ATOM     11  C   UNL     1       3.190  19.000  20.864  1.00  0.00     0.000 C 
BRANCH  11  12
ATOM     12  C   UNL     1       2.799  17.606  21.384  1.00  0.00     0.002 C 
BRANCH  12  13
ATOM     13  C   UNL     1       1.442  17.128  20.837  1.00  0.00     0.028 C 
BRANCH  13  14
ATOM     14  C   UNL     1       1.341  15.607  20.660  1.00  0.00     0.156 C 
BRANCH  14  15
ATOM     15  O   UNL     1       0.650  15.285  19.484  1.00  0.00    -0.396 OA
ATOM     16  H   UNL     1       0.857  14.335  19.279  1.00  0.00     0.210 HD
ENDBRANCH  14  15
ENDBRANCH  13  14
ENDBRANCH  12  13
ENDBRANCH  11  12
ENDBRANCH  10  11
ENDBRANCH   9  10
ENDBRANCH   1   9
TORSDOF 13
ENDMDL
MODEL 7
REMARK VINA RESULT:    -4.403      3.672      8.973
REMARK INTER + INTRA:          -8.157
REMARK INTER:                  -7.817
REMARK INTRA:                  -0.341
REMARK UNBOUND:                -0.536
REMARK SMILES CCCCCCCCCCCCCCO
REMARK SMILES IDX 8 1 7 2 6 3 5 4 4 5 3 6 2 7 1 8 9 9 10 10 11 11 12 12 13 13
REMARK SMILES IDX 14 14 15 15
REMARK H PARENT 15 16
REMARK Flexibility Score: inf
ROOT
ATOM      1  C   UNL     1       7.407  25.001  19.864  1.00  0.00     0.000 C 
ENDROOT
BRANCH   1   2
ATOM      2  C   UNL     1       6.971  24.031  20.976  1.00  0.00    -0.000 C 
BRANCH   2   3
ATOM      3  C   UNL     1       5.886  23.046  20.508  1.00  0.00    -0.000 C 
BRANCH   3   4
ATOM      4  C   UNL     1       5.702  21.866  21.480  1.00  0.00    -0.000 C 
BRANCH   4   5
ATOM      5  C   UNL     1       4.655  20.853  20.986  1.00  0.00    -0.000 C 
BRANCH   5   6
ATOM      6  C   UNL     1       3.588  20.540  22.045  1.00  0.00    -0.000 C 
BRANCH   6   7
ATOM      7  C   UNL     1       2.906  19.197  21.755  1.00  0.00    -0.003 C 
ATOM      8  C   UNL     1       2.673  19.007  20.259  1.00  0.00     0.004 C 
ENDBRANCH   6   7
ENDBRANCH   5   6
ENDBRANCH   4   5
ENDBRANCH   3   4
ENDBRANCH   2   3
ENDBRANCH   1   2
BRANCH   1   9
ATOM      9  C   UNL     1       7.607  26.435  20.380  1.00  0.00     0.000 C 
BRANCH   9  10
ATOM     10  C   UNL     1       7.646  27.475  19.245  1.00  0.00     0.000 C 
BRANCH  10  11
ATOM     11  C   UNL     1       7.222  28.877  19.710  1.00  0.00     0.000 C 
BRANCH  11  12
ATOM     12  C   UNL     1       8.204  29.970  19.256  1.00  0.00     0.002 C 
BRANCH  12  13
ATOM     13  C   UNL     1       8.853  29.658  17.896  1.00  0.00     0.028 C 
BRANCH  13  14
ATOM     14  C   UNL     1       8.093  30.236  16.695  1.00  0.00     0.156 C 
BRANCH  14  15
ATOM     15  O   UNL     1       6.948  29.476  16.414  1.00  0.00    -0.396 OA
ATOM     16  H   UNL     1       6.922  29.349  15.429  1.00  0.00     0.210 HD
ENDBRANCH  14  15
ENDBRANCH  13  14
ENDBRANCH  12  13
ENDBRANCH  11  12
ENDBRANCH  10  11
ENDBRANCH   9  10
ENDBRANCH   1   9
TORSDOF 13
ENDMDL
MODEL 8
REMARK VINA RESULT:    -4.397      3.484      9.548
REMARK INTER + INTRA:          -8.147
REMARK INTER:                  -7.101
REMARK INTRA:                  -1.047
REMARK UNBOUND:                -0.536
REMARK SMILES CCCCCCCCCCCCCCO
REMARK SMILES IDX 8 1 7 2 6 3 5 4 4 5 3 6 2 7 1 8 9 9 10 10 11 11 12 12 13 13
REMARK SMILES IDX 14 14 15 15
REMARK H PARENT 15 16
REMARK Flexibility Score: inf
ROOT
ATOM      1  C   UNL     1       2.504  18.895  19.988  1.00  0.00     0.000 C 
ENDROOT
BRANCH   1   2
ATOM      2  C   UNL     1       3.094  17.507  19.685  1.00  0.00    -0.000 C 
BRANCH   2   3
ATOM      3  C   UNL     1       3.774  16.874  20.911  1.00  0.00    -0.000 C 
BRANCH   3   4
ATOM      4  C   UNL     1       3.304  15.431  21.168  1.00  0.00    -0.000 C 
BRANCH   4   5
ATOM      5  C   UNL     1       2.216  15.348  22.250  1.00  0.00    -0.000 C 
BRANCH   5   6
ATOM      6  C   UNL     1       0.939  14.653  21.756  1.00  0.00    -0.000 C 
BRANCH   6   7
ATOM      7  C   UNL     1       0.184  15.539  20.758  1.00  0.00    -0.003 C 
ATOM      8  C   UNL     1      -0.320  14.726  19.569  1.00  0.00     0.004 C 
ENDBRANCH   6   7
ENDBRANCH   5   6
ENDBRANCH   4   5
ENDBRANCH   3   4
ENDBRANCH   2   3
ENDBRANCH   1   2
BRANCH   1   9
ATOM      9  C   UNL     1       2.416  19.181  21.496  1.00  0.00     0.000 C 
BRANCH   9  10
ATOM     10  C   UNL     1       3.265  20.391  21.923  1.00  0.00     0.000 C 
BRANCH  10  11
ATOM     11  C   UNL     1       4.428  20.671  20.957  1.00  0.00     0.000 C 
BRANCH  11  12
ATOM     12  C   UNL     1       5.371  21.772  21.472  1.00  0.00     0.002 C 
BRANCH  12  13
ATOM     13  C   UNL     1       5.655  22.853  20.414  1.00  0.00     0.028 C 
BRANCH  13  14
ATOM     14  C   UNL     1       6.838  23.767  20.759  1.00  0.00     0.156 C 
BRANCH  14  15
ATOM     15  O   UNL     1       6.449  25.114  20.746  1.00  0.00    -0.396 OA
ATOM     16  H   UNL     1       5.568  25.164  21.202  1.00  0.00     0.210 HD
ENDBRANCH  14  15
ENDBRANCH  13  14
ENDBRANCH  12  13
ENDBRANCH  11  12
ENDBRANCH  10  11
ENDBRANCH   9  10
ENDBRANCH   1   9
TORSDOF 13
ENDMDL
MODEL 9
REMARK VINA RESULT:    -4.316      7.154     12.054
REMARK INTER + INTRA:          -8.007
REMARK INTER:                  -7.129
REMARK INTRA:                  -0.878
REMARK UNBOUND:                -0.536
REMARK SMILES CCCCCCCCCCCCCCO
REMARK SMILES IDX 8 1 7 2 6 3 5 4 4 5 3 6 2 7 1 8 9 9 10 10 11 11 12 12 13 13
REMARK SMILES IDX 14 14 15 15
REMARK H PARENT 15 16
REMARK Flexibility Score: inf
ROOT
ATOM      1  C   UNL     1       0.024  15.114  20.113  1.00  0.00     0.000 C 
ENDROOT
BRANCH   1   2
ATOM      2  C   UNL     1      -1.415  15.551  20.441  1.00  0.00    -0.000 C 
BRANCH   2   3
ATOM      3  C   UNL     1      -2.302  15.652  19.188  1.00  0.00    -0.000 C 
BRANCH   3   4
ATOM      4  C   UNL     1      -2.301  14.355  18.359  1.00  0.00    -0.000 C 
BRANCH   4   5
ATOM      5  C   UNL     1      -3.557  14.214  17.483  1.00  0.00    -0.000 C 
BRANCH   5   6
ATOM      6  C   UNL     1      -4.838  14.656  18.206  1.00  0.00    -0.000 C 
BRANCH   6   7
ATOM      7  C   UNL     1      -5.608  15.690  17.374  1.00  0.00    -0.003 C 
ATOM      8  C   UNL     1      -5.044  15.793  15.961  1.00  0.00     0.004 C 
ENDBRANCH   6   7
ENDBRANCH   5   6
ENDBRANCH   4   5
ENDBRANCH   3   4
ENDBRANCH   2   3
ENDBRANCH   1   2
BRANCH   1   9
ATOM      9  C   UNL     1       0.933  15.106  21.351  1.00  0.00     0.000 C 
BRANCH   9  10
ATOM     10  C   UNL     1       1.799  16.374  21.462  1.00  0.00     0.000 C 
BRANCH  10  11
ATOM     11  C   UNL     1       2.307  16.867  20.098  1.00  0.00     0.000 C 
BRANCH  11  12
ATOM     12  C   UNL     1       2.604  18.376  20.090  1.00  0.00     0.002 C 
BRANCH  12  13
ATOM     13  C   UNL     1       1.663  19.171  21.013  1.00  0.00     0.028 C 
BRANCH  13  14
ATOM     14  C   UNL     1       0.483  19.827  20.285  1.00  0.00     0.156 C 
BRANCH  14  15
ATOM     15  O   UNL     1      -0.286  18.867  19.612  1.00  0.00    -0.396 OA
ATOM     16  H   UNL     1      -1.238  19.116  19.746  1.00  0.00     0.210 HD
ENDBRANCH  14  15
ENDBRANCH  13  14
ENDBRANCH  12  13
ENDBRANCH  11  12
ENDBRANCH  10  11
ENDBRANCH   9  10
ENDBRANCH   1   9
TORSDOF 13
ENDMDL
