MODEL 1
REMARK VINA RESULT:    -6.383      0.000      0.000
REMARK INTER + INTRA:          -7.555
REMARK INTER:                  -7.502
REMARK INTRA:                  -0.053
REMARK UNBOUND:                -0.053
REMARK SMILES O=c1c(O)c(-c2ccc(O)cc2)oc2cc(O)cc(O)c12
REMARK SMILES IDX 5 1 3 2 2 3 1 4 21 5 19 6 18 7 16 8 15 9 14 10 13 11 6 12
REMARK SMILES IDX 7 13 8 14 9 15 12 16 11 17 10 18 4 20 20 22 17 24
REMARK H PARENT 10 19 4 21 20 23 17 25
REMARK Flexibility Score: inf
ROOT
ATOM      1  C   UNL     1      -0.501   1.582  -3.344  1.00  0.00     0.180 A 
ATOM      2  C   UNL     1       0.671   1.041  -3.909  1.00  0.00     0.208 A 
ATOM      3  C   UNL     1       1.133  -0.202  -3.449  1.00  0.00     0.238 A 
ATOM      4  O   UNL     1       2.186  -0.692  -3.939  1.00  0.00    -0.285 OA
ATOM      5  C   UNL     1       0.409  -0.891  -2.453  1.00  0.00     0.111 A 
ATOM      6  C   UNL     1       0.804  -2.149  -1.938  1.00  0.00     0.134 A 
ATOM      7  C   UNL     1       0.025  -2.775  -0.955  1.00  0.00     0.093 A 
ATOM      8  C   UNL     1      -1.139  -2.168  -0.476  1.00  0.00     0.123 A 
ATOM      9  C   UNL     1      -1.534  -0.925  -0.979  1.00  0.00     0.094 A 
ATOM     10  C   UNL     1      -0.771  -0.284  -1.960  1.00  0.00     0.146 A 
ATOM     11  O   UNL     1      -1.165   0.898  -2.417  1.00  0.00    -0.452 OA
ENDROOT
BRANCH   1  12
ATOM     12  C   UNL     1      -1.040   2.896  -3.762  1.00  0.00     0.021 A 
ATOM     13  C   UNL     1      -1.170   3.924  -2.813  1.00  0.00     0.016 A 
ATOM     14  C   UNL     1      -1.656   5.180  -3.190  1.00  0.00     0.047 A 
ATOM     15  C   UNL     1      -2.004   5.428  -4.524  1.00  0.00     0.115 A 
ATOM     16  C   UNL     1      -1.373   3.159  -5.104  1.00  0.00     0.016 A 
ATOM     17  C   UNL     1      -1.858   4.416  -5.478  1.00  0.00     0.047 A 
BRANCH  15  18
ATOM     18  O   UNL     1      -2.490   6.675  -4.911  1.00  0.00    -0.508 OA
ATOM     19  H   UNL     1      -1.877   7.388  -5.288  1.00  0.00     0.293 HD
ENDBRANCH  15  18
ENDBRANCH   1  12
BRANCH   2  20
ATOM     20  O   UNL     1       1.342   1.719  -4.930  1.00  0.00    -0.502 OA
ATOM     21  H   UNL     1       0.968   1.795  -5.867  1.00  0.00     0.293 HD
ENDBRANCH   2  20
BRANCH   6  22
ATOM     22  O   UNL     1       1.961  -2.782  -2.397  1.00  0.00    -0.507 OA
ATOM     23  H   UNL     1       2.160  -2.876  -3.386  1.00  0.00     0.293 HD
ENDBRANCH   6  22
BRANCH   8  24
ATOM     24  O   UNL     1      -1.896  -2.810   0.501  1.00  0.00    -0.508 OA
ATOM     25  H   UNL     1      -2.908  -2.750   0.514  1.00  0.00     0.293 HD
ENDBRANCH   8  24
TORSDOF 5
ENDMDL
MODEL 2
REMARK VINA RESULT:    -6.225      1.639      3.317
REMARK INTER + INTRA:          -7.370
REMARK INTER:                  -7.118
REMARK INTRA:                  -0.253
REMARK UNBOUND:                -0.053
REMARK SMILES O=c1c(O)c(-c2ccc(O)cc2)oc2cc(O)cc(O)c12
REMARK SMILES IDX 5 1 3 2 2 3 1 4 21 5 19 6 18 7 16 8 15 9 14 10 13 11 6 12
REMARK SMILES IDX 7 13 8 14 9 15 12 16 11 17 10 18 4 20 20 22 17 24
REMARK H PARENT 10 19 4 21 20 23 17 25
REMARK Flexibility Score: inf
ROOT
ATOM      1  C   UNL     1       0.055   1.019  -2.753  1.00  0.00     0.180 A 
ATOM      2  C   UNL     1      -0.818   0.343  -1.879  1.00  0.00     0.208 A 
ATOM      3  C   UNL     1      -0.623  -1.029  -1.654  1.00  0.00     0.238 A 
ATOM      4  O   UNL     1      -1.404  -1.649  -0.882  1.00  0.00    -0.285 OA
ATOM      5  C   UNL     1       0.448  -1.694  -2.287  1.00  0.00     0.111 A 
ATOM      6  C   UNL     1       0.716  -3.074  -2.111  1.00  0.00     0.134 A 
ATOM      7  C   UNL     1       1.807  -3.660  -2.768  1.00  0.00     0.093 A 
ATOM      8  C   UNL     1       2.633  -2.897  -3.597  1.00  0.00     0.123 A 
ATOM      9  C   UNL     1       2.373  -1.535  -3.776  1.00  0.00     0.094 A 
ATOM     10  C   UNL     1       1.290  -0.931  -3.130  1.00  0.00     0.146 A 
ATOM     11  O   UNL     1       1.062   0.363  -3.321  1.00  0.00    -0.452 OA
ENDROOT
BRANCH   1  12
ATOM     12  C   UNL     1      -0.097   2.460  -3.056  1.00  0.00     0.021 A 
ATOM     13  C   UNL     1      -1.090   2.876  -3.959  1.00  0.00     0.016 A 
ATOM     14  C   UNL     1      -1.267   4.234  -4.242  1.00  0.00     0.047 A 
ATOM     15  C   UNL     1      -0.462   5.194  -3.614  1.00  0.00     0.115 A 
ATOM     16  C   UNL     1       0.693   3.432  -2.415  1.00  0.00     0.016 A 
ATOM     17  C   UNL     1       0.514   4.789  -2.700  1.00  0.00     0.047 A 
BRANCH  15  18
ATOM     18  O   UNL     1      -0.628   6.550  -3.890  1.00  0.00    -0.508 OA
ATOM     19  H   UNL     1       0.146   7.202  -3.826  1.00  0.00     0.293 HD
ENDBRANCH  15  18
ENDBRANCH   1  12
BRANCH   2  20
ATOM     20  O   UNL     1      -1.841   1.035  -1.225  1.00  0.00    -0.502 OA
ATOM     21  H   UNL     1      -1.838   1.189  -0.224  1.00  0.00     0.293 HD
ENDBRANCH   2  20
BRANCH   6  22
ATOM     22  O   UNL     1      -0.090  -3.863  -1.288  1.00  0.00    -0.507 OA
ATOM     23  H   UNL     1      -0.450  -3.518  -0.406  1.00  0.00     0.293 HD
ENDBRANCH   6  22
BRANCH   8  24
ATOM     24  O   UNL     1       3.711  -3.503  -4.238  1.00  0.00    -0.508 OA
ATOM     25  H   UNL     1       3.903  -3.342  -5.220  1.00  0.00     0.293 HD
ENDBRANCH   8  24
TORSDOF 5
ENDMDL
MODEL 3
REMARK VINA RESULT:    -6.221      2.265      4.023
REMARK INTER + INTRA:          -7.365
REMARK INTER:                  -7.068
REMARK INTRA:                  -0.296
REMARK UNBOUND:                -0.053
REMARK SMILES O=c1c(O)c(-c2ccc(O)cc2)oc2cc(O)cc(O)c12
REMARK SMILES IDX 5 1 3 2 2 3 1 4 21 5 19 6 18 7 16 8 15 9 14 10 13 11 6 12
REMARK SMILES IDX 7 13 8 14 9 15 12 16 11 17 10 18 4 20 20 22 17 24
REMARK H PARENT 10 19 4 21 20 23 17 25
REMARK Flexibility Score: inf
ROOT
ATOM      1  C   UNL     1       0.722  -0.094  -2.731  1.00  0.00     0.180 A 
ATOM      2  C   UNL     1       0.049  -1.279  -2.377  1.00  0.00     0.208 A 
ATOM      3  C   UNL     1       0.745  -2.497  -2.438  1.00  0.00     0.238 A 
ATOM      4  O   UNL     1       0.150  -3.567  -2.134  1.00  0.00    -0.285 OA
ATOM      5  C   UNL     1       2.099  -2.507  -2.830  1.00  0.00     0.111 A 
ATOM      6  C   UNL     1       2.873  -3.691  -2.914  1.00  0.00     0.134 A 
ATOM      7  C   UNL     1       4.218  -3.617  -3.303  1.00  0.00     0.093 A 
ATOM      8  C   UNL     1       4.804  -2.386  -3.609  1.00  0.00     0.123 A 
ATOM      9  C   UNL     1       4.046  -1.215  -3.530  1.00  0.00     0.094 A 
ATOM     10  C   UNL     1       2.703  -1.267  -3.144  1.00  0.00     0.146 A 
ATOM     11  O   UNL     1       2.004  -0.140  -3.082  1.00  0.00    -0.452 OA
ENDROOT
BRANCH   1  12
ATOM     12  C   UNL     1       0.052   1.227  -2.711  1.00  0.00     0.021 A 
ATOM     13  C   UNL     1       0.102   2.009  -1.545  1.00  0.00     0.016 A 
ATOM     14  C   UNL     1      -0.505   3.269  -1.510  1.00  0.00     0.047 A 
ATOM     15  C   UNL     1      -1.156   3.768  -2.647  1.00  0.00     0.115 A 
ATOM     16  C   UNL     1      -0.587   1.743  -3.853  1.00  0.00     0.016 A 
ATOM     17  C   UNL     1      -1.192   3.003  -3.816  1.00  0.00     0.047 A 
BRANCH  15  18
ATOM     18  O   UNL     1      -1.765   5.021  -2.624  1.00  0.00    -0.508 OA
ATOM     19  H   UNL     1      -2.193   5.386  -1.781  1.00  0.00     0.293 HD
ENDBRANCH  15  18
ENDBRANCH   1  12
BRANCH   2  20
ATOM     20  O   UNL     1      -1.279  -1.236  -1.943  1.00  0.00    -0.502 OA
ATOM     21  H   UNL     1      -1.555  -1.520  -1.011  1.00  0.00     0.293 HD
ENDBRANCH   2  20
BRANCH   6  22
ATOM     22  O   UNL     1       2.316  -4.935  -2.613  1.00  0.00    -0.507 OA
ATOM     23  H   UNL     1       1.498  -5.024  -2.021  1.00  0.00     0.293 HD
ENDBRANCH   6  22
BRANCH   8  24
ATOM     24  O   UNL     1       6.142  -2.341  -3.993  1.00  0.00    -0.508 OA
ATOM     25  H   UNL     1       6.449  -2.697  -4.891  1.00  0.00     0.293 HD
ENDBRANCH   8  24
TORSDOF 5
ENDMDL
MODEL 4
REMARK VINA RESULT:    -5.996      2.145      3.042
REMARK INTER + INTRA:          -7.100
REMARK INTER:                  -6.809
REMARK INTRA:                  -0.292
REMARK UNBOUND:                -0.053
REMARK SMILES O=c1c(O)c(-c2ccc(O)cc2)oc2cc(O)cc(O)c12
REMARK SMILES IDX 5 1 3 2 2 3 1 4 21 5 19 6 18 7 16 8 15 9 14 10 13 11 6 12
REMARK SMILES IDX 7 13 8 14 9 15 12 16 11 17 10 18 4 20 20 22 17 24
REMARK H PARENT 10 19 4 21 20 23 17 25
REMARK Flexibility Score: inf
ROOT
ATOM      1  C   UNL     1       1.218  -0.010  -2.883  1.00  0.00     0.180 A 
ATOM      2  C   UNL     1       2.529  -0.084  -3.392  1.00  0.00     0.208 A 
ATOM      3  C   UNL     1       3.167  -1.333  -3.440  1.00  0.00     0.238 A 
ATOM      4  O   UNL     1       4.345  -1.412  -3.884  1.00  0.00    -0.285 OA
ATOM      5  C   UNL     1       2.481  -2.485  -3.001  1.00  0.00     0.111 A 
ATOM      6  C   UNL     1       3.050  -3.781  -3.021  1.00  0.00     0.134 A 
ATOM      7  C   UNL     1       2.299  -4.878  -2.575  1.00  0.00     0.093 A 
ATOM      8  C   UNL     1       0.992  -4.705  -2.112  1.00  0.00     0.123 A 
ATOM      9  C   UNL     1       0.425  -3.428  -2.089  1.00  0.00     0.094 A 
ATOM     10  C   UNL     1       1.157  -2.321  -2.528  1.00  0.00     0.146 A 
ATOM     11  O   UNL     1       0.596  -1.118  -2.491  1.00  0.00    -0.452 OA
ENDROOT
BRANCH   1  12
ATOM     12  C   UNL     1       0.486   1.273  -2.781  1.00  0.00     0.021 A 
ATOM     13  C   UNL     1      -0.449   1.616  -3.772  1.00  0.00     0.016 A 
ATOM     14  C   UNL     1      -1.169   2.812  -3.685  1.00  0.00     0.047 A 
ATOM     15  C   UNL     1      -0.973   3.673  -2.597  1.00  0.00     0.115 A 
ATOM     16  C   UNL     1       0.663   2.134  -1.682  1.00  0.00     0.016 A 
ATOM     17  C   UNL     1      -0.059   3.329  -1.597  1.00  0.00     0.047 A 
BRANCH  15  18
ATOM     18  O   UNL     1      -1.683   4.868  -2.500  1.00  0.00    -0.508 OA
ATOM     19  H   UNL     1      -1.323   5.731  -2.891  1.00  0.00     0.293 HD
ENDBRANCH  15  18
ENDBRANCH   1  12
BRANCH   2  20
ATOM     20  O   UNL     1       3.169   1.063  -3.868  1.00  0.00    -0.502 OA
ATOM     21  H   UNL     1       3.523   1.783  -3.249  1.00  0.00     0.293 HD
ENDBRANCH   2  20
BRANCH   6  22
ATOM     22  O   UNL     1       4.353  -3.987  -3.479  1.00  0.00    -0.507 OA
ATOM     23  H   UNL     1       4.558  -4.108  -4.464  1.00  0.00     0.293 HD
ENDBRANCH   6  22
BRANCH   8  24
ATOM     24  O   UNL     1       0.267  -5.812  -1.675  1.00  0.00    -0.508 OA
ATOM     25  H   UNL     1       0.318  -6.702  -2.156  1.00  0.00     0.293 HD
ENDBRANCH   8  24
TORSDOF 5
ENDMDL
MODEL 5
REMARK VINA RESULT:    -5.980      2.124      3.597
REMARK INTER + INTRA:          -7.082
REMARK INTER:                  -6.948
REMARK INTRA:                  -0.134
REMARK UNBOUND:                -0.053
REMARK SMILES O=c1c(O)c(-c2ccc(O)cc2)oc2cc(O)cc(O)c12
REMARK SMILES IDX 5 1 3 2 2 3 1 4 21 5 19 6 18 7 16 8 15 9 14 10 13 11 6 12
REMARK SMILES IDX 7 13 8 14 9 15 12 16 11 17 10 18 4 20 20 22 17 24
REMARK H PARENT 10 19 4 21 20 23 17 25
REMARK Flexibility Score: inf
ROOT
ATOM      1  C   UNL     1       0.617   2.651  -2.858  1.00  0.00     0.180 A 
ATOM      2  C   UNL     1      -0.476   2.073  -2.183  1.00  0.00     0.208 A 
ATOM      3  C   UNL     1      -0.491   0.683  -1.984  1.00  0.00     0.238 A 
ATOM      4  O   UNL     1      -1.468   0.152  -1.390  1.00  0.00    -0.285 OA
ATOM      5  C   UNL     1       0.590  -0.098  -2.441  1.00  0.00     0.111 A 
ATOM      6  C   UNL     1       0.655  -1.504  -2.277  1.00  0.00     0.134 A 
ATOM      7  C   UNL     1       1.769  -2.209  -2.753  1.00  0.00     0.093 A 
ATOM      8  C   UNL     1       2.818  -1.540  -3.387  1.00  0.00     0.123 A 
ATOM      9  C   UNL     1       2.760  -0.153  -3.554  1.00  0.00     0.094 A 
ATOM     10  C   UNL     1       1.658   0.569  -3.088  1.00  0.00     0.146 A 
ATOM     11  O   UNL     1       1.625   1.885  -3.263  1.00  0.00    -0.452 OA
ENDROOT
BRANCH   1  12
ATOM     12  C   UNL     1       0.696   4.106  -3.124  1.00  0.00     0.021 A 
ATOM     13  C   UNL     1       0.622   4.572  -4.447  1.00  0.00     0.016 A 
ATOM     14  C   UNL     1       0.672   5.943  -4.719  1.00  0.00     0.047 A 
ATOM     15  C   UNL     1       0.781   6.865  -3.669  1.00  0.00     0.115 A 
ATOM     16  C   UNL     1       0.786   5.039  -2.074  1.00  0.00     0.016 A 
ATOM     17  C   UNL     1       0.835   6.409  -2.349  1.00  0.00     0.047 A 
BRANCH  15  18
ATOM     18  O   UNL     1       0.833   8.233  -3.928  1.00  0.00    -0.508 OA
ATOM     19  H   UNL     1       1.609   8.803  -3.611  1.00  0.00     0.293 HD
ENDBRANCH  15  18
ENDBRANCH   1  12
BRANCH   2  20
ATOM     20  O   UNL     1      -1.510   2.875  -1.695  1.00  0.00    -0.502 OA
ATOM     21  H   UNL     1      -2.071   3.464  -2.298  1.00  0.00     0.293 HD
ENDBRANCH   2  20
BRANCH   6  22
ATOM     22  O   UNL     1      -0.377  -2.201  -1.646  1.00  0.00    -0.507 OA
ATOM     23  H   UNL     1      -1.146  -2.603  -2.169  1.00  0.00     0.293 HD
ENDBRANCH   6  22
BRANCH   8  24
ATOM     24  O   UNL     1       3.915  -2.265  -3.850  1.00  0.00    -0.508 OA
ATOM     25  H   UNL     1       3.806  -3.180  -4.271  1.00  0.00     0.293 HD
ENDBRANCH   8  24
TORSDOF 5
ENDMDL
MODEL 6
REMARK VINA RESULT:    -5.734      3.816      8.766
REMARK INTER + INTRA:          -6.793
REMARK INTER:                  -6.648
REMARK INTRA:                  -0.145
REMARK UNBOUND:                -0.053
REMARK SMILES O=c1c(O)c(-c2ccc(O)cc2)oc2cc(O)cc(O)c12
REMARK SMILES IDX 5 1 3 2 2 3 1 4 21 5 19 6 18 7 16 8 15 9 14 10 13 11 6 12
REMARK SMILES IDX 7 13 8 14 9 15 12 16 11 17 10 18 4 20 20 22 17 24
REMARK H PARENT 10 19 4 21 20 23 17 25
REMARK Flexibility Score: inf
ROOT
ATOM      1  C   UNL     1      -1.719   6.476  -2.842  1.00  0.00     0.180 A 
ATOM      2  C   UNL     1      -0.638   7.191  -2.293  1.00  0.00     0.208 A 
ATOM      3  C   UNL     1      -0.875   8.462  -1.745  1.00  0.00     0.238 A 
ATOM      4  O   UNL     1       0.087   9.117  -1.260  1.00  0.00    -0.285 OA
ATOM      5  C   UNL     1      -2.185   8.984  -1.736  1.00  0.00     0.111 A 
ATOM      6  C   UNL     1      -2.509  10.254  -1.199  1.00  0.00     0.134 A 
ATOM      7  C   UNL     1      -3.838  10.699  -1.219  1.00  0.00     0.093 A 
ATOM      8  C   UNL     1      -4.848   9.902  -1.764  1.00  0.00     0.123 A 
ATOM      9  C   UNL     1      -4.534   8.648  -2.297  1.00  0.00     0.094 A 
ATOM     10  C   UNL     1      -3.215   8.186  -2.287  1.00  0.00     0.146 A 
ATOM     11  O   UNL     1      -2.943   6.993  -2.803  1.00  0.00    -0.452 OA
ENDROOT
BRANCH   1  12
ATOM     12  C   UNL     1      -1.547   5.139  -3.456  1.00  0.00     0.021 A 
ATOM     13  C   UNL     1      -1.716   4.987  -4.842  1.00  0.00     0.016 A 
ATOM     14  C   UNL     1      -1.536   3.738  -5.446  1.00  0.00     0.047 A 
ATOM     15  C   UNL     1      -1.169   2.630  -4.672  1.00  0.00     0.115 A 
ATOM     16  C   UNL     1      -1.159   4.025  -2.689  1.00  0.00     0.016 A 
ATOM     17  C   UNL     1      -0.978   2.778  -3.296  1.00  0.00     0.047 A 
BRANCH  15  18
ATOM     18  O   UNL     1      -0.988   1.381  -5.262  1.00  0.00    -0.508 OA
ATOM     19  H   UNL     1      -0.976   1.268  -6.270  1.00  0.00     0.293 HD
ENDBRANCH  15  18
ENDBRANCH   1  12
BRANCH   2  20
ATOM     20  O   UNL     1       0.642   6.630  -2.269  1.00  0.00    -0.502 OA
ATOM     21  H   UNL     1       1.469   7.176  -2.061  1.00  0.00     0.293 HD
ENDBRANCH   2  20
BRANCH   6  22
ATOM     22  O   UNL     1      -1.523  11.073  -0.647  1.00  0.00    -0.507 OA
ATOM     23  H   UNL     1      -0.546  10.801  -0.639  1.00  0.00     0.293 HD
ENDBRANCH   6  22
BRANCH   8  24
ATOM     24  O   UNL     1      -6.161  10.367  -1.771  1.00  0.00    -0.508 OA
ATOM     25  H   UNL     1      -6.705  10.408  -2.626  1.00  0.00     0.293 HD
ENDBRANCH   8  24
TORSDOF 5
ENDMDL
MODEL 7
REMARK VINA RESULT:    -5.659      3.173      6.833
REMARK INTER + INTRA:          -6.704
REMARK INTER:                  -6.413
REMARK INTRA:                  -0.291
REMARK UNBOUND:                -0.053
REMARK SMILES O=c1c(O)c(-c2ccc(O)cc2)oc2cc(O)cc(O)c12
REMARK SMILES IDX 5 1 3 2 2 3 1 4 21 5 19 6 18 7 16 8 15 9 14 10 13 11 6 12
REMARK SMILES IDX 7 13 8 14 9 15 12 16 11 17 10 18 4 20 20 22 17 24
REMARK H PARENT 10 19 4 21 20 23 17 25
REMARK Flexibility Score: inf
ROOT
ATOM      1  C   UNL     1       2.491  -0.839  -3.343  1.00  0.00     0.180 A 
ATOM      2  C   UNL     1       1.310  -1.545  -3.044  1.00  0.00     0.208 A 
ATOM      3  C   UNL     1       0.236  -0.853  -2.462  1.00  0.00     0.238 A 
ATOM      4  O   UNL     1      -0.823  -1.476  -2.179  1.00  0.00    -0.285 OA
ATOM      5  C   UNL     1       0.352   0.529  -2.209  1.00  0.00     0.111 A 
ATOM      6  C   UNL     1      -0.684   1.301  -1.628  1.00  0.00     0.134 A 
ATOM      7  C   UNL     1      -0.494   2.674  -1.417  1.00  0.00     0.093 A 
ATOM      8  C   UNL     1       0.708   3.290  -1.774  1.00  0.00     0.123 A 
ATOM      9  C   UNL     1       1.735   2.534  -2.346  1.00  0.00     0.094 A 
ATOM     10  C   UNL     1       1.567   1.163  -2.564  1.00  0.00     0.146 A 
ATOM     11  O   UNL     1       2.560   0.467  -3.105  1.00  0.00    -0.452 OA
ENDROOT
BRANCH   1  12
ATOM     12  C   UNL     1       3.673  -1.502  -3.940  1.00  0.00     0.021 A 
ATOM     13  C   UNL     1       4.621  -2.111  -3.102  1.00  0.00     0.016 A 
ATOM     14  C   UNL     1       5.733  -2.762  -3.645  1.00  0.00     0.047 A 
ATOM     15  C   UNL     1       5.902  -2.825  -5.034  1.00  0.00     0.115 A 
ATOM     16  C   UNL     1       3.840  -1.586  -5.335  1.00  0.00     0.016 A 
ATOM     17  C   UNL     1       4.952  -2.239  -5.875  1.00  0.00     0.047 A 
BRANCH  15  18
ATOM     18  O   UNL     1       7.007  -3.470  -5.587  1.00  0.00    -0.508 OA
ATOM     19  H   UNL     1       7.412  -3.168  -6.465  1.00  0.00     0.293 HD
ENDBRANCH  15  18
ENDBRANCH   1  12
BRANCH   2  20
ATOM     20  O   UNL     1       1.201  -2.904  -3.350  1.00  0.00    -0.502 OA
ATOM     21  H   UNL     1       0.910  -3.233  -4.263  1.00  0.00     0.293 HD
ENDBRANCH   2  20
BRANCH   6  22
ATOM     22  O   UNL     1      -1.897   0.715  -1.263  1.00  0.00    -0.507 OA
ATOM     23  H   UNL     1      -2.000   0.199  -0.396  1.00  0.00     0.293 HD
ENDBRANCH   6  22
BRANCH   8  24
ATOM     24  O   UNL     1       0.871   4.656  -1.554  1.00  0.00    -0.508 OA
ATOM     25  H   UNL     1       0.143   5.214  -1.122  1.00  0.00     0.293 HD
ENDBRANCH   8  24
TORSDOF 5
ENDMDL
MODEL 8
REMARK VINA RESULT:    -5.583      2.100      3.193
REMARK INTER + INTRA:          -6.615
REMARK INTER:                  -6.337
REMARK INTRA:                  -0.279
REMARK UNBOUND:                -0.053
REMARK SMILES O=c1c(O)c(-c2ccc(O)cc2)oc2cc(O)cc(O)c12
REMARK SMILES IDX 5 1 3 2 2 3 1 4 21 5 19 6 18 7 16 8 15 9 14 10 13 11 6 12
REMARK SMILES IDX 7 13 8 14 9 15 12 16 11 17 10 18 4 20 20 22 17 24
REMARK H PARENT 10 19 4 21 20 23 17 25
REMARK Flexibility Score: inf
ROOT
ATOM      1  C   UNL     1      -0.578   4.098  -3.260  1.00  0.00     0.180 A 
ATOM      2  C   UNL     1      -0.076   3.738  -4.526  1.00  0.00     0.208 A 
ATOM      3  C   UNL     1       0.092   2.378  -4.827  1.00  0.00     0.238 A 
ATOM      4  O   UNL     1       0.550   2.044  -5.953  1.00  0.00    -0.285 OA
ATOM      5  C   UNL     1      -0.262   1.403  -3.871  1.00  0.00     0.111 A 
ATOM      6  C   UNL     1      -0.127   0.011  -4.096  1.00  0.00     0.134 A 
ATOM      7  C   UNL     1      -0.510  -0.896  -3.098  1.00  0.00     0.093 A 
ATOM      8  C   UNL     1      -1.024  -0.440  -1.881  1.00  0.00     0.123 A 
ATOM      9  C   UNL     1      -1.158   0.932  -1.652  1.00  0.00     0.094 A 
ATOM     10  C   UNL     1      -0.782   1.853  -2.634  1.00  0.00     0.146 A 
ATOM     11  O   UNL     1      -0.915   3.151  -2.389  1.00  0.00    -0.452 OA
ENDROOT
BRANCH   1  12
ATOM     12  C   UNL     1      -0.765   5.511  -2.861  1.00  0.00     0.021 A 
ATOM     13  C   UNL     1      -2.055   6.068  -2.872  1.00  0.00     0.016 A 
ATOM     14  C   UNL     1      -2.259   7.394  -2.478  1.00  0.00     0.047 A 
ATOM     15  C   UNL     1      -1.176   8.175  -2.052  1.00  0.00     0.115 A 
ATOM     16  C   UNL     1       0.314   6.296  -2.413  1.00  0.00     0.016 A 
ATOM     17  C   UNL     1       0.107   7.622  -2.019  1.00  0.00     0.047 A 
BRANCH  15  18
ATOM     18  O   UNL     1      -1.366   9.498  -1.658  1.00  0.00    -0.508 OA
ATOM     19  H   UNL     1      -1.007   9.844  -0.776  1.00  0.00     0.293 HD
ENDBRANCH  15  18
ENDBRANCH   1  12
BRANCH   2  20
ATOM     20  O   UNL     1       0.220   4.721  -5.474  1.00  0.00    -0.502 OA
ATOM     21  H   UNL     1      -0.051   4.636  -6.446  1.00  0.00     0.293 HD
ENDBRANCH   2  20
BRANCH   6  22
ATOM     22  O   UNL     1       0.381  -0.475  -5.302  1.00  0.00    -0.507 OA
ATOM     23  H   UNL     1       1.115  -1.174  -5.328  1.00  0.00     0.293 HD
ENDBRANCH   6  22
BRANCH   8  24
ATOM     24  O   UNL     1      -1.398  -1.362  -0.906  1.00  0.00    -0.508 OA
ATOM     25  H   UNL     1      -2.007  -2.144  -1.121  1.00  0.00     0.293 HD
ENDBRANCH   8  24
TORSDOF 5
ENDMDL
MODEL 9
REMARK VINA RESULT:    -5.526      3.445      6.343
REMARK INTER + INTRA:          -6.548
REMARK INTER:                  -6.272
REMARK INTRA:                  -0.276
REMARK UNBOUND:                -0.053
REMARK SMILES O=c1c(O)c(-c2ccc(O)cc2)oc2cc(O)cc(O)c12
REMARK SMILES IDX 5 1 3 2 2 3 1 4 21 5 19 6 18 7 16 8 15 9 14 10 13 11 6 12
REMARK SMILES IDX 7 13 8 14 9 15 12 16 11 17 10 18 4 20 20 22 17 24
REMARK H PARENT 10 19 4 21 20 23 17 25
REMARK Flexibility Score: inf
ROOT
ATOM      1  C   UNL     1       3.329  -0.196  -3.543  1.00  0.00     0.180 A 
ATOM      2  C   UNL     1       2.690  -1.440  -3.372  1.00  0.00     0.208 A 
ATOM      3  C   UNL     1       1.390  -1.466  -2.844  1.00  0.00     0.238 A 
ATOM      4  O   UNL     1       0.811  -2.573  -2.676  1.00  0.00    -0.285 OA
ATOM      5  C   UNL     1       0.744  -0.255  -2.520  1.00  0.00     0.111 A 
ATOM      6  C   UNL     1      -0.567  -0.194  -1.988  1.00  0.00     0.134 A 
ATOM      7  C   UNL     1      -1.144   1.051  -1.699  1.00  0.00     0.093 A 
ATOM      8  C   UNL     1      -0.437   2.234  -1.931  1.00  0.00     0.123 A 
ATOM      9  C   UNL     1       0.858   2.181  -2.454  1.00  0.00     0.094 A 
ATOM     10  C   UNL     1       1.451   0.950  -2.748  1.00  0.00     0.146 A 
ATOM     11  O   UNL     1       2.684   0.926  -3.240  1.00  0.00    -0.452 OA
ENDROOT
BRANCH   1  12
ATOM     12  C   UNL     1       4.707  -0.087  -4.075  1.00  0.00     0.021 A 
ATOM     13  C   UNL     1       4.904   0.308  -5.408  1.00  0.00     0.016 A 
ATOM     14  C   UNL     1       6.197   0.440  -5.925  1.00  0.00     0.047 A 
ATOM     15  C   UNL     1       7.309   0.192  -5.109  1.00  0.00     0.115 A 
ATOM     16  C   UNL     1       5.829  -0.315  -3.257  1.00  0.00     0.016 A 
ATOM     17  C   UNL     1       7.120  -0.182  -3.776  1.00  0.00     0.047 A 
BRANCH  15  18
ATOM     18  O   UNL     1       8.602   0.319  -5.613  1.00  0.00    -0.508 OA
ATOM     19  H   UNL     1       9.206   1.083  -5.334  1.00  0.00     0.293 HD
ENDBRANCH  15  18
ENDBRANCH   1  12
BRANCH   2  20
ATOM     20  O   UNL     1       3.332  -2.622  -3.748  1.00  0.00    -0.502 OA
ATOM     21  H   UNL     1       3.353  -3.441  -3.153  1.00  0.00     0.293 HD
ENDBRANCH   2  20
BRANCH   6  22
ATOM     22  O   UNL     1      -1.299  -1.357  -1.747  1.00  0.00    -0.507 OA
ATOM     23  H   UNL     1      -2.237  -1.482  -2.110  1.00  0.00     0.293 HD
ENDBRANCH   6  22
BRANCH   8  24
ATOM     24  O   UNL     1      -1.033   3.458  -1.635  1.00  0.00    -0.508 OA
ATOM     25  H   UNL     1      -1.869   3.770  -2.115  1.00  0.00     0.293 HD
ENDBRANCH   8  24
TORSDOF 5
ENDMDL
