MODEL 1
REMARK VINA RESULT:    -3.351      0.000      0.000
REMARK INTER + INTRA:          -4.192
REMARK INTER:                  -4.037
REMARK INTRA:                  -0.155
REMARK UNBOUND:                -0.155
REMARK SMILES CC[C@@H](C)[C@@H]([NH3+])C(=O)[O-]
REMARK SMILES IDX 3 1 4 2 5 3 6 4 7 8 8 9 9 10 2 11 1 12
REMARK H PARENT 6 5 6 6 6 7
REMARK Flexibility Score: inf
ROOT
ATOM      1  C   UNL     1     -23.341   4.331   7.657  1.00  0.00     0.050 C 
ATOM      2  C   UNL     1     -23.601   5.145   6.375  1.00  0.00     0.014 C 
ENDROOT
BRANCH   1   3
ATOM      3  C   UNL     1     -22.212   3.272   7.441  1.00  0.00     0.230 C 
BRANCH   3   4
ATOM      4  N   UNL     1     -20.949   3.684   8.070  1.00  0.00    -0.350 N 
ATOM      5  H   UNL     1     -20.918   3.372   9.066  1.00  0.00     0.345 HD
ATOM      6  H   UNL     1     -20.871   4.728   8.072  1.00  0.00     0.345 HD
ATOM      7  H   UNL     1     -20.131   3.285   7.553  1.00  0.00     0.345 HD
ENDBRANCH   3   4
BRANCH   3   8
ATOM      8  C   UNL     1     -22.630   1.932   7.995  1.00  0.00     0.099 C 
ATOM      9  O   UNL     1     -23.845   1.603   8.010  1.00  0.00    -0.544 OA
ATOM     10  O   UNL     1     -21.677   1.056   8.500  1.00  0.00    -0.544 OA
ENDBRANCH   3   8
ENDBRANCH   1   3
BRANCH   1  11
ATOM     11  C   UNL     1     -23.097   5.273   8.864  1.00  0.00     0.006 C 
ATOM     12  C   UNL     1     -23.915   4.933  10.114  1.00  0.00     0.004 C 
ENDBRANCH   1  11
TORSDOF 4
ENDMDL
MODEL 2
REMARK VINA RESULT:    -3.169      8.004      9.049
REMARK INTER + INTRA:          -3.973
REMARK INTER:                  -3.906
REMARK INTRA:                  -0.068
REMARK UNBOUND:                -0.155
REMARK SMILES CC[C@@H](C)[C@@H]([NH3+])C(=O)[O-]
REMARK SMILES IDX 3 1 4 2 5 3 6 4 7 8 8 9 9 10 2 11 1 12
REMARK H PARENT 6 5 6 6 6 7
REMARK Flexibility Score: inf
ROOT
ATOM      1  C   UNL     1     -26.699  -3.414   7.661  1.00  0.00     0.050 C 
ATOM      2  C   UNL     1     -25.608  -2.347   7.875  1.00  0.00     0.014 C 
ENDROOT
BRANCH   1   3
ATOM      3  C   UNL     1     -26.486  -4.645   8.598  1.00  0.00     0.230 C 
BRANCH   3   4
ATOM      4  N   UNL     1     -27.477  -4.685   9.683  1.00  0.00    -0.350 N 
ATOM      5  H   UNL     1     -27.529  -5.645  10.094  1.00  0.00     0.345 HD
ATOM      6  H   UNL     1     -28.429  -4.459   9.310  1.00  0.00     0.345 HD
ATOM      7  H   UNL     1     -27.235  -3.997  10.433  1.00  0.00     0.345 HD
ENDBRANCH   3   4
BRANCH   3   8
ATOM      8  C   UNL     1     -26.558  -5.930   7.811  1.00  0.00     0.099 C 
ATOM      9  O   UNL     1     -27.251  -6.893   8.231  1.00  0.00    -0.544 OA
ATOM     10  O   UNL     1     -25.854  -6.062   6.620  1.00  0.00    -0.544 OA
ENDBRANCH   3   8
ENDBRANCH   1   3
BRANCH   1  11
ATOM     11  C   UNL     1     -28.111  -2.781   7.765  1.00  0.00     0.006 C 
ATOM     12  C   UNL     1     -28.538  -1.969   6.538  1.00  0.00     0.004 C 
ENDBRANCH   1  11
TORSDOF 4
ENDMDL
MODEL 3
REMARK VINA RESULT:    -3.140     15.693     16.554
REMARK INTER + INTRA:          -3.938
REMARK INTER:                  -3.941
REMARK INTRA:                   0.002
REMARK UNBOUND:                -0.155
REMARK SMILES CC[C@@H](C)[C@@H]([NH3+])C(=O)[O-]
REMARK SMILES IDX 3 1 4 2 5 3 6 4 7 8 8 9 9 10 2 11 1 12
REMARK H PARENT 6 5 6 6 6 7
REMARK Flexibility Score: inf
ROOT
ATOM      1  C   UNL     1     -22.500  -2.740  -7.759  1.00  0.00     0.050 C 
ATOM      2  C   UNL     1     -23.213  -2.773  -9.125  1.00  0.00     0.014 C 
ENDROOT
BRANCH   1   3
ATOM      3  C   UNL     1     -21.900  -1.329  -7.462  1.00  0.00     0.230 C 
BRANCH   3   4
ATOM      4  N   UNL     1     -21.574  -0.602  -8.698  1.00  0.00    -0.350 N 
ATOM      5  H   UNL     1     -21.829  -1.173  -9.535  1.00  0.00     0.345 HD
ATOM      6  H   UNL     1     -20.544  -0.423  -8.750  1.00  0.00     0.345 HD
ATOM      7  H   UNL     1     -22.079   0.314  -8.733  1.00  0.00     0.345 HD
ENDBRANCH   3   4
BRANCH   3   8
ATOM      8  C   UNL     1     -22.861  -0.506  -6.640  1.00  0.00     0.099 C 
ATOM      9  O   UNL     1     -23.833   0.072  -7.192  1.00  0.00    -0.544 OA
ATOM     10  O   UNL     1     -22.674  -0.375  -5.269  1.00  0.00    -0.544 OA
ENDBRANCH   3   8
ENDBRANCH   1   3
BRANCH   1  11
ATOM     11  C   UNL     1     -23.434  -3.273  -6.642  1.00  0.00     0.006 C 
ATOM     12  C   UNL     1     -23.482  -4.801  -6.525  1.00  0.00     0.004 C 
ENDBRANCH   1  11
TORSDOF 4
ENDMDL
MODEL 4
REMARK VINA RESULT:    -3.127      2.592      3.717
REMARK INTER + INTRA:          -3.922
REMARK INTER:                  -3.826
REMARK INTRA:                  -0.095
REMARK UNBOUND:                -0.155
REMARK SMILES CC[C@@H](C)[C@@H]([NH3+])C(=O)[O-]
REMARK SMILES IDX 3 1 4 2 5 3 6 4 7 8 8 9 9 10 2 11 1 12
REMARK H PARENT 6 5 6 6 6 7
REMARK Flexibility Score: inf
ROOT
ATOM      1  C   UNL     1     -21.184   3.139   7.963  1.00  0.00     0.050 C 
ATOM      2  C   UNL     1     -20.752   2.657   6.565  1.00  0.00     0.014 C 
ENDROOT
BRANCH   1   3
ATOM      3  C   UNL     1     -22.714   3.450   8.012  1.00  0.00     0.230 C 
BRANCH   3   4
ATOM      4  N   UNL     1     -23.467   2.387   8.693  1.00  0.00    -0.350 N 
ATOM      5  H   UNL     1     -23.557   1.550   8.074  1.00  0.00     0.345 HD
ATOM      6  H   UNL     1     -24.438   2.715   8.909  1.00  0.00     0.345 HD
ATOM      7  H   UNL     1     -22.996   2.112   9.586  1.00  0.00     0.345 HD
ENDBRANCH   3   4
BRANCH   3   8
ATOM      8  C   UNL     1     -22.966   4.763   8.711  1.00  0.00     0.099 C 
ATOM      9  O   UNL     1     -23.132   5.816   8.041  1.00  0.00    -0.544 OA
ATOM     10  O   UNL     1     -23.009   4.821  10.099  1.00  0.00    -0.544 OA
ENDBRANCH   3   8
ENDBRANCH   1   3
BRANCH   1  11
ATOM     11  C   UNL     1     -20.709   2.146   9.055  1.00  0.00     0.006 C 
ATOM     12  C   UNL     1     -20.074   0.860   8.516  1.00  0.00     0.004 C 
ENDBRANCH   1  11
TORSDOF 4
ENDMDL
MODEL 5
REMARK VINA RESULT:    -3.069     15.674     16.506
REMARK INTER + INTRA:          -3.852
REMARK INTER:                  -3.760
REMARK INTRA:                  -0.092
REMARK UNBOUND:                -0.155
REMARK SMILES CC[C@@H](C)[C@@H]([NH3+])C(=O)[O-]
REMARK SMILES IDX 3 1 4 2 5 3 6 4 7 8 8 9 9 10 2 11 1 12
REMARK H PARENT 6 5 6 6 6 7
REMARK Flexibility Score: inf
ROOT
ATOM      1  C   UNL     1     -21.402  -1.380  -6.891  1.00  0.00     0.050 C 
ATOM      2  C   UNL     1     -21.119  -1.082  -5.405  1.00  0.00     0.014 C 
ENDROOT
BRANCH   1   3
ATOM      3  C   UNL     1     -22.911  -1.707  -7.129  1.00  0.00     0.230 C 
BRANCH   3   4
ATOM      4  N   UNL     1     -23.580  -0.660  -7.915  1.00  0.00    -0.350 N 
ATOM      5  H   UNL     1     -23.001  -0.399  -8.744  1.00  0.00     0.345 HD
ATOM      6  H   UNL     1     -23.697   0.205  -7.337  1.00  0.00     0.345 HD
ATOM      7  H   UNL     1     -24.523  -0.983  -8.235  1.00  0.00     0.345 HD
ENDBRANCH   3   4
BRANCH   3   8
ATOM      8  C   UNL     1     -23.060  -3.032  -7.836  1.00  0.00     0.099 C 
ATOM      9  O   UNL     1     -22.872  -3.112  -9.079  1.00  0.00    -0.544 OA
ATOM     10  O   UNL     1     -23.414  -4.170  -7.122  1.00  0.00    -0.544 OA
ENDBRANCH   3   8
ENDBRANCH   1   3
BRANCH   1  11
ATOM     11  C   UNL     1     -20.855  -0.241  -7.790  1.00  0.00     0.006 C 
ATOM     12  C   UNL     1     -20.217   0.924  -7.028  1.00  0.00     0.004 C 
ENDBRANCH   1  11
TORSDOF 4
ENDMDL
MODEL 6
REMARK VINA RESULT:    -3.058     15.318     16.220
REMARK INTER + INTRA:          -3.839
REMARK INTER:                  -3.693
REMARK INTRA:                  -0.146
REMARK UNBOUND:                -0.155
REMARK SMILES CC[C@@H](C)[C@@H]([NH3+])C(=O)[O-]
REMARK SMILES IDX 3 1 4 2 5 3 6 4 7 8 8 9 9 10 2 11 1 12
REMARK H PARENT 6 5 6 6 6 7
REMARK Flexibility Score: inf
ROOT
ATOM      1  C   UNL     1     -23.111  -2.066  -8.015  1.00  0.00     0.050 C 
ATOM      2  C   UNL     1     -23.124  -3.135  -9.125  1.00  0.00     0.014 C 
ENDROOT
BRANCH   1   3
ATOM      3  C   UNL     1     -24.014  -2.484  -6.810  1.00  0.00     0.230 C 
BRANCH   3   4
ATOM      4  N   UNL     1     -23.509  -3.692  -6.141  1.00  0.00    -0.350 N 
ATOM      5  H   UNL     1     -24.035  -3.865  -5.255  1.00  0.00     0.345 HD
ATOM      6  H   UNL     1     -22.502  -3.565  -5.880  1.00  0.00     0.345 HD
ATOM      7  H   UNL     1     -23.594  -4.526  -6.767  1.00  0.00     0.345 HD
ENDBRANCH   3   4
BRANCH   3   8
ATOM      8  C   UNL     1     -24.109  -1.362  -5.805  1.00  0.00     0.099 C 
ATOM      9  O   UNL     1     -24.701  -0.292  -6.105  1.00  0.00    -0.544 OA
ATOM     10  O   UNL     1     -23.539  -1.500  -4.546  1.00  0.00    -0.544 OA
ENDBRANCH   3   8
ENDBRANCH   1   3
BRANCH   1  11
ATOM     11  C   UNL     1     -21.656  -1.709  -7.616  1.00  0.00     0.006 C 
ATOM     12  C   UNL     1     -21.240  -0.270  -7.941  1.00  0.00     0.004 C 
ENDBRANCH   1  11
TORSDOF 4
ENDMDL
MODEL 7
REMARK VINA RESULT:    -3.020      9.131     10.359
REMARK INTER + INTRA:          -3.794
REMARK INTER:                  -3.640
REMARK INTRA:                  -0.154
REMARK UNBOUND:                -0.155
REMARK SMILES CC[C@@H](C)[C@@H]([NH3+])C(=O)[O-]
REMARK SMILES IDX 3 1 4 2 5 3 6 4 7 8 8 9 9 10 2 11 1 12
REMARK H PARENT 6 5 6 6 6 7
REMARK Flexibility Score: inf
ROOT
ATOM      1  C   UNL     1     -30.331  10.221   3.440  1.00  0.00     0.050 C 
ATOM      2  C   UNL     1     -30.643  11.700   3.139  1.00  0.00     0.014 C 
ENDROOT
BRANCH   1   3
ATOM      3  C   UNL     1     -29.225  10.082   4.535  1.00  0.00     0.230 C 
BRANCH   3   4
ATOM      4  N   UNL     1     -29.747   9.470   5.765  1.00  0.00    -0.350 N 
ATOM      5  H   UNL     1     -30.749   9.730   5.906  1.00  0.00     0.345 HD
ATOM      6  H   UNL     1     -29.218   9.825   6.596  1.00  0.00     0.345 HD
ATOM      7  H   UNL     1     -29.658   8.428   5.727  1.00  0.00     0.345 HD
ENDBRANCH   3   4
BRANCH   3   8
ATOM      8  C   UNL     1     -28.070   9.259   4.020  1.00  0.00     0.099 C 
ATOM      9  O   UNL     1     -28.281   8.274   3.265  1.00  0.00    -0.544 OA
ATOM     10  O   UNL     1     -26.767   9.578   4.383  1.00  0.00    -0.544 OA
ENDBRANCH   3   8
ENDBRANCH   1   3
BRANCH   1  11
ATOM     11  C   UNL     1     -31.633   9.441   3.759  1.00  0.00     0.006 C 
ATOM     12  C   UNL     1     -31.808   8.141   2.966  1.00  0.00     0.004 C 
ENDBRANCH   1  11
TORSDOF 4
ENDMDL
MODEL 8
REMARK VINA RESULT:    -2.995     15.413     16.388
REMARK INTER + INTRA:          -3.763
REMARK INTER:                  -3.598
REMARK INTRA:                  -0.164
REMARK UNBOUND:                -0.155
REMARK SMILES CC[C@@H](C)[C@@H]([NH3+])C(=O)[O-]
REMARK SMILES IDX 3 1 4 2 5 3 6 4 7 8 8 9 9 10 2 11 1 12
REMARK H PARENT 6 5 6 6 6 7
REMARK Flexibility Score: inf
ROOT
ATOM      1  C   UNL     1     -23.182  -2.271  -6.681  1.00  0.00     0.050 C 
ATOM      2  C   UNL     1     -23.382  -3.064  -5.375  1.00  0.00     0.014 C 
ENDROOT
BRANCH   1   3
ATOM      3  C   UNL     1     -22.100  -1.158  -6.513  1.00  0.00     0.230 C 
BRANCH   3   4
ATOM      4  N   UNL     1     -20.922  -1.408  -7.356  1.00  0.00    -0.350 N 
ATOM      5  H   UNL     1     -21.015  -2.323  -7.852  1.00  0.00     0.345 HD
ATOM      6  H   UNL     1     -20.061  -1.467  -6.763  1.00  0.00     0.345 HD
ATOM      7  H   UNL     1     -20.798  -0.641  -8.057  1.00  0.00     0.345 HD
ENDBRANCH   3   4
BRANCH   3   8
ATOM      8  C   UNL     1     -22.675   0.196  -6.851  1.00  0.00     0.099 C 
ATOM      9  O   UNL     1     -21.978   1.234  -6.706  1.00  0.00    -0.544 OA
ATOM     10  O   UNL     1     -23.979   0.305  -7.317  1.00  0.00    -0.544 OA
ENDBRANCH   3   8
ENDBRANCH   1   3
BRANCH   1  11
ATOM     11  C   UNL     1     -22.917  -3.233  -7.868  1.00  0.00     0.006 C 
ATOM     12  C   UNL     1     -23.745  -2.940  -9.124  1.00  0.00     0.004 C 
ENDBRANCH   1  11
TORSDOF 4
ENDMDL
MODEL 9
REMARK VINA RESULT:    -2.986     15.207     16.166
REMARK INTER + INTRA:          -3.752
REMARK INTER:                  -3.620
REMARK INTRA:                  -0.132
REMARK UNBOUND:                -0.155
REMARK SMILES CC[C@@H](C)[C@@H]([NH3+])C(=O)[O-]
REMARK SMILES IDX 3 1 4 2 5 3 6 4 7 8 8 9 9 10 2 11 1 12
REMARK H PARENT 6 5 6 6 6 7
REMARK Flexibility Score: inf
ROOT
ATOM      1  C   UNL     1     -22.146  -1.259  -7.352  1.00  0.00     0.050 C 
ATOM      2  C   UNL     1     -20.860  -0.538  -7.801  1.00  0.00     0.014 C 
ENDROOT
BRANCH   1   3
ATOM      3  C   UNL     1     -23.141  -0.274  -6.661  1.00  0.00     0.230 C 
BRANCH   3   4
ATOM      4  N   UNL     1     -23.800   0.610  -7.633  1.00  0.00    -0.350 N 
ATOM      5  H   UNL     1     -24.160   0.058  -8.443  1.00  0.00     0.345 HD
ATOM      6  H   UNL     1     -23.113   1.302  -8.014  1.00  0.00     0.345 HD
ATOM      7  H   UNL     1     -24.591   1.129  -7.185  1.00  0.00     0.345 HD
ENDBRANCH   3   4
BRANCH   3   8
ATOM      8  C   UNL     1     -24.192  -1.036  -5.890  1.00  0.00     0.099 C 
ATOM      9  O   UNL     1     -25.376  -0.612  -5.845  1.00  0.00    -0.544 OA
ATOM     10  O   UNL     1     -23.856  -2.205  -5.218  1.00  0.00    -0.544 OA
ENDBRANCH   3   8
ENDBRANCH   1   3
BRANCH   1  11
ATOM     11  C   UNL     1     -22.765  -2.056  -8.529  1.00  0.00     0.006 C 
ATOM     12  C   UNL     1     -22.791  -3.575  -8.328  1.00  0.00     0.004 C 
ENDBRANCH   1  11
TORSDOF 4
ENDMDL
