MODEL 1
REMARK VINA RESULT:    -5.606      0.000      0.000
REMARK INTER + INTRA:          -7.567
REMARK INTER:                  -7.081
REMARK INTRA:                  -0.486
REMARK UNBOUND:                -0.486
REMARK SMILES O=C(C=Cc1ccc(O)cc1)c1ccc(O)cc1O
REMARK SMILES IDX 4 1 3 2 5 3 6 4 7 5 8 6 11 7 10 8 9 9 2 11 1 12 12 13 18 14
REMARK SMILES IDX 13 15 17 16 14 17 15 18 19 19 16 21
REMARK H PARENT 9 10 19 20 16 22
REMARK Flexibility Score: inf
ROOT
ATOM      1  C   UNL     1       0.547  -7.845   4.671  1.00  0.00     0.012 C 
ATOM      2  C   UNL     1       0.173  -7.188   5.778  1.00  0.00     0.053 C 
ENDROOT
BRANCH   1   3
ATOM      3  C   UNL     1       1.953  -8.214   4.368  1.00  0.00    -0.025 A 
ATOM      4  C   UNL     1       2.296  -9.399   3.686  1.00  0.00     0.012 A 
ATOM      5  C   UNL     1       3.637  -9.707   3.435  1.00  0.00     0.047 A 
ATOM      6  C   UNL     1       4.651  -8.849   3.867  1.00  0.00     0.115 A 
ATOM      7  C   UNL     1       2.981  -7.365   4.812  1.00  0.00     0.012 A 
ATOM      8  C   UNL     1       4.320  -7.677   4.559  1.00  0.00     0.047 A 
BRANCH   6   9
ATOM      9  O   UNL     1       5.981  -9.169   3.607  1.00  0.00    -0.508 OA
ATOM     10  H   UNL     1       6.597  -8.525   3.124  1.00  0.00     0.293 HD
ENDBRANCH   6   9
ENDBRANCH   1   3
BRANCH   2  11
ATOM     11  C   UNL     1      -1.243  -6.852   6.054  1.00  0.00     0.189 C 
ATOM     12  O   UNL     1      -2.140  -7.718   5.857  1.00  0.00    -0.289 OA
BRANCH  11  13
ATOM     13  C   UNL     1      -1.625  -5.513   6.570  1.00  0.00     0.064 A 
ATOM     14  C   UNL     1      -2.877  -5.304   7.188  1.00  0.00     0.130 A 
ATOM     15  C   UNL     1      -0.744  -4.423   6.429  1.00  0.00     0.020 A 
ATOM     16  C   UNL     1      -3.224  -4.026   7.653  1.00  0.00     0.093 A 
ATOM     17  C   UNL     1      -1.099  -3.157   6.898  1.00  0.00     0.047 A 
ATOM     18  C   UNL     1      -2.337  -2.954   7.511  1.00  0.00     0.119 A 
BRANCH  14  19
ATOM     19  O   UNL     1      -3.769  -6.364   7.355  1.00  0.00    -0.507 OA
ATOM     20  H   UNL     1      -4.739  -6.208   7.603  1.00  0.00     0.293 HD
ENDBRANCH  14  19
BRANCH  18  21
ATOM     21  O   UNL     1      -2.676  -1.684   7.972  1.00  0.00    -0.508 OA
ATOM     22  H   UNL     1      -3.635  -1.355   7.961  1.00  0.00     0.293 HD
ENDBRANCH  18  21
ENDBRANCH  11  13
ENDBRANCH   2  11
TORSDOF 6
ENDMDL
MODEL 2
REMARK VINA RESULT:    -5.558      1.889      2.415
REMARK INTER + INTRA:          -7.506
REMARK INTER:                  -6.894
REMARK INTRA:                  -0.612
REMARK UNBOUND:                -0.486
REMARK SMILES O=C(C=Cc1ccc(O)cc1)c1ccc(O)cc1O
REMARK SMILES IDX 4 1 3 2 5 3 6 4 7 5 8 6 11 7 10 8 9 9 2 11 1 12 12 13 18 14
REMARK SMILES IDX 13 15 17 16 14 17 15 18 19 19 16 21
REMARK H PARENT 9 10 19 20 16 22
REMARK Flexibility Score: inf
ROOT
ATOM      1  C   UNL     1       0.345  -6.195   5.567  1.00  0.00     0.012 C 
ATOM      2  C   UNL     1      -0.286  -5.339   6.383  1.00  0.00     0.053 C 
ENDROOT
BRANCH   1   3
ATOM      3  C   UNL     1       1.821  -6.258   5.421  1.00  0.00    -0.025 A 
ATOM      4  C   UNL     1       2.481  -7.366   4.851  1.00  0.00     0.012 A 
ATOM      5  C   UNL     1       3.875  -7.382   4.747  1.00  0.00     0.047 A 
ATOM      6  C   UNL     1       4.630  -6.304   5.216  1.00  0.00     0.115 A 
ATOM      7  C   UNL     1       2.591  -5.186   5.904  1.00  0.00     0.012 A 
ATOM      8  C   UNL     1       3.984  -5.206   5.797  1.00  0.00     0.047 A 
BRANCH   6   9
ATOM      9  O   UNL     1       6.018  -6.335   5.104  1.00  0.00    -0.508 OA
ATOM     10  H   UNL     1       6.602  -6.689   5.852  1.00  0.00     0.293 HD
ENDBRANCH   6   9
ENDBRANCH   1   3
BRANCH   2  11
ATOM     11  C   UNL     1      -1.761  -5.318   6.515  1.00  0.00     0.189 C 
ATOM     12  O   UNL     1      -2.408  -6.400   6.465  1.00  0.00    -0.289 OA
BRANCH  11  13
ATOM     13  C   UNL     1      -2.492  -4.040   6.715  1.00  0.00     0.064 A 
ATOM     14  C   UNL     1      -3.396  -3.563   5.741  1.00  0.00     0.130 A 
ATOM     15  C   UNL     1      -2.274  -3.274   7.876  1.00  0.00     0.020 A 
ATOM     16  C   UNL     1      -4.063  -2.345   5.942  1.00  0.00     0.093 A 
ATOM     17  C   UNL     1      -2.945  -2.065   8.067  1.00  0.00     0.047 A 
ATOM     18  C   UNL     1      -3.840  -1.597   7.103  1.00  0.00     0.119 A 
BRANCH  14  19
ATOM     19  O   UNL     1      -3.644  -4.302   4.583  1.00  0.00    -0.507 OA
ATOM     20  H   UNL     1      -2.895  -4.742   4.063  1.00  0.00     0.293 HD
ENDBRANCH  14  19
BRANCH  18  21
ATOM     21  O   UNL     1      -4.501  -0.388   7.308  1.00  0.00    -0.508 OA
ATOM     22  H   UNL     1      -4.149   0.480   6.921  1.00  0.00     0.293 HD
ENDBRANCH  18  21
ENDBRANCH  11  13
ENDBRANCH   2  11
TORSDOF 6
ENDMDL
MODEL 3
REMARK VINA RESULT:    -5.542      3.158      5.493
REMARK INTER + INTRA:          -7.486
REMARK INTER:                  -6.898
REMARK INTRA:                  -0.588
REMARK UNBOUND:                -0.486
REMARK SMILES O=C(C=Cc1ccc(O)cc1)c1ccc(O)cc1O
REMARK SMILES IDX 4 1 3 2 5 3 6 4 7 5 8 6 11 7 10 8 9 9 2 11 1 12 12 13 18 14
REMARK SMILES IDX 13 15 17 16 14 17 15 18 19 19 16 21
REMARK H PARENT 9 10 19 20 16 22
REMARK Flexibility Score: inf
ROOT
ATOM      1  C   UNL     1       5.277  -7.081   4.878  1.00  0.00     0.012 C 
ATOM      2  C   UNL     1       4.558  -7.847   4.045  1.00  0.00     0.053 C 
ENDROOT
BRANCH   1   3
ATOM      3  C   UNL     1       6.372  -6.184   4.432  1.00  0.00    -0.025 A 
ATOM      4  C   UNL     1       7.132  -6.433   3.270  1.00  0.00     0.012 A 
ATOM      5  C   UNL     1       8.161  -5.563   2.899  1.00  0.00     0.047 A 
ATOM      6  C   UNL     1       8.455  -4.442   3.680  1.00  0.00     0.115 A 
ATOM      7  C   UNL     1       6.686  -5.063   5.219  1.00  0.00     0.012 A 
ATOM      8  C   UNL     1       7.716  -4.196   4.844  1.00  0.00     0.047 A 
BRANCH   6   9
ATOM      9  O   UNL     1       9.483  -3.585   3.295  1.00  0.00    -0.508 OA
ATOM     10  H   UNL     1       9.412  -2.582   3.425  1.00  0.00     0.293 HD
ENDBRANCH   6   9
ENDBRANCH   1   3
BRANCH   2  11
ATOM     11  C   UNL     1       3.460  -8.718   4.526  1.00  0.00     0.189 C 
ATOM     12  O   UNL     1       3.701  -9.919   4.825  1.00  0.00    -0.289 OA
BRANCH  11  13
ATOM     13  C   UNL     1       2.078  -8.194   4.670  1.00  0.00     0.064 A 
ATOM     14  C   UNL     1       0.976  -8.900   4.140  1.00  0.00     0.130 A 
ATOM     15  C   UNL     1       1.850  -6.967   5.324  1.00  0.00     0.020 A 
ATOM     16  C   UNL     1      -0.320  -8.379   4.273  1.00  0.00     0.093 A 
ATOM     17  C   UNL     1       0.556  -6.459   5.453  1.00  0.00     0.047 A 
ATOM     18  C   UNL     1      -0.531  -7.161   4.929  1.00  0.00     0.119 A 
BRANCH  14  19
ATOM     19  O   UNL     1       1.164 -10.124   3.496  1.00  0.00    -0.507 OA
ATOM     20  H   UNL     1       1.907 -10.757   3.765  1.00  0.00     0.293 HD
ENDBRANCH  14  19
BRANCH  18  21
ATOM     21  O   UNL     1      -1.816  -6.640   5.065  1.00  0.00    -0.508 OA
ATOM     22  H   UNL     1      -2.340  -6.741   5.927  1.00  0.00     0.293 HD
ENDBRANCH  18  21
ENDBRANCH  11  13
ENDBRANCH   2  11
TORSDOF 6
ENDMDL
MODEL 4
REMARK VINA RESULT:    -5.503      3.407      8.362
REMARK INTER + INTRA:          -7.437
REMARK INTER:                  -6.807
REMARK INTRA:                  -0.630
REMARK UNBOUND:                -0.486
REMARK SMILES O=C(C=Cc1ccc(O)cc1)c1ccc(O)cc1O
REMARK SMILES IDX 4 1 3 2 5 3 6 4 7 5 8 6 11 7 10 8 9 9 2 11 1 12 12 13 18 14
REMARK SMILES IDX 13 15 17 16 14 17 15 18 19 19 16 21
REMARK H PARENT 9 10 19 20 16 22
REMARK Flexibility Score: inf
ROOT
ATOM      1  C   UNL     1       4.139  -8.105   4.504  1.00  0.00     0.012 C 
ATOM      2  C   UNL     1       5.012  -7.389   5.228  1.00  0.00     0.053 C 
ENDROOT
BRANCH   1   3
ATOM      3  C   UNL     1       2.668  -7.922   4.572  1.00  0.00    -0.025 A 
ATOM      4  C   UNL     1       1.761  -8.867   4.049  1.00  0.00     0.012 A 
ATOM      5  C   UNL     1       0.383  -8.643   4.128  1.00  0.00     0.047 A 
ATOM      6  C   UNL     1      -0.110  -7.476   4.718  1.00  0.00     0.115 A 
ATOM      7  C   UNL     1       2.162  -6.745   5.149  1.00  0.00     0.012 A 
ATOM      8  C   UNL     1       0.784  -6.526   5.226  1.00  0.00     0.047 A 
BRANCH   6   9
ATOM      9  O   UNL     1      -1.486  -7.269   4.790  1.00  0.00    -0.508 OA
ATOM     10  H   UNL     1      -2.072  -7.316   3.965  1.00  0.00     0.293 HD
ENDBRANCH   6   9
ENDBRANCH   1   3
BRANCH   2  11
ATOM     11  C   UNL     1       6.475  -7.587   5.120  1.00  0.00     0.189 C 
ATOM     12  O   UNL     1       6.987  -8.677   5.496  1.00  0.00    -0.289 OA
BRANCH  11  13
ATOM     13  C   UNL     1       7.351  -6.525   4.564  1.00  0.00     0.064 A 
ATOM     14  C   UNL     1       8.198  -5.770   5.405  1.00  0.00     0.130 A 
ATOM     15  C   UNL     1       7.332  -6.240   3.185  1.00  0.00     0.020 A 
ATOM     16  C   UNL     1       9.005  -4.759   4.862  1.00  0.00     0.093 A 
ATOM     17  C   UNL     1       8.142  -5.233   2.655  1.00  0.00     0.047 A 
ATOM     18  C   UNL     1       8.978  -4.491   3.490  1.00  0.00     0.119 A 
BRANCH  14  19
ATOM     19  O   UNL     1       8.250  -6.032   6.775  1.00  0.00    -0.507 OA
ATOM     20  H   UNL     1       7.921  -6.909   7.161  1.00  0.00     0.293 HD
ENDBRANCH  14  19
BRANCH  18  21
ATOM     21  O   UNL     1       9.779  -3.489   2.945  1.00  0.00    -0.508 OA
ATOM     22  H   UNL     1      10.409  -2.942   3.521  1.00  0.00     0.293 HD
ENDBRANCH  18  21
ENDBRANCH  11  13
ENDBRANCH   2  11
TORSDOF 6
ENDMDL
MODEL 5
REMARK VINA RESULT:    -5.381      4.251      6.580
REMARK INTER + INTRA:          -7.282
REMARK INTER:                  -6.623
REMARK INTRA:                  -0.659
REMARK UNBOUND:                -0.486
REMARK SMILES O=C(C=Cc1ccc(O)cc1)c1ccc(O)cc1O
REMARK SMILES IDX 4 1 3 2 5 3 6 4 7 5 8 6 11 7 10 8 9 9 2 11 1 12 12 13 18 14
REMARK SMILES IDX 13 15 17 16 14 17 15 18 19 19 16 21
REMARK H PARENT 9 10 19 20 16 22
REMARK Flexibility Score: inf
ROOT
ATOM      1  C   UNL     1       2.667  -3.724   6.630  1.00  0.00     0.012 C 
ATOM      2  C   UNL     1       1.628  -4.081   5.862  1.00  0.00     0.053 C 
ENDROOT
BRANCH   1   3
ATOM      3  C   UNL     1       3.522  -2.541   6.360  1.00  0.00    -0.025 A 
ATOM      4  C   UNL     1       3.345  -1.309   7.024  1.00  0.00     0.012 A 
ATOM      5  C   UNL     1       4.169  -0.220   6.726  1.00  0.00     0.047 A 
ATOM      6  C   UNL     1       5.171  -0.337   5.758  1.00  0.00     0.115 A 
ATOM      7  C   UNL     1       4.522  -2.643   5.378  1.00  0.00     0.012 A 
ATOM      8  C   UNL     1       5.344  -1.552   5.083  1.00  0.00     0.047 A 
BRANCH   6   9
ATOM      9  O   UNL     1       5.985   0.757   5.474  1.00  0.00    -0.508 OA
ATOM     10  H   UNL     1       6.475   0.836   4.590  1.00  0.00     0.293 HD
ENDBRANCH   6   9
ENDBRANCH   1   3
BRANCH   2  11
ATOM     11  C   UNL     1       0.787  -5.260   6.173  1.00  0.00     0.189 C 
ATOM     12  O   UNL     1      -0.068  -5.190   7.099  1.00  0.00    -0.289 OA
BRANCH  11  13
ATOM     13  C   UNL     1       0.927  -6.523   5.405  1.00  0.00     0.064 A 
ATOM     14  C   UNL     1      -0.211  -7.250   4.992  1.00  0.00     0.130 A 
ATOM     15  C   UNL     1       2.206  -7.026   5.096  1.00  0.00     0.020 A 
ATOM     16  C   UNL     1      -0.056  -8.450   4.282  1.00  0.00     0.093 A 
ATOM     17  C   UNL     1       2.348  -8.220   4.386  1.00  0.00     0.047 A 
ATOM     18  C   UNL     1       1.220  -8.935   3.978  1.00  0.00     0.119 A 
BRANCH  14  19
ATOM     19  O   UNL     1      -1.494  -6.776   5.272  1.00  0.00    -0.507 OA
ATOM     20  H   UNL     1      -1.653  -5.823   5.576  1.00  0.00     0.293 HD
ENDBRANCH  14  19
BRANCH  18  21
ATOM     21  O   UNL     1       1.380 -10.125   3.272  1.00  0.00    -0.508 OA
ATOM     22  H   UNL     1       0.778 -10.363   2.491  1.00  0.00     0.293 HD
ENDBRANCH  18  21
ENDBRANCH  11  13
ENDBRANCH   2  11
TORSDOF 6
ENDMDL
MODEL 6
REMARK VINA RESULT:    -5.315      1.552      7.693
REMARK INTER + INTRA:          -7.199
REMARK INTER:                  -6.581
REMARK INTRA:                  -0.618
REMARK UNBOUND:                -0.486
REMARK SMILES O=C(C=Cc1ccc(O)cc1)c1ccc(O)cc1O
REMARK SMILES IDX 4 1 3 2 5 3 6 4 7 5 8 6 11 7 10 8 9 9 2 11 1 12 12 13 18 14
REMARK SMILES IDX 13 15 17 16 14 17 15 18 19 19 16 21
REMARK H PARENT 9 10 19 20 16 22
REMARK Flexibility Score: inf
ROOT
ATOM      1  C   UNL     1      -2.041  -5.620   7.060  1.00  0.00     0.012 C 
ATOM      2  C   UNL     1      -1.250  -6.162   6.124  1.00  0.00     0.053 C 
ENDROOT
BRANCH   1   3
ATOM      3  C   UNL     1      -2.598  -4.247   6.973  1.00  0.00    -0.025 A 
ATOM      4  C   UNL     1      -2.458  -3.304   8.011  1.00  0.00     0.012 A 
ATOM      5  C   UNL     1      -3.011  -2.026   7.885  1.00  0.00     0.047 A 
ATOM      6  C   UNL     1      -3.718  -1.673   6.732  1.00  0.00     0.115 A 
ATOM      7  C   UNL     1      -3.324  -3.888   5.824  1.00  0.00     0.012 A 
ATOM      8  C   UNL     1      -3.875  -2.609   5.702  1.00  0.00     0.047 A 
BRANCH   6   9
ATOM      9  O   UNL     1      -4.262  -0.396   6.621  1.00  0.00    -0.508 OA
ATOM     10  H   UNL     1      -3.952   0.251   5.905  1.00  0.00     0.293 HD
ENDBRANCH   6   9
ENDBRANCH   1   3
BRANCH   2  11
ATOM     11  C   UNL     1      -0.727  -7.544   6.238  1.00  0.00     0.189 C 
ATOM     12  O   UNL     1      -1.284  -8.359   7.023  1.00  0.00    -0.289 OA
BRANCH  11  13
ATOM     13  C   UNL     1       0.440  -7.987   5.433  1.00  0.00     0.064 A 
ATOM     14  C   UNL     1       0.426  -9.228   4.759  1.00  0.00     0.130 A 
ATOM     15  C   UNL     1       1.591  -7.180   5.350  1.00  0.00     0.020 A 
ATOM     16  C   UNL     1       1.545  -9.636   4.019  1.00  0.00     0.093 A 
ATOM     17  C   UNL     1       2.698  -7.595   4.607  1.00  0.00     0.047 A 
ATOM     18  C   UNL     1       2.680  -8.821   3.941  1.00  0.00     0.119 A 
BRANCH  14  19
ATOM     19  O   UNL     1      -0.702 -10.049   4.811  1.00  0.00    -0.507 OA
ATOM     20  H   UNL     1      -1.639  -9.668   4.746  1.00  0.00     0.293 HD
ENDBRANCH  14  19
BRANCH  18  21
ATOM     21  O   UNL     1       3.793  -9.221   3.206  1.00  0.00    -0.508 OA
ATOM     22  H   UNL     1       3.710  -9.861   2.424  1.00  0.00     0.293 HD
ENDBRANCH  18  21
ENDBRANCH  11  13
ENDBRANCH   2  11
TORSDOF 6
ENDMDL
MODEL 7
REMARK VINA RESULT:    -5.128      4.439      5.855
REMARK INTER + INTRA:          -6.963
REMARK INTER:                  -6.340
REMARK INTRA:                  -0.623
REMARK UNBOUND:                -0.486
REMARK SMILES O=C(C=Cc1ccc(O)cc1)c1ccc(O)cc1O
REMARK SMILES IDX 4 1 3 2 5 3 6 4 7 5 8 6 11 7 10 8 9 9 2 11 1 12 12 13 18 14
REMARK SMILES IDX 13 15 17 16 14 17 15 18 19 19 16 21
REMARK H PARENT 9 10 19 20 16 22
REMARK Flexibility Score: inf
ROOT
ATOM      1  C   UNL     1       4.278  -5.850   5.688  1.00  0.00     0.012 C 
ATOM      2  C   UNL     1       4.013  -4.553   5.479  1.00  0.00     0.053 C 
ENDROOT
BRANCH   1   3
ATOM      3  C   UNL     1       3.500  -6.957   5.078  1.00  0.00    -0.025 A 
ATOM      4  C   UNL     1       4.113  -8.036   4.407  1.00  0.00     0.012 A 
ATOM      5  C   UNL     1       3.334  -9.049   3.839  1.00  0.00     0.047 A 
ATOM      6  C   UNL     1       1.940  -8.999   3.923  1.00  0.00     0.115 A 
ATOM      7  C   UNL     1       2.097  -6.909   5.143  1.00  0.00     0.012 A 
ATOM      8  C   UNL     1       1.323  -7.924   4.574  1.00  0.00     0.047 A 
BRANCH   6   9
ATOM      9  O   UNL     1       1.179 -10.017   3.353  1.00  0.00    -0.508 OA
ATOM     10  H   UNL     1       0.166  -9.999   3.380  1.00  0.00     0.293 HD
ENDBRANCH   6   9
ENDBRANCH   1   3
BRANCH   2  11
ATOM     11  C   UNL     1       4.824  -3.475   6.091  1.00  0.00     0.189 C 
ATOM     12  O   UNL     1       6.071  -3.624   6.213  1.00  0.00    -0.289 OA
BRANCH  11  13
ATOM     13  C   UNL     1       4.193  -2.213   6.555  1.00  0.00     0.064 A 
ATOM     14  C   UNL     1       4.513  -0.977   5.952  1.00  0.00     0.130 A 
ATOM     15  C   UNL     1       3.276  -2.232   7.624  1.00  0.00     0.020 A 
ATOM     16  C   UNL     1       3.918   0.205   6.418  1.00  0.00     0.093 A 
ATOM     17  C   UNL     1       2.687  -1.050   8.077  1.00  0.00     0.047 A 
ATOM     18  C   UNL     1       3.005   0.170   7.477  1.00  0.00     0.119 A 
BRANCH  14  19
ATOM     19  O   UNL     1       5.410  -0.923   4.884  1.00  0.00    -0.507 OA
ATOM     20  H   UNL     1       6.250  -0.359   4.923  1.00  0.00     0.293 HD
ENDBRANCH  14  19
BRANCH  18  21
ATOM     21  O   UNL     1       2.410   1.340   7.942  1.00  0.00    -0.508 OA
ATOM     22  H   UNL     1       2.761   2.254   7.678  1.00  0.00     0.293 HD
ENDBRANCH  18  21
ENDBRANCH  11  13
ENDBRANCH   2  11
TORSDOF 6
ENDMDL
MODEL 8
REMARK VINA RESULT:    -5.074      4.008      4.891
REMARK INTER + INTRA:          -6.894
REMARK INTER:                  -6.253
REMARK INTRA:                  -0.642
REMARK UNBOUND:                -0.486
REMARK SMILES O=C(C=Cc1ccc(O)cc1)c1ccc(O)cc1O
REMARK SMILES IDX 4 1 3 2 5 3 6 4 7 5 8 6 11 7 10 8 9 9 2 11 1 12 12 13 18 14
REMARK SMILES IDX 13 15 17 16 14 17 15 18 19 19 16 21
REMARK H PARENT 9 10 19 20 16 22
REMARK Flexibility Score: inf
ROOT
ATOM      1  C   UNL     1       1.087  -3.514   7.143  1.00  0.00     0.012 C 
ATOM      2  C   UNL     1       0.110  -3.744   6.254  1.00  0.00     0.053 C 
ENDROOT
BRANCH   1   3
ATOM      3  C   UNL     1       2.417  -2.965   6.779  1.00  0.00    -0.025 A 
ATOM      4  C   UNL     1       2.899  -1.742   7.289  1.00  0.00     0.012 A 
ATOM      5  C   UNL     1       4.155  -1.262   6.907  1.00  0.00     0.047 A 
ATOM      6  C   UNL     1       4.943  -1.985   6.007  1.00  0.00     0.115 A 
ATOM      7  C   UNL     1       3.211  -3.677   5.863  1.00  0.00     0.012 A 
ATOM      8  C   UNL     1       4.466  -3.193   5.484  1.00  0.00     0.047 A 
BRANCH   6   9
ATOM      9  O   UNL     1       6.193  -1.494   5.637  1.00  0.00    -0.508 OA
ATOM     10  H   UNL     1       6.469  -0.541   5.843  1.00  0.00     0.293 HD
ENDBRANCH   6   9
ENDBRANCH   1   3
BRANCH   2  11
ATOM     11  C   UNL     1      -1.212  -4.277   6.658  1.00  0.00     0.189 C 
ATOM     12  O   UNL     1      -1.353  -5.514   6.856  1.00  0.00    -0.289 OA
BRANCH  11  13
ATOM     13  C   UNL     1      -2.376  -3.372   6.843  1.00  0.00     0.064 A 
ATOM     14  C   UNL     1      -3.434  -3.351   5.908  1.00  0.00     0.130 A 
ATOM     15  C   UNL     1      -2.428  -2.502   7.950  1.00  0.00     0.020 A 
ATOM     16  C   UNL     1      -4.515  -2.477   6.093  1.00  0.00     0.093 A 
ATOM     17  C   UNL     1      -3.510  -1.638   8.125  1.00  0.00     0.047 A 
ATOM     18  C   UNL     1      -4.555  -1.622   7.199  1.00  0.00     0.119 A 
BRANCH  14  19
ATOM     19  O   UNL     1      -3.420  -4.208   4.806  1.00  0.00    -0.507 OA
ATOM     20  H   UNL     1      -4.240  -4.339   4.225  1.00  0.00     0.293 HD
ENDBRANCH  14  19
BRANCH  18  21
ATOM     21  O   UNL     1      -5.627  -0.753   7.388  1.00  0.00    -0.508 OA
ATOM     22  H   UNL     1      -5.712   0.107   6.858  1.00  0.00     0.293 HD
ENDBRANCH  18  21
ENDBRANCH  11  13
ENDBRANCH   2  11
TORSDOF 6
ENDMDL
MODEL 9
REMARK VINA RESULT:    -5.061      4.859      6.135
REMARK INTER + INTRA:          -6.878
REMARK INTER:                  -6.308
REMARK INTRA:                  -0.570
REMARK UNBOUND:                -0.486
REMARK SMILES O=C(C=Cc1ccc(O)cc1)c1ccc(O)cc1O
REMARK SMILES IDX 4 1 3 2 5 3 6 4 7 5 8 6 11 7 10 8 9 9 2 11 1 12 12 13 18 14
REMARK SMILES IDX 13 15 17 16 14 17 15 18 19 19 16 21
REMARK H PARENT 9 10 19 20 16 22
REMARK Flexibility Score: inf
ROOT
ATOM      1  C   UNL     1       2.248  -5.221   6.394  1.00  0.00     0.012 C 
ATOM      2  C   UNL     1       2.402  -3.989   5.887  1.00  0.00     0.053 C 
ENDROOT
BRANCH   1   3
ATOM      3  C   UNL     1       1.956  -6.420   5.568  1.00  0.00    -0.025 A 
ATOM      4  C   UNL     1       0.640  -6.841   5.283  1.00  0.00     0.012 A 
ATOM      5  C   UNL     1       0.417  -7.985   4.509  1.00  0.00     0.047 A 
ATOM      6  C   UNL     1       1.495  -8.727   4.019  1.00  0.00     0.115 A 
ATOM      7  C   UNL     1       3.032  -7.182   5.083  1.00  0.00     0.012 A 
ATOM      8  C   UNL     1       2.804  -8.324   4.310  1.00  0.00     0.047 A 
BRANCH   6   9
ATOM      9  O   UNL     1       1.256  -9.862   3.248  1.00  0.00    -0.508 OA
ATOM     10  H   UNL     1       0.313 -10.176   3.047  1.00  0.00     0.293 HD
ENDBRANCH   6   9
ENDBRANCH   1   3
BRANCH   2  11
ATOM     11  C   UNL     1       2.712  -2.820   6.742  1.00  0.00     0.189 C 
ATOM     12  O   UNL     1       2.109  -2.672   7.840  1.00  0.00    -0.289 OA
BRANCH  11  13
ATOM     13  C   UNL     1       3.730  -1.820   6.329  1.00  0.00     0.064 A 
ATOM     14  C   UNL     1       3.618  -0.468   6.719  1.00  0.00     0.130 A 
ATOM     15  C   UNL     1       4.816  -2.208   5.520  1.00  0.00     0.020 A 
ATOM     16  C   UNL     1       4.582   0.463   6.304  1.00  0.00     0.093 A 
ATOM     17  C   UNL     1       5.771  -1.273   5.115  1.00  0.00     0.047 A 
ATOM     18  C   UNL     1       5.658   0.062   5.504  1.00  0.00     0.119 A 
BRANCH  14  19
ATOM     19  O   UNL     1       2.561  -0.051   7.530  1.00  0.00    -0.507 OA
ATOM     20  H   UNL     1       2.120   0.852   7.404  1.00  0.00     0.293 HD
ENDBRANCH  14  19
BRANCH  18  21
ATOM     21  O   UNL     1       6.618   0.982   5.091  1.00  0.00    -0.508 OA
ATOM     22  H   UNL     1       6.831   1.808   5.638  1.00  0.00     0.293 HD
ENDBRANCH  18  21
ENDBRANCH  11  13
ENDBRANCH   2  11
TORSDOF 6
ENDMDL
