MODEL 1
REMARK VINA RESULT:    -3.492      0.000      0.000
REMARK INTER + INTRA:          -8.148
REMARK INTER:                  -6.350
REMARK INTRA:                  -1.798
REMARK UNBOUND:                -1.798
REMARK SMILES CCCCCCCCCCCCCC[C@H](C)C(=O)[O-]
REMARK SMILES IDX 9 1 10 2 11 3 12 4 13 5 14 6 15 7 16 8 17 9 18 10 19 11 8 12
REMARK SMILES IDX 7 13 6 14 5 15 4 16 3 17 2 18 1 19
REMARK H PARENT
REMARK Flexibility Score: inf
ROOT
ATOM      1  C   UNL     1      12.029  42.869 154.081  1.00  0.00     0.000 C 
ENDROOT
BRANCH   1   2
ATOM      2  C   UNL     1      10.583  43.198 154.513  1.00  0.00     0.000 C 
BRANCH   2   3
ATOM      3  C   UNL     1      10.192  42.500 155.827  1.00  0.00     0.000 C 
BRANCH   3   4
ATOM      4  C   UNL     1       9.070  43.236 156.579  1.00  0.00     0.000 C 
BRANCH   4   5
ATOM      5  C   UNL     1       8.467  44.391 155.765  1.00  0.00     0.001 C 
BRANCH   5   6
ATOM      6  C   UNL     1       8.804  45.748 156.408  1.00  0.00     0.009 C 
BRANCH   6   7
ATOM      7  C   UNL     1       8.899  46.922 155.407  1.00  0.00     0.032 C 
ATOM      8  C   UNL     1      10.173  46.871 154.553  1.00  0.00     0.014 C 
BRANCH   7   9
ATOM      9  C   UNL     1       8.745  48.253 156.096  1.00  0.00     0.044 C 
ATOM     10  O   UNL     1       9.568  48.599 156.983  1.00  0.00    -0.550 OA
ATOM     11  O   UNL     1       7.731  49.131 155.729  1.00  0.00    -0.550 OA
ENDBRANCH   7   9
ENDBRANCH   6   7
ENDBRANCH   5   6
ENDBRANCH   4   5
ENDBRANCH   3   4
ENDBRANCH   2   3
ENDBRANCH   1   2
BRANCH   1  12
ATOM     12  C   UNL     1      12.473  43.604 152.803  1.00  0.00     0.000 C 
BRANCH  12  13
ATOM     13  C   UNL     1      11.691  43.219 151.533  1.00  0.00    -0.000 C 
BRANCH  13  14
ATOM     14  C   UNL     1      12.511  42.474 150.459  1.00  0.00    -0.000 C 
BRANCH  14  15
ATOM     15  C   UNL     1      12.060  41.030 150.177  1.00  0.00    -0.000 C 
BRANCH  15  16
ATOM     16  C   UNL     1      11.881  40.197 151.455  1.00  0.00    -0.000 C 
BRANCH  16  17
ATOM     17  C   UNL     1      10.439  39.694 151.584  1.00  0.00    -0.000 C 
BRANCH  17  18
ATOM     18  C   UNL     1       9.812  40.159 152.904  1.00  0.00    -0.003 C 
ATOM     19  C   UNL     1       8.413  40.728 152.679  1.00  0.00     0.004 C 
ENDBRANCH  17  18
ENDBRANCH  16  17
ENDBRANCH  15  16
ENDBRANCH  14  15
ENDBRANCH  13  14
ENDBRANCH  12  13
ENDBRANCH   1  12
TORSDOF 14
ENDMDL
MODEL 2
REMARK VINA RESULT:    -3.443      1.813      3.540
REMARK INTER + INTRA:          -8.059
REMARK INTER:                  -5.287
REMARK INTRA:                  -2.772
REMARK UNBOUND:                -1.798
REMARK SMILES CCCCCCCCCCCCCC[C@H](C)C(=O)[O-]
REMARK SMILES IDX 9 1 10 2 11 3 12 4 13 5 14 6 15 7 16 8 17 9 18 10 19 11 8 12
REMARK SMILES IDX 7 13 6 14 5 15 4 16 3 17 2 18 1 19
REMARK H PARENT
REMARK Flexibility Score: inf
ROOT
ATOM      1  C   UNL     1       9.537  40.087 152.984  1.00  0.00     0.000 C 
ENDROOT
BRANCH   1   2
ATOM      2  C   UNL     1       8.199  40.842 152.825  1.00  0.00     0.000 C 
BRANCH   2   3
ATOM      3  C   UNL     1       8.279  41.960 151.772  1.00  0.00     0.000 C 
BRANCH   3   4
ATOM      4  C   UNL     1       8.271  43.365 152.397  1.00  0.00     0.000 C 
BRANCH   4   5
ATOM      5  C   UNL     1       8.746  44.453 151.421  1.00  0.00     0.001 C 
BRANCH   5   6
ATOM      6  C   UNL     1       9.555  45.534 152.159  1.00  0.00     0.009 C 
BRANCH   6   7
ATOM      7  C   UNL     1       8.700  46.508 153.002  1.00  0.00     0.032 C 
ATOM      8  C   UNL     1       8.532  47.879 152.332  1.00  0.00     0.014 C 
BRANCH   7   9
ATOM      9  C   UNL     1       9.228  46.637 154.406  1.00  0.00     0.044 C 
ATOM     10  O   UNL     1      10.453  46.848 154.600  1.00  0.00    -0.550 OA
ATOM     11  O   UNL     1       8.367  46.577 155.498  1.00  0.00    -0.550 OA
ENDBRANCH   7   9
ENDBRANCH   6   7
ENDBRANCH   5   6
ENDBRANCH   4   5
ENDBRANCH   3   4
ENDBRANCH   2   3
ENDBRANCH   1   2
BRANCH   1  12
ATOM     12  C   UNL     1      10.306  39.912 151.661  1.00  0.00     0.000 C 
BRANCH  12  13
ATOM     13  C   UNL     1      11.771  40.387 151.699  1.00  0.00    -0.000 C 
BRANCH  13  14
ATOM     14  C   UNL     1      12.036  41.746 151.019  1.00  0.00    -0.000 C 
BRANCH  14  15
ATOM     15  C   UNL     1      12.117  42.951 151.974  1.00  0.00    -0.000 C 
BRANCH  15  16
ATOM     16  C   UNL     1      12.290  42.540 153.444  1.00  0.00    -0.000 C 
BRANCH  16  17
ATOM     17  C   UNL     1      11.357  43.348 154.352  1.00  0.00    -0.000 C 
BRANCH  17  18
ATOM     18  C   UNL     1      10.619  42.432 155.336  1.00  0.00    -0.003 C 
ATOM     19  C   UNL     1       9.378  43.118 155.903  1.00  0.00     0.004 C 
ENDBRANCH  17  18
ENDBRANCH  16  17
ENDBRANCH  15  16
ENDBRANCH  14  15
ENDBRANCH  13  14
ENDBRANCH  12  13
ENDBRANCH   1  12
TORSDOF 14
ENDMDL
MODEL 3
REMARK VINA RESULT:    -3.431      2.952      4.490
REMARK INTER + INTRA:          -8.036
REMARK INTER:                  -6.233
REMARK INTRA:                  -1.803
REMARK UNBOUND:                -1.798
REMARK SMILES CCCCCCCCCCCCCC[C@H](C)C(=O)[O-]
REMARK SMILES IDX 9 1 10 2 11 3 12 4 13 5 14 6 15 7 16 8 17 9 18 10 19 11 8 12
REMARK SMILES IDX 7 13 6 14 5 15 4 16 3 17 2 18 1 19
REMARK H PARENT
REMARK Flexibility Score: inf
ROOT
ATOM      1  C   UNL     1      11.760  42.952 150.578  1.00  0.00     0.000 C 
ENDROOT
BRANCH   1   2
ATOM      2  C   UNL     1      12.594  43.486 151.763  1.00  0.00     0.000 C 
BRANCH   2   3
ATOM      3  C   UNL     1      11.716  43.901 152.956  1.00  0.00     0.000 C 
BRANCH   3   4
ATOM      4  C   UNL     1      11.885  42.972 154.170  1.00  0.00     0.000 C 
BRANCH   4   5
ATOM      5  C   UNL     1      10.551  42.403 154.674  1.00  0.00     0.001 C 
BRANCH   5   6
ATOM      6  C   UNL     1       9.369  43.013 153.899  1.00  0.00     0.009 C 
BRANCH   6   7
ATOM      7  C   UNL     1       8.075  42.169 153.942  1.00  0.00     0.032 C 
ATOM      8  C   UNL     1       7.445  41.980 152.555  1.00  0.00     0.014 C 
BRANCH   7   9
ATOM      9  C   UNL     1       7.083  42.722 154.932  1.00  0.00     0.044 C 
ATOM     10  O   UNL     1       5.851  42.538 154.754  1.00  0.00    -0.550 OA
ATOM     11  O   UNL     1       7.514  43.393 156.072  1.00  0.00    -0.550 OA
ENDBRANCH   7   9
ENDBRANCH   6   7
ENDBRANCH   5   6
ENDBRANCH   4   5
ENDBRANCH   3   4
ENDBRANCH   2   3
ENDBRANCH   1   2
BRANCH   1  12
ATOM     12  C   UNL     1      11.979  41.454 150.296  1.00  0.00     0.000 C 
BRANCH  12  13
ATOM     13  C   UNL     1      11.951  40.552 151.544  1.00  0.00    -0.000 C 
BRANCH  13  14
ATOM     14  C   UNL     1      10.710  39.644 151.668  1.00  0.00    -0.000 C 
BRANCH  14  15
ATOM     15  C   UNL     1       9.622  39.873 150.604  1.00  0.00    -0.000 C 
BRANCH  15  16
ATOM     16  C   UNL     1       9.566  38.754 149.553  1.00  0.00    -0.000 C 
BRANCH  16  17
ATOM     17  C   UNL     1      10.292  37.499 150.050  1.00  0.00    -0.000 C 
BRANCH  17  18
ATOM     18  C   UNL     1       9.465  36.239 149.769  1.00  0.00    -0.003 C 
ATOM     19  C   UNL     1      10.242  34.977 150.136  1.00  0.00     0.004 C 
ENDBRANCH  17  18
ENDBRANCH  16  17
ENDBRANCH  15  16
ENDBRANCH  14  15
ENDBRANCH  13  14
ENDBRANCH  12  13
ENDBRANCH   1  12
TORSDOF 14
ENDMDL
MODEL 4
REMARK VINA RESULT:    -3.370      3.474      6.563
REMARK INTER + INTRA:          -7.926
REMARK INTER:                  -5.371
REMARK INTRA:                  -2.556
REMARK UNBOUND:                -1.798
REMARK SMILES CCCCCCCCCCCCCC[C@H](C)C(=O)[O-]
REMARK SMILES IDX 9 1 10 2 11 3 12 4 13 5 14 6 15 7 16 8 17 9 18 10 19 11 8 12
REMARK SMILES IDX 7 13 6 14 5 15 4 16 3 17 2 18 1 19
REMARK H PARENT
REMARK Flexibility Score: inf
ROOT
ATOM      1  C   UNL     1      11.442  43.084 151.081  1.00  0.00     0.000 C 
ENDROOT
BRANCH   1   2
ATOM      2  C   UNL     1      12.426  42.430 150.086  1.00  0.00     0.000 C 
BRANCH   2   3
ATOM      3  C   UNL     1      12.039  40.979 149.749  1.00  0.00     0.000 C 
BRANCH   3   4
ATOM      4  C   UNL     1      12.028  40.066 150.986  1.00  0.00     0.000 C 
BRANCH   4   5
ATOM      5  C   UNL     1      10.674  39.372 151.200  1.00  0.00     0.001 C 
BRANCH   5   6
ATOM      6  C   UNL     1       9.971  39.920 152.455  1.00  0.00     0.009 C 
BRANCH   6   7
ATOM      7  C   UNL     1       8.736  40.801 152.161  1.00  0.00     0.032 C 
ATOM      8  C   UNL     1       7.627  40.636 153.210  1.00  0.00     0.014 C 
BRANCH   7   9
ATOM      9  C   UNL     1       8.216  40.580 150.764  1.00  0.00     0.044 C 
ATOM     10  O   UNL     1       7.460  39.603 150.524  1.00  0.00    -0.550 OA
ATOM     11  O   UNL     1       8.519  41.474 149.742  1.00  0.00    -0.550 OA
ENDBRANCH   7   9
ENDBRANCH   6   7
ENDBRANCH   5   6
ENDBRANCH   4   5
ENDBRANCH   3   4
ENDBRANCH   2   3
ENDBRANCH   1   2
BRANCH   1  12
ATOM     12  C   UNL     1      12.119  43.611 152.360  1.00  0.00     0.000 C 
BRANCH  12  13
ATOM     13  C   UNL     1      12.224  42.584 153.503  1.00  0.00    -0.000 C 
BRANCH  13  14
ATOM     14  C   UNL     1      11.614  43.035 154.847  1.00  0.00    -0.000 C 
BRANCH  14  15
ATOM     15  C   UNL     1      10.293  42.343 155.231  1.00  0.00    -0.000 C 
BRANCH  15  16
ATOM     16  C   UNL     1       9.122  43.327 155.375  1.00  0.00    -0.000 C 
BRANCH  16  17
ATOM     17  C   UNL     1       8.897  44.106 154.075  1.00  0.00    -0.000 C 
BRANCH  17  18
ATOM     18  C   UNL     1       8.771  45.609 154.351  1.00  0.00    -0.003 C 
ATOM     19  C   UNL     1      10.134  46.296 154.295  1.00  0.00     0.004 C 
ENDBRANCH  17  18
ENDBRANCH  16  17
ENDBRANCH  15  16
ENDBRANCH  14  15
ENDBRANCH  13  14
ENDBRANCH  12  13
ENDBRANCH   1  12
TORSDOF 14
ENDMDL
MODEL 5
REMARK VINA RESULT:    -3.366      1.808      2.750
REMARK INTER + INTRA:          -7.918
REMARK INTER:                  -5.624
REMARK INTRA:                  -2.294
REMARK UNBOUND:                -1.798
REMARK SMILES CCCCCCCCCCCCCC[C@H](C)C(=O)[O-]
REMARK SMILES IDX 9 1 10 2 11 3 12 4 13 5 14 6 15 7 16 8 17 9 18 10 19 11 8 12
REMARK SMILES IDX 7 13 6 14 5 15 4 16 3 17 2 18 1 19
REMARK H PARENT
REMARK Flexibility Score: inf
ROOT
ATOM      1  C   UNL     1       9.402  43.217 155.886  1.00  0.00     0.000 C 
ENDROOT
BRANCH   1   2
ATOM      2  C   UNL     1       7.978  42.976 155.336  1.00  0.00     0.000 C 
BRANCH   2   3
ATOM      3  C   UNL     1       7.524  44.091 154.379  1.00  0.00     0.000 C 
BRANCH   3   4
ATOM      4  C   UNL     1       7.921  43.818 152.918  1.00  0.00     0.000 C 
BRANCH   4   5
ATOM      5  C   UNL     1       8.808  44.923 152.326  1.00  0.00     0.001 C 
BRANCH   5   6
ATOM      6  C   UNL     1       8.454  46.292 152.934  1.00  0.00     0.009 C 
BRANCH   6   7
ATOM      7  C   UNL     1       9.676  47.128 153.379  1.00  0.00     0.032 C 
ATOM      8  C   UNL     1      10.195  46.725 154.767  1.00  0.00     0.014 C 
BRANCH   7   9
ATOM      9  C   UNL     1       9.398  48.606 153.297  1.00  0.00     0.044 C 
ATOM     10  O   UNL     1       8.432  49.025 152.608  1.00  0.00    -0.550 OA
ATOM     11  O   UNL     1      10.167  49.516 154.017  1.00  0.00    -0.550 OA
ENDBRANCH   7   9
ENDBRANCH   6   7
ENDBRANCH   5   6
ENDBRANCH   4   5
ENDBRANCH   3   4
ENDBRANCH   2   3
ENDBRANCH   1   2
BRANCH   1  12
ATOM     12  C   UNL     1      10.493  42.432 155.135  1.00  0.00     0.000 C 
BRANCH  12  13
ATOM     13  C   UNL     1      11.419  43.294 154.256  1.00  0.00    -0.000 C 
BRANCH  13  14
ATOM     14  C   UNL     1      12.281  42.508 153.246  1.00  0.00    -0.000 C 
BRANCH  14  15
ATOM     15  C   UNL     1      11.526  41.978 152.014  1.00  0.00    -0.000 C 
BRANCH  15  16
ATOM     16  C   UNL     1      11.882  40.524 151.672  1.00  0.00    -0.000 C 
BRANCH  16  17
ATOM     17  C   UNL     1      10.629  39.642 151.657  1.00  0.00    -0.000 C 
BRANCH  17  18
ATOM     18  C   UNL     1       9.617  40.108 152.711  1.00  0.00    -0.003 C 
ATOM     19  C   UNL     1       8.211  40.197 152.123  1.00  0.00     0.004 C 
ENDBRANCH  17  18
ENDBRANCH  16  17
ENDBRANCH  15  16
ENDBRANCH  14  15
ENDBRANCH  13  14
ENDBRANCH  12  13
ENDBRANCH   1  12
TORSDOF 14
ENDMDL
MODEL 6
REMARK VINA RESULT:    -3.337      4.226      7.556
REMARK INTER + INTRA:          -7.866
REMARK INTER:                  -5.792
REMARK INTRA:                  -2.074
REMARK UNBOUND:                -1.798
REMARK SMILES CCCCCCCCCCCCCC[C@H](C)C(=O)[O-]
REMARK SMILES IDX 9 1 10 2 11 3 12 4 13 5 14 6 15 7 16 8 17 9 18 10 19 11 8 12
REMARK SMILES IDX 7 13 6 14 5 15 4 16 3 17 2 18 1 19
REMARK H PARENT
REMARK Flexibility Score: inf
ROOT
ATOM      1  C   UNL     1      12.164  43.454 153.734  1.00  0.00     0.000 C 
ENDROOT
BRANCH   1   2
ATOM      2  C   UNL     1      11.408  43.488 152.388  1.00  0.00     0.000 C 
BRANCH   2   3
ATOM      3  C   UNL     1      12.274  42.990 151.218  1.00  0.00     0.000 C 
BRANCH   3   4
ATOM      4  C   UNL     1      11.767  41.665 150.625  1.00  0.00     0.000 C 
BRANCH   4   5
ATOM      5  C   UNL     1      12.015  40.465 151.551  1.00  0.00     0.001 C 
BRANCH   5   6
ATOM      6  C   UNL     1      10.695  39.747 151.882  1.00  0.00     0.009 C 
BRANCH   6   7
ATOM      7  C   UNL     1       9.593  39.914 150.811  1.00  0.00     0.032 C 
ATOM      8  C   UNL     1       8.331  40.594 151.360  1.00  0.00     0.014 C 
BRANCH   7   9
ATOM      9  C   UNL     1       9.270  38.605 150.138  1.00  0.00     0.044 C 
ATOM     10  O   UNL     1       8.128  38.420 149.641  1.00  0.00    -0.550 OA
ATOM     11  O   UNL     1      10.237  37.612 150.012  1.00  0.00    -0.550 OA
ENDBRANCH   7   9
ENDBRANCH   6   7
ENDBRANCH   5   6
ENDBRANCH   4   5
ENDBRANCH   3   4
ENDBRANCH   2   3
ENDBRANCH   1   2
BRANCH   1  12
ATOM     12  C   UNL     1      11.377  42.768 154.866  1.00  0.00     0.000 C 
BRANCH  12  13
ATOM     13  C   UNL     1      10.094  42.045 154.414  1.00  0.00    -0.000 C 
BRANCH  13  14
ATOM     14  C   UNL     1       8.801  42.500 155.123  1.00  0.00    -0.000 C 
BRANCH  14  15
ATOM     15  C   UNL     1       9.008  43.461 156.308  1.00  0.00    -0.000 C 
BRANCH  15  16
ATOM     16  C   UNL     1       8.125  44.715 156.224  1.00  0.00    -0.000 C 
BRANCH  16  17
ATOM     17  C   UNL     1       8.981  45.981 156.113  1.00  0.00    -0.000 C 
BRANCH  17  18
ATOM     18  C   UNL     1       9.486  46.178 154.678  1.00  0.00    -0.003 C 
ATOM     19  C   UNL     1      10.196  47.521 154.524  1.00  0.00     0.004 C 
ENDBRANCH  17  18
ENDBRANCH  16  17
ENDBRANCH  15  16
ENDBRANCH  14  15
ENDBRANCH  13  14
ENDBRANCH  12  13
ENDBRANCH   1  12
TORSDOF 14
ENDMDL
MODEL 7
REMARK VINA RESULT:    -3.327      3.300      4.377
REMARK INTER + INTRA:          -7.847
REMARK INTER:                  -5.256
REMARK INTRA:                  -2.591
REMARK UNBOUND:                -1.798
REMARK SMILES CCCCCCCCCCCCCC[C@H](C)C(=O)[O-]
REMARK SMILES IDX 9 1 10 2 11 3 12 4 13 5 14 6 15 7 16 8 17 9 18 10 19 11 8 12
REMARK SMILES IDX 7 13 6 14 5 15 4 16 3 17 2 18 1 19
REMARK H PARENT
REMARK Flexibility Score: inf
ROOT
ATOM      1  C   UNL     1      11.330  43.737 151.342  1.00  0.00     0.000 C 
ENDROOT
BRANCH   1   2
ATOM      2  C   UNL     1      12.695  43.879 152.052  1.00  0.00     0.000 C 
BRANCH   2   3
ATOM      3  C   UNL     1      12.592  43.642 153.569  1.00  0.00     0.000 C 
BRANCH   3   4
ATOM      4  C   UNL     1      11.730  42.419 153.922  1.00  0.00     0.000 C 
BRANCH   4   5
ATOM      5  C   UNL     1      10.579  42.760 154.881  1.00  0.00     0.001 C 
BRANCH   5   6
ATOM      6  C   UNL     1       9.312  41.965 154.519  1.00  0.00     0.009 C 
BRANCH   6   7
ATOM      7  C   UNL     1       8.496  42.562 153.350  1.00  0.00     0.032 C 
ATOM      8  C   UNL     1       8.241  44.067 153.513  1.00  0.00     0.014 C 
BRANCH   7   9
ATOM      9  C   UNL     1       7.215  41.803 153.122  1.00  0.00     0.044 C 
ATOM     10  O   UNL     1       6.231  42.380 152.590  1.00  0.00    -0.550 OA
ATOM     11  O   UNL     1       7.120  40.454 153.447  1.00  0.00    -0.550 OA
ENDBRANCH   7   9
ENDBRANCH   6   7
ENDBRANCH   5   6
ENDBRANCH   4   5
ENDBRANCH   3   4
ENDBRANCH   2   3
ENDBRANCH   1   2
BRANCH   1  12
ATOM     12  C   UNL     1      11.425  43.091 149.947  1.00  0.00     0.000 C 
BRANCH  12  13
ATOM     13  C   UNL     1      12.502  41.998 149.815  1.00  0.00    -0.000 C 
BRANCH  13  14
ATOM     14  C   UNL     1      11.968  40.550 149.814  1.00  0.00    -0.000 C 
BRANCH  14  15
ATOM     15  C   UNL     1      11.908  39.874 151.196  1.00  0.00    -0.000 C 
BRANCH  15  16
ATOM     16  C   UNL     1      10.479  39.773 151.751  1.00  0.00    -0.000 C 
BRANCH  16  17
ATOM     17  C   UNL     1       9.447  40.144 150.681  1.00  0.00    -0.000 C 
BRANCH  17  18
ATOM     18  C   UNL     1       8.457  38.996 150.451  1.00  0.00    -0.003 C 
ATOM     19  C   UNL     1       9.129  37.824 149.740  1.00  0.00     0.004 C 
ENDBRANCH  17  18
ENDBRANCH  16  17
ENDBRANCH  15  16
ENDBRANCH  14  15
ENDBRANCH  13  14
ENDBRANCH  12  13
ENDBRANCH   1  12
TORSDOF 14
ENDMDL
MODEL 8
REMARK VINA RESULT:    -3.284      2.299      4.443
REMARK INTER + INTRA:          -7.770
REMARK INTER:                  -5.211
REMARK INTRA:                  -2.559
REMARK UNBOUND:                -1.798
REMARK SMILES CCCCCCCCCCCCCC[C@H](C)C(=O)[O-]
REMARK SMILES IDX 9 1 10 2 11 3 12 4 13 5 14 6 15 7 16 8 17 9 18 10 19 11 8 12
REMARK SMILES IDX 7 13 6 14 5 15 4 16 3 17 2 18 1 19
REMARK H PARENT
REMARK Flexibility Score: inf
ROOT
ATOM      1  C   UNL     1       8.284  39.008 150.144  1.00  0.00     0.000 C 
ENDROOT
BRANCH   1   2
ATOM      2  C   UNL     1       8.241  39.786 151.477  1.00  0.00     0.000 C 
BRANCH   2   3
ATOM      3  C   UNL     1       8.064  41.300 151.265  1.00  0.00     0.000 C 
BRANCH   3   4
ATOM      4  C   UNL     1       8.398  42.118 152.523  1.00  0.00     0.000 C 
BRANCH   4   5
ATOM      5  C   UNL     1       8.985  41.259 153.653  1.00  0.00     0.001 C 
BRANCH   5   6
ATOM      6  C   UNL     1       9.753  42.132 154.662  1.00  0.00     0.009 C 
BRANCH   6   7
ATOM      7  C   UNL     1      10.543  43.298 154.025  1.00  0.00     0.032 C 
ATOM      8  C   UNL     1      12.061  43.150 154.199  1.00  0.00     0.014 C 
BRANCH   7   9
ATOM      9  C   UNL     1      10.055  44.634 154.519  1.00  0.00     0.044 C 
ATOM     10  O   UNL     1       9.213  44.688 155.454  1.00  0.00    -0.550 OA
ATOM     11  O   UNL     1      10.561  45.817 153.990  1.00  0.00    -0.550 OA
ENDBRANCH   7   9
ENDBRANCH   6   7
ENDBRANCH   5   6
ENDBRANCH   4   5
ENDBRANCH   3   4
ENDBRANCH   2   3
ENDBRANCH   1   2
BRANCH   1  12
ATOM     12  C   UNL     1       9.624  38.293 149.889  1.00  0.00     0.000 C 
BRANCH  12  13
ATOM     13  C   UNL     1      10.620  39.082 149.019  1.00  0.00    -0.000 C 
BRANCH  13  14
ATOM     14  C   UNL     1      12.065  39.131 149.558  1.00  0.00    -0.000 C 
BRANCH  14  15
ATOM     15  C   UNL     1      12.192  39.415 151.065  1.00  0.00    -0.000 C 
BRANCH  15  16
ATOM     16  C   UNL     1      11.758  40.839 151.445  1.00  0.00    -0.000 C 
BRANCH  16  17
ATOM     17  C   UNL     1      12.320  41.866 150.456  1.00  0.00    -0.000 C 
BRANCH  17  18
ATOM     18  C   UNL     1      11.194  42.700 149.833  1.00  0.00    -0.003 C 
ATOM     19  C   UNL     1      11.063  44.054 150.528  1.00  0.00     0.004 C 
ENDBRANCH  17  18
ENDBRANCH  16  17
ENDBRANCH  15  16
ENDBRANCH  14  15
ENDBRANCH  13  14
ENDBRANCH  12  13
ENDBRANCH   1  12
TORSDOF 14
ENDMDL
MODEL 9
REMARK VINA RESULT:    -3.281      4.460      6.833
REMARK INTER + INTRA:          -7.764
REMARK INTER:                  -4.879
REMARK INTRA:                  -2.884
REMARK UNBOUND:                -1.798
REMARK SMILES CCCCCCCCCCCCCC[C@H](C)C(=O)[O-]
REMARK SMILES IDX 9 1 10 2 11 3 12 4 13 5 14 6 15 7 16 8 17 9 18 10 19 11 8 12
REMARK SMILES IDX 7 13 6 14 5 15 4 16 3 17 2 18 1 19
REMARK H PARENT
REMARK Flexibility Score: inf
ROOT
ATOM      1  C   UNL     1      10.121  41.991 154.524  1.00  0.00     0.000 C 
ENDROOT
BRANCH   1   2
ATOM      2  C   UNL     1       9.928  40.886 153.463  1.00  0.00     0.000 C 
BRANCH   2   3
ATOM      3  C   UNL     1       8.453  40.475 153.307  1.00  0.00     0.000 C 
BRANCH   3   4
ATOM      4  C   UNL     1       8.090  40.104 151.860  1.00  0.00     0.000 C 
BRANCH   4   5
ATOM      5  C   UNL     1       9.245  40.345 150.877  1.00  0.00     0.001 C 
BRANCH   5   6
ATOM      6  C   UNL     1       9.736  39.017 150.273  1.00  0.00     0.009 C 
BRANCH   6   7
ATOM      7  C   UNL     1      11.208  39.035 149.802  1.00  0.00     0.032 C 
ATOM      8  C   UNL     1      12.184  39.418 150.924  1.00  0.00     0.014 C 
BRANCH   7   9
ATOM      9  C   UNL     1      11.391  39.905 148.587  1.00  0.00     0.044 C 
ATOM     10  O   UNL     1      10.530  39.890 147.669  1.00  0.00    -0.550 OA
ATOM     11  O   UNL     1      12.479  40.768 148.485  1.00  0.00    -0.550 OA
ENDBRANCH   7   9
ENDBRANCH   6   7
ENDBRANCH   5   6
ENDBRANCH   4   5
ENDBRANCH   3   4
ENDBRANCH   2   3
ENDBRANCH   1   2
BRANCH   1  12
ATOM     12  C   UNL     1      11.425  42.791 154.352  1.00  0.00     0.000 C 
BRANCH  12  13
ATOM     13  C   UNL     1      12.138  42.579 153.003  1.00  0.00    -0.000 C 
BRANCH  13  14
ATOM     14  C   UNL     1      11.972  43.728 151.987  1.00  0.00    -0.000 C 
BRANCH  14  15
ATOM     15  C   UNL     1      11.415  43.312 150.613  1.00  0.00    -0.000 C 
BRANCH  15  16
ATOM     16  C   UNL     1       9.973  43.787 150.383  1.00  0.00    -0.000 C 
BRANCH  16  17
ATOM     17  C   UNL     1       9.411  44.462 151.639  1.00  0.00    -0.000 C 
BRANCH  17  18
ATOM     18  C   UNL     1       8.036  43.888 152.002  1.00  0.00    -0.003 C 
ATOM     19  C   UNL     1       7.561  44.410 153.356  1.00  0.00     0.004 C 
ENDBRANCH  17  18
ENDBRANCH  16  17
ENDBRANCH  15  16
ENDBRANCH  14  15
ENDBRANCH  13  14
ENDBRANCH  12  13
ENDBRANCH   1  12
TORSDOF 14
ENDMDL
