MODEL 1
REMARK VINA RESULT:    -2.684      0.000      0.000
REMARK INTER + INTRA:          -3.517
REMARK INTER:                  -3.312
REMARK INTRA:                  -0.205
REMARK UNBOUND:                -0.205
REMARK SMILES CCCCC=CC(C)=O
REMARK SMILES IDX 4 1 3 2 2 3 1 4 5 5 6 6 7 7 9 8 8 9
REMARK H PARENT
REMARK Flexibility Score: inf
ROOT
ATOM      1  C   UNL     1      31.064  25.073  32.154  1.00  0.00     0.027 C 
ENDROOT
BRANCH   1   2
ATOM      2  C   UNL     1      32.600  25.102  32.183  1.00  0.00     0.004 C 
BRANCH   2   3
ATOM      3  C   UNL     1      33.161  25.125  33.614  1.00  0.00    -0.003 C 
ATOM      4  C   UNL     1      32.065  25.089  34.679  1.00  0.00     0.004 C 
ENDBRANCH   2   3
ENDBRANCH   1   2
BRANCH   1   5
ATOM      5  C   UNL     1      30.561  24.251  31.002  1.00  0.00    -0.023 C 
ATOM      6  C   UNL     1      31.302  24.058  29.905  1.00  0.00     0.042 C 
BRANCH   6   7
ATOM      7  C   UNL     1      30.822  23.266  28.757  1.00  0.00     0.152 C 
ATOM      8  O   UNL     1      29.627  23.356  28.366  1.00  0.00    -0.295 OA
ATOM      9  C   UNL     1      31.761  22.342  28.053  1.00  0.00     0.093 C 
ENDBRANCH   6   7
ENDBRANCH   1   5
TORSDOF 4
ENDMDL
MODEL 2
REMARK VINA RESULT:    -2.579      1.292      2.037
REMARK INTER + INTRA:          -3.387
REMARK INTER:                  -3.173
REMARK INTRA:                  -0.214
REMARK UNBOUND:                -0.205
REMARK SMILES CCCCC=CC(C)=O
REMARK SMILES IDX 4 1 3 2 2 3 1 4 5 5 6 6 7 7 9 8 8 9
REMARK H PARENT
REMARK Flexibility Score: inf
ROOT
ATOM      1  C   UNL     1      31.612  24.986  33.558  1.00  0.00     0.027 C 
ENDROOT
BRANCH   1   2
ATOM      2  C   UNL     1      33.084  24.885  33.987  1.00  0.00     0.004 C 
BRANCH   2   3
ATOM      3  C   UNL     1      34.055  25.124  32.821  1.00  0.00    -0.003 C 
ATOM      4  C   UNL     1      35.514  24.877  33.207  1.00  0.00     0.004 C 
ENDBRANCH   2   3
ENDBRANCH   1   2
BRANCH   1   5
ATOM      5  C   UNL     1      31.491  25.125  32.067  1.00  0.00    -0.023 C 
ATOM      6  C   UNL     1      30.613  24.399  31.367  1.00  0.00     0.042 C 
BRANCH   6   7
ATOM      7  C   UNL     1      30.487  24.510  29.902  1.00  0.00     0.152 C 
ATOM      8  O   UNL     1      29.503  25.103  29.382  1.00  0.00    -0.295 OA
ATOM      9  C   UNL     1      31.536  23.910  29.022  1.00  0.00     0.093 C 
ENDBRANCH   6   7
ENDBRANCH   1   5
TORSDOF 4
ENDMDL
MODEL 3
REMARK VINA RESULT:    -2.553      2.712      5.099
REMARK INTER + INTRA:          -3.355
REMARK INTER:                  -3.147
REMARK INTRA:                  -0.208
REMARK UNBOUND:                -0.205
REMARK SMILES CCCCC=CC(C)=O
REMARK SMILES IDX 4 1 3 2 2 3 1 4 5 5 6 6 7 7 9 8 8 9
REMARK H PARENT
REMARK Flexibility Score: inf
ROOT
ATOM      1  C   UNL     1      29.838  25.107  31.206  1.00  0.00     0.027 C 
ENDROOT
BRANCH   1   2
ATOM      2  C   UNL     1      30.144  25.105  29.701  1.00  0.00     0.004 C 
BRANCH   2   3
ATOM      3  C   UNL     1      31.231  24.087  29.322  1.00  0.00    -0.003 C 
ATOM      4  C   UNL     1      30.706  22.973  28.415  1.00  0.00     0.004 C 
ENDBRANCH   2   3
ENDBRANCH   1   2
BRANCH   1   5
ATOM      5  C   UNL     1      31.104  25.118  32.015  1.00  0.00    -0.023 C 
ATOM      6  C   UNL     1      31.078  25.087  33.353  1.00  0.00     0.042 C 
BRANCH   6   7
ATOM      7  C   UNL     1      32.307  25.111  34.166  1.00  0.00     0.152 C 
ATOM      8  O   UNL     1      32.247  25.122  35.426  1.00  0.00    -0.295 OA
ATOM      9  C   UNL     1      33.640  25.125  33.491  1.00  0.00     0.093 C 
ENDBRANCH   6   7
ENDBRANCH   1   5
TORSDOF 4
ENDMDL
MODEL 4
REMARK VINA RESULT:    -2.537     17.771     19.360
REMARK INTER + INTRA:          -3.335
REMARK INTER:                  -3.048
REMARK INTRA:                  -0.287
REMARK UNBOUND:                -0.205
REMARK SMILES CCCCC=CC(C)=O
REMARK SMILES IDX 4 1 3 2 2 3 1 4 5 5 6 6 7 7 9 8 8 9
REMARK H PARENT
REMARK Flexibility Score: inf
ROOT
ATOM      1  C   UNL     1      18.166  25.043  45.800  1.00  0.00     0.027 C 
ENDROOT
BRANCH   1   2
ATOM      2  C   UNL     1      17.225  24.377  44.784  1.00  0.00     0.004 C 
BRANCH   2   3
ATOM      3  C   UNL     1      17.206  25.108  43.432  1.00  0.00    -0.003 C 
ATOM      4  C   UNL     1      18.574  25.125  42.750  1.00  0.00     0.004 C 
ENDBRANCH   2   3
ENDBRANCH   1   2
BRANCH   1   5
ATOM      5  C   UNL     1      19.074  24.032  46.440  1.00  0.00    -0.023 C 
ATOM      6  C   UNL     1      20.132  23.533  45.790  1.00  0.00     0.042 C 
BRANCH   6   7
ATOM      7  C   UNL     1      21.028  22.531  46.395  1.00  0.00     0.152 C 
ATOM      8  O   UNL     1      22.178  22.323  45.919  1.00  0.00    -0.295 OA
ATOM      9  C   UNL     1      20.570  21.750  47.583  1.00  0.00     0.093 C 
ENDBRANCH   6   7
ENDBRANCH   1   5
TORSDOF 4
ENDMDL
MODEL 5
REMARK VINA RESULT:    -2.493     18.903     20.007
REMARK INTER + INTRA:          -3.281
REMARK INTER:                  -3.067
REMARK INTRA:                  -0.214
REMARK UNBOUND:                -0.205
REMARK SMILES CCCCC=CC(C)=O
REMARK SMILES IDX 4 1 3 2 2 3 1 4 5 5 6 6 7 7 9 8 8 9
REMARK H PARENT
REMARK Flexibility Score: inf
ROOT
ATOM      1  C   UNL     1      18.500  24.766  44.853  1.00  0.00     0.027 C 
ENDROOT
BRANCH   1   2
ATOM      2  C   UNL     1      17.168  24.354  45.498  1.00  0.00     0.004 C 
BRANCH   2   3
ATOM      3  C   UNL     1      16.877  25.125  46.796  1.00  0.00    -0.003 C 
ATOM      4  C   UNL     1      17.204  24.314  48.050  1.00  0.00     0.004 C 
ENDBRANCH   2   3
ENDBRANCH   1   2
BRANCH   1   5
ATOM      5  C   UNL     1      19.667  24.252  45.647  1.00  0.00    -0.023 C 
ATOM      6  C   UNL     1      19.861  22.941  45.835  1.00  0.00     0.042 C 
BRANCH   6   7
ATOM      7  C   UNL     1      20.992  22.415  46.621  1.00  0.00     0.152 C 
ATOM      8  O   UNL     1      22.116  22.219  46.083  1.00  0.00    -0.295 OA
ATOM      9  C   UNL     1      20.804  22.108  48.071  1.00  0.00     0.093 C 
ENDBRANCH   6   7
ENDBRANCH   1   5
TORSDOF 4
ENDMDL
MODEL 6
REMARK VINA RESULT:    -2.357      2.078      2.465
REMARK INTER + INTRA:          -3.114
REMARK INTER:                  -2.894
REMARK INTRA:                  -0.220
REMARK UNBOUND:                -0.205
REMARK SMILES CCCCC=CC(C)=O
REMARK SMILES IDX 4 1 3 2 2 3 1 4 5 5 6 6 7 7 9 8 8 9
REMARK H PARENT
REMARK Flexibility Score: inf
ROOT
ATOM      1  C   UNL     1      30.425  24.695  31.113  1.00  0.00     0.027 C 
ENDROOT
BRANCH   1   2
ATOM      2  C   UNL     1      30.495  25.120  32.588  1.00  0.00     0.004 C 
BRANCH   2   3
ATOM      3  C   UNL     1      31.879  24.868  33.208  1.00  0.00    -0.003 C 
ATOM      4  C   UNL     1      31.904  25.121  34.716  1.00  0.00     0.004 C 
ENDBRANCH   2   3
ENDBRANCH   1   2
BRANCH   1   5
ATOM      5  C   UNL     1      31.756  24.865  30.437  1.00  0.00    -0.023 C 
ATOM      6  C   UNL     1      32.297  23.886  29.704  1.00  0.00     0.042 C 
BRANCH   6   7
ATOM      7  C   UNL     1      33.608  24.027  29.043  1.00  0.00     0.152 C 
ATOM      8  O   UNL     1      33.792  23.587  27.875  1.00  0.00    -0.295 OA
ATOM      9  C   UNL     1      34.732  24.694  29.766  1.00  0.00     0.093 C 
ENDBRANCH   6   7
ENDBRANCH   1   5
TORSDOF 4
ENDMDL
MODEL 7
REMARK VINA RESULT:    -2.161      2.488      4.168
REMARK INTER + INTRA:          -2.871
REMARK INTER:                  -2.649
REMARK INTRA:                  -0.223
REMARK UNBOUND:                -0.205
REMARK SMILES CCCCC=CC(C)=O
REMARK SMILES IDX 4 1 3 2 2 3 1 4 5 5 6 6 7 7 9 8 8 9
REMARK H PARENT
REMARK Flexibility Score: inf
ROOT
ATOM      1  C   UNL     1      32.194  23.595  28.778  1.00  0.00     0.027 C 
ENDROOT
BRANCH   1   2
ATOM      2  C   UNL     1      33.699  23.750  28.513  1.00  0.00     0.004 C 
BRANCH   2   3
ATOM      3  C   UNL     1      34.422  24.501  29.643  1.00  0.00    -0.003 C 
ATOM      4  C   UNL     1      35.942  24.484  29.485  1.00  0.00     0.004 C 
ENDBRANCH   2   3
ENDBRANCH   1   2
BRANCH   1   5
ATOM      5  C   UNL     1      31.779  24.357  30.004  1.00  0.00    -0.023 C 
ATOM      6  C   UNL     1      30.696  24.009  30.709  1.00  0.00     0.042 C 
BRANCH   6   7
ATOM      7  C   UNL     1      30.264  24.751  31.908  1.00  0.00     0.152 C 
ATOM      8  O   UNL     1      29.058  25.090  32.056  1.00  0.00    -0.295 OA
ATOM      9  C   UNL     1      31.265  25.108  32.957  1.00  0.00     0.093 C 
ENDBRANCH   6   7
ENDBRANCH   1   5
TORSDOF 4
ENDMDL
MODEL 8
REMARK VINA RESULT:    -2.039      2.761      5.333
REMARK INTER + INTRA:          -2.721
REMARK INTER:                  -2.574
REMARK INTRA:                  -0.147
REMARK UNBOUND:                -0.205
REMARK SMILES CCCCC=CC(C)=O
REMARK SMILES IDX 4 1 3 2 2 3 1 4 5 5 6 6 7 7 9 8 8 9
REMARK H PARENT
REMARK Flexibility Score: inf
ROOT
ATOM      1  C   UNL     1      31.855  25.074  29.589  1.00  0.00     0.027 C 
ENDROOT
BRANCH   1   2
ATOM      2  C   UNL     1      30.383  24.710  29.342  1.00  0.00     0.004 C 
BRANCH   2   3
ATOM      3  C   UNL     1      30.162  24.047  27.973  1.00  0.00    -0.003 C 
ATOM      4  C   UNL     1      30.364  22.532  28.011  1.00  0.00     0.004 C 
ENDBRANCH   2   3
ENDBRANCH   1   2
BRANCH   1   5
ATOM      5  C   UNL     1      32.160  25.125  31.059  1.00  0.00    -0.023 C 
ATOM      6  C   UNL     1      33.414  25.037  31.516  1.00  0.00     0.042 C 
BRANCH   6   7
ATOM      7  C   UNL     1      33.734  25.072  32.955  1.00  0.00     0.152 C 
ATOM      8  O   UNL     1      34.931  25.125  33.349  1.00  0.00    -0.295 OA
ATOM      9  C   UNL     1      32.628  25.040  33.960  1.00  0.00     0.093 C 
ENDBRANCH   6   7
ENDBRANCH   1   5
TORSDOF 4
ENDMDL
