MODEL 1
REMARK VINA RESULT:    -3.215      0.000      0.000
REMARK INTER + INTRA:          -5.055
REMARK INTER:                  -4.343
REMARK INTRA:                  -0.712
REMARK UNBOUND:                -0.712
REMARK SMILES O=C[C@H](O)[C@H](O)[C@@H](O)CO
REMARK SMILES IDX 7 1 9 2 10 3 5 5 3 6 2 7 1 8 4 9 6 11 8 13
REMARK H PARENT 10 4 4 10 6 12 8 14
REMARK Flexibility Score: inf
ROOT
ATOM      1  C   UNL     1       7.414   6.481  -5.242  1.00  0.00     0.171 C 
ENDROOT
BRANCH   1   2
ATOM      2  C   UNL     1       8.865   6.794  -5.647  1.00  0.00     0.190 C 
BRANCH   2   3
ATOM      3  O   UNL     1       9.531   5.630  -6.055  1.00  0.00    -0.394 OA
ATOM      4  H   UNL     1      10.361   5.584  -5.513  1.00  0.00     0.210 HD
ENDBRANCH   2   3
ENDBRANCH   1   2
BRANCH   1   5
ATOM      5  C   UNL     1       6.434   6.297  -6.441  1.00  0.00     0.181 C 
BRANCH   5   6
ATOM      6  C   UNL     1       4.964   6.065  -6.002  1.00  0.00     0.209 C 
BRANCH   6   7
ATOM      7  C   UNL     1       4.553   4.633  -6.223  1.00  0.00     0.258 C 
ATOM      8  O   UNL     1       4.941   3.752  -5.474  1.00  0.00    -0.300 OA
ENDBRANCH   6   7
BRANCH   6   9
ATOM      9  O   UNL     1       4.104   6.899  -6.733  1.00  0.00    -0.383 OA
ATOM     10  H   UNL     1       4.569   7.769  -6.840  1.00  0.00     0.211 HD
ENDBRANCH   6   9
ENDBRANCH   5   6
BRANCH   5  11
ATOM     11  O   UNL     1       6.880   5.231  -7.244  1.00  0.00    -0.387 OA
ATOM     12  H   UNL     1       7.873   5.246  -7.238  1.00  0.00     0.211 HD
ENDBRANCH   5  11
ENDBRANCH   1   5
BRANCH   1  13
ATOM     13  O   UNL     1       7.387   5.345  -4.413  1.00  0.00    -0.388 OA
ATOM     14  H   UNL     1       6.485   4.937  -4.492  1.00  0.00     0.211 HD
ENDBRANCH   1  13
TORSDOF 8
ENDMDL
MODEL 2
REMARK VINA RESULT:    -3.106     16.049     17.540
REMARK INTER + INTRA:          -4.907
REMARK INTER:                  -4.372
REMARK INTRA:                  -0.535
REMARK UNBOUND:                -0.712
REMARK SMILES O=C[C@H](O)[C@H](O)[C@@H](O)CO
REMARK SMILES IDX 7 1 9 2 10 3 5 5 3 6 2 7 1 8 4 9 6 11 8 13
REMARK H PARENT 10 4 4 10 6 12 8 14
REMARK Flexibility Score: inf
ROOT
ATOM      1  C   UNL     1      -4.879   2.814   7.983  1.00  0.00     0.171 C 
ENDROOT
BRANCH   1   2
ATOM      2  C   UNL     1      -4.791   2.717   9.516  1.00  0.00     0.190 C 
BRANCH   2   3
ATOM      3  O   UNL     1      -4.419   1.425   9.913  1.00  0.00    -0.394 OA
ATOM      4  H   UNL     1      -3.943   1.026   9.140  1.00  0.00     0.210 HD
ENDBRANCH   2   3
ENDBRANCH   1   2
BRANCH   1   5
ATOM      5  C   UNL     1      -3.712   2.115   7.223  1.00  0.00     0.181 C 
BRANCH   5   6
ATOM      6  C   UNL     1      -3.347   2.810   5.884  1.00  0.00     0.209 C 
BRANCH   6   7
ATOM      7  C   UNL     1      -2.292   3.865   6.092  1.00  0.00     0.258 C 
ATOM      8  O   UNL     1      -1.621   3.881   7.111  1.00  0.00    -0.300 OA
ENDBRANCH   6   7
BRANCH   6   9
ATOM      9  O   UNL     1      -4.486   3.414   5.328  1.00  0.00    -0.383 OA
ATOM     10  H   UNL     1      -4.270   3.620   4.382  1.00  0.00     0.211 HD
ENDBRANCH   6   9
ENDBRANCH   5   6
BRANCH   5  11
ATOM     11  O   UNL     1      -4.046   0.766   6.999  1.00  0.00    -0.387 OA
ATOM     12  H   UNL     1      -3.929   0.586   6.029  1.00  0.00     0.211 HD
ENDBRANCH   5  11
ENDBRANCH   1   5
BRANCH   1  13
ATOM     13  O   UNL     1      -6.117   2.307   7.546  1.00  0.00    -0.388 OA
ATOM     14  H   UNL     1      -5.953   1.406   7.160  1.00  0.00     0.211 HD
ENDBRANCH   1  13
TORSDOF 8
ENDMDL
MODEL 3
REMARK VINA RESULT:    -3.105      1.217      4.101
REMARK INTER + INTRA:          -4.906
REMARK INTER:                  -4.185
REMARK INTRA:                  -0.722
REMARK UNBOUND:                -0.712
REMARK SMILES O=C[C@H](O)[C@H](O)[C@@H](O)CO
REMARK SMILES IDX 7 1 9 2 10 3 5 5 3 6 2 7 1 8 4 9 6 11 8 13
REMARK H PARENT 10 4 4 10 6 12 8 14
REMARK Flexibility Score: inf
ROOT
ATOM      1  C   UNL     1       6.621   6.236  -6.533  1.00  0.00     0.171 C 
ENDROOT
BRANCH   1   2
ATOM      2  C   UNL     1       5.296   5.592  -6.088  1.00  0.00     0.190 C 
BRANCH   2   3
ATOM      3  O   UNL     1       5.510   4.291  -5.612  1.00  0.00    -0.394 OA
ATOM      4  H   UNL     1       4.789   3.732  -6.005  1.00  0.00     0.210 HD
ENDBRANCH   2   3
ENDBRANCH   1   2
BRANCH   1   5
ATOM      5  C   UNL     1       7.597   6.577  -5.367  1.00  0.00     0.181 C 
BRANCH   5   6
ATOM      6  C   UNL     1       8.803   7.448  -5.811  1.00  0.00     0.209 C 
BRANCH   6   7
ATOM      7  C   UNL     1      10.049   6.614  -5.953  1.00  0.00     0.258 C 
ATOM      8  O   UNL     1      10.125   5.751  -6.812  1.00  0.00    -0.300 OA
ENDBRANCH   6   7
BRANCH   6   9
ATOM      9  O   UNL     1       9.042   8.458  -4.866  1.00  0.00    -0.383 OA
ATOM     10  H   UNL     1       9.250   9.284  -5.375  1.00  0.00     0.211 HD
ENDBRANCH   6   9
ENDBRANCH   5   6
BRANCH   5  11
ATOM     11  O   UNL     1       8.048   5.381  -4.775  1.00  0.00    -0.387 OA
ATOM     12  H   UNL     1       9.041   5.384  -4.816  1.00  0.00     0.211 HD
ENDBRANCH   5  11
ENDBRANCH   1   5
BRANCH   1  13
ATOM     13  O   UNL     1       7.258   5.408  -7.475  1.00  0.00    -0.388 OA
ATOM     14  H   UNL     1       7.318   5.914  -8.328  1.00  0.00     0.211 HD
ENDBRANCH   1  13
TORSDOF 8
ENDMDL
MODEL 4
REMARK VINA RESULT:    -3.061     17.001     18.104
REMARK INTER + INTRA:          -4.846
REMARK INTER:                  -3.883
REMARK INTRA:                  -0.963
REMARK UNBOUND:                -0.712
REMARK SMILES O=C[C@H](O)[C@H](O)[C@@H](O)CO
REMARK SMILES IDX 7 1 9 2 10 3 5 5 3 6 2 7 1 8 4 9 6 11 8 13
REMARK H PARENT 10 4 4 10 6 12 8 14
REMARK Flexibility Score: inf
ROOT
ATOM      1  C   UNL     1      -3.771   2.151   6.683  1.00  0.00     0.171 C 
ENDROOT
BRANCH   1   2
ATOM      2  C   UNL     1      -5.197   2.727   6.620  1.00  0.00     0.190 C 
BRANCH   2   3
ATOM      3  O   UNL     1      -5.962   2.283   7.708  1.00  0.00    -0.394 OA
ATOM      4  H   UNL     1      -5.835   2.957   8.426  1.00  0.00     0.210 HD
ENDBRANCH   2   3
ENDBRANCH   1   2
BRANCH   1   5
ATOM      5  C   UNL     1      -2.853   2.815   7.753  1.00  0.00     0.181 C 
BRANCH   5   6
ATOM      6  C   UNL     1      -2.328   1.815   8.818  1.00  0.00     0.209 C 
BRANCH   6   7
ATOM      7  C   UNL     1      -3.229   1.788  10.025  1.00  0.00     0.258 C 
ATOM      8  O   UNL     1      -4.367   1.356   9.942  1.00  0.00    -0.300 OA
ENDBRANCH   6   7
BRANCH   6   9
ATOM      9  O   UNL     1      -1.036   2.179   9.227  1.00  0.00    -0.383 OA
ATOM     10  H   UNL     1      -0.442   2.064   8.441  1.00  0.00     0.211 HD
ENDBRANCH   6   9
ENDBRANCH   5   6
BRANCH   5  11
ATOM     11  O   UNL     1      -3.551   3.869   8.374  1.00  0.00    -0.387 OA
ATOM     12  H   UNL     1      -2.941   4.652   8.408  1.00  0.00     0.211 HD
ENDBRANCH   5  11
ENDBRANCH   1   5
BRANCH   1  13
ATOM     13  O   UNL     1      -3.829   0.760   6.887  1.00  0.00    -0.388 OA
ATOM     14  H   UNL     1      -2.898   0.435   7.005  1.00  0.00     0.211 HD
ENDBRANCH   1  13
TORSDOF 8
ENDMDL
MODEL 5
REMARK VINA RESULT:    -3.031      2.428      3.761
REMARK INTER + INTRA:          -4.806
REMARK INTER:                  -4.099
REMARK INTRA:                  -0.707
REMARK UNBOUND:                -0.712
REMARK SMILES O=C[C@H](O)[C@H](O)[C@@H](O)CO
REMARK SMILES IDX 7 1 9 2 10 3 5 5 3 6 2 7 1 8 4 9 6 11 8 13
REMARK H PARENT 10 4 4 10 6 12 8 14
REMARK Flexibility Score: inf
ROOT
ATOM      1  C   UNL     1       4.467   4.481  -6.239  1.00  0.00     0.171 C 
ENDROOT
BRANCH   1   2
ATOM      2  C   UNL     1       5.364   5.679  -5.879  1.00  0.00     0.190 C 
BRANCH   2   3
ATOM      3  O   UNL     1       6.514   5.254  -5.199  1.00  0.00    -0.394 OA
ATOM      4  H   UNL     1       6.601   5.847  -4.409  1.00  0.00     0.210 HD
ENDBRANCH   2   3
ENDBRANCH   1   2
BRANCH   1   5
ATOM      5  C   UNL     1       4.805   3.807  -7.602  1.00  0.00     0.181 C 
BRANCH   5   6
ATOM      6  C   UNL     1       4.618   2.266  -7.589  1.00  0.00     0.209 C 
BRANCH   6   7
ATOM      7  C   UNL     1       4.994   1.663  -8.917  1.00  0.00     0.258 C 
ATOM      8  O   UNL     1       6.160   1.414  -9.178  1.00  0.00    -0.300 OA
ENDBRANCH   6   7
BRANCH   6   9
ATOM      9  O   UNL     1       3.280   1.945  -7.311  1.00  0.00    -0.383 OA
ATOM     10  H   UNL     1       3.257   1.576  -6.390  1.00  0.00     0.211 HD
ENDBRANCH   6   9
ENDBRANCH   5   6
BRANCH   5  11
ATOM     11  O   UNL     1       6.124   4.136  -7.968  1.00  0.00    -0.387 OA
ATOM     12  H   UNL     1       6.675   3.315  -7.871  1.00  0.00     0.211 HD
ENDBRANCH   5  11
ENDBRANCH   1   5
BRANCH   1  13
ATOM     13  O   UNL     1       4.507   3.530  -5.202  1.00  0.00    -0.388 OA
ATOM     14  H   UNL     1       5.259   3.775  -4.600  1.00  0.00     0.211 HD
ENDBRANCH   1  13
TORSDOF 8
ENDMDL
MODEL 6
REMARK VINA RESULT:    -3.016      2.652      4.214
REMARK INTER + INTRA:          -4.786
REMARK INTER:                  -4.067
REMARK INTRA:                  -0.718
REMARK UNBOUND:                -0.712
REMARK SMILES O=C[C@H](O)[C@H](O)[C@@H](O)CO
REMARK SMILES IDX 7 1 9 2 10 3 5 5 3 6 2 7 1 8 4 9 6 11 8 13
REMARK H PARENT 10 4 4 10 6 12 8 14
REMARK Flexibility Score: inf
ROOT
ATOM      1  C   UNL     1       4.625   4.554  -5.704  1.00  0.00     0.171 C 
ENDROOT
BRANCH   1   2
ATOM      2  C   UNL     1       3.786   5.745  -6.202  1.00  0.00     0.190 C 
BRANCH   2   3
ATOM      3  O   UNL     1       2.420   5.514  -5.994  1.00  0.00    -0.394 OA
ATOM      4  H   UNL     1       2.038   6.378  -5.689  1.00  0.00     0.210 HD
ENDBRANCH   2   3
ENDBRANCH   1   2
BRANCH   1   5
ATOM      5  C   UNL     1       4.557   3.290  -6.613  1.00  0.00     0.181 C 
BRANCH   5   6
ATOM      6  C   UNL     1       5.018   3.558  -8.071  1.00  0.00     0.209 C 
BRANCH   6   7
ATOM      7  C   UNL     1       5.040   2.283  -8.874  1.00  0.00     0.258 C 
ATOM      8  O   UNL     1       5.152   1.202  -8.320  1.00  0.00    -0.300 OA
ENDBRANCH   6   7
BRANCH   6   9
ATOM      9  O   UNL     1       6.306   4.116  -8.075  1.00  0.00    -0.383 OA
ATOM     10  H   UNL     1       6.700   3.922  -8.965  1.00  0.00     0.211 HD
ENDBRANCH   6   9
ENDBRANCH   5   6
BRANCH   5  11
ATOM     11  O   UNL     1       3.245   2.780  -6.600  1.00  0.00    -0.387 OA
ATOM     12  H   UNL     1       2.884   2.906  -5.683  1.00  0.00     0.211 HD
ENDBRANCH   5  11
ENDBRANCH   1   5
BRANCH   1  13
ATOM     13  O   UNL     1       5.961   4.956  -5.527  1.00  0.00    -0.388 OA
ATOM     14  H   UNL     1       6.090   5.801  -6.033  1.00  0.00     0.211 HD
ENDBRANCH   1  13
TORSDOF 8
ENDMDL
MODEL 7
REMARK VINA RESULT:    -2.988     16.610     17.426
REMARK INTER + INTRA:          -4.748
REMARK INTER:                  -4.043
REMARK INTRA:                  -0.705
REMARK UNBOUND:                -0.712
REMARK SMILES O=C[C@H](O)[C@H](O)[C@@H](O)CO
REMARK SMILES IDX 7 1 9 2 10 3 5 5 3 6 2 7 1 8 4 9 6 11 8 13
REMARK H PARENT 10 4 4 10 6 12 8 14
REMARK Flexibility Score: inf
ROOT
ATOM      1  C   UNL     1       8.057  -4.274   9.442  1.00  0.00     0.171 C 
ENDROOT
BRANCH   1   2
ATOM      2  C   UNL     1       9.573  -4.081   9.260  1.00  0.00     0.190 C 
BRANCH   2   3
ATOM      3  O   UNL     1       9.908  -4.018   7.901  1.00  0.00    -0.394 OA
ATOM      4  H   UNL     1       9.124  -3.618   7.443  1.00  0.00     0.210 HD
ENDBRANCH   2   3
ENDBRANCH   1   2
BRANCH   1   5
ATOM      5  C   UNL     1       7.205  -3.000   9.161  1.00  0.00     0.181 C 
BRANCH   5   6
ATOM      6  C   UNL     1       5.678  -3.239   9.302  1.00  0.00     0.209 C 
BRANCH   6   7
ATOM      7  C   UNL     1       4.998  -3.199   7.958  1.00  0.00     0.258 C 
ATOM      8  O   UNL     1       5.250  -4.038   7.109  1.00  0.00    -0.300 OA
ENDBRANCH   6   7
BRANCH   6   9
ATOM      9  O   UNL     1       5.109  -2.255  10.125  1.00  0.00    -0.383 OA
ATOM     10  H   UNL     1       4.253  -2.624  10.466  1.00  0.00     0.211 HD
ENDBRANCH   6   9
ENDBRANCH   5   6
BRANCH   5  11
ATOM     11  O   UNL     1       7.508  -2.514   7.875  1.00  0.00    -0.387 OA
ATOM     12  H   UNL     1       8.317  -1.942   7.955  1.00  0.00     0.211 HD
ENDBRANCH   5  11
ENDBRANCH   1   5
BRANCH   1  13
ATOM     13  O   UNL     1       7.615  -5.342   8.639  1.00  0.00    -0.388 OA
ATOM     14  H   UNL     1       6.960  -4.977   7.988  1.00  0.00     0.211 HD
ENDBRANCH   1  13
TORSDOF 8
ENDMDL
MODEL 8
REMARK VINA RESULT:    -2.984      1.479      1.936
REMARK INTER + INTRA:          -4.743
REMARK INTER:                  -4.122
REMARK INTRA:                  -0.621
REMARK UNBOUND:                -0.712
REMARK SMILES O=C[C@H](O)[C@H](O)[C@@H](O)CO
REMARK SMILES IDX 7 1 9 2 10 3 5 5 3 6 2 7 1 8 4 9 6 11 8 13
REMARK H PARENT 10 4 4 10 6 12 8 14
REMARK Flexibility Score: inf
ROOT
ATOM      1  C   UNL     1       6.209   5.967  -6.036  1.00  0.00     0.171 C 
ENDROOT
BRANCH   1   2
ATOM      2  C   UNL     1       7.409   6.701  -6.660  1.00  0.00     0.190 C 
BRANCH   2   3
ATOM      3  O   UNL     1       8.580   5.941  -6.532  1.00  0.00    -0.394 OA
ATOM      4  H   UNL     1       9.332   6.564  -6.707  1.00  0.00     0.210 HD
ENDBRANCH   2   3
ENDBRANCH   1   2
BRANCH   1   5
ATOM      5  C   UNL     1       5.466   5.002  -7.008  1.00  0.00     0.181 C 
BRANCH   5   6
ATOM      6  C   UNL     1       4.724   3.849  -6.281  1.00  0.00     0.209 C 
BRANCH   6   7
ATOM      7  C   UNL     1       4.276   2.793  -7.257  1.00  0.00     0.258 C 
ATOM      8  O   UNL     1       5.071   1.982  -7.703  1.00  0.00    -0.300 OA
ENDBRANCH   6   7
BRANCH   6   9
ATOM      9  O   UNL     1       3.597   4.349  -5.609  1.00  0.00    -0.383 OA
ATOM     10  H   UNL     1       3.219   5.069  -6.177  1.00  0.00     0.211 HD
ENDBRANCH   6   9
ENDBRANCH   5   6
BRANCH   5  11
ATOM     11  O   UNL     1       6.386   4.482  -7.939  1.00  0.00    -0.387 OA
ATOM     12  H   UNL     1       6.085   4.760  -8.844  1.00  0.00     0.211 HD
ENDBRANCH   5  11
ENDBRANCH   1   5
BRANCH   1  13
ATOM     13  O   UNL     1       6.624   5.273  -4.885  1.00  0.00    -0.388 OA
ATOM     14  H   UNL     1       6.606   4.303  -5.096  1.00  0.00     0.211 HD
ENDBRANCH   1  13
TORSDOF 8
ENDMDL
MODEL 9
REMARK VINA RESULT:    -2.930      1.535      3.908
REMARK INTER + INTRA:          -4.669
REMARK INTER:                  -3.991
REMARK INTRA:                  -0.678
REMARK UNBOUND:                -0.712
REMARK SMILES O=C[C@H](O)[C@H](O)[C@@H](O)CO
REMARK SMILES IDX 7 1 9 2 10 3 5 5 3 6 2 7 1 8 4 9 6 11 8 13
REMARK H PARENT 10 4 4 10 6 12 8 14
REMARK Flexibility Score: inf
ROOT
ATOM      1  C   UNL     1       5.368   5.329  -6.799  1.00  0.00     0.171 C 
ENDROOT
BRANCH   1   2
ATOM      2  C   UNL     1       4.248   4.681  -5.966  1.00  0.00     0.190 C 
BRANCH   2   3
ATOM      3  O   UNL     1       4.723   3.551  -5.286  1.00  0.00    -0.394 OA
ATOM      4  H   UNL     1       5.136   2.969  -5.976  1.00  0.00     0.210 HD
ENDBRANCH   2   3
ENDBRANCH   1   2
BRANCH   1   5
ATOM      5  C   UNL     1       6.420   6.119  -5.964  1.00  0.00     0.181 C 
BRANCH   5   6
ATOM      6  C   UNL     1       7.656   6.560  -6.793  1.00  0.00     0.209 C 
BRANCH   6   7
ATOM      7  C   UNL     1       8.450   7.612  -6.063  1.00  0.00     0.258 C 
ATOM      8  O   UNL     1       8.598   7.551  -4.853  1.00  0.00    -0.300 OA
ENDBRANCH   6   7
BRANCH   6   9
ATOM      9  O   UNL     1       7.247   7.080  -8.030  1.00  0.00    -0.383 OA
ATOM     10  H   UNL     1       7.040   8.040  -7.884  1.00  0.00     0.211 HD
ENDBRANCH   6   9
ENDBRANCH   5   6
BRANCH   5  11
ATOM     11  O   UNL     1       6.821   5.337  -4.864  1.00  0.00    -0.387 OA
ATOM     12  H   UNL     1       7.709   5.670  -4.569  1.00  0.00     0.211 HD
ENDBRANCH   5  11
ENDBRANCH   1   5
BRANCH   1  13
ATOM     13  O   UNL     1       6.004   4.349  -7.582  1.00  0.00    -0.388 OA
ATOM     14  H   UNL     1       6.771   4.783  -8.041  1.00  0.00     0.211 HD
ENDBRANCH   1  13
TORSDOF 8
ENDMDL
