MODEL 1
REMARK VINA RESULT:    -4.130      0.000      0.000
REMARK INTER + INTRA:          -6.618
REMARK INTER:                  -6.303
REMARK INTRA:                  -0.315
REMARK UNBOUND:                -0.315
REMARK SMILES CC1=CCC[C@H](C)C(=O)C[C@H](C(C)C)C(=O)C1
REMARK SMILES IDX 8 1 9 2 6 3 7 4 5 5 4 6 3 7 2 8 1 9 10 11 11 12 15 13 16 14
REMARK SMILES IDX 17 15 12 17 13 18 14 19
REMARK H PARENT
REMARK Flexibility Score: 70.00
ROOT
ATOM      1  C   UNL     1     -16.543  13.088 -31.474  1.00  0.00     0.136 C 
ATOM      2  O   UNL     1     -16.718  14.063 -32.191  1.00  0.00    -0.299 OA
ENDROOT
BRANCH   1   3
ATOM      3  C   UNL     1     -17.583  12.710 -30.431  1.00  0.00     0.053 C 
ATOM      4  C   UNL     1     -18.108  11.277 -30.620  1.00  0.00     0.016 C 
BRANCH   3   5
ATOM      5  C   UNL     1     -17.055  12.929 -28.998  1.00  0.00     0.015 C 
BRANCH   5   6
ATOM      6  C   UNL     1     -16.770  11.622 -28.223  1.00  0.00     0.028 C 
BRANCH   6   7
ATOM      7  C   UNL     1     -15.524  11.756 -27.381  1.00  0.00    -0.028 C 
ATOM      8  C   UNL     1     -14.271  11.421 -27.771  1.00  0.00    -0.070 CG0
ATOM      9  C   UNL     1     -13.136  11.714 -26.821  1.00  0.00     0.039 C 
ATOM     10  G   UNL     1     -13.957  10.737 -29.093  1.00  0.00     0.000 G0
ENDBRANCH   6   7
ENDBRANCH   5   6
ENDBRANCH   3   5
ENDBRANCH   1   3
BRANCH   1  11
ATOM     11  C   UNL     1     -15.290  12.262 -31.658  1.00  0.00     0.087 C 
BRANCH  11  12
ATOM     12  C   UNL     1     -14.074  12.775 -30.834  1.00  0.00     0.066 C 
BRANCH  12  13
ATOM     13  C   UNL     1     -13.349  11.613 -30.163  1.00  0.00     0.140 C 
ATOM     14  O   UNL     1     -12.199  11.375 -30.503  1.00  0.00    -0.299 OA
BRANCH  13  15
ATOM     15  C   UNL     1     -13.954  10.734 -29.082  1.00  0.00     0.106 CG0
ATOM     16  G   UNL     1     -14.268  11.426 -27.765  1.00  0.00     0.000 G0
ENDBRANCH  13  15
ENDBRANCH  12  13
BRANCH  12  17
ATOM     17  C   UNL     1     -13.081  13.592 -31.721  1.00  0.00    -0.006 C 
ATOM     18  C   UNL     1     -13.218  13.248 -33.214  1.00  0.00     0.008 C 
ATOM     19  C   UNL     1     -13.281  15.107 -31.539  1.00  0.00     0.008 C 
ENDBRANCH  12  17
ENDBRANCH  11  12
ENDBRANCH   1  11
TORSDOF 1
ENDMDL
MODEL 2
REMARK VINA RESULT:    -4.048      1.881      4.544
REMARK INTER + INTRA:          -6.494
REMARK INTER:                  -6.565
REMARK INTRA:                   0.071
REMARK UNBOUND:                -0.315
REMARK SMILES CC1=CCC[C@H](C)C(=O)C[C@H](C(C)C)C(=O)C1
REMARK SMILES IDX 8 1 9 2 6 3 7 4 5 5 4 6 3 7 2 8 1 9 10 11 11 12 15 13 16 14
REMARK SMILES IDX 17 15 12 17 13 18 14 19
REMARK H PARENT
REMARK Flexibility Score: 70.00
ROOT
ATOM      1  C   UNL     1     -13.479  12.712 -30.754  1.00  0.00     0.136 C 
ATOM      2  O   UNL     1     -12.666  12.454 -31.630  1.00  0.00    -0.299 OA
ENDROOT
BRANCH   1   3
ATOM      3  C   UNL     1     -14.117  14.091 -30.687  1.00  0.00     0.053 C 
ATOM      4  C   UNL     1     -13.107  15.218 -30.966  1.00  0.00     0.016 C 
BRANCH   3   5
ATOM      5  C   UNL     1     -15.344  14.195 -31.617  1.00  0.00     0.015 C 
BRANCH   5   6
ATOM      6  C   UNL     1     -15.946  12.829 -32.023  1.00  0.00     0.028 C 
BRANCH   6   7
ATOM      7  C   UNL     1     -17.365  12.698 -31.524  1.00  0.00    -0.028 C 
ATOM      8  C   UNL     1     -17.742  12.090 -30.374  1.00  0.00    -0.070 CG0
ATOM      9  C   UNL     1     -19.202  12.139 -29.997  1.00  0.00     0.039 C 
ATOM     10  G   UNL     1     -16.780  11.335 -29.469  1.00  0.00     0.000 G0
ENDBRANCH   6   7
ENDBRANCH   5   6
ENDBRANCH   3   5
ENDBRANCH   1   3
BRANCH   1  11
ATOM     11  C   UNL     1     -13.849  11.635 -29.760  1.00  0.00     0.087 C 
BRANCH  11  12
ATOM     12  C   UNL     1     -14.452  12.185 -28.436  1.00  0.00     0.066 C 
BRANCH  12  13
ATOM     13  C   UNL     1     -15.977  12.162 -28.488  1.00  0.00     0.140 C 
ATOM     14  O   UNL     1     -16.593  12.878 -27.711  1.00  0.00    -0.299 OA
BRANCH  13  15
ATOM     15  C   UNL     1     -16.788  11.320 -29.455  1.00  0.00     0.106 CG0
ATOM     16  G   UNL     1     -17.714  12.088 -30.387  1.00  0.00     0.000 G0
ENDBRANCH  13  15
ENDBRANCH  12  13
BRANCH  12  17
ATOM     17  C   UNL     1     -13.942  11.383 -27.195  1.00  0.00    -0.006 C 
ATOM     18  C   UNL     1     -13.836   9.875 -27.481  1.00  0.00     0.008 C 
ATOM     19  C   UNL     1     -12.571  11.896 -26.720  1.00  0.00     0.008 C 
ENDBRANCH  12  17
ENDBRANCH  11  12
ENDBRANCH   1  11
TORSDOF 1
ENDMDL
MODEL 3
REMARK VINA RESULT:    -3.884      2.076      5.067
REMARK INTER + INTRA:          -6.242
REMARK INTER:                  -6.442
REMARK INTRA:                   0.199
REMARK UNBOUND:                -0.315
REMARK SMILES CC1=CCC[C@H](C)C(=O)C[C@H](C(C)C)C(=O)C1
REMARK SMILES IDX 8 1 9 2 6 3 7 4 5 5 4 6 3 7 2 8 1 9 10 11 11 12 15 13 16 14
REMARK SMILES IDX 17 15 12 17 13 18 14 19
REMARK H PARENT
REMARK Flexibility Score: 70.00
ROOT
ATOM      1  C   UNL     1     -14.818  11.178 -27.502  1.00  0.00     0.136 C 
ATOM      2  O   UNL     1     -15.124  11.017 -26.328  1.00  0.00    -0.299 OA
ENDROOT
BRANCH   1   3
ATOM      3  C   UNL     1     -13.477  11.795 -27.863  1.00  0.00     0.053 C 
ATOM      4  C   UNL     1     -12.570  11.986 -26.635  1.00  0.00     0.016 C 
BRANCH   3   5
ATOM      5  C   UNL     1     -12.761  10.991 -28.968  1.00  0.00     0.015 C 
BRANCH   5   6
ATOM      6  C   UNL     1     -13.278  11.282 -30.396  1.00  0.00     0.028 C 
BRANCH   6   7
ATOM      7  C   UNL     1     -13.249  12.763 -30.687  1.00  0.00    -0.028 C 
ATOM      8  C   UNL     1     -14.336  13.560 -30.825  1.00  0.00    -0.070 CG0
ATOM      9  C   UNL     1     -14.104  15.038 -31.024  1.00  0.00     0.039 C 
ATOM     10  G   UNL     1     -15.765  13.039 -30.826  1.00  0.00     0.000 G0
ENDBRANCH   6   7
ENDBRANCH   5   6
ENDBRANCH   3   5
ENDBRANCH   1   3
BRANCH   1  11
ATOM     11  C   UNL     1     -15.786  10.736 -28.576  1.00  0.00     0.087 C 
BRANCH  11  12
ATOM     12  C   UNL     1     -16.969  11.722 -28.798  1.00  0.00     0.066 C 
BRANCH  12  13
ATOM     13  C   UNL     1     -16.484  13.000 -29.475  1.00  0.00     0.140 C 
ATOM     14  O   UNL     1     -16.657  14.063 -28.896  1.00  0.00    -0.299 OA
BRANCH  13  15
ATOM     15  C   UNL     1     -15.782  13.044 -30.820  1.00  0.00     0.106 CG0
ATOM     16  G   UNL     1     -14.348  13.553 -30.803  1.00  0.00     0.000 G0
ENDBRANCH  13  15
ENDBRANCH  12  13
BRANCH  12  17
ATOM     17  C   UNL     1     -18.113  11.068 -29.636  1.00  0.00    -0.006 C 
ATOM     18  C   UNL     1     -18.759   9.875 -28.909  1.00  0.00     0.008 C 
ATOM     19  C   UNL     1     -19.211  12.091 -29.982  1.00  0.00     0.008 C 
ENDBRANCH  12  17
ENDBRANCH  11  12
ENDBRANCH   1  11
TORSDOF 1
ENDMDL
MODEL 4
REMARK VINA RESULT:    -3.564      1.598      3.775
REMARK INTER + INTRA:          -5.754
REMARK INTER:                  -6.440
REMARK INTRA:                   0.686
REMARK UNBOUND:                -0.315
REMARK SMILES CC1=CCC[C@H](C)C(=O)C[C@H](C(C)C)C(=O)C1
REMARK SMILES IDX 8 1 9 2 6 3 7 4 5 5 4 6 3 7 2 8 1 9 10 11 11 12 15 13 16 14
REMARK SMILES IDX 17 15 12 17 13 18 14 19
REMARK H PARENT
REMARK Flexibility Score: 70.00
ROOT
ATOM      1  C   UNL     1     -13.477  11.408 -30.376  1.00  0.00     0.136 C 
ATOM      2  O   UNL     1     -12.333  11.532 -30.791  1.00  0.00    -0.299 OA
ENDROOT
BRANCH   1   3
ATOM      3  C   UNL     1     -13.725  11.029 -28.925  1.00  0.00     0.053 C 
ATOM      4  C   UNL     1     -13.451  12.195 -27.960  1.00  0.00     0.016 C 
BRANCH   3   5
ATOM      5  C   UNL     1     -15.143  10.455 -28.723  1.00  0.00     0.015 C 
BRANCH   5   6
ATOM      6  C   UNL     1     -16.068  11.347 -27.862  1.00  0.00     0.028 C 
BRANCH   6   7
ATOM      7  C   UNL     1     -17.398  11.558 -28.545  1.00  0.00    -0.028 C 
ATOM      8  C   UNL     1     -17.673  12.529 -29.450  1.00  0.00    -0.070 CG0
ATOM      9  C   UNL     1     -19.038  12.523 -30.094  1.00  0.00     0.039 C 
ATOM     10  G   UNL     1     -16.696  13.635 -29.819  1.00  0.00     0.000 G0
ENDBRANCH   6   7
ENDBRANCH   5   6
ENDBRANCH   3   5
ENDBRANCH   1   3
BRANCH   1  11
ATOM     11  C   UNL     1     -14.628  11.655 -31.324  1.00  0.00     0.087 C 
BRANCH  11  12
ATOM     12  C   UNL     1     -14.820  13.152 -31.700  1.00  0.00     0.066 C 
BRANCH  12  13
ATOM     13  C   UNL     1     -16.194  13.647 -31.259  1.00  0.00     0.140 C 
ATOM     14  O   UNL     1     -16.962  14.062 -32.115  1.00  0.00    -0.299 OA
BRANCH  13  15
ATOM     15  C   UNL     1     -16.685  13.643 -29.823  1.00  0.00     0.106 CG0
ATOM     16  G   UNL     1     -17.656  12.531 -29.457  1.00  0.00     0.000 G0
ENDBRANCH  13  15
ENDBRANCH  12  13
BRANCH  12  17
ATOM     17  C   UNL     1     -13.699  14.049 -31.082  1.00  0.00    -0.006 C 
ATOM     18  C   UNL     1     -12.608  14.404 -32.107  1.00  0.00     0.008 C 
ATOM     19  C   UNL     1     -14.280  15.352 -30.504  1.00  0.00     0.008 C 
ENDBRANCH  12  17
ENDBRANCH  11  12
ENDBRANCH   1  11
TORSDOF 1
ENDMDL
MODEL 5
REMARK VINA RESULT:    -3.450     10.173     12.506
REMARK INTER + INTRA:          -5.581
REMARK INTER:                  -5.441
REMARK INTRA:                  -0.140
REMARK UNBOUND:                -0.315
REMARK SMILES CC1=CCC[C@H](C)C(=O)C[C@H](C(C)C)C(=O)C1
REMARK SMILES IDX 8 1 9 2 6 3 7 4 5 5 4 6 3 7 2 8 1 9 10 11 11 12 15 13 16 14
REMARK SMILES IDX 17 15 12 17 13 18 14 19
REMARK H PARENT
REMARK Flexibility Score: 70.00
ROOT
ATOM      1  C   UNL     1     -28.900  13.599 -30.387  1.00  0.00     0.136 C 
ATOM      2  O   UNL     1     -29.986  14.020 -30.760  1.00  0.00    -0.299 OA
ENDROOT
BRANCH   1   3
ATOM      3  C   UNL     1     -28.829  12.451 -29.392  1.00  0.00     0.053 C 
ATOM      4  C   UNL     1     -29.177  12.893 -27.960  1.00  0.00     0.016 C 
BRANCH   3   5
ATOM      5  C   UNL     1     -29.702  11.258 -29.838  1.00  0.00     0.015 C 
BRANCH   5   6
ATOM      6  C   UNL     1     -28.927  10.159 -30.602  1.00  0.00     0.028 C 
BRANCH   6   7
ATOM      7  C   UNL     1     -27.601   9.876 -29.937  1.00  0.00    -0.028 C 
ATOM      8  C   UNL     1     -26.384  10.192 -30.440  1.00  0.00    -0.070 CG0
ATOM      9  C   UNL     1     -25.174   9.909 -29.585  1.00  0.00     0.039 C 
ATOM     10  G   UNL     1     -26.176  10.779 -31.828  1.00  0.00     0.000 G0
ENDBRANCH   6   7
ENDBRANCH   5   6
ENDBRANCH   3   5
ENDBRANCH   1   3
BRANCH   1  11
ATOM     11  C   UNL     1     -27.642  14.224 -30.945  1.00  0.00     0.087 C 
BRANCH  11  12
ATOM     12  C   UNL     1     -26.399  13.291 -30.884  1.00  0.00     0.066 C 
BRANCH  12  13
ATOM     13  C   UNL     1     -26.442  12.262 -32.010  1.00  0.00     0.140 C 
ATOM     14  O   UNL     1     -26.719  12.648 -33.137  1.00  0.00    -0.299 OA
BRANCH  13  15
ATOM     15  C   UNL     1     -26.146  10.784 -31.831  1.00  0.00     0.106 CG0
ATOM     16  G   UNL     1     -26.382  10.225 -30.436  1.00  0.00     0.000 G0
ENDBRANCH  13  15
ENDBRANCH  12  13
BRANCH  12  17
ATOM     17  C   UNL     1     -25.066  14.104 -30.947  1.00  0.00    -0.006 C 
ATOM     18  C   UNL     1     -25.255  15.565 -30.505  1.00  0.00     0.008 C 
ATOM     19  C   UNL     1     -23.974  13.458 -30.075  1.00  0.00     0.008 C 
ENDBRANCH  12  17
ENDBRANCH  11  12
ENDBRANCH   1  11
TORSDOF 1
ENDMDL
MODEL 6
REMARK VINA RESULT:    -3.262      9.636     11.548
REMARK INTER + INTRA:          -5.293
REMARK INTER:                  -5.817
REMARK INTRA:                   0.523
REMARK UNBOUND:                -0.315
REMARK SMILES CC1=CCC[C@H](C)C(=O)C[C@H](C(C)C)C(=O)C1
REMARK SMILES IDX 8 1 9 2 6 3 7 4 5 5 4 6 3 7 2 8 1 9 10 11 11 12 15 13 16 14
REMARK SMILES IDX 17 15 12 17 13 18 14 19
REMARK H PARENT
REMARK Flexibility Score: 70.00
ROOT
ATOM      1  C   UNL     1     -27.781  12.363 -31.127  1.00  0.00     0.136 C 
ATOM      2  O   UNL     1     -28.245  11.501 -31.859  1.00  0.00    -0.299 OA
ENDROOT
BRANCH   1   3
ATOM      3  C   UNL     1     -28.590  12.878 -29.947  1.00  0.00     0.053 C 
ATOM      4  C   UNL     1     -29.831  13.672 -30.389  1.00  0.00     0.016 C 
BRANCH   3   5
ATOM      5  C   UNL     1     -28.970  11.738 -28.979  1.00  0.00     0.015 C 
BRANCH   5   6
ATOM      6  C   UNL     1     -28.233  10.406 -29.251  1.00  0.00     0.028 C 
BRANCH   6   7
ATOM      7  C   UNL     1     -27.216  10.123 -28.172  1.00  0.00    -0.028 C 
ATOM      8  C   UNL     1     -25.872  10.220 -28.311  1.00  0.00    -0.070 CG0
ATOM      9  C   UNL     1     -25.020   9.985 -27.089  1.00  0.00     0.039 C 
ATOM     10  G   UNL     1     -25.185  10.516 -29.635  1.00  0.00     0.000 G0
ENDBRANCH   6   7
ENDBRANCH   5   6
ENDBRANCH   3   5
ENDBRANCH   1   3
BRANCH   1  11
ATOM     11  C   UNL     1     -26.391  12.888 -31.405  1.00  0.00     0.087 C 
BRANCH  11  12
ATOM     12  C   UNL     1     -25.545  13.132 -30.123  1.00  0.00     0.066 C 
BRANCH  12  13
ATOM     13  C   UNL     1     -24.645  11.933 -29.834  1.00  0.00     0.140 C 
ATOM     14  O   UNL     1     -23.442  12.124 -29.735  1.00  0.00    -0.299 OA
BRANCH  13  15
ATOM     15  C   UNL     1     -25.146  10.513 -29.644  1.00  0.00     0.106 CG0
ATOM     16  G   UNL     1     -25.870  10.235 -28.336  1.00  0.00     0.000 G0
ENDBRANCH  13  15
ENDBRANCH  12  13
BRANCH  12  17
ATOM     17  C   UNL     1     -24.689  14.434 -30.237  1.00  0.00    -0.006 C 
ATOM     18  C   UNL     1     -23.705  14.381 -31.419  1.00  0.00     0.008 C 
ATOM     19  C   UNL     1     -25.580  15.680 -30.387  1.00  0.00     0.008 C 
ENDBRANCH  12  17
ENDBRANCH  11  12
ENDBRANCH   1  11
TORSDOF 1
ENDMDL
MODEL 7
REMARK VINA RESULT:    -3.190     10.313     12.558
REMARK INTER + INTRA:          -5.184
REMARK INTER:                  -6.341
REMARK INTRA:                   1.158
REMARK UNBOUND:                -0.315
REMARK SMILES CC1=CCC[C@H](C)C(=O)C[C@H](C(C)C)C(=O)C1
REMARK SMILES IDX 8 1 9 2 6 3 7 4 5 5 4 6 3 7 2 8 1 9 10 11 11 12 15 13 16 14
REMARK SMILES IDX 17 15 12 17 13 18 14 19
REMARK H PARENT
REMARK Flexibility Score: 70.00
ROOT
ATOM      1  C   UNL     1     -24.546  13.173 -30.208  1.00  0.00     0.136 C 
ATOM      2  O   UNL     1     -23.472  13.747 -30.326  1.00  0.00    -0.299 OA
ENDROOT
BRANCH   1   3
ATOM      3  C   UNL     1     -25.846  13.950 -30.343  1.00  0.00     0.053 C 
ATOM      4  C   UNL     1     -25.627  15.472 -30.287  1.00  0.00     0.016 C 
BRANCH   3   5
ATOM      5  C   UNL     1     -26.622  13.542 -31.612  1.00  0.00     0.015 C 
BRANCH   5   6
ATOM      6  C   UNL     1     -28.124  13.912 -31.580  1.00  0.00     0.028 C 
BRANCH   6   7
ATOM      7  C   UNL     1     -28.783  13.379 -30.331  1.00  0.00    -0.028 C 
ATOM      8  C   UNL     1     -28.805  12.080 -29.947  1.00  0.00    -0.070 CG0
ATOM      9  C   UNL     1     -29.436  11.751 -28.616  1.00  0.00     0.039 C 
ATOM     10  G   UNL     1     -28.264  10.942 -30.799  1.00  0.00     0.000 G0
ENDBRANCH   6   7
ENDBRANCH   5   6
ENDBRANCH   3   5
ENDBRANCH   1   3
BRANCH   1  11
ATOM     11  C   UNL     1     -24.553  11.684 -29.948  1.00  0.00     0.087 C 
BRANCH  11  12
ATOM     12  C   UNL     1     -25.921  11.143 -29.441  1.00  0.00     0.066 C 
BRANCH  12  13
ATOM     13  C   UNL     1     -26.769  10.647 -30.608  1.00  0.00     0.140 C 
ATOM     14  O   UNL     1     -26.230   9.964 -31.467  1.00  0.00    -0.299 OA
BRANCH  13  15
ATOM     15  C   UNL     1     -28.252  10.928 -30.769  1.00  0.00     0.106 CG0
ATOM     16  G   UNL     1     -28.800  12.086 -29.948  1.00  0.00     0.000 G0
ENDBRANCH  13  15
ENDBRANCH  12  13
BRANCH  12  17
ATOM     17  C   UNL     1     -25.735  10.005 -28.387  1.00  0.00    -0.006 C 
ATOM     18  C   UNL     1     -24.341  10.038 -27.736  1.00  0.00     0.008 C 
ATOM     19  C   UNL     1     -26.802  10.086 -27.280  1.00  0.00     0.008 C 
ENDBRANCH  12  17
ENDBRANCH  11  12
ENDBRANCH   1  11
TORSDOF 1
ENDMDL
MODEL 8
REMARK VINA RESULT:    -3.023      1.845      3.397
REMARK INTER + INTRA:          -4.928
REMARK INTER:                  -5.029
REMARK INTRA:                   0.100
REMARK UNBOUND:                -0.315
REMARK SMILES CC1=CCC[C@H](C)C(=O)C[C@H](C(C)C)C(=O)C1
REMARK SMILES IDX 8 1 9 2 6 3 7 4 5 5 4 6 3 7 2 8 1 9 10 11 11 12 15 13 16 14
REMARK SMILES IDX 17 15 12 17 13 18 14 19
REMARK H PARENT
REMARK Flexibility Score: 70.00
ROOT
ATOM      1  C   UNL     1     -13.915  13.163 -30.642  1.00  0.00     0.136 C 
ATOM      2  O   UNL     1     -13.616  13.929 -29.736  1.00  0.00    -0.299 OA
ENDROOT
BRANCH   1   3
ATOM      3  C   UNL     1     -14.770  13.650 -31.802  1.00  0.00     0.053 C 
ATOM      4  C   UNL     1     -14.812  12.642 -32.963  1.00  0.00     0.016 C 
BRANCH   3   5
ATOM      5  C   UNL     1     -16.192  14.029 -31.338  1.00  0.00     0.015 C 
BRANCH   5   6
ATOM      6  C   UNL     1     -17.049  12.825 -30.881  1.00  0.00     0.028 C 
BRANCH   6   7
ATOM      7  C   UNL     1     -17.168  12.790 -29.376  1.00  0.00    -0.028 C 
ATOM      8  C   UNL     1     -16.547  11.908 -28.558  1.00  0.00    -0.070 CG0
ATOM      9  C   UNL     1     -16.716  12.089 -27.069  1.00  0.00     0.039 C 
ATOM     10  G   UNL     1     -15.724  10.731 -29.061  1.00  0.00     0.000 G0
ENDBRANCH   6   7
ENDBRANCH   5   6
ENDBRANCH   3   5
ENDBRANCH   1   3
BRANCH   1  11
ATOM     11  C   UNL     1     -13.404  11.741 -30.596  1.00  0.00     0.087 C 
BRANCH  11  12
ATOM     12  C   UNL     1     -13.071  11.242 -29.161  1.00  0.00     0.066 C 
BRANCH  12  13
ATOM     13  C   UNL     1     -14.302  10.624 -28.505  1.00  0.00     0.140 C 
ATOM     14  O   UNL     1     -14.155  10.011 -27.458  1.00  0.00    -0.299 OA
BRANCH  13  15
ATOM     15  C   UNL     1     -15.712  10.733 -29.058  1.00  0.00     0.106 CG0
ATOM     16  G   UNL     1     -16.536  11.905 -28.546  1.00  0.00     0.000 G0
ENDBRANCH  13  15
ENDBRANCH  12  13
BRANCH  12  17
ATOM     17  C   UNL     1     -11.892  10.217 -29.167  1.00  0.00    -0.006 C 
ATOM     18  C   UNL     1     -10.994  10.371 -30.407  1.00  0.00     0.008 C 
ATOM     19  C   UNL     1     -11.022  10.354 -27.904  1.00  0.00     0.008 C 
ENDBRANCH  12  17
ENDBRANCH  11  12
ENDBRANCH   1  11
TORSDOF 1
ENDMDL
MODEL 9
REMARK VINA RESULT:    -2.969      9.084     11.561
REMARK INTER + INTRA:          -4.846
REMARK INTER:                  -4.754
REMARK INTRA:                  -0.091
REMARK UNBOUND:                -0.315
REMARK SMILES CC1=CCC[C@H](C)C(=O)C[C@H](C(C)C)C(=O)C1
REMARK SMILES IDX 8 1 9 2 6 3 7 4 5 5 4 6 3 7 2 8 1 9 10 11 11 12 15 13 16 14
REMARK SMILES IDX 17 15 12 17 13 18 14 19
REMARK H PARENT
REMARK Flexibility Score: 70.00
ROOT
ATOM      1  C   UNL     1     -26.674  13.982 -30.554  1.00  0.00     0.136 C 
ATOM      2  O   UNL     1     -27.548  14.146 -31.393  1.00  0.00    -0.299 OA
ENDROOT
BRANCH   1   3
ATOM      3  C   UNL     1     -25.349  14.718 -30.679  1.00  0.00     0.053 C 
ATOM      4  C   UNL     1     -25.484  16.222 -30.384  1.00  0.00     0.016 C 
BRANCH   3   5
ATOM      5  C   UNL     1     -24.256  14.071 -29.803  1.00  0.00     0.015 C 
BRANCH   5   6
ATOM      6  C   UNL     1     -23.566  12.849 -30.454  1.00  0.00     0.028 C 
BRANCH   6   7
ATOM      7  C   UNL     1     -23.017  11.917 -29.401  1.00  0.00    -0.028 C 
ATOM      8  C   UNL     1     -23.534  10.709 -29.071  1.00  0.00    -0.070 CG0
ATOM      9  C   UNL     1     -22.790   9.880 -28.054  1.00  0.00     0.039 C 
ATOM     10  G   UNL     1     -24.835  10.168 -29.644  1.00  0.00     0.000 G0
ENDBRANCH   6   7
ENDBRANCH   5   6
ENDBRANCH   3   5
ENDBRANCH   1   3
BRANCH   1  11
ATOM     11  C   UNL     1     -26.943  13.056 -29.390  1.00  0.00     0.087 C 
BRANCH  11  12
ATOM     12  C   UNL     1     -27.110  11.565 -29.801  1.00  0.00     0.066 C 
BRANCH  12  13
ATOM     13  C   UNL     1     -26.115  10.684 -29.052  1.00  0.00     0.140 C 
ATOM     14  O   UNL     1     -26.375  10.369 -27.899  1.00  0.00    -0.299 OA
BRANCH  13  15
ATOM     15  C   UNL     1     -24.824  10.152 -29.648  1.00  0.00     0.106 CG0
ATOM     16  G   UNL     1     -23.540  10.705 -29.048  1.00  0.00     0.000 G0
ENDBRANCH  13  15
ENDBRANCH  12  13
BRANCH  12  17
ATOM     17  C   UNL     1     -28.569  11.061 -29.557  1.00  0.00    -0.006 C 
ATOM     18  C   UNL     1     -29.575  12.220 -29.450  1.00  0.00     0.008 C 
ATOM     19  C   UNL     1     -29.027  10.106 -30.674  1.00  0.00     0.008 C 
ENDBRANCH  12  17
ENDBRANCH  11  12
ENDBRANCH   1  11
TORSDOF 1
ENDMDL
