MODEL 1
REMARK VINA RESULT:    -7.721      0.000      0.000
REMARK INTER + INTRA:          -8.698
REMARK INTER:                  -8.624
REMARK INTRA:                  -0.074
REMARK UNBOUND:                -0.074
REMARK SMILES CC1(C)CC[C@@]2(CO)CC=C3[C@@]4(C)CC[C@@H]5C(C)(C)[C@H](O)CC[C@@]5(C)[C@H]4CC[C@@]3(C)[C@H]2C1
REMARK SMILES IDX 1 1 2 2 4 3 5 4 6 5 9 6 10 7 11 8 12 9 14 10 15 11 16 12
REMARK SMILES IDX 17 13 20 14 22 15 23 16 24 17 26 18 27 19 28 20 29 21 31 22
REMARK SMILES IDX 32 23 30 24 25 25 18 26 19 27 13 28 3 29 7 30 8 31 21 33
REMARK H PARENT 8 32 21 34
REMARK Flexibility Score: inf
ROOT
ATOM      1  C   UNL     1     117.268 117.457 130.223  1.00  0.00     0.011 C 
ATOM      2  C   UNL     1     115.778 117.695 129.889  1.00  0.00    -0.035 C 
ATOM      3  C   UNL     1     114.939 117.316 131.122  1.00  0.00     0.007 C 
ATOM      4  C   UNL     1     113.445 117.448 130.852  1.00  0.00     0.010 C 
ATOM      5  C   UNL     1     112.930 116.572 129.660  1.00  0.00     0.001 C 
ATOM      6  C   UNL     1     111.498 117.055 129.347  1.00  0.00     0.037 C 
ATOM      7  C   UNL     1     111.525 118.396 128.680  1.00  0.00    -0.026 C 
ATOM      8  C   UNL     1     112.297 118.652 127.594  1.00  0.00    -0.062 C 
ATOM      9  C   UNL     1     112.073 119.981 126.791  1.00  0.00    -0.008 C 
ATOM     10  C   UNL     1     112.512 121.184 127.705  1.00  0.00     0.012 C 
ATOM     11  C   UNL     1     113.852 121.886 127.388  1.00  0.00     0.006 C 
ATOM     12  C   UNL     1     114.271 122.016 125.889  1.00  0.00     0.003 C 
ATOM     13  C   UNL     1     115.008 123.362 125.511  1.00  0.00    -0.006 C 
ATOM     14  C   UNL     1     115.544 123.254 124.043  1.00  0.00     0.120 C 
ATOM     15  C   UNL     1     114.463 122.850 123.029  1.00  0.00     0.033 C 
ATOM     16  C   UNL     1     113.765 121.533 123.413  1.00  0.00     0.010 C 
ATOM     17  C   UNL     1     113.185 121.520 124.878  1.00  0.00    -0.025 C 
ATOM     18  C   UNL     1     112.764 120.047 125.337  1.00  0.00     0.005 C 
ATOM     19  C   UNL     1     113.896 118.984 125.099  1.00  0.00     0.006 C 
ATOM     20  C   UNL     1     114.374 118.222 126.322  1.00  0.00     0.012 C 
ATOM     21  C   UNL     1     113.250 117.553 127.129  1.00  0.00    -0.008 C 
ATOM     22  C   UNL     1     113.843 116.674 128.355  1.00  0.00     0.008 C 
ATOM     23  C   UNL     1     115.378 116.780 128.703  1.00  0.00     0.011 C 
ATOM     24  C   UNL     1     112.452 116.615 126.169  1.00  0.00     0.016 C 
ATOM     25  C   UNL     1     111.935 122.454 124.820  1.00  0.00     0.012 C 
ATOM     26  C   UNL     1     114.114 124.629 125.684  1.00  0.00     0.014 C 
ATOM     27  C   UNL     1     116.247 123.530 126.439  1.00  0.00     0.014 C 
ATOM     28  C   UNL     1     110.523 120.067 126.558  1.00  0.00     0.016 C 
ATOM     29  C   UNL     1     115.611 119.189 129.543  1.00  0.00     0.011 C 
ENDROOT
BRANCH   5  30
ATOM     30  C   UNL     1     112.851 115.079 130.111  1.00  0.00     0.163 C 
BRANCH  30  31
ATOM     31  O   UNL     1     111.623 114.795 130.736  1.00  0.00    -0.396 OA
ATOM     32  H   UNL     1     111.551 115.387 131.529  1.00  0.00     0.210 HD
ENDBRANCH  30  31
ENDBRANCH   5  30
BRANCH  14  33
ATOM     33  O   UNL     1     116.106 124.478 123.632  1.00  0.00    -0.393 OA
ATOM     34  H   UNL     1     117.001 124.286 123.250  1.00  0.00     0.210 HD
ENDBRANCH  14  33
TORSDOF 3
ENDMDL
MODEL 2
REMARK VINA RESULT:    -7.599      1.942      4.614
REMARK INTER + INTRA:          -8.561
REMARK INTER:                  -8.458
REMARK INTRA:                  -0.103
REMARK UNBOUND:                -0.074
REMARK SMILES CC1(C)CC[C@@]2(CO)CC=C3[C@@]4(C)CC[C@@H]5C(C)(C)[C@H](O)CC[C@@]5(C)[C@H]4CC[C@@]3(C)[C@H]2C1
REMARK SMILES IDX 1 1 2 2 4 3 5 4 6 5 9 6 10 7 11 8 12 9 14 10 15 11 16 12
REMARK SMILES IDX 17 13 20 14 22 15 23 16 24 17 26 18 27 19 28 20 29 21 31 22
REMARK SMILES IDX 32 23 30 24 25 25 18 26 19 27 13 28 3 29 7 30 8 31 21 33
REMARK H PARENT 8 32 21 34
REMARK Flexibility Score: inf
ROOT
ATOM      1  C   UNL     1     108.889 117.961 123.079  1.00  0.00     0.011 C 
ATOM      2  C   UNL     1     109.913 117.617 124.184  1.00  0.00    -0.035 C 
ATOM      3  C   UNL     1     109.932 116.089 124.366  1.00  0.00     0.007 C 
ATOM      4  C   UNL     1     110.863 115.665 125.496  1.00  0.00     0.010 C 
ATOM      5  C   UNL     1     110.504 116.287 126.888  1.00  0.00     0.001 C 
ATOM      6  C   UNL     1     111.701 116.000 127.819  1.00  0.00     0.037 C 
ATOM      7  C   UNL     1     112.874 116.857 127.455  1.00  0.00    -0.026 C 
ATOM      8  C   UNL     1     112.772 118.203 127.311  1.00  0.00    -0.062 C 
ATOM      9  C   UNL     1     114.081 119.062 127.198  1.00  0.00    -0.008 C 
ATOM     10  C   UNL     1     114.780 118.711 125.833  1.00  0.00     0.012 C 
ATOM     11  C   UNL     1     114.685 119.739 124.683  1.00  0.00     0.006 C 
ATOM     12  C   UNL     1     114.701 121.256 125.056  1.00  0.00     0.003 C 
ATOM     13  C   UNL     1     115.475 122.189 124.042  1.00  0.00    -0.006 C 
ATOM     14  C   UNL     1     115.227 123.684 124.437  1.00  0.00     0.120 C 
ATOM     15  C   UNL     1     115.551 123.988 125.908  1.00  0.00     0.033 C 
ATOM     16  C   UNL     1     114.781 123.073 126.876  1.00  0.00     0.010 C 
ATOM     17  C   UNL     1     114.951 121.535 126.575  1.00  0.00    -0.025 C 
ATOM     18  C   UNL     1     113.895 120.651 127.388  1.00  0.00     0.005 C 
ATOM     19  C   UNL     1     112.417 121.163 127.232  1.00  0.00     0.006 C 
ATOM     20  C   UNL     1     111.415 120.169 126.673  1.00  0.00     0.012 C 
ATOM     21  C   UNL     1     111.380 118.822 127.412  1.00  0.00    -0.008 C 
ATOM     22  C   UNL     1     110.218 117.856 126.828  1.00  0.00     0.008 C 
ATOM     23  C   UNL     1     109.458 118.278 125.511  1.00  0.00     0.011 C 
ATOM     24  C   UNL     1     111.100 119.101 128.922  1.00  0.00     0.016 C 
ATOM     25  C   UNL     1     116.408 121.201 127.025  1.00  0.00     0.012 C 
ATOM     26  C   UNL     1     117.002 121.883 123.958  1.00  0.00     0.014 C 
ATOM     27  C   UNL     1     114.875 121.986 122.620  1.00  0.00     0.014 C 
ATOM     28  C   UNL     1     114.999 118.571 128.373  1.00  0.00     0.016 C 
ATOM     29  C   UNL     1     111.289 118.138 123.724  1.00  0.00     0.011 C 
ENDROOT
BRANCH   5  30
ATOM     30  C   UNL     1     109.250 115.561 127.471  1.00  0.00     0.163 C 
BRANCH  30  31
ATOM     31  O   UNL     1     109.225 115.625 128.875  1.00  0.00    -0.396 OA
ATOM     32  H   UNL     1     110.023 116.141 129.161  1.00  0.00     0.210 HD
ENDBRANCH  30  31
ENDBRANCH   5  30
BRANCH  14  33
ATOM     33  O   UNL     1     115.994 124.542 123.625  1.00  0.00    -0.393 OA
ATOM     34  H   UNL     1     115.379 125.212 123.229  1.00  0.00     0.210 HD
ENDBRANCH  14  33
TORSDOF 3
ENDMDL
MODEL 3
REMARK VINA RESULT:    -7.480      3.083      4.981
REMARK INTER + INTRA:          -8.429
REMARK INTER:                  -8.277
REMARK INTRA:                  -0.152
REMARK UNBOUND:                -0.074
REMARK SMILES CC1(C)CC[C@@]2(CO)CC=C3[C@@]4(C)CC[C@@H]5C(C)(C)[C@H](O)CC[C@@]5(C)[C@H]4CC[C@@]3(C)[C@H]2C1
REMARK SMILES IDX 1 1 2 2 4 3 5 4 6 5 9 6 10 7 11 8 12 9 14 10 15 11 16 12
REMARK SMILES IDX 17 13 20 14 22 15 23 16 24 17 26 18 27 19 28 20 29 21 31 22
REMARK SMILES IDX 32 23 30 24 25 25 18 26 19 27 13 28 3 29 7 30 8 31 21 33
REMARK H PARENT 8 32 21 34
REMARK Flexibility Score: inf
ROOT
ATOM      1  C   UNL     1     117.928 119.702 126.481  1.00  0.00     0.011 C 
ATOM      2  C   UNL     1     116.895 119.216 127.521  1.00  0.00    -0.035 C 
ATOM      3  C   UNL     1     117.307 119.758 128.902  1.00  0.00     0.007 C 
ATOM      4  C   UNL     1     116.381 119.260 130.005  1.00  0.00     0.010 C 
ATOM      5  C   UNL     1     116.313 117.700 130.127  1.00  0.00     0.001 C 
ATOM      6  C   UNL     1     115.127 117.384 131.063  1.00  0.00     0.037 C 
ATOM      7  C   UNL     1     113.824 117.640 130.372  1.00  0.00    -0.026 C 
ATOM      8  C   UNL     1     113.537 117.124 129.149  1.00  0.00    -0.062 C 
ATOM      9  C   UNL     1     112.066 117.205 128.610  1.00  0.00    -0.008 C 
ATOM     10  C   UNL     1     111.729 118.717 128.335  1.00  0.00     0.012 C 
ATOM     11  C   UNL     1     111.689 119.198 126.867  1.00  0.00     0.006 C 
ATOM     12  C   UNL     1     111.160 118.202 125.786  1.00  0.00     0.003 C 
ATOM     13  C   UNL     1     110.311 118.859 124.626  1.00  0.00    -0.006 C 
ATOM     14  C   UNL     1     110.033 117.779 123.526  1.00  0.00     0.120 C 
ATOM     15  C   UNL     1     109.405 116.491 124.082  1.00  0.00     0.033 C 
ATOM     16  C   UNL     1     110.253 115.866 125.203  1.00  0.00     0.010 C 
ATOM     17  C   UNL     1     110.602 116.864 126.373  1.00  0.00    -0.025 C 
ATOM     18  C   UNL     1     111.734 116.274 127.337  1.00  0.00     0.005 C 
ATOM     19  C   UNL     1     112.994 115.753 126.558  1.00  0.00     0.006 C 
ATOM     20  C   UNL     1     114.324 116.388 126.923  1.00  0.00     0.012 C 
ATOM     21  C   UNL     1     114.645 116.362 128.426  1.00  0.00    -0.008 C 
ATOM     22  C   UNL     1     116.121 116.960 128.727  1.00  0.00     0.008 C 
ATOM     23  C   UNL     1     116.915 117.666 127.561  1.00  0.00     0.011 C 
ATOM     24  C   UNL     1     114.588 114.879 128.911  1.00  0.00     0.016 C 
ATOM     25  C   UNL     1     109.261 117.050 127.150  1.00  0.00     0.012 C 
ATOM     26  C   UNL     1     108.979 119.504 125.120  1.00  0.00     0.014 C 
ATOM     27  C   UNL     1     111.160 119.981 123.961  1.00  0.00     0.014 C 
ATOM     28  C   UNL     1     111.165 116.696 129.790  1.00  0.00     0.016 C 
ATOM     29  C   UNL     1     115.516 119.762 127.101  1.00  0.00     0.011 C 
ENDROOT
BRANCH   5  30
ATOM     30  C   UNL     1     117.620 117.177 130.805  1.00  0.00     0.163 C 
BRANCH  30  31
ATOM     31  O   UNL     1     117.798 115.800 130.585  1.00  0.00    -0.396 OA
ATOM     32  H   UNL     1     117.898 115.368 131.473  1.00  0.00     0.210 HD
ENDBRANCH  30  31
ENDBRANCH   5  30
BRANCH  14  33
ATOM     33  O   UNL     1     109.181 118.297 122.531  1.00  0.00    -0.393 OA
ATOM     34  H   UNL     1     108.349 118.604 122.976  1.00  0.00     0.210 HD
ENDBRANCH  14  33
TORSDOF 3
ENDMDL
MODEL 4
REMARK VINA RESULT:    -7.425      2.951      6.505
REMARK INTER + INTRA:          -8.367
REMARK INTER:                  -8.293
REMARK INTRA:                  -0.074
REMARK UNBOUND:                -0.074
REMARK SMILES CC1(C)CC[C@@]2(CO)CC=C3[C@@]4(C)CC[C@@H]5C(C)(C)[C@H](O)CC[C@@]5(C)[C@H]4CC[C@@]3(C)[C@H]2C1
REMARK SMILES IDX 1 1 2 2 4 3 5 4 6 5 9 6 10 7 11 8 12 9 14 10 15 11 16 12
REMARK SMILES IDX 17 13 20 14 22 15 23 16 24 17 26 18 27 19 28 20 29 21 31 22
REMARK SMILES IDX 32 23 30 24 25 25 18 26 19 27 13 28 3 29 7 30 8 31 21 33
REMARK H PARENT 8 32 21 34
REMARK Flexibility Score: inf
ROOT
ATOM      1  C   UNL     1     115.186 123.781 123.554  1.00  0.00     0.011 C 
ATOM      2  C   UNL     1     115.132 122.778 124.728  1.00  0.00    -0.035 C 
ATOM      3  C   UNL     1     115.418 123.544 126.032  1.00  0.00     0.007 C 
ATOM      4  C   UNL     1     115.461 122.613 127.238  1.00  0.00     0.010 C 
ATOM      5  C   UNL     1     116.534 121.476 127.130  1.00  0.00     0.001 C 
ATOM      6  C   UNL     1     116.231 120.478 128.268  1.00  0.00     0.037 C 
ATOM      7  C   UNL     1     114.995 119.688 127.965  1.00  0.00    -0.026 C 
ATOM      8  C   UNL     1     114.819 119.040 126.784  1.00  0.00    -0.062 C 
ATOM      9  C   UNL     1     113.637 118.019 126.641  1.00  0.00    -0.008 C 
ATOM     10  C   UNL     1     112.286 118.824 126.694  1.00  0.00     0.012 C 
ATOM     11  C   UNL     1     111.513 119.034 125.373  1.00  0.00     0.006 C 
ATOM     12  C   UNL     1     111.549 117.886 124.315  1.00  0.00     0.003 C 
ATOM     13  C   UNL     1     110.205 117.668 123.514  1.00  0.00    -0.006 C 
ATOM     14  C   UNL     1     110.460 116.638 122.362  1.00  0.00     0.120 C 
ATOM     15  C   UNL     1     111.096 115.327 122.848  1.00  0.00     0.033 C 
ATOM     16  C   UNL     1     112.407 115.563 123.617  1.00  0.00     0.010 C 
ATOM     17  C   UNL     1     112.275 116.591 124.806  1.00  0.00    -0.025 C 
ATOM     18  C   UNL     1     113.705 117.043 125.361  1.00  0.00     0.005 C 
ATOM     19  C   UNL     1     114.682 117.517 124.225  1.00  0.00     0.006 C 
ATOM     20  C   UNL     1     115.225 118.929 124.348  1.00  0.00     0.012 C 
ATOM     21  C   UNL     1     115.878 119.240 125.703  1.00  0.00    -0.008 C 
ATOM     22  C   UNL     1     116.525 120.726 125.722  1.00  0.00     0.008 C 
ATOM     23  C   UNL     1     116.233 121.706 124.521  1.00  0.00     0.011 C 
ATOM     24  C   UNL     1     117.007 118.190 125.952  1.00  0.00     0.016 C 
ATOM     25  C   UNL     1     111.476 115.825 125.907  1.00  0.00     0.012 C 
ATOM     26  C   UNL     1     109.014 117.212 124.412  1.00  0.00     0.014 C 
ATOM     27  C   UNL     1     109.800 119.013 122.843  1.00  0.00     0.014 C 
ATOM     28  C   UNL     1     113.726 117.102 127.913  1.00  0.00     0.016 C 
ATOM     29  C   UNL     1     113.721 122.156 124.747  1.00  0.00     0.011 C 
ENDROOT
BRANCH   5  30
ATOM     30  C   UNL     1     117.953 122.080 127.378  1.00  0.00     0.163 C 
BRANCH  30  31
ATOM     31  O   UNL     1     118.554 121.527 128.523  1.00  0.00    -0.396 OA
ATOM     32  H   UNL     1     118.834 122.281 129.104  1.00  0.00     0.210 HD
ENDBRANCH  30  31
ENDBRANCH   5  30
BRANCH  14  33
ATOM     33  O   UNL     1     109.257 116.332 121.698  1.00  0.00    -0.393 OA
ATOM     34  H   UNL     1     109.218 116.883 120.874  1.00  0.00     0.210 HD
ENDBRANCH  14  33
TORSDOF 3
ENDMDL
MODEL 5
REMARK VINA RESULT:    -7.345      1.956      7.271
REMARK INTER + INTRA:          -8.278
REMARK INTER:                  -8.126
REMARK INTRA:                  -0.152
REMARK UNBOUND:                -0.074
REMARK SMILES CC1(C)CC[C@@]2(CO)CC=C3[C@@]4(C)CC[C@@H]5C(C)(C)[C@H](O)CC[C@@]5(C)[C@H]4CC[C@@]3(C)[C@H]2C1
REMARK SMILES IDX 1 1 2 2 4 3 5 4 6 5 9 6 10 7 11 8 12 9 14 10 15 11 16 12
REMARK SMILES IDX 17 13 20 14 22 15 23 16 24 17 26 18 27 19 28 20 29 21 31 22
REMARK SMILES IDX 32 23 30 24 25 25 18 26 19 27 13 28 3 29 7 30 8 31 21 33
REMARK H PARENT 8 32 21 34
REMARK Flexibility Score: inf
ROOT
ATOM      1  C   UNL     1     112.238 124.628 128.013  1.00  0.00     0.011 C 
ATOM      2  C   UNL     1     113.173 123.610 127.323  1.00  0.00    -0.035 C 
ATOM      3  C   UNL     1     114.604 124.176 127.346  1.00  0.00     0.007 C 
ATOM      4  C   UNL     1     115.584 123.266 126.614  1.00  0.00     0.010 C 
ATOM      5  C   UNL     1     115.218 123.007 125.113  1.00  0.00     0.001 C 
ATOM      6  C   UNL     1     116.123 121.853 124.633  1.00  0.00     0.037 C 
ATOM      7  C   UNL     1     115.682 120.551 125.228  1.00  0.00    -0.026 C 
ATOM      8  C   UNL     1     114.395 120.123 125.167  1.00  0.00    -0.062 C 
ATOM      9  C   UNL     1     114.060 118.643 125.565  1.00  0.00    -0.008 C 
ATOM     10  C   UNL     1     114.309 118.485 127.111  1.00  0.00     0.012 C 
ATOM     11  C   UNL     1     113.077 118.413 128.041  1.00  0.00     0.006 C 
ATOM     12  C   UNL     1     111.799 117.693 127.506  1.00  0.00     0.003 C 
ATOM     13  C   UNL     1     110.995 116.862 128.584  1.00  0.00    -0.006 C 
ATOM     14  C   UNL     1     109.647 116.379 127.952  1.00  0.00     0.120 C 
ATOM     15  C   UNL     1     109.831 115.629 126.623  1.00  0.00     0.033 C 
ATOM     16  C   UNL     1     110.609 116.460 125.587  1.00  0.00     0.010 C 
ATOM     17  C   UNL     1     111.990 117.008 126.113  1.00  0.00    -0.025 C 
ATOM     18  C   UNL     1     112.601 118.114 125.133  1.00  0.00     0.005 C 
ATOM     19  C   UNL     1     111.574 119.245 124.768  1.00  0.00     0.006 C 
ATOM     20  C   UNL     1     111.983 120.666 125.114  1.00  0.00     0.012 C 
ATOM     21  C   UNL     1     113.361 121.076 124.572  1.00  0.00    -0.008 C 
ATOM     22  C   UNL     1     113.683 122.632 124.889  1.00  0.00     0.008 C 
ATOM     23  C   UNL     1     112.723 123.434 125.850  1.00  0.00     0.011 C 
ATOM     24  C   UNL     1     113.361 120.861 123.025  1.00  0.00     0.016 C 
ATOM     25  C   UNL     1     112.919 115.754 126.173  1.00  0.00     0.012 C 
ATOM     26  C   UNL     1     111.799 115.658 129.166  1.00  0.00     0.014 C 
ATOM     27  C   UNL     1     110.633 117.803 129.770  1.00  0.00     0.014 C 
ATOM     28  C   UNL     1     115.107 117.762 124.795  1.00  0.00     0.016 C 
ATOM     29  C   UNL     1     113.087 122.288 128.112  1.00  0.00     0.011 C 
ENDROOT
BRANCH   5  30
ATOM     30  C   UNL     1     115.561 124.277 124.271  1.00  0.00     0.163 C 
BRANCH  30  31
ATOM     31  O   UNL     1     114.888 124.273 123.037  1.00  0.00    -0.396 OA
ATOM     32  H   UNL     1     114.337 125.097 122.999  1.00  0.00     0.210 HD
ENDBRANCH  30  31
ENDBRANCH   5  30
BRANCH  14  33
ATOM     33  O   UNL     1     108.956 115.539 128.846  1.00  0.00    -0.393 OA
ATOM     34  H   UNL     1     109.039 114.609 128.511  1.00  0.00     0.210 HD
ENDBRANCH  14  33
TORSDOF 3
ENDMDL
MODEL 6
REMARK VINA RESULT:    -7.303      1.758      2.112
REMARK INTER + INTRA:          -8.230
REMARK INTER:                  -8.147
REMARK INTRA:                  -0.084
REMARK UNBOUND:                -0.074
REMARK SMILES CC1(C)CC[C@@]2(CO)CC=C3[C@@]4(C)CC[C@@H]5C(C)(C)[C@H](O)CC[C@@]5(C)[C@H]4CC[C@@]3(C)[C@H]2C1
REMARK SMILES IDX 1 1 2 2 4 3 5 4 6 5 9 6 10 7 11 8 12 9 14 10 15 11 16 12
REMARK SMILES IDX 17 13 20 14 22 15 23 16 24 17 26 18 27 19 28 20 29 21 31 22
REMARK SMILES IDX 32 23 30 24 25 25 18 26 19 27 13 28 3 29 7 30 8 31 21 33
REMARK H PARENT 8 32 21 34
REMARK Flexibility Score: inf
ROOT
ATOM      1  C   UNL     1     115.026 115.855 130.580  1.00  0.00     0.011 C 
ATOM      2  C   UNL     1     113.916 116.692 129.907  1.00  0.00    -0.035 C 
ATOM      3  C   UNL     1     112.780 116.897 130.924  1.00  0.00     0.007 C 
ATOM      4  C   UNL     1     111.603 117.651 130.314  1.00  0.00     0.010 C 
ATOM      5  C   UNL     1     110.976 116.952 129.061  1.00  0.00     0.001 C 
ATOM      6  C   UNL     1     110.026 117.982 128.414  1.00  0.00     0.037 C 
ATOM      7  C   UNL     1     110.804 119.067 127.734  1.00  0.00    -0.026 C 
ATOM      8  C   UNL     1     111.797 118.802 126.847  1.00  0.00    -0.062 C 
ATOM      9  C   UNL     1     112.378 119.971 125.977  1.00  0.00    -0.008 C 
ATOM     10  C   UNL     1     113.147 120.956 126.934  1.00  0.00     0.012 C 
ATOM     11  C   UNL     1     114.692 120.931 126.913  1.00  0.00     0.006 C 
ATOM     12  C   UNL     1     115.400 120.659 125.547  1.00  0.00     0.003 C 
ATOM     13  C   UNL     1     116.738 121.467 125.312  1.00  0.00    -0.006 C 
ATOM     14  C   UNL     1     117.428 120.937 124.010  1.00  0.00     0.120 C 
ATOM     15  C   UNL     1     116.499 120.933 122.786  1.00  0.00     0.033 C 
ATOM     16  C   UNL     1     115.208 120.134 123.036  1.00  0.00     0.010 C 
ATOM     17  C   UNL     1     114.422 120.577 124.329  1.00  0.00    -0.025 C 
ATOM     18  C   UNL     1     113.282 119.526 124.720  1.00  0.00     0.005 C 
ATOM     19  C   UNL     1     113.807 118.046 124.779  1.00  0.00     0.006 C 
ATOM     20  C   UNL     1     113.629 117.319 126.099  1.00  0.00     0.012 C 
ATOM     21  C   UNL     1     112.193 117.341 126.645  1.00  0.00    -0.008 C 
ATOM     22  C   UNL     1     112.059 116.460 127.999  1.00  0.00     0.008 C 
ATOM     23  C   UNL     1     113.367 115.908 128.687  1.00  0.00     0.011 C 
ATOM     24  C   UNL     1     111.247 116.746 125.554  1.00  0.00     0.016 C 
ATOM     25  C   UNL     1     113.793 121.957 123.959  1.00  0.00     0.012 C 
ATOM     26  C   UNL     1     116.527 123.010 125.239  1.00  0.00     0.014 C 
ATOM     27  C   UNL     1     117.709 121.179 126.494  1.00  0.00     0.014 C 
ATOM     28  C   UNL     1     111.125 120.714 125.393  1.00  0.00     0.016 C 
ATOM     29  C   UNL     1     114.537 118.041 129.489  1.00  0.00     0.011 C 
ENDROOT
BRANCH   5  30
ATOM     30  C   UNL     1     110.122 115.729 129.524  1.00  0.00     0.163 C 
BRANCH  30  31
ATOM     31  O   UNL     1     108.890 115.676 128.849  1.00  0.00    -0.396 OA
ATOM     32  H   UNL     1     109.029 115.143 128.023  1.00  0.00     0.210 HD
ENDBRANCH  30  31
ENDBRANCH   5  30
BRANCH  14  33
ATOM     33  O   UNL     1     118.565 121.711 123.705  1.00  0.00    -0.393 OA
ATOM     34  H   UNL     1     119.188 121.139 123.186  1.00  0.00     0.210 HD
ENDBRANCH  14  33
TORSDOF 3
ENDMDL
MODEL 7
REMARK VINA RESULT:    -7.187      3.095      7.057
REMARK INTER + INTRA:          -8.101
REMARK INTER:                  -7.952
REMARK INTRA:                  -0.148
REMARK UNBOUND:                -0.074
REMARK SMILES CC1(C)CC[C@@]2(CO)CC=C3[C@@]4(C)CC[C@@H]5C(C)(C)[C@H](O)CC[C@@]5(C)[C@H]4CC[C@@]3(C)[C@H]2C1
REMARK SMILES IDX 1 1 2 2 4 3 5 4 6 5 9 6 10 7 11 8 12 9 14 10 15 11 16 12
REMARK SMILES IDX 17 13 20 14 22 15 23 16 24 17 26 18 27 19 28 20 29 21 31 22
REMARK SMILES IDX 32 23 30 24 25 25 18 26 19 27 13 28 3 29 7 30 8 31 21 33
REMARK H PARENT 8 32 21 34
REMARK Flexibility Score: inf
ROOT
ATOM      1  C   UNL     1     117.720 120.911 124.897  1.00  0.00     0.011 C 
ATOM      2  C   UNL     1     116.291 121.482 124.763  1.00  0.00    -0.035 C 
ATOM      3  C   UNL     1     116.376 122.827 124.020  1.00  0.00     0.007 C 
ATOM      4  C   UNL     1     115.012 123.501 123.912  1.00  0.00     0.010 C 
ATOM      5  C   UNL     1     114.327 123.782 125.292  1.00  0.00     0.001 C 
ATOM      6  C   UNL     1     112.866 124.174 124.984  1.00  0.00     0.037 C 
ATOM      7  C   UNL     1     112.077 122.978 124.550  1.00  0.00    -0.026 C 
ATOM      8  C   UNL     1     112.056 121.823 125.263  1.00  0.00    -0.062 C 
ATOM      9  C   UNL     1     111.005 120.717 124.900  1.00  0.00    -0.008 C 
ATOM     10  C   UNL     1     111.376 120.136 123.485  1.00  0.00     0.012 C 
ATOM     11  C   UNL     1     112.026 118.736 123.422  1.00  0.00     0.006 C 
ATOM     12  C   UNL     1     111.567 117.670 124.467  1.00  0.00     0.003 C 
ATOM     13  C   UNL     1     111.481 116.189 123.923  1.00  0.00    -0.006 C 
ATOM     14  C   UNL     1     111.214 115.221 125.124  1.00  0.00     0.120 C 
ATOM     15  C   UNL     1     110.000 115.625 125.975  1.00  0.00     0.033 C 
ATOM     16  C   UNL     1     110.110 117.067 126.501  1.00  0.00     0.010 C 
ATOM     17  C   UNL     1     110.384 118.138 125.377  1.00  0.00    -0.025 C 
ATOM     18  C   UNL     1     110.806 119.552 125.994  1.00  0.00     0.005 C 
ATOM     19  C   UNL     1     111.964 119.439 127.051  1.00  0.00     0.006 C 
ATOM     20  C   UNL     1     113.221 120.238 126.762  1.00  0.00     0.012 C 
ATOM     21  C   UNL     1     112.972 121.728 126.481  1.00  0.00    -0.008 C 
ATOM     22  C   UNL     1     114.364 122.535 126.286  1.00  0.00     0.008 C 
ATOM     23  C   UNL     1     115.713 121.724 126.181  1.00  0.00     0.011 C 
ATOM     24  C   UNL     1     112.200 122.331 127.697  1.00  0.00     0.016 C 
ATOM     25  C   UNL     1     109.032 118.259 124.604  1.00  0.00     0.012 C 
ATOM     26  C   UNL     1     110.407 115.999 122.808  1.00  0.00     0.014 C 
ATOM     27  C   UNL     1     112.861 115.798 123.319  1.00  0.00     0.014 C 
ATOM     28  C   UNL     1     109.633 121.472 124.789  1.00  0.00     0.016 C 
ATOM     29  C   UNL     1     115.452 120.461 123.967  1.00  0.00     0.011 C 
ENDROOT
BRANCH   5  30
ATOM     30  C   UNL     1     115.023 125.002 125.976  1.00  0.00     0.163 C 
BRANCH  30  31
ATOM     31  O   UNL     1     114.894 124.949 127.375  1.00  0.00    -0.396 OA
ATOM     32  H   UNL     1     115.782 125.166 127.762  1.00  0.00     0.210 HD
ENDBRANCH  30  31
ENDBRANCH   5  30
BRANCH  14  33
ATOM     33  O   UNL     1     111.016 113.905 124.663  1.00  0.00    -0.393 OA
ATOM     34  H   UNL     1     111.765 113.685 124.050  1.00  0.00     0.210 HD
ENDBRANCH  14  33
TORSDOF 3
ENDMDL
MODEL 8
REMARK VINA RESULT:    -7.169      2.232      7.385
REMARK INTER + INTRA:          -8.081
REMARK INTER:                  -7.990
REMARK INTRA:                  -0.091
REMARK UNBOUND:                -0.074
REMARK SMILES CC1(C)CC[C@@]2(CO)CC=C3[C@@]4(C)CC[C@@H]5C(C)(C)[C@H](O)CC[C@@]5(C)[C@H]4CC[C@@]3(C)[C@H]2C1
REMARK SMILES IDX 1 1 2 2 4 3 5 4 6 5 9 6 10 7 11 8 12 9 14 10 15 11 16 12
REMARK SMILES IDX 17 13 20 14 22 15 23 16 24 17 26 18 27 19 28 20 29 21 31 22
REMARK SMILES IDX 32 23 30 24 25 25 18 26 19 27 13 28 3 29 7 30 8 31 21 33
REMARK H PARENT 8 32 21 34
REMARK Flexibility Score: inf
ROOT
ATOM      1  C   UNL     1     111.038 124.531 124.843  1.00  0.00     0.011 C 
ATOM      2  C   UNL     1     112.281 123.858 125.466  1.00  0.00    -0.035 C 
ATOM      3  C   UNL     1     112.973 124.878 126.387  1.00  0.00     0.007 C 
ATOM      4  C   UNL     1     114.258 124.319 126.986  1.00  0.00     0.010 C 
ATOM      5  C   UNL     1     115.317 123.870 125.923  1.00  0.00     0.001 C 
ATOM      6  C   UNL     1     116.393 123.070 126.687  1.00  0.00     0.037 C 
ATOM      7  C   UNL     1     115.865 121.730 127.099  1.00  0.00    -0.026 C 
ATOM      8  C   UNL     1     115.263 120.886 126.222  1.00  0.00    -0.062 C 
ATOM      9  C   UNL     1     114.983 119.404 126.655  1.00  0.00    -0.008 C 
ATOM     10  C   UNL     1     113.887 119.424 127.784  1.00  0.00     0.012 C 
ATOM     11  C   UNL     1     112.452 118.988 127.411  1.00  0.00     0.006 C 
ATOM     12  C   UNL     1     112.286 117.846 126.358  1.00  0.00     0.003 C 
ATOM     13  C   UNL     1     111.089 116.851 126.629  1.00  0.00    -0.006 C 
ATOM     14  C   UNL     1     110.927 115.903 125.393  1.00  0.00     0.120 C 
ATOM     15  C   UNL     1     112.229 115.190 124.997  1.00  0.00     0.033 C 
ATOM     16  C   UNL     1     113.378 116.178 124.731  1.00  0.00     0.010 C 
ATOM     17  C   UNL     1     113.635 117.193 125.911  1.00  0.00    -0.025 C 
ATOM     18  C   UNL     1     114.603 118.386 125.466  1.00  0.00     0.005 C 
ATOM     19  C   UNL     1     114.150 119.077 124.130  1.00  0.00     0.006 C 
ATOM     20  C   UNL     1     113.876 120.568 124.200  1.00  0.00     0.012 C 
ATOM     21  C   UNL     1     115.023 121.394 124.803  1.00  0.00    -0.008 C 
ATOM     22  C   UNL     1     114.701 122.982 124.749  1.00  0.00     0.008 C 
ATOM     23  C   UNL     1     113.258 123.459 124.330  1.00  0.00     0.011 C 
ATOM     24  C   UNL     1     116.316 121.109 123.976  1.00  0.00     0.016 C 
ATOM     25  C   UNL     1     114.300 116.336 127.034  1.00  0.00     0.012 C 
ATOM     26  C   UNL     1     111.251 116.027 127.943  1.00  0.00     0.014 C 
ATOM     27  C   UNL     1     109.773 117.675 126.748  1.00  0.00     0.014 C 
ATOM     28  C   UNL     1     116.332 118.893 127.275  1.00  0.00     0.016 C 
ATOM     29  C   UNL     1     111.796 122.630 126.264  1.00  0.00     0.011 C 
ENDROOT
BRANCH   5  30
ATOM     30  C   UNL     1     115.998 125.132 125.306  1.00  0.00     0.163 C 
BRANCH  30  31
ATOM     31  O   UNL     1     116.394 126.042 126.302  1.00  0.00    -0.396 OA
ATOM     32  H   UNL     1     115.576 126.320 126.790  1.00  0.00     0.210 HD
ENDBRANCH  30  31
ENDBRANCH   5  30
BRANCH  14  33
ATOM     33  O   UNL     1     109.943 114.927 125.646  1.00  0.00    -0.393 OA
ATOM     34  H   UNL     1     109.120 115.196 125.162  1.00  0.00     0.210 HD
ENDBRANCH  14  33
TORSDOF 3
ENDMDL
MODEL 9
REMARK VINA RESULT:    -7.167      3.278      7.414
REMARK INTER + INTRA:          -8.079
REMARK INTER:                  -8.012
REMARK INTRA:                  -0.067
REMARK UNBOUND:                -0.074
REMARK SMILES CC1(C)CC[C@@]2(CO)CC=C3[C@@]4(C)CC[C@@H]5C(C)(C)[C@H](O)CC[C@@]5(C)[C@H]4CC[C@@]3(C)[C@H]2C1
REMARK SMILES IDX 1 1 2 2 4 3 5 4 6 5 9 6 10 7 11 8 12 9 14 10 15 11 16 12
REMARK SMILES IDX 17 13 20 14 22 15 23 16 24 17 26 18 27 19 28 20 29 21 31 22
REMARK SMILES IDX 32 23 30 24 25 25 18 26 19 27 13 28 3 29 7 30 8 31 21 33
REMARK H PARENT 8 32 21 34
REMARK Flexibility Score: inf
ROOT
ATOM      1  C   UNL     1     115.719 114.084 121.761  1.00  0.00     0.011 C 
ATOM      2  C   UNL     1     115.697 115.563 122.207  1.00  0.00    -0.035 C 
ATOM      3  C   UNL     1     116.140 116.433 121.018  1.00  0.00     0.007 C 
ATOM      4  C   UNL     1     116.222 117.908 121.396  1.00  0.00     0.010 C 
ATOM      5  C   UNL     1     117.205 118.212 122.577  1.00  0.00     0.001 C 
ATOM      6  C   UNL     1     116.933 119.668 123.010  1.00  0.00     0.037 C 
ATOM      7  C   UNL     1     115.627 119.770 123.737  1.00  0.00    -0.026 C 
ATOM      8  C   UNL     1     115.311 118.959 124.779  1.00  0.00    -0.062 C 
ATOM      9  C   UNL     1     114.056 119.297 125.659  1.00  0.00    -0.008 C 
ATOM     10  C   UNL     1     112.770 119.091 124.775  1.00  0.00     0.012 C 
ATOM     11  C   UNL     1     111.905 117.836 125.033  1.00  0.00     0.006 C 
ATOM     12  C   UNL     1     111.778 117.327 126.505  1.00  0.00     0.003 C 
ATOM     13  C   UNL     1     110.360 116.749 126.895  1.00  0.00    -0.006 C 
ATOM     14  C   UNL     1     110.451 116.096 128.316  1.00  0.00     0.120 C 
ATOM     15  C   UNL     1     111.036 117.036 129.381  1.00  0.00     0.033 C 
ATOM     16  C   UNL     1     112.420 117.579 128.983  1.00  0.00     0.010 C 
ATOM     17  C   UNL     1     112.455 118.260 127.562  1.00  0.00    -0.025 C 
ATOM     18  C   UNL     1     113.953 118.515 127.063  1.00  0.00     0.005 C 
ATOM     19  C   UNL     1     114.861 117.237 127.171  1.00  0.00     0.006 C 
ATOM     20  C   UNL     1     115.504 116.755 125.883  1.00  0.00     0.012 C 
ATOM     21  C   UNL     1     116.287 117.837 125.124  1.00  0.00    -0.008 C 
ATOM     22  C   UNL     1     117.030 117.226 123.819  1.00  0.00     0.008 C 
ATOM     23  C   UNL     1     116.704 115.749 123.372  1.00  0.00     0.011 C 
ATOM     24  C   UNL     1     117.361 118.430 126.090  1.00  0.00     0.016 C 
ATOM     25  C   UNL     1     111.702 119.614 127.751  1.00  0.00     0.012 C 
ATOM     26  C   UNL     1     109.220 117.813 126.845  1.00  0.00     0.014 C 
ATOM     27  C   UNL     1     109.990 115.616 125.894  1.00  0.00     0.014 C 
ATOM     28  C   UNL     1     114.190 120.824 126.000  1.00  0.00     0.016 C 
ATOM     29  C   UNL     1     114.255 115.900 122.636  1.00  0.00     0.011 C 
ENDROOT
BRANCH   5  30
ATOM     30  C   UNL     1     118.676 118.126 122.060  1.00  0.00     0.163 C 
BRANCH  30  31
ATOM     31  O   UNL     1     118.790 118.615 120.747  1.00  0.00    -0.396 OA
ATOM     32  H   UNL     1     118.882 117.831 120.147  1.00  0.00     0.210 HD
ENDBRANCH  30  31
ENDBRANCH   5  30
BRANCH  14  33
ATOM     33  O   UNL     1     109.178 115.673 128.746  1.00  0.00    -0.393 OA
ATOM     34  H   UNL     1     109.305 115.110 129.553  1.00  0.00     0.210 HD
ENDBRANCH  14  33
TORSDOF 3
ENDMDL
