MODEL 1
REMARK VINA RESULT:    -6.614      0.000      0.000
REMARK INTER + INTRA:         -11.047
REMARK INTER:                  -9.128
REMARK INTRA:                  -1.919
REMARK UNBOUND:                -1.919
REMARK SMILES CC[C@@H](CC[C@H](C)[C@H]1CC[C@@H]2[C@@H]3CC=C4C[C@H](O)CC[C@@]4(C)[C@@H]3CC[C@]21C)C(C)C
REMARK SMILES IDX 5 1 4 2 3 3 2 4 1 5 28 6 29 7 30 8 6 9 7 10 8 11 9 12 26 13
REMARK SMILES IDX 10 14 11 15 25 16 27 17 12 18 24 19 23 20 13 21 21 22 14 23
REMARK SMILES IDX 15 24 20 25 22 26 16 27 19 28 17 29 18 30
REMARK H PARENT 18 31
REMARK Flexibility Score: inf
ROOT
ATOM      1  C   UNL     1      10.793   3.149  53.746  1.00  0.00     0.004 C 
ENDROOT
BRANCH   1   2
ATOM      2  C   UNL     1       9.529   3.649  54.482  1.00  0.00     0.004 C 
BRANCH   2   3
ATOM      3  C   UNL     1       8.161   3.212  53.875  1.00  0.00    -0.009 C 
BRANCH   3   4
ATOM      4  C   UNL     1       7.126   4.378  53.863  1.00  0.00     0.000 C 
ATOM      5  C   UNL     1       6.235   4.421  52.618  1.00  0.00     0.004 C 
ENDBRANCH   3   4
BRANCH   3   6
ATOM      6  C   UNL     1       7.614   1.916  54.573  1.00  0.00    -0.014 C 
ATOM      7  C   UNL     1       7.972   1.877  56.072  1.00  0.00     0.007 C 
ATOM      8  C   UNL     1       8.142   0.629  53.910  1.00  0.00     0.007 C 
ENDBRANCH   3   6
ENDBRANCH   2   3
ENDBRANCH   1   2
BRANCH   1   9
ATOM      9  C   UNL     1      11.144   3.894  52.424  1.00  0.00    -0.011 C 
ATOM     10  C   UNL     1      12.620   3.634  52.037  1.00  0.00     0.008 C 
BRANCH   9  11
ATOM     11  C   UNL     1      10.734   5.409  52.545  1.00  0.00    -0.002 C 
ATOM     12  C   UNL     1      11.910   6.381  52.859  1.00  0.00     0.005 C 
ATOM     13  C   UNL     1       9.971   6.076  51.346  1.00  0.00    -0.026 C 
ATOM     14  C   UNL     1      11.949   7.441  51.746  1.00  0.00     0.005 C 
ATOM     15  C   UNL     1      11.106   6.835  50.640  1.00  0.00    -0.001 C 
ATOM     16  C   UNL     1       9.293   5.157  50.305  1.00  0.00     0.007 C 
ATOM     17  C   UNL     1       8.871   6.993  51.972  1.00  0.00     0.012 C 
ATOM     18  C   UNL     1      10.713   7.691  49.412  1.00  0.00     0.000 C 
ATOM     19  C   UNL     1       8.807   5.956  49.070  1.00  0.00     0.005 C 
ATOM     20  C   UNL     1       9.927   6.813  48.387  1.00  0.00     0.003 C 
ATOM     21  C   UNL     1      10.069   9.058  49.741  1.00  0.00     0.031 C 
ATOM     22  C   UNL     1       9.430   7.652  47.144  1.00  0.00    -0.008 C 
ATOM     23  C   UNL     1       9.030   9.538  48.765  1.00  0.00    -0.027 C 
ATOM     24  C   UNL     1       8.762   8.952  47.578  1.00  0.00    -0.065 C 
ATOM     25  C   UNL     1      10.627   8.064  46.231  1.00  0.00     0.014 C 
ATOM     26  C   UNL     1       8.441   6.791  46.303  1.00  0.00     0.016 C 
ATOM     27  C   UNL     1       8.224   9.832  46.471  1.00  0.00     0.063 C 
ATOM     28  C   UNL     1      10.230   9.024  45.081  1.00  0.00     0.033 C 
ATOM     29  C   UNL     1       9.410  10.243  45.574  1.00  0.00     0.118 C 
BRANCH  29  30
ATOM     30  O   UNL     1       8.964  11.012  44.486  1.00  0.00    -0.393 OA
ATOM     31  H   UNL     1       8.114  11.449  44.756  1.00  0.00     0.210 HD
ENDBRANCH  29  30
ENDBRANCH   9  11
ENDBRANCH   1   9
TORSDOF 7
ENDMDL
MODEL 2
REMARK VINA RESULT:    -6.594      6.095      9.577
REMARK INTER + INTRA:         -11.019
REMARK INTER:                  -9.770
REMARK INTRA:                  -1.248
REMARK UNBOUND:                -1.919
REMARK SMILES CC[C@@H](CC[C@H](C)[C@H]1CC[C@@H]2[C@@H]3CC=C4C[C@H](O)CC[C@@]4(C)[C@@H]3CC[C@]21C)C(C)C
REMARK SMILES IDX 5 1 4 2 3 3 2 4 1 5 28 6 29 7 30 8 6 9 7 10 8 11 9 12 26 13
REMARK SMILES IDX 10 14 11 15 25 16 27 17 12 18 24 19 23 20 13 21 21 22 14 23
REMARK SMILES IDX 15 24 20 25 22 26 16 27 19 28 17 29 18 30
REMARK H PARENT 18 31
REMARK Flexibility Score: inf
ROOT
ATOM      1  C   UNL     1       0.230  11.270  47.746  1.00  0.00     0.004 C 
ENDROOT
BRANCH   1   2
ATOM      2  C   UNL     1      -0.422  10.833  46.415  1.00  0.00     0.004 C 
BRANCH   2   3
ATOM      3  C   UNL     1      -0.692   9.306  46.250  1.00  0.00    -0.009 C 
BRANCH   3   4
ATOM      4  C   UNL     1      -0.501   8.832  44.777  1.00  0.00     0.000 C 
ATOM      5  C   UNL     1      -1.264   7.555  44.417  1.00  0.00     0.004 C 
ENDBRANCH   3   4
BRANCH   3   6
ATOM      6  C   UNL     1      -2.089   8.905  46.844  1.00  0.00    -0.014 C 
ATOM      7  C   UNL     1      -3.124  10.039  46.692  1.00  0.00     0.007 C 
ATOM      8  C   UNL     1      -2.001   8.521  48.334  1.00  0.00     0.007 C 
ENDBRANCH   3   6
ENDBRANCH   2   3
ENDBRANCH   1   2
BRANCH   1   9
ATOM      9  C   UNL     1       1.684  10.766  47.985  1.00  0.00    -0.011 C 
ATOM     10  C   UNL     1       1.731   9.819  49.208  1.00  0.00     0.008 C 
BRANCH   9  11
ATOM     11  C   UNL     1       2.668  11.994  48.042  1.00  0.00    -0.002 C 
ATOM     12  C   UNL     1       2.903  12.575  49.468  1.00  0.00     0.005 C 
ATOM     13  C   UNL     1       4.105  11.832  47.432  1.00  0.00    -0.026 C 
ATOM     14  C   UNL     1       4.416  12.536  49.744  1.00  0.00     0.005 C 
ATOM     15  C   UNL     1       4.950  11.583  48.692  1.00  0.00    -0.001 C 
ATOM     16  C   UNL     1       4.358  10.664  46.450  1.00  0.00     0.007 C 
ATOM     17  C   UNL     1       4.428  13.168  46.689  1.00  0.00     0.012 C 
ATOM     18  C   UNL     1       6.477  11.435  48.488  1.00  0.00     0.000 C 
ATOM     19  C   UNL     1       5.867  10.497  46.141  1.00  0.00     0.005 C 
ATOM     20  C   UNL     1       6.763  10.336  47.416  1.00  0.00     0.003 C 
ATOM     21  C   UNL     1       7.246  12.763  48.293  1.00  0.00     0.031 C 
ATOM     22  C   UNL     1       8.306  10.194  47.107  1.00  0.00    -0.008 C 
ATOM     23  C   UNL     1       8.439  12.694  47.379  1.00  0.00    -0.027 C 
ATOM     24  C   UNL     1       8.957  11.553  46.877  1.00  0.00    -0.065 C 
ATOM     25  C   UNL     1       9.061   9.550  48.312  1.00  0.00     0.014 C 
ATOM     26  C   UNL     1       8.499   9.282  45.859  1.00  0.00     0.016 C 
ATOM     27  C   UNL     1      10.434  11.541  46.550  1.00  0.00     0.063 C 
ATOM     28  C   UNL     1      10.601   9.529  48.139  1.00  0.00     0.033 C 
ATOM     29  C   UNL     1      11.180  10.911  47.743  1.00  0.00     0.118 C 
BRANCH  29  30
ATOM     30  O   UNL     1      12.555  10.813  47.473  1.00  0.00    -0.393 OA
ATOM     31  H   UNL     1      12.745   9.870  47.226  1.00  0.00     0.210 HD
ENDBRANCH  29  30
ENDBRANCH   9  11
ENDBRANCH   1   9
TORSDOF 7
ENDMDL
MODEL 3
REMARK VINA RESULT:    -6.521      1.405      3.301
REMARK INTER + INTRA:         -10.918
REMARK INTER:                  -9.932
REMARK INTRA:                  -0.986
REMARK UNBOUND:                -1.919
REMARK SMILES CC[C@@H](CC[C@H](C)[C@H]1CC[C@@H]2[C@@H]3CC=C4C[C@H](O)CC[C@@]4(C)[C@@H]3CC[C@]21C)C(C)C
REMARK SMILES IDX 5 1 4 2 3 3 2 4 1 5 28 6 29 7 30 8 6 9 7 10 8 11 9 12 26 13
REMARK SMILES IDX 10 14 11 15 25 16 27 17 12 18 24 19 23 20 13 21 21 22 14 23
REMARK SMILES IDX 15 24 20 25 22 26 16 27 19 28 17 29 18 30
REMARK H PARENT 18 31
REMARK Flexibility Score: inf
ROOT
ATOM      1  C   UNL     1       9.456   6.647  52.098  1.00  0.00     0.004 C 
ENDROOT
BRANCH   1   2
ATOM      2  C   UNL     1       8.663   5.864  53.168  1.00  0.00     0.004 C 
BRANCH   2   3
ATOM      3  C   UNL     1       8.236   4.413  52.784  1.00  0.00    -0.009 C 
BRANCH   3   4
ATOM      4  C   UNL     1       6.687   4.240  52.776  1.00  0.00     0.000 C 
ATOM      5  C   UNL     1       5.906   5.500  53.160  1.00  0.00     0.004 C 
ENDBRANCH   3   4
BRANCH   3   6
ATOM      6  C   UNL     1       8.966   3.349  53.678  1.00  0.00    -0.014 C 
ATOM      7  C   UNL     1       7.966   2.456  54.440  1.00  0.00     0.007 C 
ATOM      8  C   UNL     1       9.919   3.998  54.700  1.00  0.00     0.007 C 
ENDBRANCH   3   6
ENDBRANCH   2   3
ENDBRANCH   1   2
BRANCH   1   9
ATOM      9  C   UNL     1      10.847   6.056  51.720  1.00  0.00    -0.011 C 
ATOM     10  C   UNL     1      11.979   6.917  52.328  1.00  0.00     0.008 C 
BRANCH   9  11
ATOM     11  C   UNL     1      10.924   5.839  50.162  1.00  0.00    -0.002 C 
ATOM     12  C   UNL     1      10.019   4.694  49.618  1.00  0.00     0.005 C 
ATOM     13  C   UNL     1      10.636   7.061  49.221  1.00  0.00    -0.026 C 
ATOM     14  C   UNL     1       9.091   5.301  48.552  1.00  0.00     0.005 C 
ATOM     15  C   UNL     1       9.182   6.794  48.802  1.00  0.00    -0.001 C 
ATOM     16  C   UNL     1      10.705   8.484  49.823  1.00  0.00     0.007 C 
ATOM     17  C   UNL     1      11.672   6.979  48.053  1.00  0.00     0.012 C 
ATOM     18  C   UNL     1       8.554   7.785  47.792  1.00  0.00     0.000 C 
ATOM     19  C   UNL     1      10.156   9.546  48.837  1.00  0.00     0.005 C 
ATOM     20  C   UNL     1       8.707   9.246  48.322  1.00  0.00     0.003 C 
ATOM     21  C   UNL     1       8.968   7.571  46.316  1.00  0.00     0.031 C 
ATOM     22  C   UNL     1       8.153  10.312  47.295  1.00  0.00    -0.008 C 
ATOM     23  C   UNL     1       9.065   8.819  45.483  1.00  0.00    -0.027 C 
ATOM     24  C   UNL     1       8.663  10.044  45.883  1.00  0.00    -0.065 C 
ATOM     25  C   UNL     1       6.596  10.253  47.212  1.00  0.00     0.014 C 
ATOM     26  C   UNL     1       8.569  11.739  47.760  1.00  0.00     0.016 C 
ATOM     27  C   UNL     1       8.215  11.016  44.814  1.00  0.00     0.063 C 
ATOM     28  C   UNL     1       5.998  11.160  46.106  1.00  0.00     0.033 C 
ATOM     29  C   UNL     1       6.677  10.953  44.729  1.00  0.00     0.118 C 
BRANCH  29  30
ATOM     30  O   UNL     1       6.193  11.884  43.794  1.00  0.00    -0.393 OA
ATOM     31  H   UNL     1       6.515  12.782  44.071  1.00  0.00     0.210 HD
ENDBRANCH  29  30
ENDBRANCH   9  11
ENDBRANCH   1   9
TORSDOF 7
ENDMDL
MODEL 4
REMARK VINA RESULT:    -6.499      3.461      8.036
REMARK INTER + INTRA:         -10.887
REMARK INTER:                  -9.523
REMARK INTRA:                  -1.364
REMARK UNBOUND:                -1.919
REMARK SMILES CC[C@@H](CC[C@H](C)[C@H]1CC[C@@H]2[C@@H]3CC=C4C[C@H](O)CC[C@@]4(C)[C@@H]3CC[C@]21C)C(C)C
REMARK SMILES IDX 5 1 4 2 3 3 2 4 1 5 28 6 29 7 30 8 6 9 7 10 8 11 9 12 26 13
REMARK SMILES IDX 10 14 11 15 25 16 27 17 12 18 24 19 23 20 13 21 21 22 14 23
REMARK SMILES IDX 15 24 20 25 22 26 16 27 19 28 17 29 18 30
REMARK H PARENT 18 31
REMARK Flexibility Score: inf
ROOT
ATOM      1  C   UNL     1       7.778  12.467  46.626  1.00  0.00     0.004 C 
ENDROOT
BRANCH   1   2
ATOM      2  C   UNL     1       6.353  12.302  47.200  1.00  0.00     0.004 C 
BRANCH   2   3
ATOM      3  C   UNL     1       6.248  11.611  48.595  1.00  0.00    -0.009 C 
BRANCH   3   4
ATOM      4  C   UNL     1       7.059  10.282  48.654  1.00  0.00     0.000 C 
ATOM      5  C   UNL     1       7.757  10.024  49.992  1.00  0.00     0.004 C 
ENDBRANCH   3   4
BRANCH   3   6
ATOM      6  C   UNL     1       4.751  11.434  49.032  1.00  0.00    -0.014 C 
ATOM      7  C   UNL     1       3.832  11.134  47.830  1.00  0.00     0.007 C 
ATOM      8  C   UNL     1       4.205  12.675  49.765  1.00  0.00     0.007 C 
ENDBRANCH   3   6
ENDBRANCH   2   3
ENDBRANCH   1   2
BRANCH   1   9
ATOM      9  C   UNL     1       8.049  11.749  45.271  1.00  0.00    -0.011 C 
ATOM     10  C   UNL     1       6.912  10.749  44.956  1.00  0.00     0.008 C 
BRANCH   9  11
ATOM     11  C   UNL     1       9.502  11.142  45.274  1.00  0.00    -0.002 C 
ATOM     12  C   UNL     1      10.540  11.941  46.117  1.00  0.00     0.005 C 
ATOM     13  C   UNL     1       9.689   9.649  45.717  1.00  0.00    -0.026 C 
ATOM     14  C   UNL     1      11.138  10.977  47.156  1.00  0.00     0.005 C 
ATOM     15  C   UNL     1      10.165   9.813  47.169  1.00  0.00    -0.001 C 
ATOM     16  C   UNL     1       8.449   8.725  45.725  1.00  0.00     0.007 C 
ATOM     17  C   UNL     1      10.750   9.026  44.753  1.00  0.00     0.012 C 
ATOM     18  C   UNL     1      10.524   8.517  47.936  1.00  0.00     0.000 C 
ATOM     19  C   UNL     1       8.750   7.372  46.417  1.00  0.00     0.005 C 
ATOM     20  C   UNL     1       9.328   7.515  47.867  1.00  0.00     0.003 C 
ATOM     21  C   UNL     1      11.909   7.915  47.599  1.00  0.00     0.031 C 
ATOM     22  C   UNL     1       9.663   6.139  48.567  1.00  0.00    -0.008 C 
ATOM     23  C   UNL     1      11.994   6.414  47.655  1.00  0.00    -0.027 C 
ATOM     24  C   UNL     1      11.022   5.605  48.127  1.00  0.00    -0.065 C 
ATOM     25  C   UNL     1       9.743   6.304  50.117  1.00  0.00     0.014 C 
ATOM     26  C   UNL     1       8.544   5.107  48.238  1.00  0.00     0.016 C 
ATOM     27  C   UNL     1      11.443   4.278  48.717  1.00  0.00     0.063 C 
ATOM     28  C   UNL     1      10.227   5.029  50.853  1.00  0.00     0.033 C 
ATOM     29  C   UNL     1      11.528   4.444  50.248  1.00  0.00     0.118 C 
BRANCH  29  30
ATOM     30  O   UNL     1      11.854   3.223  50.862  1.00  0.00    -0.393 OA
ATOM     31  H   UNL     1      12.749   2.950  50.528  1.00  0.00     0.210 HD
ENDBRANCH  29  30
ENDBRANCH   9  11
ENDBRANCH   1   9
TORSDOF 7
ENDMDL
MODEL 5
REMARK VINA RESULT:    -6.343      1.613      3.700
REMARK INTER + INTRA:         -10.672
REMARK INTER:                  -9.275
REMARK INTRA:                  -1.396
REMARK UNBOUND:                -1.919
REMARK SMILES CC[C@@H](CC[C@H](C)[C@H]1CC[C@@H]2[C@@H]3CC=C4C[C@H](O)CC[C@@]4(C)[C@@H]3CC[C@]21C)C(C)C
REMARK SMILES IDX 5 1 4 2 3 3 2 4 1 5 28 6 29 7 30 8 6 9 7 10 8 11 9 12 26 13
REMARK SMILES IDX 10 14 11 15 25 16 27 17 12 18 24 19 23 20 13 21 21 22 14 23
REMARK SMILES IDX 15 24 20 25 22 26 16 27 19 28 17 29 18 30
REMARK H PARENT 18 31
REMARK Flexibility Score: inf
ROOT
ATOM      1  C   UNL     1      11.479   4.586  52.186  1.00  0.00     0.004 C 
ENDROOT
BRANCH   1   2
ATOM      2  C   UNL     1      10.892   3.296  52.802  1.00  0.00     0.004 C 
BRANCH   2   3
ATOM      3  C   UNL     1      11.221   3.040  54.305  1.00  0.00    -0.009 C 
BRANCH   3   4
ATOM      4  C   UNL     1      10.007   2.439  55.077  1.00  0.00     0.000 C 
ATOM      5  C   UNL     1       8.723   2.325  54.250  1.00  0.00     0.004 C 
ENDBRANCH   3   4
BRANCH   3   6
ATOM      6  C   UNL     1      11.805   4.326  54.989  1.00  0.00    -0.014 C 
ATOM      7  C   UNL     1      12.935   3.986  55.983  1.00  0.00     0.007 C 
ATOM      8  C   UNL     1      10.725   5.133  55.735  1.00  0.00     0.007 C 
ENDBRANCH   3   6
ENDBRANCH   2   3
ENDBRANCH   1   2
BRANCH   1   9
ATOM      9  C   UNL     1      10.458   5.519  51.469  1.00  0.00    -0.011 C 
ATOM     10  C   UNL     1       9.014   5.160  51.894  1.00  0.00     0.008 C 
BRANCH   9  11
ATOM     11  C   UNL     1      10.730   5.510  49.919  1.00  0.00    -0.002 C 
ATOM     12  C   UNL     1       9.978   4.395  49.132  1.00  0.00     0.005 C 
ATOM     13  C   UNL     1      10.465   6.825  49.104  1.00  0.00    -0.026 C 
ATOM     14  C   UNL     1       9.137   5.080  48.042  1.00  0.00     0.005 C 
ATOM     15  C   UNL     1       9.091   6.532  48.480  1.00  0.00    -0.001 C 
ATOM     16  C   UNL     1      10.362   8.159  49.878  1.00  0.00     0.007 C 
ATOM     17  C   UNL     1      11.631   6.953  48.072  1.00  0.00     0.012 C 
ATOM     18  C   UNL     1       8.515   7.608  47.528  1.00  0.00     0.000 C 
ATOM     19  C   UNL     1       9.855   9.307  48.969  1.00  0.00     0.005 C 
ATOM     20  C   UNL     1       8.500   8.994  48.246  1.00  0.00     0.003 C 
ATOM     21  C   UNL     1       9.110   7.610  46.100  1.00  0.00     0.031 C 
ATOM     22  C   UNL     1       7.994  10.151  47.296  1.00  0.00    -0.008 C 
ATOM     23  C   UNL     1       9.212   8.959  45.442  1.00  0.00    -0.027 C 
ATOM     24  C   UNL     1       8.680  10.097  45.936  1.00  0.00    -0.065 C 
ATOM     25  C   UNL     1       6.464  10.015  47.016  1.00  0.00     0.014 C 
ATOM     26  C   UNL     1       8.250  11.528  47.978  1.00  0.00     0.016 C 
ATOM     27  C   UNL     1       8.290  11.172  44.946  1.00  0.00     0.063 C 
ATOM     28  C   UNL     1       5.935  11.022  45.963  1.00  0.00     0.033 C 
ATOM     29  C   UNL     1       6.780  11.034  44.665  1.00  0.00     0.118 C 
BRANCH  29  30
ATOM     30  O   UNL     1       6.342  12.048  43.797  1.00  0.00    -0.393 OA
ATOM     31  H   UNL     1       6.986  12.094  43.042  1.00  0.00     0.210 HD
ENDBRANCH  29  30
ENDBRANCH   9  11
ENDBRANCH   1   9
TORSDOF 7
ENDMDL
MODEL 6
REMARK VINA RESULT:    -6.195      5.376      9.114
REMARK INTER + INTRA:         -10.468
REMARK INTER:                  -9.353
REMARK INTRA:                  -1.115
REMARK UNBOUND:                -1.919
REMARK SMILES CC[C@@H](CC[C@H](C)[C@H]1CC[C@@H]2[C@@H]3CC=C4C[C@H](O)CC[C@@]4(C)[C@@H]3CC[C@]21C)C(C)C
REMARK SMILES IDX 5 1 4 2 3 3 2 4 1 5 28 6 29 7 30 8 6 9 7 10 8 11 9 12 26 13
REMARK SMILES IDX 10 14 11 15 25 16 27 17 12 18 24 19 23 20 13 21 21 22 14 23
REMARK SMILES IDX 15 24 20 25 22 26 16 27 19 28 17 29 18 30
REMARK H PARENT 18 31
REMARK Flexibility Score: inf
ROOT
ATOM      1  C   UNL     1       2.142  11.591  46.745  1.00  0.00     0.004 C 
ENDROOT
BRANCH   1   2
ATOM      2  C   UNL     1       0.609  11.491  46.919  1.00  0.00     0.004 C 
BRANCH   2   3
ATOM      3  C   UNL     1      -0.151  10.641  45.856  1.00  0.00    -0.009 C 
BRANCH   3   4
ATOM      4  C   UNL     1      -1.560  11.225  45.536  1.00  0.00     0.000 C 
ATOM      5  C   UNL     1      -1.739  11.695  44.090  1.00  0.00     0.004 C 
ENDBRANCH   3   4
BRANCH   3   6
ATOM      6  C   UNL     1      -0.195   9.125  46.262  1.00  0.00    -0.014 C 
ATOM      7  C   UNL     1      -0.871   8.259  45.179  1.00  0.00     0.007 C 
ATOM      8  C   UNL     1      -0.930   8.899  47.597  1.00  0.00     0.007 C 
ENDBRANCH   3   6
ENDBRANCH   2   3
ENDBRANCH   1   2
BRANCH   1   9
ATOM      9  C   UNL     1       2.994  10.844  47.814  1.00  0.00    -0.011 C 
ATOM     10  C   UNL     1       2.119  10.475  49.035  1.00  0.00     0.008 C 
BRANCH   9  11
ATOM     11  C   UNL     1       4.289  11.679  48.136  1.00  0.00    -0.002 C 
ATOM     12  C   UNL     1       4.639  11.780  49.651  1.00  0.00     0.005 C 
ATOM     13  C   UNL     1       5.635  11.273  47.439  1.00  0.00    -0.026 C 
ATOM     14  C   UNL     1       6.066  11.238  49.836  1.00  0.00     0.005 C 
ATOM     15  C   UNL     1       6.333  10.476  48.553  1.00  0.00    -0.001 C 
ATOM     16  C   UNL     1       5.569  10.377  46.181  1.00  0.00     0.007 C 
ATOM     17  C   UNL     1       6.354  12.605  47.048  1.00  0.00     0.012 C 
ATOM     18  C   UNL     1       7.758   9.953  48.247  1.00  0.00     0.000 C 
ATOM     19  C   UNL     1       6.973   9.869  45.769  1.00  0.00     0.005 C 
ATOM     20  C   UNL     1       7.745   9.134  46.918  1.00  0.00     0.003 C 
ATOM     21  C   UNL     1       8.884  11.008  48.361  1.00  0.00     0.031 C 
ATOM     22  C   UNL     1       9.189   8.638  46.511  1.00  0.00    -0.008 C 
ATOM     23  C   UNL     1      10.033  10.836  47.405  1.00  0.00    -0.027 C 
ATOM     24  C   UNL     1      10.213   9.764  46.605  1.00  0.00    -0.065 C 
ATOM     25  C   UNL     1       9.689   7.516  47.475  1.00  0.00     0.014 C 
ATOM     26  C   UNL     1       9.148   8.063  45.064  1.00  0.00     0.016 C 
ATOM     27  C   UNL     1      11.632   9.413  46.217  1.00  0.00     0.063 C 
ATOM     28  C   UNL     1      11.161   7.099  47.231  1.00  0.00     0.033 C 
ATOM     29  C   UNL     1      12.127   8.309  47.174  1.00  0.00     0.118 C 
BRANCH  29  30
ATOM     30  O   UNL     1      13.422   7.893  46.824  1.00  0.00    -0.393 OA
ATOM     31  H   UNL     1      13.332   7.130  46.194  1.00  0.00     0.210 HD
ENDBRANCH  29  30
ENDBRANCH   9  11
ENDBRANCH   1   9
TORSDOF 7
ENDMDL
MODEL 7
REMARK VINA RESULT:    -6.142      1.185      1.884
REMARK INTER + INTRA:         -10.395
REMARK INTER:                  -8.722
REMARK INTRA:                  -1.673
REMARK UNBOUND:                -1.919
REMARK SMILES CC[C@@H](CC[C@H](C)[C@H]1CC[C@@H]2[C@@H]3CC=C4C[C@H](O)CC[C@@]4(C)[C@@H]3CC[C@]21C)C(C)C
REMARK SMILES IDX 5 1 4 2 3 3 2 4 1 5 28 6 29 7 30 8 6 9 7 10 8 11 9 12 26 13
REMARK SMILES IDX 10 14 11 15 25 16 27 17 12 18 24 19 23 20 13 21 21 22 14 23
REMARK SMILES IDX 15 24 20 25 22 26 16 27 19 28 17 29 18 30
REMARK H PARENT 18 31
REMARK Flexibility Score: inf
ROOT
ATOM      1  C   UNL     1      10.983   4.493  54.031  1.00  0.00     0.004 C 
ENDROOT
BRANCH   1   2
ATOM      2  C   UNL     1       9.479   4.673  54.335  1.00  0.00     0.004 C 
BRANCH   2   3
ATOM      3  C   UNL     1       8.611   3.378  54.305  1.00  0.00    -0.009 C 
BRANCH   3   4
ATOM      4  C   UNL     1       9.463   2.107  54.003  1.00  0.00     0.000 C 
ATOM      5  C   UNL     1       9.366   1.012  55.068  1.00  0.00     0.004 C 
ENDBRANCH   3   4
BRANCH   3   6
ATOM      6  C   UNL     1       7.384   3.535  53.337  1.00  0.00    -0.014 C 
ATOM      7  C   UNL     1       6.722   4.922  53.470  1.00  0.00     0.007 C 
ATOM      8  C   UNL     1       6.310   2.457  53.575  1.00  0.00     0.007 C 
ENDBRANCH   3   6
ENDBRANCH   2   3
ENDBRANCH   1   2
BRANCH   1   9
ATOM      9  C   UNL     1      11.599   5.521  53.035  1.00  0.00    -0.011 C 
ATOM     10  C   UNL     1      13.105   5.716  53.329  1.00  0.00     0.008 C 
BRANCH   9  11
ATOM     11  C   UNL     1      10.734   6.836  53.029  1.00  0.00    -0.002 C 
ATOM     12  C   UNL     1      11.534   8.143  53.312  1.00  0.00     0.005 C 
ATOM     13  C   UNL     1       9.872   7.160  51.759  1.00  0.00    -0.026 C 
ATOM     14  C   UNL     1      11.306   9.095  52.126  1.00  0.00     0.005 C 
ATOM     15  C   UNL     1      10.755   8.192  51.039  1.00  0.00    -0.001 C 
ATOM     16  C   UNL     1       9.571   6.015  50.765  1.00  0.00     0.007 C 
ATOM     17  C   UNL     1       8.509   7.723  52.276  1.00  0.00     0.012 C 
ATOM     18  C   UNL     1      10.188   8.808  49.737  1.00  0.00     0.000 C 
ATOM     19  C   UNL     1       8.932   6.548  49.458  1.00  0.00     0.005 C 
ATOM     20  C   UNL     1       9.769   7.670  48.753  1.00  0.00     0.003 C 
ATOM     21  C   UNL     1       9.135   9.923  49.942  1.00  0.00     0.031 C 
ATOM     22  C   UNL     1       9.108   8.237  47.435  1.00  0.00    -0.008 C 
ATOM     23  C   UNL     1       8.056   9.996  48.897  1.00  0.00    -0.027 C 
ATOM     24  C   UNL     1       8.049   9.287  47.748  1.00  0.00    -0.065 C 
ATOM     25  C   UNL     1      10.170   8.946  46.537  1.00  0.00     0.014 C 
ATOM     26  C   UNL     1       8.484   7.062  46.625  1.00  0.00     0.016 C 
ATOM     27  C   UNL     1       7.329   9.888  46.561  1.00  0.00     0.063 C 
ATOM     28  C   UNL     1       9.561   9.665  45.306  1.00  0.00     0.033 C 
ATOM     29  C   UNL     1       8.378  10.594  45.678  1.00  0.00     0.118 C 
BRANCH  29  30
ATOM     30  O   UNL     1       7.779  11.120  44.521  1.00  0.00    -0.393 OA
ATOM     31  H   UNL     1       7.798  10.411  43.825  1.00  0.00     0.210 HD
ENDBRANCH  29  30
ENDBRANCH   9  11
ENDBRANCH   1   9
TORSDOF 7
ENDMDL
MODEL 8
REMARK VINA RESULT:    -6.115      2.149      4.214
REMARK INTER + INTRA:         -10.357
REMARK INTER:                  -8.206
REMARK INTRA:                  -2.151
REMARK UNBOUND:                -1.919
REMARK SMILES CC[C@@H](CC[C@H](C)[C@H]1CC[C@@H]2[C@@H]3CC=C4C[C@H](O)CC[C@@]4(C)[C@@H]3CC[C@]21C)C(C)C
REMARK SMILES IDX 5 1 4 2 3 3 2 4 1 5 28 6 29 7 30 8 6 9 7 10 8 11 9 12 26 13
REMARK SMILES IDX 10 14 11 15 25 16 27 17 12 18 24 19 23 20 13 21 21 22 14 23
REMARK SMILES IDX 15 24 20 25 22 26 16 27 19 28 17 29 18 30
REMARK H PARENT 18 31
REMARK Flexibility Score: inf
ROOT
ATOM      1  C   UNL     1      11.307   5.335  51.929  1.00  0.00     0.004 C 
ENDROOT
BRANCH   1   2
ATOM      2  C   UNL     1      10.873   6.549  52.780  1.00  0.00     0.004 C 
BRANCH   2   3
ATOM      3  C   UNL     1       9.341   6.841  52.834  1.00  0.00    -0.009 C 
BRANCH   3   4
ATOM      4  C   UNL     1       8.499   5.658  52.267  1.00  0.00     0.000 C 
ATOM      5  C   UNL     1       7.295   5.267  53.129  1.00  0.00     0.004 C 
ENDBRANCH   3   4
BRANCH   3   6
ATOM      6  C   UNL     1       8.998   8.215  52.158  1.00  0.00    -0.014 C 
ATOM      7  C   UNL     1      10.150   9.230  52.302  1.00  0.00     0.007 C 
ATOM      8  C   UNL     1       7.716   8.846  52.735  1.00  0.00     0.007 C 
ENDBRANCH   3   6
ENDBRANCH   2   3
ENDBRANCH   1   2
BRANCH   1   9
ATOM      9  C   UNL     1      12.424   5.609  50.879  1.00  0.00    -0.011 C 
ATOM     10  C   UNL     1      13.100   6.973  51.159  1.00  0.00     0.008 C 
BRANCH   9  11
ATOM     11  C   UNL     1      11.844   5.428  49.427  1.00  0.00    -0.002 C 
ATOM     12  C   UNL     1      10.739   4.337  49.299  1.00  0.00     0.005 C 
ATOM     13  C   UNL     1      11.256   6.684  48.693  1.00  0.00    -0.026 C 
ATOM     14  C   UNL     1       9.486   5.010  48.713  1.00  0.00     0.005 C 
ATOM     15  C   UNL     1       9.746   6.491  48.910  1.00  0.00    -0.001 C 
ATOM     16  C   UNL     1      11.637   8.087  49.219  1.00  0.00     0.007 C 
ATOM     17  C   UNL     1      11.714   6.585  47.202  1.00  0.00     0.012 C 
ATOM     18  C   UNL     1       8.809   7.534  48.252  1.00  0.00     0.000 C 
ATOM     19  C   UNL     1      10.785   9.197  48.552  1.00  0.00     0.005 C 
ATOM     20  C   UNL     1       9.240   8.973  48.678  1.00  0.00     0.003 C 
ATOM     21  C   UNL     1       8.569   7.338  46.736  1.00  0.00     0.031 C 
ATOM     22  C   UNL     1       8.367  10.087  47.975  1.00  0.00    -0.008 C 
ATOM     23  C   UNL     1       8.377   8.601  45.942  1.00  0.00    -0.027 C 
ATOM     24  C   UNL     1       8.237   9.832  46.477  1.00  0.00    -0.065 C 
ATOM     25  C   UNL     1       6.912  10.099  48.541  1.00  0.00     0.014 C 
ATOM     26  C   UNL     1       9.009  11.483  48.233  1.00  0.00     0.016 C 
ATOM     27  C   UNL     1       7.439  10.849  45.692  1.00  0.00     0.063 C 
ATOM     28  C   UNL     1       5.960  11.058  47.783  1.00  0.00     0.033 C 
ATOM     29  C   UNL     1       6.000  10.856  46.247  1.00  0.00     0.118 C 
BRANCH  29  30
ATOM     30  O   UNL     1       5.222  11.829  45.599  1.00  0.00    -0.393 OA
ATOM     31  H   UNL     1       5.655  12.025  44.726  1.00  0.00     0.210 HD
ENDBRANCH  29  30
ENDBRANCH   9  11
ENDBRANCH   1   9
TORSDOF 7
ENDMDL
MODEL 9
REMARK VINA RESULT:    -6.098      3.409      8.322
REMARK INTER + INTRA:         -10.334
REMARK INTER:                  -8.516
REMARK INTRA:                  -1.818
REMARK UNBOUND:                -1.919
REMARK SMILES CC[C@@H](CC[C@H](C)[C@H]1CC[C@@H]2[C@@H]3CC=C4C[C@H](O)CC[C@@]4(C)[C@@H]3CC[C@]21C)C(C)C
REMARK SMILES IDX 5 1 4 2 3 3 2 4 1 5 28 6 29 7 30 8 6 9 7 10 8 11 9 12 26 13
REMARK SMILES IDX 10 14 11 15 25 16 27 17 12 18 24 19 23 20 13 21 21 22 14 23
REMARK SMILES IDX 15 24 20 25 22 26 16 27 19 28 17 29 18 30
REMARK H PARENT 18 31
REMARK Flexibility Score: inf
ROOT
ATOM      1  C   UNL     1       7.843  11.881  45.102  1.00  0.00     0.004 C 
ENDROOT
BRANCH   1   2
ATOM      2  C   UNL     1       6.475  12.249  45.719  1.00  0.00     0.004 C 
BRANCH   2   3
ATOM      3  C   UNL     1       5.939  11.291  46.828  1.00  0.00    -0.009 C 
BRANCH   3   4
ATOM      4  C   UNL     1       4.692  10.485  46.354  1.00  0.00     0.000 C 
ATOM      5  C   UNL     1       3.353  11.040  46.848  1.00  0.00     0.004 C 
ENDBRANCH   3   4
BRANCH   3   6
ATOM      6  C   UNL     1       5.696  12.059  48.175  1.00  0.00    -0.014 C 
ATOM      7  C   UNL     1       6.634  13.274  48.322  1.00  0.00     0.007 C 
ATOM      8  C   UNL     1       5.878  11.150  49.406  1.00  0.00     0.007 C 
ENDBRANCH   3   6
ENDBRANCH   2   3
ENDBRANCH   1   2
BRANCH   1   9
ATOM      9  C   UNL     1       8.881  11.258  46.083  1.00  0.00    -0.011 C 
ATOM     10  C   UNL     1      10.133  12.161  46.184  1.00  0.00     0.008 C 
BRANCH   9  11
ATOM     11  C   UNL     1       9.158   9.761  45.681  1.00  0.00    -0.002 C 
ATOM     12  C   UNL     1      10.455   9.539  44.848  1.00  0.00     0.005 C 
ATOM     13  C   UNL     1       9.219   8.679  46.816  1.00  0.00    -0.026 C 
ATOM     14  C   UNL     1      11.327   8.523  45.605  1.00  0.00     0.005 C 
ATOM     15  C   UNL     1      10.735   8.510  47.002  1.00  0.00    -0.001 C 
ATOM     16  C   UNL     1       8.606   9.025  48.193  1.00  0.00     0.007 C 
ATOM     17  C   UNL     1       8.488   7.412  46.265  1.00  0.00     0.012 C 
ATOM     18  C   UNL     1      11.197   7.445  48.026  1.00  0.00     0.000 C 
ATOM     19  C   UNL     1       8.968   7.962  49.261  1.00  0.00     0.005 C 
ATOM     20  C   UNL     1      10.507   7.703  49.403  1.00  0.00     0.003 C 
ATOM     21  C   UNL     1      11.144   5.983  47.524  1.00  0.00     0.031 C 
ATOM     22  C   UNL     1      10.879   6.599  50.471  1.00  0.00    -0.008 C 
ATOM     23  C   UNL     1      10.818   4.950  48.568  1.00  0.00    -0.027 C 
ATOM     24  C   UNL     1      10.742   5.195  49.894  1.00  0.00    -0.065 C 
ATOM     25  C   UNL     1      12.367   6.738  50.923  1.00  0.00     0.014 C 
ATOM     26  C   UNL     1       9.965   6.763  51.721  1.00  0.00     0.016 C 
ATOM     27  C   UNL     1      11.052   4.051  50.834  1.00  0.00     0.063 C 
ATOM     28  C   UNL     1      12.844   5.590  51.848  1.00  0.00     0.033 C 
ATOM     29  C   UNL     1      12.524   4.186  51.276  1.00  0.00     0.118 C 
BRANCH  29  30
ATOM     30  O   UNL     1      12.856   3.185  52.204  1.00  0.00    -0.393 OA
ATOM     31  H   UNL     1      12.172   2.468  52.129  1.00  0.00     0.210 HD
ENDBRANCH  29  30
ENDBRANCH   9  11
ENDBRANCH   1   9
TORSDOF 7
ENDMDL
