MODEL 1
REMARK VINA RESULT:    -3.861      0.000      0.000
REMARK INTER + INTRA:          -6.421
REMARK INTER:                  -5.893
REMARK INTRA:                  -0.529
REMARK UNBOUND:                -0.529
REMARK SMILES CC1=CCC[C@H](C)C(=O)C[C@H](C(C)C)C(=O)C1
REMARK SMILES IDX 8 1 9 2 6 3 7 4 5 5 4 6 3 7 2 8 1 9 10 11 11 12 15 13 16 14
REMARK SMILES IDX 17 15 12 17 13 18 14 19
REMARK H PARENT
REMARK Flexibility Score: 70.00
ROOT
ATOM      1  C   UNL     1      12.025   3.416  56.144  1.00  0.00     0.136 C 
ATOM      2  O   UNL     1      11.251   3.695  55.240  1.00  0.00    -0.299 OA
ENDROOT
BRANCH   1   3
ATOM      3  C   UNL     1      13.122   4.403  56.497  1.00  0.00     0.053 C 
ATOM      4  C   UNL     1      14.079   4.600  55.314  1.00  0.00     0.016 C 
BRANCH   3   5
ATOM      5  C   UNL     1      12.544   5.750  56.971  1.00  0.00     0.015 C 
BRANCH   5   6
ATOM      6  C   UNL     1      12.398   5.807  58.502  1.00  0.00     0.028 C 
BRANCH   6   7
ATOM      7  C   UNL     1      10.970   5.561  58.912  1.00  0.00    -0.028 C 
ATOM      8  C   UNL     1      10.555   4.508  59.655  1.00  0.00    -0.070 CG0
ATOM      9  C   UNL     1       9.078   4.371  59.927  1.00  0.00     0.039 C 
ATOM     10  G   UNL     1      11.511   3.476  60.233  1.00  0.00     0.000 G0
ENDBRANCH   6   7
ENDBRANCH   5   6
ENDBRANCH   3   5
ENDBRANCH   1   3
BRANCH   1  11
ATOM     11  C   UNL     1      11.831   2.114  56.889  1.00  0.00     0.087 C 
BRANCH  11  12
ATOM     12  C   UNL     1      12.576   2.099  58.253  1.00  0.00     0.066 C 
BRANCH  12  13
ATOM     13  C   UNL     1      11.598   2.197  59.416  1.00  0.00     0.140 C 
ATOM     14  O   UNL     1      10.923   1.225  59.727  1.00  0.00    -0.299 OA
BRANCH  13  15
ATOM     15  C   UNL     1      11.501   3.451  60.250  1.00  0.00     0.106 CG0
ATOM     16  G   UNL     1      10.564   4.480  59.635  1.00  0.00     0.000 G0
ENDBRANCH  13  15
ENDBRANCH  12  13
BRANCH  12  17
ATOM     17  C   UNL     1      13.520   0.867  58.434  1.00  0.00    -0.006 C 
ATOM     18  C   UNL     1      14.295   0.478  57.163  1.00  0.00     0.008 C 
ATOM     19  C   UNL     1      14.499   1.075  59.603  1.00  0.00     0.008 C 
ENDBRANCH  12  17
ENDBRANCH  11  12
ENDBRANCH   1  11
TORSDOF 1
ENDMDL
MODEL 2
REMARK VINA RESULT:    -3.665     15.883     18.506
REMARK INTER + INTRA:          -6.123
REMARK INTER:                  -6.049
REMARK INTRA:                  -0.074
REMARK UNBOUND:                -0.529
REMARK SMILES CC1=CCC[C@H](C)C(=O)C[C@H](C(C)C)C(=O)C1
REMARK SMILES IDX 8 1 9 2 6 3 7 4 5 5 4 6 3 7 2 8 1 9 10 11 11 12 15 13 16 14
REMARK SMILES IDX 17 15 12 17 13 18 14 19
REMARK H PARENT
REMARK Flexibility Score: 70.00
ROOT
ATOM      1  C   UNL     1      20.467 -12.301  67.504  1.00  0.00     0.136 C 
ATOM      2  O   UNL     1      20.903 -13.437  67.385  1.00  0.00    -0.299 OA
ENDROOT
BRANCH   1   3
ATOM      3  C   UNL     1      19.251 -12.075  68.385  1.00  0.00     0.053 C 
ATOM      4  C   UNL     1      19.372 -10.754  69.153  1.00  0.00     0.016 C 
BRANCH   3   5
ATOM      5  C   UNL     1      17.944 -12.124  67.571  1.00  0.00     0.015 C 
BRANCH   5   6
ATOM      6  C   UNL     1      17.468 -10.719  67.161  1.00  0.00     0.028 C 
BRANCH   6   7
ATOM      7  C   UNL     1      17.181 -10.662  65.683  1.00  0.00    -0.028 C 
ATOM      8  C   UNL     1      18.023 -10.145  64.758  1.00  0.00    -0.070 CG0
ATOM      9  C   UNL     1      17.559 -10.105  63.323  1.00  0.00     0.039 C 
ATOM     10  G   UNL     1      19.409  -9.621  65.100  1.00  0.00     0.000 G0
ENDBRANCH   6   7
ENDBRANCH   5   6
ENDBRANCH   3   5
ENDBRANCH   1   3
BRANCH   1  11
ATOM     11  C   UNL     1      21.178 -11.172  66.792  1.00  0.00     0.087 C 
BRANCH  11  12
ATOM     12  C   UNL     1      21.318 -11.434  65.267  1.00  0.00     0.066 C 
BRANCH  12  13
ATOM     13  C   UNL     1      20.520 -10.421  64.458  1.00  0.00     0.140 C 
ATOM     14  O   UNL     1      20.727 -10.301  63.258  1.00  0.00    -0.299 OA
BRANCH  13  15
ATOM     15  C   UNL     1      19.415  -9.612  65.093  1.00  0.00     0.106 CG0
ATOM     16  G   UNL     1      18.036 -10.161  64.759  1.00  0.00     0.000 G0
ENDBRANCH  13  15
ENDBRANCH  12  13
BRANCH  12  17
ATOM     17  C   UNL     1      22.801 -11.481  64.776  1.00  0.00    -0.006 C 
ATOM     18  C   UNL     1      23.739 -10.514  65.521  1.00  0.00     0.008 C 
ATOM     19  C   UNL     1      23.370 -12.909  64.832  1.00  0.00     0.008 C 
ENDBRANCH  12  17
ENDBRANCH  11  12
ENDBRANCH   1  11
TORSDOF 1
ENDMDL
MODEL 3
REMARK VINA RESULT:    -3.607     16.582     18.674
REMARK INTER + INTRA:          -6.033
REMARK INTER:                  -6.352
REMARK INTRA:                   0.319
REMARK UNBOUND:                -0.529
REMARK SMILES CC1=CCC[C@H](C)C(=O)C[C@H](C(C)C)C(=O)C1
REMARK SMILES IDX 8 1 9 2 6 3 7 4 5 5 4 6 3 7 2 8 1 9 10 11 11 12 15 13 16 14
REMARK SMILES IDX 17 15 12 17 13 18 14 19
REMARK H PARENT
REMARK Flexibility Score: 70.00
ROOT
ATOM      1  C   UNL     1      19.424  -9.783  65.198  1.00  0.00     0.136 C 
ATOM      2  O   UNL     1      19.888  -9.036  66.047  1.00  0.00    -0.299 OA
ENDROOT
BRANCH   1   3
ATOM      3  C   UNL     1      17.934  -9.734  64.919  1.00  0.00     0.053 C 
ATOM      4  C   UNL     1      17.561 -10.687  63.776  1.00  0.00     0.016 C 
BRANCH   3   5
ATOM      5  C   UNL     1      17.109 -10.038  66.184  1.00  0.00     0.015 C 
BRANCH   5   6
ATOM      6  C   UNL     1      17.190 -11.522  66.581  1.00  0.00     0.028 C 
BRANCH   6   7
ATOM      7  C   UNL     1      18.138 -11.716  67.736  1.00  0.00    -0.028 C 
ATOM      8  C   UNL     1      19.337 -12.338  67.648  1.00  0.00    -0.070 CG0
ATOM      9  C   UNL     1      20.141 -12.506  68.913  1.00  0.00     0.039 C 
ATOM     10  G   UNL     1      19.907 -12.855  66.336  1.00  0.00     0.000 G0
ENDBRANCH   6   7
ENDBRANCH   5   6
ENDBRANCH   3   5
ENDBRANCH   1   3
BRANCH   1  11
ATOM     11  C   UNL     1      20.365 -10.698  64.445  1.00  0.00     0.087 C 
BRANCH  11  12
ATOM     12  C   UNL     1      21.594 -11.112  65.302  1.00  0.00     0.066 C 
BRANCH  12  13
ATOM     13  C   UNL     1      21.320 -12.396  66.073  1.00  0.00     0.140 C 
ATOM     14  O   UNL     1      22.251 -13.025  66.557  1.00  0.00    -0.299 OA
BRANCH  13  15
ATOM     15  C   UNL     1      19.909 -12.870  66.324  1.00  0.00     0.106 CG0
ATOM     16  G   UNL     1      19.345 -12.330  67.629  1.00  0.00     0.000 G0
ENDBRANCH  13  15
ENDBRANCH  12  13
BRANCH  12  17
ATOM     17  C   UNL     1      22.914 -11.240  64.477  1.00  0.00    -0.006 C 
ATOM     18  C   UNL     1      22.840 -10.614  63.072  1.00  0.00     0.008 C 
ATOM     19  C   UNL     1      24.117 -10.665  65.244  1.00  0.00     0.008 C 
ENDBRANCH  12  17
ENDBRANCH  11  12
ENDBRANCH   1  11
TORSDOF 1
ENDMDL
MODEL 4
REMARK VINA RESULT:    -3.574     12.065     14.294
REMARK INTER + INTRA:          -5.984
REMARK INTER:                  -5.748
REMARK INTRA:                  -0.236
REMARK UNBOUND:                -0.529
REMARK SMILES CC1=CCC[C@H](C)C(=O)C[C@H](C(C)C)C(=O)C1
REMARK SMILES IDX 8 1 9 2 6 3 7 4 5 5 4 6 3 7 2 8 1 9 10 11 11 12 15 13 16 14
REMARK SMILES IDX 17 15 12 17 13 18 14 19
REMARK H PARENT
REMARK Flexibility Score: 70.00
ROOT
ATOM      1  C   UNL     1      12.907 -10.930  62.713  1.00  0.00     0.136 C 
ATOM      2  O   UNL     1      11.962 -11.523  63.212  1.00  0.00    -0.299 OA
ENDROOT
BRANCH   1   3
ATOM      3  C   UNL     1      12.792 -10.448  61.279  1.00  0.00     0.053 C 
ATOM      4  C   UNL     1      12.426 -11.606  60.342  1.00  0.00     0.016 C 
BRANCH   3   5
ATOM      5  C   UNL     1      11.783  -9.291  61.148  1.00  0.00     0.015 C 
BRANCH   5   6
ATOM      6  C   UNL     1      12.412  -7.935  61.516  1.00  0.00     0.028 C 
BRANCH   6   7
ATOM      7  C   UNL     1      13.645  -7.676  60.691  1.00  0.00    -0.028 C 
ATOM      8  C   UNL     1      14.909  -7.684  61.176  1.00  0.00    -0.070 CG0
ATOM      9  C   UNL     1      16.033  -7.342  60.231  1.00  0.00     0.039 C 
ATOM     10  G   UNL     1      15.239  -8.034  62.619  1.00  0.00     0.000 G0
ENDBRANCH   6   7
ENDBRANCH   5   6
ENDBRANCH   3   5
ENDBRANCH   1   3
BRANCH   1  11
ATOM     11  C   UNL     1      14.135 -10.679  63.561  1.00  0.00     0.087 C 
BRANCH  11  12
ATOM     12  C   UNL     1      15.440 -10.676  62.717  1.00  0.00     0.066 C 
BRANCH  12  13
ATOM     13  C   UNL     1      16.090  -9.298  62.713  1.00  0.00     0.140 C 
ATOM     14  O   UNL     1      17.309  -9.200  62.721  1.00  0.00    -0.299 OA
BRANCH  13  15
ATOM     15  C   UNL     1      15.256  -8.044  62.615  1.00  0.00     0.106 CG0
ATOM     16  G   UNL     1      14.905  -7.697  61.176  1.00  0.00     0.000 G0
ENDBRANCH  13  15
ENDBRANCH  12  13
BRANCH  12  17
ATOM     17  C   UNL     1      16.471 -11.764  63.160  1.00  0.00    -0.006 C 
ATOM     18  C   UNL     1      16.216 -12.335  64.566  1.00  0.00     0.008 C 
ATOM     19  C   UNL     1      16.554 -12.911  62.137  1.00  0.00     0.008 C 
ENDBRANCH  12  17
ENDBRANCH  11  12
ENDBRANCH   1  11
TORSDOF 1
ENDMDL
MODEL 5
REMARK VINA RESULT:    -3.553     14.233     17.055
REMARK INTER + INTRA:          -5.952
REMARK INTER:                  -6.339
REMARK INTRA:                   0.387
REMARK UNBOUND:                -0.529
REMARK SMILES CC1=CCC[C@H](C)C(=O)C[C@H](C(C)C)C(=O)C1
REMARK SMILES IDX 8 1 9 2 6 3 7 4 5 5 4 6 3 7 2 8 1 9 10 11 11 12 15 13 16 14
REMARK SMILES IDX 17 15 12 17 13 18 14 19
REMARK H PARENT
REMARK Flexibility Score: 70.00
ROOT
ATOM      1  C   UNL     1      19.417  -9.986  64.084  1.00  0.00     0.136 C 
ATOM      2  O   UNL     1      19.997 -10.265  63.045  1.00  0.00    -0.299 OA
ENDROOT
BRANCH   1   3
ATOM      3  C   UNL     1      20.122 -10.238  65.404  1.00  0.00     0.053 C 
ATOM      4  C   UNL     1      21.613 -10.516  65.181  1.00  0.00     0.016 C 
BRANCH   3   5
ATOM      5  C   UNL     1      19.917  -9.072  66.389  1.00  0.00     0.015 C 
BRANCH   5   6
ATOM      6  C   UNL     1      18.768  -9.346  67.376  1.00  0.00     0.028 C 
BRANCH   6   7
ATOM      7  C   UNL     1      18.655 -10.820  67.668  1.00  0.00    -0.028 C 
ATOM      8  C   UNL     1      17.673 -11.623  67.195  1.00  0.00    -0.070 CG0
ATOM      9  C   UNL     1      17.667 -13.066  67.632  1.00  0.00     0.039 C 
ATOM     10  G   UNL     1      16.595 -11.136  66.238  1.00  0.00     0.000 G0
ENDBRANCH   6   7
ENDBRANCH   5   6
ENDBRANCH   3   5
ENDBRANCH   1   3
BRANCH   1  11
ATOM     11  C   UNL     1      18.035  -9.375  64.002  1.00  0.00     0.087 C 
BRANCH  11  12
ATOM     12  C   UNL     1      16.939 -10.438  63.710  1.00  0.00     0.066 C 
BRANCH  12  13
ATOM     13  C   UNL     1      16.908 -11.508  64.793  1.00  0.00     0.140 C 
ATOM     14  O   UNL     1      17.203 -12.662  64.516  1.00  0.00    -0.299 OA
BRANCH  13  15
ATOM     15  C   UNL     1      16.597 -11.157  66.228  1.00  0.00     0.106 CG0
ATOM     16  G   UNL     1      17.677 -11.638  67.185  1.00  0.00     0.000 G0
ENDBRANCH  13  15
ENDBRANCH  12  13
BRANCH  12  17
ATOM     17  C   UNL     1      15.516  -9.825  63.506  1.00  0.00    -0.006 C 
ATOM     18  C   UNL     1      15.525  -8.386  62.961  1.00  0.00     0.008 C 
ATOM     19  C   UNL     1      14.640 -10.719  62.611  1.00  0.00     0.008 C 
ENDBRANCH  12  17
ENDBRANCH  11  12
ENDBRANCH   1  11
TORSDOF 1
ENDMDL
MODEL 6
REMARK VINA RESULT:    -3.467     15.869     17.691
REMARK INTER + INTRA:          -5.820
REMARK INTER:                  -6.369
REMARK INTRA:                   0.549
REMARK UNBOUND:                -0.529
REMARK SMILES CC1=CCC[C@H](C)C(=O)C[C@H](C(C)C)C(=O)C1
REMARK SMILES IDX 8 1 9 2 6 3 7 4 5 5 4 6 3 7 2 8 1 9 10 11 11 12 15 13 16 14
REMARK SMILES IDX 17 15 12 17 13 18 14 19
REMARK H PARENT
REMARK Flexibility Score: 70.00
ROOT
ATOM      1  C   UNL     1      17.455 -10.613  67.275  1.00  0.00     0.136 C 
ATOM      2  O   UNL     1      16.908  -9.623  67.739  1.00  0.00    -0.299 OA
ENDROOT
BRANCH   1   3
ATOM      3  C   UNL     1      18.911 -10.870  67.618  1.00  0.00     0.053 C 
ATOM      4  C   UNL     1      19.234 -10.373  69.033  1.00  0.00     0.016 C 
BRANCH   3   5
ATOM      5  C   UNL     1      19.278 -12.358  67.457  1.00  0.00     0.015 C 
BRANCH   5   6
ATOM      6  C   UNL     1      19.860 -12.659  66.065  1.00  0.00     0.028 C 
BRANCH   6   7
ATOM      7  C   UNL     1      20.375 -11.401  65.417  1.00  0.00    -0.028 C 
ATOM      8  C   UNL     1      19.754 -10.748  64.407  1.00  0.00    -0.070 CG0
ATOM      9  C   UNL     1      20.434  -9.535  63.824  1.00  0.00     0.039 C 
ATOM     10  G   UNL     1      18.404 -11.176  63.852  1.00  0.00     0.000 G0
ENDBRANCH   6   7
ENDBRANCH   5   6
ENDBRANCH   3   5
ENDBRANCH   1   3
BRANCH   1  11
ATOM     11  C   UNL     1      16.645 -11.550  66.406  1.00  0.00     0.087 C 
BRANCH  11  12
ATOM     12  C   UNL     1      16.119 -10.852  65.121  1.00  0.00     0.066 C 
BRANCH  12  13
ATOM     13  C   UNL     1      17.265 -10.298  64.286  1.00  0.00     0.140 C 
ATOM     14  O   UNL     1      17.306  -9.104  64.024  1.00  0.00    -0.299 OA
BRANCH  13  15
ATOM     15  C   UNL     1      18.403 -11.184  63.840  1.00  0.00     0.106 CG0
ATOM     16  G   UNL     1      19.740 -10.733  64.410  1.00  0.00     0.000 G0
ENDBRANCH  13  15
ENDBRANCH  12  13
BRANCH  12  17
ATOM     17  C   UNL     1      15.197 -11.764  64.249  1.00  0.00    -0.006 C 
ATOM     18  C   UNL     1      13.812 -12.029  64.866  1.00  0.00     0.008 C 
ATOM     19  C   UNL     1      15.039 -11.208  62.824  1.00  0.00     0.008 C 
ENDBRANCH  12  17
ENDBRANCH  11  12
ENDBRANCH   1  11
TORSDOF 1
ENDMDL
MODEL 7
REMARK VINA RESULT:    -3.462     16.172     18.127
REMARK INTER + INTRA:          -5.812
REMARK INTER:                  -5.764
REMARK INTRA:                  -0.049
REMARK UNBOUND:                -0.529
REMARK SMILES CC1=CCC[C@H](C)C(=O)C[C@H](C(C)C)C(=O)C1
REMARK SMILES IDX 8 1 9 2 6 3 7 4 5 5 4 6 3 7 2 8 1 9 10 11 11 12 15 13 16 14
REMARK SMILES IDX 17 15 12 17 13 18 14 19
REMARK H PARENT
REMARK Flexibility Score: 70.00
ROOT
ATOM      1  C   UNL     1      17.592 -12.522  65.893  1.00  0.00     0.136 C 
ATOM      2  O   UNL     1      17.957 -13.682  65.766  1.00  0.00    -0.299 OA
ENDROOT
BRANCH   1   3
ATOM      3  C   UNL     1      16.344 -12.065  65.161  1.00  0.00     0.053 C 
ATOM      4  C   UNL     1      15.508 -11.128  66.040  1.00  0.00     0.016 C 
BRANCH   3   5
ATOM      5  C   UNL     1      16.688 -11.401  63.814  1.00  0.00     0.015 C 
BRANCH   5   6
ATOM      6  C   UNL     1      17.278  -9.992  64.001  1.00  0.00     0.028 C 
BRANCH   6   7
ATOM      7  C   UNL     1      18.626  -9.885  63.337  1.00  0.00    -0.028 C 
ATOM      8  C   UNL     1      19.783  -9.621  63.987  1.00  0.00    -0.070 CG0
ATOM      9  C   UNL     1      21.041  -9.484  63.167  1.00  0.00     0.039 C 
ATOM     10  G   UNL     1      19.868  -9.474  65.499  1.00  0.00     0.000 G0
ENDBRANCH   6   7
ENDBRANCH   5   6
ENDBRANCH   3   5
ENDBRANCH   1   3
BRANCH   1  11
ATOM     11  C   UNL     1      18.387 -11.607  66.798  1.00  0.00     0.087 C 
BRANCH  11  12
ATOM     12  C   UNL     1      19.918 -11.845  66.677  1.00  0.00     0.066 C 
BRANCH  12  13
ATOM     13  C   UNL     1      20.631 -10.597  66.172  1.00  0.00     0.140 C 
ATOM     14  O   UNL     1      21.849 -10.523  66.242  1.00  0.00    -0.299 OA
BRANCH  13  15
ATOM     15  C   UNL     1      19.866  -9.477  65.509  1.00  0.00     0.106 CG0
ATOM     16  G   UNL     1      19.796  -9.644  63.999  1.00  0.00     0.000 G0
ENDBRANCH  13  15
ENDBRANCH  12  13
BRANCH  12  17
ATOM     17  C   UNL     1      20.576 -12.354  67.999  1.00  0.00    -0.006 C 
ATOM     18  C   UNL     1      19.743 -12.074  69.263  1.00  0.00     0.008 C 
ATOM     19  C   UNL     1      20.919 -13.852  67.918  1.00  0.00     0.008 C 
ENDBRANCH  12  17
ENDBRANCH  11  12
ENDBRANCH   1  11
TORSDOF 1
ENDMDL
MODEL 8
REMARK VINA RESULT:    -3.422      2.659      4.972
REMARK INTER + INTRA:          -5.751
REMARK INTER:                  -5.322
REMARK INTRA:                  -0.429
REMARK UNBOUND:                -0.529
REMARK SMILES CC1=CCC[C@H](C)C(=O)C[C@H](C(C)C)C(=O)C1
REMARK SMILES IDX 8 1 9 2 6 3 7 4 5 5 4 6 3 7 2 8 1 9 10 11 11 12 15 13 16 14
REMARK SMILES IDX 17 15 12 17 13 18 14 19
REMARK H PARENT
REMARK Flexibility Score: 70.00
ROOT
ATOM      1  C   UNL     1      14.701  -0.336  58.349  1.00  0.00     0.136 C 
ATOM      2  O   UNL     1      15.733  -0.575  58.959  1.00  0.00    -0.299 OA
ENDROOT
BRANCH   1   3
ATOM      3  C   UNL     1      13.389  -0.322  59.112  1.00  0.00     0.053 C 
ATOM      4  C   UNL     1      13.373  -1.413  60.190  1.00  0.00     0.016 C 
BRANCH   3   5
ATOM      5  C   UNL     1      13.104   1.063  59.723  1.00  0.00     0.015 C 
BRANCH   5   6
ATOM      6  C   UNL     1      12.014   1.822  58.946  1.00  0.00     0.028 C 
BRANCH   6   7
ATOM      7  C   UNL     1      12.608   2.973  58.177  1.00  0.00    -0.028 C 
ATOM      8  C   UNL     1      12.655   3.051  56.826  1.00  0.00    -0.070 CG0
ATOM      9  C   UNL     1      13.342   4.243  56.209  1.00  0.00     0.039 C 
ATOM     10  G   UNL     1      12.035   2.003  55.914  1.00  0.00     0.000 G0
ENDBRANCH   6   7
ENDBRANCH   5   6
ENDBRANCH   3   5
ENDBRANCH   1   3
BRANCH   1  11
ATOM     11  C   UNL     1      14.786  -0.038  56.869  1.00  0.00     0.087 C 
BRANCH  11  12
ATOM     12  C   UNL     1      13.420  -0.228  56.152  1.00  0.00     0.066 C 
BRANCH  12  13
ATOM     13  C   UNL     1      13.035   1.016  55.363  1.00  0.00     0.140 C 
ATOM     14  O   UNL     1      13.500   1.198  54.247  1.00  0.00    -0.299 OA
BRANCH  13  15
ATOM     15  C   UNL     1      12.020   1.997  55.900  1.00  0.00     0.106 CG0
ATOM     16  G   UNL     1      12.652   3.036  56.813  1.00  0.00     0.000 G0
ENDBRANCH  13  15
ENDBRANCH  12  13
BRANCH  12  17
ATOM     17  C   UNL     1      13.368  -1.493  55.236  1.00  0.00    -0.006 C 
ATOM     18  C   UNL     1      14.591  -2.418  55.373  1.00  0.00     0.008 C 
ATOM     19  C   UNL     1      12.075  -2.298  55.460  1.00  0.00     0.008 C 
ENDBRANCH  12  17
ENDBRANCH  11  12
ENDBRANCH   1  11
TORSDOF 1
ENDMDL
MODEL 9
REMARK VINA RESULT:    -3.351     11.271     12.882
REMARK INTER + INTRA:          -5.643
REMARK INTER:                  -5.231
REMARK INTRA:                  -0.412
REMARK UNBOUND:                -0.529
REMARK SMILES CC1=CCC[C@H](C)C(=O)C[C@H](C(C)C)C(=O)C1
REMARK SMILES IDX 8 1 9 2 6 3 7 4 5 5 4 6 3 7 2 8 1 9 10 11 11 12 15 13 16 14
REMARK SMILES IDX 17 15 12 17 13 18 14 19
REMARK H PARENT
REMARK Flexibility Score: 70.00
ROOT
ATOM      1  C   UNL     1       9.201 -10.155  56.338  1.00  0.00     0.136 C 
ATOM      2  O   UNL     1       9.212 -11.281  55.861  1.00  0.00    -0.299 OA
ENDROOT
BRANCH   1   3
ATOM      3  C   UNL     1       9.223  -8.964  55.399  1.00  0.00     0.053 C 
ATOM      4  C   UNL     1      10.560  -8.883  54.652  1.00  0.00     0.016 C 
BRANCH   3   5
ATOM      5  C   UNL     1       8.039  -8.996  54.413  1.00  0.00     0.015 C 
BRANCH   5   6
ATOM      6  C   UNL     1       6.690  -9.144  55.139  1.00  0.00     0.028 C 
BRANCH   6   7
ATOM      7  C   UNL     1       6.247  -7.825  55.717  1.00  0.00    -0.028 C 
ATOM      8  C   UNL     1       6.019  -7.601  57.032  1.00  0.00    -0.070 CG0
ATOM      9  C   UNL     1       5.518  -6.240  57.442  1.00  0.00     0.039 C 
ATOM     10  G   UNL     1       6.262  -8.653  58.105  1.00  0.00     0.000 G0
ENDBRANCH   6   7
ENDBRANCH   5   6
ENDBRANCH   3   5
ENDBRANCH   1   3
BRANCH   1  11
ATOM     11  C   UNL     1       9.137 -10.006  57.842  1.00  0.00     0.087 C 
BRANCH  11  12
ATOM     12  C   UNL     1       8.896  -8.533  58.277  1.00  0.00     0.066 C 
BRANCH  12  13
ATOM     13  C   UNL     1       7.520  -8.363  58.906  1.00  0.00     0.140 C 
ATOM     14  O   UNL     1       7.422  -7.930  60.046  1.00  0.00    -0.299 OA
BRANCH  13  15
ATOM     15  C   UNL     1       6.263  -8.641  58.119  1.00  0.00     0.106 CG0
ATOM     16  G   UNL     1       6.018  -7.599  57.038  1.00  0.00     0.000 G0
ENDBRANCH  13  15
ENDBRANCH  12  13
BRANCH  12  17
ATOM     17  C   UNL     1      10.005  -7.975  59.227  1.00  0.00    -0.006 C 
ATOM     18  C   UNL     1      11.000  -9.039  59.723  1.00  0.00     0.008 C 
ATOM     19  C   UNL     1      10.767  -6.806  58.578  1.00  0.00     0.008 C 
ENDBRANCH  12  17
ENDBRANCH  11  12
ENDBRANCH   1  11
TORSDOF 1
ENDMDL
