MODEL 1
REMARK VINA RESULT:    -2.853      0.000      0.000
REMARK INTER + INTRA:         -13.418
REMARK INTER:                  -7.523
REMARK INTRA:                  -5.896
REMARK UNBOUND:                -5.896
REMARK SMILES CCCCCCCCCCCCCCCCCCCCCCCCCCCCCC(=O)[O-]
REMARK SMILES IDX 16 1 17 2 18 3 19 4 20 5 21 6 22 7 23 8 24 9 25 10 26 11
REMARK SMILES IDX 27 12 28 13 29 14 30 15 31 16 32 17 15 18 14 19 13 20 12 21
REMARK SMILES IDX 11 22 10 23 9 24 8 25 7 26 6 27 5 28 4 29 3 30 2 31 1 32
REMARK H PARENT
REMARK Flexibility Score: inf
ROOT
ATOM      1  C   UNL     1      11.101  -2.249 202.198  1.00  0.00     0.000 C 
ENDROOT
BRANCH   1   2
ATOM      2  C   UNL     1      11.536  -1.684 203.566  1.00  0.00     0.000 C 
BRANCH   2   3
ATOM      3  C   UNL     1      12.916  -2.168 204.050  1.00  0.00     0.000 C 
BRANCH   3   4
ATOM      4  C   UNL     1      14.096  -1.437 203.377  1.00  0.00     0.000 C 
BRANCH   4   5
ATOM      5  C   UNL     1      13.756  -0.004 202.918  1.00  0.00     0.000 C 
BRANCH   5   6
ATOM      6  C   UNL     1      14.980   0.899 202.656  1.00  0.00     0.000 C 
BRANCH   6   7
ATOM      7  C   UNL     1      16.162   0.723 203.625  1.00  0.00     0.000 C 
BRANCH   7   8
ATOM      8  C   UNL     1      17.528   1.191 203.089  1.00  0.00     0.000 C 
BRANCH   8   9
ATOM      9  C   UNL     1      18.447   0.039 202.619  1.00  0.00     0.000 C 
BRANCH   9  10
ATOM     10  C   UNL     1      18.021  -1.361 203.107  1.00  0.00     0.000 C 
BRANCH  10  11
ATOM     11  C   UNL     1      17.539  -2.325 202.003  1.00  0.00     0.000 C 
BRANCH  11  12
ATOM     12  C   UNL     1      17.405  -1.651 200.625  1.00  0.00     0.000 C 
BRANCH  12  13
ATOM     13  C   UNL     1      15.961  -1.658 200.093  1.00  0.00     0.006 C 
BRANCH  13  14
ATOM     14  C   UNL     1      15.628  -2.866 199.197  1.00  0.00     0.053 C 
BRANCH  14  15
ATOM     15  C   UNL     1      14.850  -3.925 199.918  1.00  0.00     0.041 C 
ATOM     16  O   UNL     1      13.742  -3.647 200.449  1.00  0.00    -0.550 OA
ATOM     17  O   UNL     1      15.333  -5.228 199.977  1.00  0.00    -0.550 OA
ENDBRANCH  14  15
ENDBRANCH  13  14
ENDBRANCH  12  13
ENDBRANCH  11  12
ENDBRANCH  10  11
ENDBRANCH   9  10
ENDBRANCH   8   9
ENDBRANCH   7   8
ENDBRANCH   6   7
ENDBRANCH   5   6
ENDBRANCH   4   5
ENDBRANCH   3   4
ENDBRANCH   2   3
ENDBRANCH   1   2
BRANCH   1  18
ATOM     18  C   UNL     1      10.468  -1.232 201.228  1.00  0.00     0.000 C 
BRANCH  18  19
ATOM     19  C   UNL     1      10.454  -1.676 199.749  1.00  0.00     0.000 C 
BRANCH  19  20
ATOM     20  C   UNL     1      11.267  -0.753 198.823  1.00  0.00     0.000 C 
BRANCH  20  21
ATOM     21  C   UNL     1      12.686  -0.470 199.345  1.00  0.00     0.000 C 
BRANCH  21  22
ATOM     22  C   UNL     1      13.076   1.022 199.319  1.00  0.00     0.000 C 
BRANCH  22  23
ATOM     23  C   UNL     1      11.940   1.928 198.806  1.00  0.00     0.000 C 
BRANCH  23  24
ATOM     24  C   UNL     1      11.641   3.089 199.770  1.00  0.00    -0.000 C 
BRANCH  24  25
ATOM     25  C   UNL     1      12.189   2.825 201.185  1.00  0.00    -0.000 C 
BRANCH  25  26
ATOM     26  C   UNL     1      11.747   3.890 202.200  1.00  0.00    -0.000 C 
BRANCH  26  27
ATOM     27  C   UNL     1      10.459   3.497 202.947  1.00  0.00    -0.000 C 
BRANCH  27  28
ATOM     28  C   UNL     1      10.187   1.976 202.924  1.00  0.00    -0.000 C 
BRANCH  28  29
ATOM     29  C   UNL     1       8.755   1.600 202.500  1.00  0.00    -0.000 C 
BRANCH  29  30
ATOM     30  C   UNL     1       8.237   2.331 201.249  1.00  0.00    -0.000 C 
BRANCH  30  31
ATOM     31  C   UNL     1       8.259   1.464 199.969  1.00  0.00    -0.003 C 
ATOM     32  C   UNL     1       7.251   0.314 200.012  1.00  0.00     0.004 C 
ENDBRANCH  30  31
ENDBRANCH  29  30
ENDBRANCH  28  29
ENDBRANCH  27  28
ENDBRANCH  26  27
ENDBRANCH  25  26
ENDBRANCH  24  25
ENDBRANCH  23  24
ENDBRANCH  22  23
ENDBRANCH  21  22
ENDBRANCH  20  21
ENDBRANCH  19  20
ENDBRANCH  18  19
ENDBRANCH   1  18
TORSDOF 28
ENDMDL
MODEL 2
REMARK VINA RESULT:    -2.829      2.429      7.256
REMARK INTER + INTRA:         -13.356
REMARK INTER:                  -7.662
REMARK INTRA:                  -5.693
REMARK UNBOUND:                -5.896
REMARK SMILES CCCCCCCCCCCCCCCCCCCCCCCCCCCCCC(=O)[O-]
REMARK SMILES IDX 16 1 17 2 18 3 19 4 20 5 21 6 22 7 23 8 24 9 25 10 26 11
REMARK SMILES IDX 27 12 28 13 29 14 30 15 31 16 32 17 15 18 14 19 13 20 12 21
REMARK SMILES IDX 11 22 10 23 9 24 8 25 7 26 6 27 5 28 4 29 3 30 2 31 1 32
REMARK H PARENT
REMARK Flexibility Score: inf
ROOT
ATOM      1  C   UNL     1      11.104  -2.042 202.146  1.00  0.00     0.000 C 
ENDROOT
BRANCH   1   2
ATOM      2  C   UNL     1      10.375  -0.826 201.538  1.00  0.00     0.000 C 
BRANCH   2   3
ATOM      3  C   UNL     1      11.178  -0.070 200.462  1.00  0.00     0.000 C 
BRANCH   3   4
ATOM      4  C   UNL     1      11.574   1.361 200.881  1.00  0.00     0.000 C 
BRANCH   4   5
ATOM      5  C   UNL     1      11.202   1.705 202.338  1.00  0.00     0.000 C 
BRANCH   5   6
ATOM      6  C   UNL     1      10.794   3.175 202.570  1.00  0.00     0.000 C 
BRANCH   6   7
ATOM      7  C   UNL     1       9.297   3.490 202.404  1.00  0.00     0.000 C 
BRANCH   7   8
ATOM      8  C   UNL     1       8.343   2.306 202.655  1.00  0.00     0.000 C 
BRANCH   8   9
ATOM      9  C   UNL     1       7.407   1.991 201.465  1.00  0.00     0.000 C 
BRANCH   9  10
ATOM     10  C   UNL     1       8.025   2.248 200.076  1.00  0.00     0.000 C 
BRANCH  10  11
ATOM     11  C   UNL     1       7.958   1.059 199.095  1.00  0.00     0.000 C 
BRANCH  11  12
ATOM     12  C   UNL     1       7.187  -0.149 199.658  1.00  0.00     0.000 C 
BRANCH  12  13
ATOM     13  C   UNL     1       7.711  -1.495 199.127  1.00  0.00     0.006 C 
BRANCH  13  14
ATOM     14  C   UNL     1       8.687  -1.366 197.942  1.00  0.00     0.053 C 
BRANCH  14  15
ATOM     15  C   UNL     1       8.045  -1.683 196.626  1.00  0.00     0.041 C 
ATOM     16  O   UNL     1       8.421  -1.093 195.577  1.00  0.00    -0.550 OA
ATOM     17  O   UNL     1       7.053  -2.654 196.549  1.00  0.00    -0.550 OA
ENDBRANCH  14  15
ENDBRANCH  13  14
ENDBRANCH  12  13
ENDBRANCH  11  12
ENDBRANCH  10  11
ENDBRANCH   9  10
ENDBRANCH   8   9
ENDBRANCH   7   8
ENDBRANCH   6   7
ENDBRANCH   5   6
ENDBRANCH   4   5
ENDBRANCH   3   4
ENDBRANCH   2   3
ENDBRANCH   1   2
BRANCH   1  18
ATOM     18  C   UNL     1      11.665  -1.841 203.568  1.00  0.00     0.000 C 
BRANCH  18  19
ATOM     19  C   UNL     1      13.135  -2.280 203.749  1.00  0.00     0.000 C 
BRANCH  19  20
ATOM     20  C   UNL     1      14.078  -1.123 204.125  1.00  0.00     0.000 C 
BRANCH  20  21
ATOM     21  C   UNL     1      14.251  -0.092 202.996  1.00  0.00     0.000 C 
BRANCH  21  22
ATOM     22  C   UNL     1      15.379   0.929 203.251  1.00  0.00     0.000 C 
BRANCH  22  23
ATOM     23  C   UNL     1      16.662   0.611 202.460  1.00  0.00     0.000 C 
BRANCH  23  24
ATOM     24  C   UNL     1      17.724  -0.086 203.329  1.00  0.00    -0.000 C 
BRANCH  24  25
ATOM     25  C   UNL     1      17.847  -1.586 203.000  1.00  0.00    -0.000 C 
BRANCH  25  26
ATOM     26  C   UNL     1      17.262  -1.941 201.624  1.00  0.00    -0.000 C 
BRANCH  26  27
ATOM     27  C   UNL     1      16.194  -3.047 201.702  1.00  0.00    -0.000 C 
BRANCH  27  28
ATOM     28  C   UNL     1      15.434  -3.248 200.371  1.00  0.00    -0.000 C 
BRANCH  28  29
ATOM     29  C   UNL     1      14.174  -2.373 200.229  1.00  0.00    -0.000 C 
BRANCH  29  30
ATOM     30  C   UNL     1      13.468  -2.472 198.865  1.00  0.00    -0.000 C 
BRANCH  30  31
ATOM     31  C   UNL     1      12.279  -3.459 198.850  1.00  0.00    -0.003 C 
ATOM     32  C   UNL     1      12.699  -4.893 198.524  1.00  0.00     0.004 C 
ENDBRANCH  30  31
ENDBRANCH  29  30
ENDBRANCH  28  29
ENDBRANCH  27  28
ENDBRANCH  26  27
ENDBRANCH  25  26
ENDBRANCH  24  25
ENDBRANCH  23  24
ENDBRANCH  22  23
ENDBRANCH  21  22
ENDBRANCH  20  21
ENDBRANCH  19  20
ENDBRANCH  18  19
ENDBRANCH   1  18
TORSDOF 28
ENDMDL
MODEL 3
REMARK VINA RESULT:    -2.795      1.821      7.294
REMARK INTER + INTRA:         -13.266
REMARK INTER:                  -7.706
REMARK INTRA:                  -5.560
REMARK UNBOUND:                -5.896
REMARK SMILES CCCCCCCCCCCCCCCCCCCCCCCCCCCCCC(=O)[O-]
REMARK SMILES IDX 16 1 17 2 18 3 19 4 20 5 21 6 22 7 23 8 24 9 25 10 26 11
REMARK SMILES IDX 27 12 28 13 29 14 30 15 31 16 32 17 15 18 14 19 13 20 12 21
REMARK SMILES IDX 11 22 10 23 9 24 8 25 7 26 6 27 5 28 4 29 3 30 2 31 1 32
REMARK H PARENT
REMARK Flexibility Score: inf
ROOT
ATOM      1  C   UNL     1      13.329  -2.235 203.518  1.00  0.00     0.000 C 
ENDROOT
BRANCH   1   2
ATOM      2  C   UNL     1      11.874  -1.803 203.795  1.00  0.00     0.000 C 
BRANCH   2   3
ATOM      3  C   UNL     1      10.921  -1.955 202.594  1.00  0.00     0.000 C 
BRANCH   3   4
ATOM      4  C   UNL     1      11.631  -1.855 201.228  1.00  0.00     0.000 C 
BRANCH   4   5
ATOM      5  C   UNL     1      10.753  -2.296 200.039  1.00  0.00     0.000 C 
BRANCH   5   6
ATOM      6  C   UNL     1       9.935  -1.163 199.385  1.00  0.00     0.000 C 
BRANCH   6   7
ATOM      7  C   UNL     1       8.567  -0.868 200.026  1.00  0.00     0.000 C 
BRANCH   7   8
ATOM      8  C   UNL     1       8.034   0.562 199.812  1.00  0.00     0.000 C 
BRANCH   8   9
ATOM      9  C   UNL     1       7.811   1.351 201.123  1.00  0.00     0.000 C 
BRANCH   9  10
ATOM     10  C   UNL     1       8.848   1.067 202.229  1.00  0.00     0.000 C 
BRANCH  10  11
ATOM     11  C   UNL     1       9.603   2.304 202.759  1.00  0.00     0.000 C 
BRANCH  11  12
ATOM     12  C   UNL     1      11.130   2.199 202.595  1.00  0.00     0.000 C 
BRANCH  12  13
ATOM     13  C   UNL     1      11.552   1.723 201.193  1.00  0.00     0.006 C 
BRANCH  13  14
ATOM     14  C   UNL     1      12.778   2.461 200.622  1.00  0.00     0.053 C 
BRANCH  14  15
ATOM     15  C   UNL     1      13.462   1.692 199.534  1.00  0.00     0.041 C 
ATOM     16  O   UNL     1      14.704   1.811 199.357  1.00  0.00    -0.550 OA
ATOM     17  O   UNL     1      12.735   0.817 198.734  1.00  0.00    -0.550 OA
ENDBRANCH  14  15
ENDBRANCH  13  14
ENDBRANCH  12  13
ENDBRANCH  11  12
ENDBRANCH  10  11
ENDBRANCH   9  10
ENDBRANCH   8   9
ENDBRANCH   7   8
ENDBRANCH   6   7
ENDBRANCH   5   6
ENDBRANCH   4   5
ENDBRANCH   3   4
ENDBRANCH   2   3
ENDBRANCH   1   2
BRANCH   1  18
ATOM     18  C   UNL     1      14.402  -1.154 203.755  1.00  0.00     0.000 C 
BRANCH  18  19
ATOM     19  C   UNL     1      14.474  -0.068 202.659  1.00  0.00     0.000 C 
BRANCH  19  20
ATOM     20  C   UNL     1      15.607   0.951 202.879  1.00  0.00     0.000 C 
BRANCH  20  21
ATOM     21  C   UNL     1      16.745   0.410 203.762  1.00  0.00     0.000 C 
BRANCH  21  22
ATOM     22  C   UNL     1      18.150   0.596 203.153  1.00  0.00     0.000 C 
BRANCH  22  23
ATOM     23  C   UNL     1      19.250  -0.124 203.955  1.00  0.00     0.000 C 
BRANCH  23  24
ATOM     24  C   UNL     1      19.858  -1.305 203.179  1.00  0.00    -0.000 C 
BRANCH  24  25
ATOM     25  C   UNL     1      18.879  -2.489 203.063  1.00  0.00    -0.000 C 
BRANCH  25  26
ATOM     26  C   UNL     1      18.482  -2.789 201.609  1.00  0.00    -0.000 C 
BRANCH  26  27
ATOM     27  C   UNL     1      17.032  -2.376 201.294  1.00  0.00    -0.000 C 
BRANCH  27  28
ATOM     28  C   UNL     1      16.042  -3.563 201.345  1.00  0.00    -0.000 C 
BRANCH  28  29
ATOM     29  C   UNL     1      14.826  -3.406 200.415  1.00  0.00    -0.000 C 
BRANCH  29  30
ATOM     30  C   UNL     1      14.860  -2.164 199.508  1.00  0.00    -0.000 C 
BRANCH  30  31
ATOM     31  C   UNL     1      14.056  -2.327 198.198  1.00  0.00    -0.003 C 
ATOM     32  C   UNL     1      13.690  -3.782 197.901  1.00  0.00     0.004 C 
ENDBRANCH  30  31
ENDBRANCH  29  30
ENDBRANCH  28  29
ENDBRANCH  27  28
ENDBRANCH  26  27
ENDBRANCH  25  26
ENDBRANCH  24  25
ENDBRANCH  23  24
ENDBRANCH  22  23
ENDBRANCH  21  22
ENDBRANCH  20  21
ENDBRANCH  19  20
ENDBRANCH  18  19
ENDBRANCH   1  18
TORSDOF 28
ENDMDL
MODEL 4
REMARK VINA RESULT:    -2.778      1.559      3.348
REMARK INTER + INTRA:         -13.221
REMARK INTER:                  -7.905
REMARK INTRA:                  -5.316
REMARK UNBOUND:                -5.896
REMARK SMILES CCCCCCCCCCCCCCCCCCCCCCCCCCCCCC(=O)[O-]
REMARK SMILES IDX 16 1 17 2 18 3 19 4 20 5 21 6 22 7 23 8 24 9 25 10 26 11
REMARK SMILES IDX 27 12 28 13 29 14 30 15 31 16 32 17 15 18 14 19 13 20 12 21
REMARK SMILES IDX 11 22 10 23 9 24 8 25 7 26 6 27 5 28 4 29 3 30 2 31 1 32
REMARK H PARENT
REMARK Flexibility Score: inf
ROOT
ATOM      1  C   UNL     1      11.117  -2.236 201.977  1.00  0.00     0.000 C 
ENDROOT
BRANCH   1   2
ATOM      2  C   UNL     1      11.468  -1.698 203.380  1.00  0.00     0.000 C 
BRANCH   2   3
ATOM      3  C   UNL     1      12.841  -2.149 203.914  1.00  0.00     0.000 C 
BRANCH   3   4
ATOM      4  C   UNL     1      13.937  -1.073 203.779  1.00  0.00     0.000 C 
BRANCH   4   5
ATOM      5  C   UNL     1      13.457   0.219 203.085  1.00  0.00     0.000 C 
BRANCH   5   6
ATOM      6  C   UNL     1      14.578   1.066 202.449  1.00  0.00     0.000 C 
BRANCH   6   7
ATOM      7  C   UNL     1      15.702   1.514 203.399  1.00  0.00     0.000 C 
BRANCH   7   8
ATOM      8  C   UNL     1      17.122   1.076 202.992  1.00  0.00     0.000 C 
BRANCH   8   9
ATOM      9  C   UNL     1      17.432  -0.409 203.296  1.00  0.00     0.000 C 
BRANCH   9  10
ATOM     10  C   UNL     1      17.876  -1.236 202.072  1.00  0.00     0.000 C 
BRANCH  10  11
ATOM     11  C   UNL     1      16.780  -2.117 201.439  1.00  0.00     0.000 C 
BRANCH  11  12
ATOM     12  C   UNL     1      15.962  -1.385 200.360  1.00  0.00     0.000 C 
BRANCH  12  13
ATOM     13  C   UNL     1      14.555  -1.979 200.167  1.00  0.00     0.006 C 
BRANCH  13  14
ATOM     14  C   UNL     1      14.384  -3.391 200.760  1.00  0.00     0.053 C 
BRANCH  14  15
ATOM     15  C   UNL     1      14.331  -4.458 199.709  1.00  0.00     0.041 C 
ATOM     16  O   UNL     1      13.374  -4.496 198.891  1.00  0.00    -0.550 OA
ATOM     17  O   UNL     1      15.357  -5.392 199.610  1.00  0.00    -0.550 OA
ENDBRANCH  14  15
ENDBRANCH  13  14
ENDBRANCH  12  13
ENDBRANCH  11  12
ENDBRANCH  10  11
ENDBRANCH   9  10
ENDBRANCH   8   9
ENDBRANCH   7   8
ENDBRANCH   6   7
ENDBRANCH   5   6
ENDBRANCH   4   5
ENDBRANCH   3   4
ENDBRANCH   2   3
ENDBRANCH   1   2
BRANCH   1  18
ATOM     18  C   UNL     1      10.251  -1.306 201.104  1.00  0.00     0.000 C 
BRANCH  18  19
ATOM     19  C   UNL     1      10.975  -0.037 200.602  1.00  0.00     0.000 C 
BRANCH  19  20
ATOM     20  C   UNL     1      10.385   1.269 201.165  1.00  0.00     0.000 C 
BRANCH  20  21
ATOM     21  C   UNL     1       9.344   1.035 202.273  1.00  0.00     0.000 C 
BRANCH  21  22
ATOM     22  C   UNL     1       8.476   2.272 202.586  1.00  0.00     0.000 C 
BRANCH  22  23
ATOM     23  C   UNL     1       8.329   3.219 201.382  1.00  0.00     0.000 C 
BRANCH  23  24
ATOM     24  C   UNL     1       6.865   3.623 201.133  1.00  0.00    -0.000 C 
BRANCH  24  25
ATOM     25  C   UNL     1       5.900   2.433 201.296  1.00  0.00    -0.000 C 
BRANCH  25  26
ATOM     26  C   UNL     1       5.674   1.669 199.983  1.00  0.00    -0.000 C 
BRANCH  26  27
ATOM     27  C   UNL     1       6.331   0.276 199.987  1.00  0.00    -0.000 C 
BRANCH  27  28
ATOM     28  C   UNL     1       7.561   0.185 199.055  1.00  0.00    -0.000 C 
BRANCH  28  29
ATOM     29  C   UNL     1       7.591   1.256 197.949  1.00  0.00    -0.000 C 
BRANCH  29  30
ATOM     30  C   UNL     1       8.860   2.127 197.925  1.00  0.00    -0.000 C 
BRANCH  30  31
ATOM     31  C   UNL     1       8.940   3.077 196.709  1.00  0.00    -0.003 C 
ATOM     32  C   UNL     1       9.294   2.351 195.409  1.00  0.00     0.004 C 
ENDBRANCH  30  31
ENDBRANCH  29  30
ENDBRANCH  28  29
ENDBRANCH  27  28
ENDBRANCH  26  27
ENDBRANCH  25  26
ENDBRANCH  24  25
ENDBRANCH  23  24
ENDBRANCH  22  23
ENDBRANCH  21  22
ENDBRANCH  20  21
ENDBRANCH  19  20
ENDBRANCH  18  19
ENDBRANCH   1  18
TORSDOF 28
ENDMDL
MODEL 5
REMARK VINA RESULT:    -2.759     10.111     13.279
REMARK INTER + INTRA:         -13.170
REMARK INTER:                  -8.282
REMARK INTRA:                  -4.889
REMARK UNBOUND:                -5.896
REMARK SMILES CCCCCCCCCCCCCCCCCCCCCCCCCCCCCC(=O)[O-]
REMARK SMILES IDX 16 1 17 2 18 3 19 4 20 5 21 6 22 7 23 8 24 9 25 10 26 11
REMARK SMILES IDX 27 12 28 13 29 14 30 15 31 16 32 17 15 18 14 19 13 20 12 21
REMARK SMILES IDX 11 22 10 23 9 24 8 25 7 26 6 27 5 28 4 29 3 30 2 31 1 32
REMARK H PARENT
REMARK Flexibility Score: inf
ROOT
ATOM      1  C   UNL     1      14.891 -14.986 201.257  1.00  0.00     0.000 C 
ENDROOT
BRANCH   1   2
ATOM      2  C   UNL     1      15.675 -13.883 201.999  1.00  0.00     0.000 C 
BRANCH   2   3
ATOM      3  C   UNL     1      16.134 -14.268 203.418  1.00  0.00     0.000 C 
BRANCH   3   4
ATOM      4  C   UNL     1      17.597 -13.880 203.718  1.00  0.00     0.000 C 
BRANCH   4   5
ATOM      5  C   UNL     1      18.070 -12.619 202.967  1.00  0.00     0.000 C 
BRANCH   5   6
ATOM      6  C   UNL     1      18.591 -11.484 203.873  1.00  0.00     0.000 C 
BRANCH   6   7
ATOM      7  C   UNL     1      17.752 -10.195 203.883  1.00  0.00     0.000 C 
BRANCH   7   8
ATOM      8  C   UNL     1      16.242 -10.389 203.646  1.00  0.00     0.000 C 
BRANCH   8   9
ATOM      9  C   UNL     1      15.652  -9.458 202.562  1.00  0.00     0.000 C 
BRANCH   9  10
ATOM     10  C   UNL     1      14.893 -10.186 201.434  1.00  0.00     0.000 C 
BRANCH  10  11
ATOM     11  C   UNL     1      14.635  -9.346 200.165  1.00  0.00     0.000 C 
BRANCH  11  12
ATOM     12  C   UNL     1      14.870 -10.130 198.861  1.00  0.00     0.000 C 
BRANCH  12  13
ATOM     13  C   UNL     1      15.473  -9.263 197.741  1.00  0.00     0.006 C 
BRANCH  13  14
ATOM     14  C   UNL     1      16.620  -9.943 196.970  1.00  0.00     0.053 C 
BRANCH  14  15
ATOM     15  C   UNL     1      17.401  -8.982 196.127  1.00  0.00     0.041 C 
ATOM     16  O   UNL     1      18.218  -8.185 196.664  1.00  0.00    -0.550 OA
ATOM     17  O   UNL     1      17.253  -8.985 194.744  1.00  0.00    -0.550 OA
ENDBRANCH  14  15
ENDBRANCH  13  14
ENDBRANCH  12  13
ENDBRANCH  11  12
ENDBRANCH  10  11
ENDBRANCH   9  10
ENDBRANCH   8   9
ENDBRANCH   7   8
ENDBRANCH   6   7
ENDBRANCH   5   6
ENDBRANCH   4   5
ENDBRANCH   3   4
ENDBRANCH   2   3
ENDBRANCH   1   2
BRANCH   1  18
ATOM     18  C   UNL     1      14.554 -14.686 199.783  1.00  0.00     0.000 C 
BRANCH  18  19
ATOM     19  C   UNL     1      15.279 -13.457 199.193  1.00  0.00     0.000 C 
BRANCH  19  20
ATOM     20  C   UNL     1      16.008 -13.752 197.869  1.00  0.00     0.000 C 
BRANCH  20  21
ATOM     21  C   UNL     1      15.169 -13.412 196.626  1.00  0.00     0.000 C 
BRANCH  21  22
ATOM     22  C   UNL     1      15.206 -14.496 195.530  1.00  0.00     0.000 C 
BRANCH  22  23
ATOM     23  C   UNL     1      14.046 -15.502 195.646  1.00  0.00     0.000 C 
BRANCH  23  24
ATOM     24  C   UNL     1      12.754 -14.980 194.994  1.00  0.00    -0.000 C 
BRANCH  24  25
ATOM     25  C   UNL     1      11.523 -15.190 195.896  1.00  0.00    -0.000 C 
BRANCH  25  26
ATOM     26  C   UNL     1      11.902 -15.563 197.338  1.00  0.00    -0.000 C 
BRANCH  26  27
ATOM     27  C   UNL     1      11.248 -14.637 198.380  1.00  0.00    -0.000 C 
BRANCH  27  28
ATOM     28  C   UNL     1      10.855 -13.258 197.802  1.00  0.00    -0.000 C 
BRANCH  28  29
ATOM     29  C   UNL     1      11.954 -12.187 197.931  1.00  0.00    -0.000 C 
BRANCH  29  30
ATOM     30  C   UNL     1      11.453 -10.734 197.855  1.00  0.00    -0.000 C 
BRANCH  30  31
ATOM     31  C   UNL     1      11.776 -10.034 196.515  1.00  0.00    -0.003 C 
ATOM     32  C   UNL     1      12.801 -10.798 195.676  1.00  0.00     0.004 C 
ENDBRANCH  30  31
ENDBRANCH  29  30
ENDBRANCH  28  29
ENDBRANCH  27  28
ENDBRANCH  26  27
ENDBRANCH  25  26
ENDBRANCH  24  25
ENDBRANCH  23  24
ENDBRANCH  22  23
ENDBRANCH  21  22
ENDBRANCH  20  21
ENDBRANCH  19  20
ENDBRANCH  18  19
ENDBRANCH   1  18
TORSDOF 28
ENDMDL
MODEL 6
REMARK VINA RESULT:    -2.724      1.677      6.274
REMARK INTER + INTRA:         -13.079
REMARK INTER:                  -7.495
REMARK INTRA:                  -5.583
REMARK UNBOUND:                -5.896
REMARK SMILES CCCCCCCCCCCCCCCCCCCCCCCCCCCCCC(=O)[O-]
REMARK SMILES IDX 16 1 17 2 18 3 19 4 20 5 21 6 22 7 23 8 24 9 25 10 26 11
REMARK SMILES IDX 27 12 28 13 29 14 30 15 31 16 32 17 15 18 14 19 13 20 12 21
REMARK SMILES IDX 11 22 10 23 9 24 8 25 7 26 6 27 5 28 4 29 3 30 2 31 1 32
REMARK H PARENT
REMARK Flexibility Score: inf
ROOT
ATOM      1  C   UNL     1      10.966   2.365 201.836  1.00  0.00     0.000 C 
ENDROOT
BRANCH   1   2
ATOM      2  C   UNL     1       9.806   1.738 202.636  1.00  0.00     0.000 C 
BRANCH   2   3
ATOM      3  C   UNL     1       8.748   1.021 201.775  1.00  0.00     0.000 C 
BRANCH   3   4
ATOM      4  C   UNL     1       9.296   0.507 200.428  1.00  0.00     0.000 C 
BRANCH   4   5
ATOM      5  C   UNL     1       9.622  -1.001 200.427  1.00  0.00     0.000 C 
BRANCH   5   6
ATOM      6  C   UNL     1      11.072  -1.349 200.821  1.00  0.00     0.000 C 
BRANCH   6   7
ATOM      7  C   UNL     1      11.232  -2.294 202.025  1.00  0.00     0.000 C 
BRANCH   7   8
ATOM      8  C   UNL     1      11.382  -1.600 203.392  1.00  0.00     0.000 C 
BRANCH   8   9
ATOM      9  C   UNL     1      12.848  -1.440 203.858  1.00  0.00     0.000 C 
BRANCH   9  10
ATOM     10  C   UNL     1      13.794  -2.568 203.398  1.00  0.00     0.000 C 
BRANCH  10  11
ATOM     11  C   UNL     1      14.979  -2.116 202.519  1.00  0.00     0.000 C 
BRANCH  11  12
ATOM     12  C   UNL     1      15.479  -3.216 201.564  1.00  0.00     0.000 C 
BRANCH  12  13
ATOM     13  C   UNL     1      14.379  -3.739 200.623  1.00  0.00     0.006 C 
BRANCH  13  14
ATOM     14  C   UNL     1      14.208  -2.909 199.336  1.00  0.00     0.053 C 
BRANCH  14  15
ATOM     15  C   UNL     1      13.317  -3.575 198.332  1.00  0.00     0.041 C 
ATOM     16  O   UNL     1      12.172  -3.980 198.668  1.00  0.00    -0.550 OA
ATOM     17  O   UNL     1      13.738  -3.721 197.014  1.00  0.00    -0.550 OA
ENDBRANCH  14  15
ENDBRANCH  13  14
ENDBRANCH  12  13
ENDBRANCH  11  12
ENDBRANCH  10  11
ENDBRANCH   9  10
ENDBRANCH   8   9
ENDBRANCH   7   8
ENDBRANCH   6   7
ENDBRANCH   5   6
ENDBRANCH   4   5
ENDBRANCH   3   4
ENDBRANCH   2   3
ENDBRANCH   1   2
BRANCH   1  18
ATOM     18  C   UNL     1      12.372   1.829 202.170  1.00  0.00     0.000 C 
BRANCH  18  19
ATOM     19  C   UNL     1      13.494   2.340 201.239  1.00  0.00     0.000 C 
BRANCH  19  20
ATOM     20  C   UNL     1      14.676   2.975 201.994  1.00  0.00     0.000 C 
BRANCH  20  21
ATOM     21  C   UNL     1      15.199   2.100 203.146  1.00  0.00     0.000 C 
BRANCH  21  22
ATOM     22  C   UNL     1      16.575   1.459 202.869  1.00  0.00     0.000 C 
BRANCH  22  23
ATOM     23  C   UNL     1      16.887   0.284 203.813  1.00  0.00     0.000 C 
BRANCH  23  24
ATOM     24  C   UNL     1      18.380  -0.091 203.803  1.00  0.00    -0.000 C 
BRANCH  24  25
ATOM     25  C   UNL     1      18.634  -1.443 203.109  1.00  0.00    -0.000 C 
BRANCH  25  26
ATOM     26  C   UNL     1      19.816  -1.393 202.129  1.00  0.00    -0.000 C 
BRANCH  26  27
ATOM     27  C   UNL     1      19.447  -1.917 200.729  1.00  0.00    -0.000 C 
BRANCH  27  28
ATOM     28  C   UNL     1      18.201  -1.222 200.133  1.00  0.00    -0.000 C 
BRANCH  28  29
ATOM     29  C   UNL     1      18.494   0.143 199.484  1.00  0.00    -0.000 C 
BRANCH  29  30
ATOM     30  C   UNL     1      17.277   1.077 199.366  1.00  0.00    -0.000 C 
BRANCH  30  31
ATOM     31  C   UNL     1      15.919   0.351 199.505  1.00  0.00    -0.003 C 
ATOM     32  C   UNL     1      14.986   0.601 198.319  1.00  0.00     0.004 C 
ENDBRANCH  30  31
ENDBRANCH  29  30
ENDBRANCH  28  29
ENDBRANCH  27  28
ENDBRANCH  26  27
ENDBRANCH  25  26
ENDBRANCH  24  25
ENDBRANCH  23  24
ENDBRANCH  22  23
ENDBRANCH  21  22
ENDBRANCH  20  21
ENDBRANCH  19  20
ENDBRANCH  18  19
ENDBRANCH   1  18
TORSDOF 28
ENDMDL
MODEL 7
REMARK VINA RESULT:    -2.635      2.080      3.813
REMARK INTER + INTRA:         -12.843
REMARK INTER:                  -6.762
REMARK INTRA:                  -6.081
REMARK UNBOUND:                -5.896
REMARK SMILES CCCCCCCCCCCCCCCCCCCCCCCCCCCCCC(=O)[O-]
REMARK SMILES IDX 16 1 17 2 18 3 19 4 20 5 21 6 22 7 23 8 24 9 25 10 26 11
REMARK SMILES IDX 27 12 28 13 29 14 30 15 31 16 32 17 15 18 14 19 13 20 12 21
REMARK SMILES IDX 11 22 10 23 9 24 8 25 7 26 6 27 5 28 4 29 3 30 2 31 1 32
REMARK H PARENT
REMARK Flexibility Score: inf
ROOT
ATOM      1  C   UNL     1      12.395  -1.864 203.809  1.00  0.00     0.000 C 
ENDROOT
BRANCH   1   2
ATOM      2  C   UNL     1      13.868  -2.148 203.451  1.00  0.00     0.000 C 
BRANCH   2   3
ATOM      3  C   UNL     1      14.617  -0.957 202.824  1.00  0.00     0.000 C 
BRANCH   3   4
ATOM      4  C   UNL     1      15.508  -0.193 203.825  1.00  0.00     0.000 C 
BRANCH   4   5
ATOM      5  C   UNL     1      16.075   1.128 203.267  1.00  0.00     0.000 C 
BRANCH   5   6
ATOM      6  C   UNL     1      17.602   1.132 203.042  1.00  0.00     0.000 C 
BRANCH   6   7
ATOM      7  C   UNL     1      18.388   0.017 203.754  1.00  0.00     0.000 C 
BRANCH   7   8
ATOM      8  C   UNL     1      19.647  -0.476 203.016  1.00  0.00     0.000 C 
BRANCH   8   9
ATOM      9  C   UNL     1      19.557  -1.941 202.531  1.00  0.00     0.000 C 
BRANCH   9  10
ATOM     10  C   UNL     1      18.255  -2.668 202.921  1.00  0.00     0.000 C 
BRANCH  10  11
ATOM     11  C   UNL     1      17.382  -3.138 201.739  1.00  0.00     0.000 C 
BRANCH  11  12
ATOM     12  C   UNL     1      17.780  -2.493 200.398  1.00  0.00     0.000 C 
BRANCH  12  13
ATOM     13  C   UNL     1      16.659  -1.630 199.792  1.00  0.00     0.006 C 
BRANCH  13  14
ATOM     14  C   UNL     1      16.964  -0.120 199.784  1.00  0.00     0.053 C 
BRANCH  14  15
ATOM     15  C   UNL     1      17.929   0.269 198.706  1.00  0.00     0.041 C 
ATOM     16  O   UNL     1      18.726   1.230 198.883  1.00  0.00    -0.550 OA
ATOM     17  O   UNL     1      17.974  -0.449 197.516  1.00  0.00    -0.550 OA
ENDBRANCH  14  15
ENDBRANCH  13  14
ENDBRANCH  12  13
ENDBRANCH  11  12
ENDBRANCH  10  11
ENDBRANCH   9  10
ENDBRANCH   8   9
ENDBRANCH   7   8
ENDBRANCH   6   7
ENDBRANCH   5   6
ENDBRANCH   4   5
ENDBRANCH   3   4
ENDBRANCH   2   3
ENDBRANCH   1   2
BRANCH   1  18
ATOM     18  C   UNL     1      11.719  -0.738 203.001  1.00  0.00     0.000 C 
BRANCH  18  19
ATOM     19  C   UNL     1      10.701  -1.224 201.946  1.00  0.00     0.000 C 
BRANCH  19  20
ATOM     20  C   UNL     1       9.771  -0.110 201.432  1.00  0.00     0.000 C 
BRANCH  20  21
ATOM     21  C   UNL     1       9.633   1.066 202.415  1.00  0.00     0.000 C 
BRANCH  21  22
ATOM     22  C   UNL     1       9.411   2.430 201.730  1.00  0.00     0.000 C 
BRANCH  22  23
ATOM     23  C   UNL     1      10.644   3.349 201.814  1.00  0.00     0.000 C 
BRANCH  23  24
ATOM     24  C   UNL     1      11.573   2.972 202.982  1.00  0.00    -0.000 C 
BRANCH  24  25
ATOM     25  C   UNL     1      13.037   2.816 202.531  1.00  0.00    -0.000 C 
BRANCH  25  26
ATOM     26  C   UNL     1      13.217   3.020 201.019  1.00  0.00    -0.000 C 
BRANCH  26  27
ATOM     27  C   UNL     1      13.841   1.795 200.326  1.00  0.00    -0.000 C 
BRANCH  27  28
ATOM     28  C   UNL     1      12.789   0.869 199.673  1.00  0.00    -0.000 C 
BRANCH  28  29
ATOM     29  C   UNL     1      13.233  -0.601 199.555  1.00  0.00    -0.000 C 
BRANCH  29  30
ATOM     30  C   UNL     1      12.626  -1.367 198.366  1.00  0.00    -0.000 C 
BRANCH  30  31
ATOM     31  C   UNL     1      11.788  -2.597 198.782  1.00  0.00    -0.003 C 
ATOM     32  C   UNL     1      12.590  -3.899 198.761  1.00  0.00     0.004 C 
ENDBRANCH  30  31
ENDBRANCH  29  30
ENDBRANCH  28  29
ENDBRANCH  27  28
ENDBRANCH  26  27
ENDBRANCH  25  26
ENDBRANCH  24  25
ENDBRANCH  23  24
ENDBRANCH  22  23
ENDBRANCH  21  22
ENDBRANCH  20  21
ENDBRANCH  19  20
ENDBRANCH  18  19
ENDBRANCH   1  18
TORSDOF 28
ENDMDL
MODEL 8
REMARK VINA RESULT:    -2.634     14.133     18.150
REMARK INTER + INTRA:         -12.842
REMARK INTER:                  -6.781
REMARK INTRA:                  -6.061
REMARK UNBOUND:                -5.896
REMARK SMILES CCCCCCCCCCCCCCCCCCCCCCCCCCCCCC(=O)[O-]
REMARK SMILES IDX 16 1 17 2 18 3 19 4 20 5 21 6 22 7 23 8 24 9 25 10 26 11
REMARK SMILES IDX 27 12 28 13 29 14 30 15 31 16 32 17 15 18 14 19 13 20 12 21
REMARK SMILES IDX 11 22 10 23 9 24 8 25 7 26 6 27 5 28 4 29 3 30 2 31 1 32
REMARK H PARENT
REMARK Flexibility Score: inf
ROOT
ATOM      1  C   UNL     1      18.462 -12.446 186.880  1.00  0.00     0.000 C 
ENDROOT
BRANCH   1   2
ATOM      2  C   UNL     1      18.587 -13.984 186.877  1.00  0.00     0.000 C 
BRANCH   2   3
ATOM      3  C   UNL     1      17.244 -14.736 186.930  1.00  0.00     0.000 C 
BRANCH   3   4
ATOM      4  C   UNL     1      16.016 -13.817 186.757  1.00  0.00     0.000 C 
BRANCH   4   5
ATOM      5  C   UNL     1      15.224 -14.081 185.460  1.00  0.00     0.000 C 
BRANCH   5   6
ATOM      6  C   UNL     1      15.254 -12.926 184.438  1.00  0.00     0.000 C 
BRANCH   6   7
ATOM      7  C   UNL     1      15.655 -11.548 184.994  1.00  0.00     0.000 C 
BRANCH   7   8
ATOM      8  C   UNL     1      14.499 -10.542 185.158  1.00  0.00     0.000 C 
BRANCH   8   9
ATOM      9  C   UNL     1      14.176 -10.192 186.629  1.00  0.00     0.000 C 
BRANCH   9  10
ATOM     10  C   UNL     1      15.245 -10.640 187.646  1.00  0.00     0.000 C 
BRANCH  10  11
ATOM     11  C   UNL     1      15.998  -9.497 188.358  1.00  0.00     0.000 C 
BRANCH  11  12
ATOM     12  C   UNL     1      15.112  -8.706 189.338  1.00  0.00     0.000 C 
BRANCH  12  13
ATOM     13  C   UNL     1      14.909  -7.240 188.913  1.00  0.00     0.006 C 
BRANCH  13  14
ATOM     14  C   UNL     1      13.571  -6.632 189.377  1.00  0.00     0.053 C 
BRANCH  14  15
ATOM     15  C   UNL     1      12.536  -6.618 188.294  1.00  0.00     0.041 C 
ATOM     16  O   UNL     1      12.831  -6.992 187.128  1.00  0.00    -0.550 OA
ATOM     17  O   UNL     1      11.233  -6.222 188.579  1.00  0.00    -0.550 OA
ENDBRANCH  14  15
ENDBRANCH  13  14
ENDBRANCH  12  13
ENDBRANCH  11  12
ENDBRANCH  10  11
ENDBRANCH   9  10
ENDBRANCH   8   9
ENDBRANCH   7   8
ENDBRANCH   6   7
ENDBRANCH   5   6
ENDBRANCH   4   5
ENDBRANCH   3   4
ENDBRANCH   2   3
ENDBRANCH   1   2
BRANCH   1  18
ATOM     18  C   UNL     1      19.580 -11.688 187.623  1.00  0.00     0.000 C 
BRANCH  18  19
ATOM     19  C   UNL     1      19.481 -10.149 187.537  1.00  0.00     0.000 C 
BRANCH  19  20
ATOM     20  C   UNL     1      19.370  -9.621 186.095  1.00  0.00     0.000 C 
BRANCH  20  21
ATOM     21  C   UNL     1      18.186  -8.660 185.892  1.00  0.00     0.000 C 
BRANCH  21  22
ATOM     22  C   UNL     1      17.641  -8.636 184.449  1.00  0.00     0.000 C 
BRANCH  22  23
ATOM     23  C   UNL     1      16.714  -7.436 184.181  1.00  0.00     0.000 C 
BRANCH  23  24
ATOM     24  C   UNL     1      15.832  -7.098 185.395  1.00  0.00    -0.000 C 
BRANCH  24  25
ATOM     25  C   UNL     1      15.954  -5.619 185.807  1.00  0.00    -0.000 C 
BRANCH  25  26
ATOM     26  C   UNL     1      17.302  -5.001 185.405  1.00  0.00    -0.000 C 
BRANCH  26  27
ATOM     27  C   UNL     1      18.305  -4.957 186.572  1.00  0.00    -0.000 C 
BRANCH  27  28
ATOM     28  C   UNL     1      17.638  -4.636 187.930  1.00  0.00    -0.000 C 
BRANCH  28  29
ATOM     29  C   UNL     1      18.307  -5.321 189.136  1.00  0.00    -0.000 C 
BRANCH  29  30
ATOM     30  C   UNL     1      18.621  -6.815 188.940  1.00  0.00    -0.000 C 
BRANCH  30  31
ATOM     31  C   UNL     1      18.782  -7.595 190.265  1.00  0.00    -0.003 C 
ATOM     32  C   UNL     1      17.838  -7.106 191.363  1.00  0.00     0.004 C 
ENDBRANCH  30  31
ENDBRANCH  29  30
ENDBRANCH  28  29
ENDBRANCH  27  28
ENDBRANCH  26  27
ENDBRANCH  25  26
ENDBRANCH  24  25
ENDBRANCH  23  24
ENDBRANCH  22  23
ENDBRANCH  21  22
ENDBRANCH  20  21
ENDBRANCH  19  20
ENDBRANCH  18  19
ENDBRANCH   1  18
TORSDOF 28
ENDMDL
