MODEL 1
REMARK VINA RESULT:    -2.879      0.000      0.000
REMARK INTER + INTRA:          -5.666
REMARK INTER:                  -4.393
REMARK INTRA:                  -1.273
REMARK UNBOUND:                -1.273
REMARK SMILES CCCCCCCCCCC(=O)[O-]
REMARK SMILES IDX 7 1 8 2 9 3 10 4 11 5 12 6 13 7 6 8 5 9 4 10 3 11 2 12 1 13
REMARK H PARENT
REMARK Flexibility Score: inf
ROOT
ATOM      1  C   UNL     1      10.981  43.779 151.942  1.00  0.00     0.000 C 
ENDROOT
BRANCH   1   2
ATOM      2  C   UNL     1      12.156  43.550 152.899  1.00  0.00     0.000 C 
BRANCH   2   3
ATOM      3  C   UNL     1      11.725  42.712 154.109  1.00  0.00     0.006 C 
BRANCH   3   4
ATOM      4  C   UNL     1      10.198  42.656 154.224  1.00  0.00     0.053 C 
BRANCH   4   5
ATOM      5  C   UNL     1       9.784  42.587 155.659  1.00  0.00     0.041 C 
ATOM      6  O   UNL     1      10.581  42.147 156.529  1.00  0.00    -0.550 OA
ATOM      7  O   UNL     1       8.534  43.055 156.046  1.00  0.00    -0.550 OA
ENDBRANCH   4   5
ENDBRANCH   3   4
ENDBRANCH   2   3
ENDBRANCH   1   2
BRANCH   1   8
ATOM      8  C   UNL     1      11.365  43.416 150.502  1.00  0.00     0.000 C 
BRANCH   8   9
ATOM      9  C   UNL     1      12.460  42.344 150.478  1.00  0.00    -0.000 C 
BRANCH   9  10
ATOM     10  C   UNL     1      11.892  40.985 150.052  1.00  0.00    -0.000 C 
BRANCH  10  11
ATOM     11  C   UNL     1      11.985  39.966 151.198  1.00  0.00    -0.000 C 
BRANCH  11  12
ATOM     12  C   UNL     1      10.663  39.819 151.967  1.00  0.00    -0.003 C 
ATOM     13  C   UNL     1       9.436  39.994 151.073  1.00  0.00     0.004 C 
ENDBRANCH  11  12
ENDBRANCH  10  11
ENDBRANCH   9  10
ENDBRANCH   8   9
ENDBRANCH   1   8
TORSDOF 9
ENDMDL
MODEL 2
REMARK VINA RESULT:    -2.848      1.145      1.973
REMARK INTER + INTRA:          -5.620
REMARK INTER:                  -4.312
REMARK INTRA:                  -1.308
REMARK UNBOUND:                -1.273
REMARK SMILES CCCCCCCCCCC(=O)[O-]
REMARK SMILES IDX 7 1 8 2 9 3 10 4 11 5 12 6 13 7 6 8 5 9 4 10 3 11 2 12 1 13
REMARK H PARENT
REMARK Flexibility Score: inf
ROOT
ATOM      1  C   UNL     1      11.613  42.526 150.422  1.00  0.00     0.000 C 
ENDROOT
BRANCH   1   2
ATOM      2  C   UNL     1      12.386  43.059 151.634  1.00  0.00     0.000 C 
BRANCH   2   3
ATOM      3  C   UNL     1      11.428  43.522 152.738  1.00  0.00     0.006 C 
BRANCH   3   4
ATOM      4  C   UNL     1      11.724  42.805 154.060  1.00  0.00     0.053 C 
BRANCH   4   5
ATOM      5  C   UNL     1      10.521  42.824 154.947  1.00  0.00     0.041 C 
ATOM      6  O   UNL     1      10.528  42.193 156.037  1.00  0.00    -0.550 OA
ATOM      7  O   UNL     1       9.408  43.578 154.595  1.00  0.00    -0.550 OA
ENDBRANCH   4   5
ENDBRANCH   3   4
ENDBRANCH   2   3
ENDBRANCH   1   2
BRANCH   1   8
ATOM      8  C   UNL     1      12.048  41.097 150.077  1.00  0.00     0.000 C 
BRANCH   8   9
ATOM      9  C   UNL     1      11.994  40.191 151.313  1.00  0.00    -0.000 C 
BRANCH   9  10
ATOM     10  C   UNL     1      10.625  39.514 151.441  1.00  0.00    -0.000 C 
BRANCH  10  11
ATOM     11  C   UNL     1       9.848  40.066 152.647  1.00  0.00    -0.000 C 
BRANCH  11  12
ATOM     12  C   UNL     1       8.391  40.409 152.304  1.00  0.00    -0.003 C 
ATOM     13  C   UNL     1       8.225  41.838 151.788  1.00  0.00     0.004 C 
ENDBRANCH  11  12
ENDBRANCH  10  11
ENDBRANCH   9  10
ENDBRANCH   8   9
ENDBRANCH   1   8
TORSDOF 9
ENDMDL
MODEL 3
REMARK VINA RESULT:    -2.750     13.923     15.156
REMARK INTER + INTRA:          -5.470
REMARK INTER:                  -4.272
REMARK INTRA:                  -1.199
REMARK UNBOUND:                -1.273
REMARK SMILES CCCCCCCCCCC(=O)[O-]
REMARK SMILES IDX 7 1 8 2 9 3 10 4 11 5 12 6 13 7 6 8 5 9 4 10 3 11 2 12 1 13
REMARK H PARENT
REMARK Flexibility Score: inf
ROOT
ATOM      1  C   UNL     1      10.932  35.680 140.118  1.00  0.00     0.000 C 
ENDROOT
BRANCH   1   2
ATOM      2  C   UNL     1       9.402  35.657 140.041  1.00  0.00     0.000 C 
BRANCH   2   3
ATOM      3  C   UNL     1       8.907  36.261 138.721  1.00  0.00     0.006 C 
BRANCH   3   4
ATOM      4  C   UNL     1       7.377  36.329 138.686  1.00  0.00     0.053 C 
BRANCH   4   5
ATOM      5  C   UNL     1       6.920  37.735 138.464  1.00  0.00     0.041 C 
ATOM      6  O   UNL     1       7.009  38.584 139.390  1.00  0.00    -0.550 OA
ATOM      7  O   UNL     1       6.441  38.122 137.218  1.00  0.00    -0.550 OA
ENDBRANCH   4   5
ENDBRANCH   3   4
ENDBRANCH   2   3
ENDBRANCH   1   2
BRANCH   1   8
ATOM      8  C   UNL     1      11.552  35.853 138.726  1.00  0.00     0.000 C 
BRANCH   8   9
ATOM      9  C   UNL     1      12.766  36.786 138.776  1.00  0.00    -0.000 C 
BRANCH   9  10
ATOM     10  C   UNL     1      12.646  37.787 139.931  1.00  0.00    -0.000 C 
BRANCH  10  11
ATOM     11  C   UNL     1      12.250  39.179 139.415  1.00  0.00    -0.000 C 
BRANCH  11  12
ATOM     12  C   UNL     1      10.737  39.431 139.496  1.00  0.00    -0.003 C 
ATOM     13  C   UNL     1      10.120  39.768 138.139  1.00  0.00     0.004 C 
ENDBRANCH  11  12
ENDBRANCH  10  11
ENDBRANCH   9  10
ENDBRANCH   8   9
ENDBRANCH   1   8
TORSDOF 9
ENDMDL
MODEL 4
REMARK VINA RESULT:    -2.738      3.400      4.974
REMARK INTER + INTRA:          -5.451
REMARK INTER:                  -4.380
REMARK INTRA:                  -1.071
REMARK UNBOUND:                -1.273
REMARK SMILES CCCCCCCCCCC(=O)[O-]
REMARK SMILES IDX 7 1 8 2 9 3 10 4 11 5 12 6 13 7 6 8 5 9 4 10 3 11 2 12 1 13
REMARK H PARENT
REMARK Flexibility Score: inf
ROOT
ATOM      1  C   UNL     1      12.159  42.052 152.915  1.00  0.00     0.000 C 
ENDROOT
BRANCH   1   2
ATOM      2  C   UNL     1      12.011  42.311 151.411  1.00  0.00     0.000 C 
BRANCH   2   3
ATOM      3  C   UNL     1      11.272  41.156 150.724  1.00  0.00     0.006 C 
BRANCH   3   4
ATOM      4  C   UNL     1      11.776  39.801 151.232  1.00  0.00     0.053 C 
BRANCH   4   5
ATOM      5  C   UNL     1      11.723  38.780 150.141  1.00  0.00     0.041 C 
ATOM      6  O   UNL     1      10.749  37.986 150.062  1.00  0.00    -0.550 OA
ATOM      7  O   UNL     1      12.726  38.737 149.180  1.00  0.00    -0.550 OA
ENDBRANCH   4   5
ENDBRANCH   3   4
ENDBRANCH   2   3
ENDBRANCH   1   2
BRANCH   1   8
ATOM      8  C   UNL     1      11.968  43.345 153.717  1.00  0.00     0.000 C 
BRANCH   8   9
ATOM      9  C   UNL     1      10.510  43.509 154.160  1.00  0.00    -0.000 C 
BRANCH   9  10
ATOM     10  C   UNL     1       9.949  42.192 154.709  1.00  0.00    -0.000 C 
BRANCH  10  11
ATOM     11  C   UNL     1       8.662  41.792 153.972  1.00  0.00    -0.000 C 
BRANCH  11  12
ATOM     12  C   UNL     1       8.764  40.409 153.311  1.00  0.00    -0.003 C 
ATOM     13  C   UNL     1       7.886  40.282 152.066  1.00  0.00     0.004 C 
ENDBRANCH  11  12
ENDBRANCH  10  11
ENDBRANCH   9  10
ENDBRANCH   8   9
ENDBRANCH   1   8
TORSDOF 9
ENDMDL
MODEL 5
REMARK VINA RESULT:    -2.715      3.316      4.878
REMARK INTER + INTRA:          -5.417
REMARK INTER:                  -4.259
REMARK INTRA:                  -1.158
REMARK UNBOUND:                -1.273
REMARK SMILES CCCCCCCCCCC(=O)[O-]
REMARK SMILES IDX 7 1 8 2 9 3 10 4 11 5 12 6 13 7 6 8 5 9 4 10 3 11 2 12 1 13
REMARK H PARENT
REMARK Flexibility Score: inf
ROOT
ATOM      1  C   UNL     1      10.855  42.316 150.697  1.00  0.00     0.000 C 
ENDROOT
BRANCH   1   2
ATOM      2  C   UNL     1      12.034  41.337 150.722  1.00  0.00     0.000 C 
BRANCH   2   3
ATOM      3  C   UNL     1      11.683  40.072 151.514  1.00  0.00     0.006 C 
BRANCH   3   4
ATOM      4  C   UNL     1      10.254  39.612 151.212  1.00  0.00     0.053 C 
BRANCH   4   5
ATOM      5  C   UNL     1      10.228  38.755 149.987  1.00  0.00     0.041 C 
ATOM      6  O   UNL     1       9.649  39.158 148.944  1.00  0.00    -0.550 OA
ATOM      7  O   UNL     1      10.887  37.531 149.979  1.00  0.00    -0.550 OA
ENDBRANCH   4   5
ENDBRANCH   3   4
ENDBRANCH   2   3
ENDBRANCH   1   2
BRANCH   1   8
ATOM      8  C   UNL     1      11.172  43.580 151.505  1.00  0.00     0.000 C 
BRANCH   8   9
ATOM      9  C   UNL     1      12.559  43.487 152.152  1.00  0.00    -0.000 C 
BRANCH   9  10
ATOM     10  C   UNL     1      12.451  43.432 153.680  1.00  0.00    -0.000 C 
BRANCH  10  11
ATOM     11  C   UNL     1      11.003  43.665 154.139  1.00  0.00    -0.000 C 
BRANCH  11  12
ATOM     12  C   UNL     1      10.452  42.498 154.972  1.00  0.00    -0.003 C 
ATOM     13  C   UNL     1       9.452  41.639 154.199  1.00  0.00     0.004 C 
ENDBRANCH  11  12
ENDBRANCH  10  11
ENDBRANCH   9  10
ENDBRANCH   8   9
ENDBRANCH   1   8
TORSDOF 9
ENDMDL
MODEL 6
REMARK VINA RESULT:    -2.692     14.263     15.071
REMARK INTER + INTRA:          -5.382
REMARK INTER:                  -4.461
REMARK INTRA:                  -0.921
REMARK UNBOUND:                -1.273
REMARK SMILES CCCCCCCCCCC(=O)[O-]
REMARK SMILES IDX 7 1 8 2 9 3 10 4 11 5 12 6 13 7 6 8 5 9 4 10 3 11 2 12 1 13
REMARK H PARENT
REMARK Flexibility Score: inf
ROOT
ATOM      1  C   UNL     1      10.885  38.565 138.629  1.00  0.00     0.000 C 
ENDROOT
BRANCH   1   2
ATOM      2  C   UNL     1       9.946  39.768 138.487  1.00  0.00     0.000 C 
BRANCH   2   3
ATOM      3  C   UNL     1       8.491  39.314 138.320  1.00  0.00     0.006 C 
BRANCH   3   4
ATOM      4  C   UNL     1       8.223  38.026 139.105  1.00  0.00     0.053 C 
BRANCH   4   5
ATOM      5  C   UNL     1       7.299  37.131 138.342  1.00  0.00     0.041 C 
ATOM      6  O   UNL     1       7.080  35.957 138.743  1.00  0.00    -0.550 OA
ATOM      7  O   UNL     1       6.639  37.609 137.216  1.00  0.00    -0.550 OA
ENDBRANCH   4   5
ENDBRANCH   3   4
ENDBRANCH   2   3
ENDBRANCH   1   2
BRANCH   1   8
ATOM      8  C   UNL     1      12.068  38.895 139.547  1.00  0.00     0.000 C 
BRANCH   8   9
ATOM      9  C   UNL     1      13.109  37.770 139.530  1.00  0.00    -0.000 C 
BRANCH   9  10
ATOM     10  C   UNL     1      12.639  36.597 138.661  1.00  0.00    -0.000 C 
BRANCH  10  11
ATOM     11  C   UNL     1      12.316  35.368 139.525  1.00  0.00    -0.000 C 
BRANCH  11  12
ATOM     12  C   UNL     1      10.863  34.895 139.360  1.00  0.00    -0.003 C 
ATOM     13  C   UNL     1      10.006  35.178 140.593  1.00  0.00     0.004 C 
ENDBRANCH  11  12
ENDBRANCH  10  11
ENDBRANCH   9  10
ENDBRANCH   8   9
ENDBRANCH   1   8
TORSDOF 9
ENDMDL
MODEL 7
REMARK VINA RESULT:    -2.690      3.314      5.286
REMARK INTER + INTRA:          -5.379
REMARK INTER:                  -4.069
REMARK INTRA:                  -1.310
REMARK UNBOUND:                -1.273
REMARK SMILES CCCCCCCCCCC(=O)[O-]
REMARK SMILES IDX 7 1 8 2 9 3 10 4 11 5 12 6 13 7 6 8 5 9 4 10 3 11 2 12 1 13
REMARK H PARENT
REMARK Flexibility Score: inf
ROOT
ATOM      1  C   UNL     1       8.998  41.615 152.705  1.00  0.00     0.000 C 
ENDROOT
BRANCH   1   2
ATOM      2  C   UNL     1       9.340  40.620 151.590  1.00  0.00     0.000 C 
BRANCH   2   3
ATOM      3  C   UNL     1      10.618  39.840 151.920  1.00  0.00     0.006 C 
BRANCH   3   4
ATOM      4  C   UNL     1      11.608  39.887 150.752  1.00  0.00     0.053 C 
BRANCH   4   5
ATOM      5  C   UNL     1      11.745  38.536 150.126  1.00  0.00     0.041 C 
ATOM      6  O   UNL     1      12.869  38.133 149.727  1.00  0.00    -0.550 OA
ATOM      7  O   UNL     1      10.640  37.698 150.030  1.00  0.00    -0.550 OA
ENDBRANCH   4   5
ENDBRANCH   3   4
ENDBRANCH   2   3
ENDBRANCH   1   2
BRANCH   1   8
ATOM      8  C   UNL     1       9.793  41.307 153.980  1.00  0.00     0.000 C 
BRANCH   8   9
ATOM      9  C   UNL     1      10.428  42.578 154.554  1.00  0.00    -0.000 C 
BRANCH   9  10
ATOM     10  C   UNL     1      11.887  42.717 154.105  1.00  0.00    -0.000 C 
BRANCH  10  11
ATOM     11  C   UNL     1      12.052  43.884 153.120  1.00  0.00    -0.000 C 
BRANCH  11  12
ATOM     12  C   UNL     1      12.460  43.418 151.714  1.00  0.00    -0.003 C 
ATOM     13  C   UNL     1      11.378  43.679 150.667  1.00  0.00     0.004 C 
ENDBRANCH  11  12
ENDBRANCH  10  11
ENDBRANCH   9  10
ENDBRANCH   8   9
ENDBRANCH   1   8
TORSDOF 9
ENDMDL
MODEL 8
REMARK VINA RESULT:    -2.665      1.136      2.842
REMARK INTER + INTRA:          -5.340
REMARK INTER:                  -4.064
REMARK INTRA:                  -1.276
REMARK UNBOUND:                -1.273
REMARK SMILES CCCCCCCCCCC(=O)[O-]
REMARK SMILES IDX 7 1 8 2 9 3 10 4 11 5 12 6 13 7 6 8 5 9 4 10 3 11 2 12 1 13
REMARK H PARENT
REMARK Flexibility Score: inf
ROOT
ATOM      1  C   UNL     1      11.630  40.591 151.895  1.00  0.00     0.000 C 
ENDROOT
BRANCH   1   2
ATOM      2  C   UNL     1      10.212  40.040 152.081  1.00  0.00     0.000 C 
BRANCH   2   3
ATOM      3  C   UNL     1       9.562  40.609 153.348  1.00  0.00     0.006 C 
BRANCH   3   4
ATOM      4  C   UNL     1      10.430  41.710 153.965  1.00  0.00     0.053 C 
BRANCH   4   5
ATOM      5  C   UNL     1       9.766  42.285 155.174  1.00  0.00     0.041 C 
ATOM      6  O   UNL     1      10.357  42.279 156.286  1.00  0.00    -0.550 OA
ATOM      7  O   UNL     1       8.512  42.875 155.065  1.00  0.00    -0.550 OA
ENDBRANCH   4   5
ENDBRANCH   3   4
ENDBRANCH   2   3
ENDBRANCH   1   2
BRANCH   1   8
ATOM      8  C   UNL     1      12.000  40.671 150.409  1.00  0.00     0.000 C 
BRANCH   8   9
ATOM      9  C   UNL     1      12.249  42.122 149.981  1.00  0.00    -0.000 C 
BRANCH   9  10
ATOM     10  C   UNL     1      12.371  43.043 151.201  1.00  0.00    -0.000 C 
BRANCH  10  11
ATOM     11  C   UNL     1      11.342  44.182 151.135  1.00  0.00    -0.000 C 
BRANCH  11  12
ATOM     12  C   UNL     1      10.018  43.746 150.491  1.00  0.00    -0.003 C 
ATOM     13  C   UNL     1       8.835  43.832 151.454  1.00  0.00     0.004 C 
ENDBRANCH  11  12
ENDBRANCH  10  11
ENDBRANCH   9  10
ENDBRANCH   8   9
ENDBRANCH   1   8
TORSDOF 9
ENDMDL
MODEL 9
REMARK VINA RESULT:    -2.273     13.790     15.407
REMARK INTER + INTRA:          -4.742
REMARK INTER:                  -3.558
REMARK INTRA:                  -1.184
REMARK UNBOUND:                -1.273
REMARK SMILES CCCCCCCCCCC(=O)[O-]
REMARK SMILES IDX 7 1 8 2 9 3 10 4 11 5 12 6 13 7 6 8 5 9 4 10 3 11 2 12 1 13
REMARK H PARENT
REMARK Flexibility Score: inf
ROOT
ATOM      1  C   UNL     1       8.120  36.996 140.579  1.00  0.00     0.000 C 
ENDROOT
BRANCH   1   2
ATOM      2  C   UNL     1       7.347  36.089 139.616  1.00  0.00     0.000 C 
BRANCH   2   3
ATOM      3  C   UNL     1       7.115  36.785 138.269  1.00  0.00     0.006 C 
BRANCH   3   4
ATOM      4  C   UNL     1       7.474  38.272 138.350  1.00  0.00     0.053 C 
BRANCH   4   5
ATOM      5  C   UNL     1       6.395  39.105 137.736  1.00  0.00     0.041 C 
ATOM      6  O   UNL     1       5.622  38.608 136.875  1.00  0.00    -0.550 OA
ATOM      7  O   UNL     1       6.209  40.419 138.150  1.00  0.00    -0.550 OA
ENDBRANCH   4   5
ENDBRANCH   3   4
ENDBRANCH   2   3
ENDBRANCH   1   2
BRANCH   1   8
ATOM      8  C   UNL     1       9.239  36.222 141.286  1.00  0.00     0.000 C 
BRANCH   8   9
ATOM      9  C   UNL     1       9.557  34.917 140.549  1.00  0.00    -0.000 C 
BRANCH   9  10
ATOM     10  C   UNL     1      10.963  34.956 139.939  1.00  0.00    -0.000 C 
BRANCH  10  11
ATOM     11  C   UNL     1      10.980  35.790 138.649  1.00  0.00    -0.000 C 
BRANCH  11  12
ATOM     12  C   UNL     1      11.900  37.016 138.749  1.00  0.00    -0.003 C 
ATOM     13  C   UNL     1      11.129  38.336 138.749  1.00  0.00     0.004 C 
ENDBRANCH  11  12
ENDBRANCH  10  11
ENDBRANCH   9  10
ENDBRANCH   8   9
ENDBRANCH   1   8
TORSDOF 9
ENDMDL
