MODEL 1
REMARK VINA RESULT:    -3.509      0.000      0.000
REMARK INTER + INTRA:          -3.942
REMARK INTER:                  -3.920
REMARK INTRA:                  -0.022
REMARK UNBOUND:                -0.022
REMARK SMILES CC(C)CC=O
REMARK SMILES IDX 4 1 2 2 1 3 3 4 5 5 6 6
REMARK H PARENT
REMARK Flexibility Score: inf
ROOT
ATOM      1  C   UNL     1      24.364  57.134  -8.664  1.00  0.00     0.075 C 
ENDROOT
BRANCH   1   2
ATOM      2  C   UNL     1      24.354  55.599  -8.533  1.00  0.00    -0.010 C 
ATOM      3  C   UNL     1      25.664  55.079  -7.922  1.00  0.00     0.008 C 
ATOM      4  C   UNL     1      23.163  55.148  -7.680  1.00  0.00     0.008 C 
ENDBRANCH   1   2
BRANCH   1   5
ATOM      5  C   UNL     1      25.733  57.651  -9.002  1.00  0.00     0.224 C 
ATOM      6  O   UNL     1      25.895  58.824  -9.301  1.00  0.00    -0.303 OA
ENDBRANCH   1   5
TORSDOF 2
ENDMDL
MODEL 2
REMARK VINA RESULT:    -3.264      2.450      3.324
REMARK INTER + INTRA:          -3.668
REMARK INTER:                  -3.631
REMARK INTRA:                  -0.037
REMARK UNBOUND:                -0.022
REMARK SMILES CC(C)CC=O
REMARK SMILES IDX 4 1 2 2 1 3 3 4 5 5 6 6
REMARK H PARENT
REMARK Flexibility Score: inf
ROOT
ATOM      1  C   UNL     1      23.641  56.243  -8.678  1.00  0.00     0.075 C 
ENDROOT
BRANCH   1   2
ATOM      2  C   UNL     1      25.142  56.407  -8.984  1.00  0.00    -0.010 C 
ATOM      3  C   UNL     1      25.558  57.885  -8.977  1.00  0.00     0.008 C 
ATOM      4  C   UNL     1      25.978  55.621  -7.967  1.00  0.00     0.008 C 
ENDBRANCH   1   2
BRANCH   1   5
ATOM      5  C   UNL     1      23.410  55.321  -7.515  1.00  0.00     0.224 C 
ATOM      6  O   UNL     1      22.484  54.527  -7.530  1.00  0.00    -0.303 OA
ENDBRANCH   1   5
TORSDOF 2
ENDMDL
MODEL 3
REMARK VINA RESULT:    -3.129     15.451     16.801
REMARK INTER + INTRA:          -3.518
REMARK INTER:                  -3.461
REMARK INTRA:                  -0.057
REMARK UNBOUND:                -0.022
REMARK SMILES CC(C)CC=O
REMARK SMILES IDX 4 1 2 2 1 3 3 4 5 5 6 6
REMARK H PARENT
REMARK Flexibility Score: inf
ROOT
ATOM      1  C   UNL     1      19.889  43.851   1.483  1.00  0.00     0.075 C 
ENDROOT
BRANCH   1   2
ATOM      2  C   UNL     1      18.972  44.076   0.265  1.00  0.00    -0.010 C 
ATOM      3  C   UNL     1      17.489  44.020   0.661  1.00  0.00     0.008 C 
ATOM      4  C   UNL     1      19.288  45.424  -0.394  1.00  0.00     0.008 C 
ENDBRANCH   1   2
BRANCH   1   5
ATOM      5  C   UNL     1      20.955  42.834   1.191  1.00  0.00     0.224 C 
ATOM      6  O   UNL     1      21.049  42.337   0.080  1.00  0.00    -0.303 OA
ENDBRANCH   1   5
TORSDOF 2
ENDMDL
MODEL 4
REMARK VINA RESULT:    -2.942     16.205     17.432
REMARK INTER + INTRA:          -3.308
REMARK INTER:                  -3.238
REMARK INTRA:                  -0.070
REMARK UNBOUND:                -0.022
REMARK SMILES CC(C)CC=O
REMARK SMILES IDX 4 1 2 2 1 3 3 4 5 5 6 6
REMARK H PARENT
REMARK Flexibility Score: inf
ROOT
ATOM      1  C   UNL     1      18.173  42.762   1.026  1.00  0.00     0.075 C 
ENDROOT
BRANCH   1   2
ATOM      2  C   UNL     1      19.354  43.746   1.135  1.00  0.00    -0.010 C 
ATOM      3  C   UNL     1      20.702  43.011   1.108  1.00  0.00     0.008 C 
ATOM      4  C   UNL     1      19.294  44.773  -0.001  1.00  0.00     0.008 C 
ENDBRANCH   1   2
BRANCH   1   5
ATOM      5  C   UNL     1      17.725  42.590  -0.397  1.00  0.00     0.224 C 
ATOM      6  O   UNL     1      18.039  41.593  -1.028  1.00  0.00    -0.303 OA
ENDBRANCH   1   5
TORSDOF 2
ENDMDL
MODEL 5
REMARK VINA RESULT:    -2.937     17.061     17.640
REMARK INTER + INTRA:          -3.303
REMARK INTER:                  -3.233
REMARK INTRA:                  -0.070
REMARK UNBOUND:                -0.022
REMARK SMILES CC(C)CC=O
REMARK SMILES IDX 4 1 2 2 1 3 3 4 5 5 6 6
REMARK H PARENT
REMARK Flexibility Score: inf
ROOT
ATOM      1  C   UNL     1      14.686  44.155 -14.203  1.00  0.00     0.075 C 
ENDROOT
BRANCH   1   2
ATOM      2  C   UNL     1      14.268  42.960 -13.325  1.00  0.00    -0.010 C 
ATOM      3  C   UNL     1      13.875  41.745 -14.179  1.00  0.00     0.008 C 
ATOM      4  C   UNL     1      15.404  42.583 -12.367  1.00  0.00     0.008 C 
ENDBRANCH   1   2
BRANCH   1   5
ATOM      5  C   UNL     1      15.411  43.706 -15.439  1.00  0.00     0.224 C 
ATOM      6  O   UNL     1      16.629  43.754 -15.494  1.00  0.00    -0.303 OA
ENDBRANCH   1   5
TORSDOF 2
ENDMDL
MODEL 6
REMARK VINA RESULT:    -2.894     15.956     17.325
REMARK INTER + INTRA:          -3.255
REMARK INTER:                  -3.233
REMARK INTRA:                  -0.022
REMARK UNBOUND:                -0.022
REMARK SMILES CC(C)CC=O
REMARK SMILES IDX 4 1 2 2 1 3 3 4 5 5 6 6
REMARK H PARENT
REMARK Flexibility Score: inf
ROOT
ATOM      1  C   UNL     1      18.123  43.842   1.678  1.00  0.00     0.075 C 
ENDROOT
BRANCH   1   2
ATOM      2  C   UNL     1      19.093  43.705   0.488  1.00  0.00    -0.010 C 
ATOM      3  C   UNL     1      19.335  45.057  -0.198  1.00  0.00     0.008 C 
ATOM      4  C   UNL     1      20.425  43.107   0.956  1.00  0.00     0.008 C 
ENDBRANCH   1   2
BRANCH   1   5
ATOM      5  C   UNL     1      16.693  43.898   1.222  1.00  0.00     0.224 C 
ATOM      6  O   UNL     1      15.888  44.613   1.798  1.00  0.00    -0.303 OA
ENDBRANCH   1   5
TORSDOF 2
ENDMDL
MODEL 7
REMARK VINA RESULT:    -2.844     17.522     18.161
REMARK INTER + INTRA:          -3.198
REMARK INTER:                  -3.149
REMARK INTRA:                  -0.050
REMARK UNBOUND:                -0.022
REMARK SMILES CC(C)CC=O
REMARK SMILES IDX 4 1 2 2 1 3 3 4 5 5 6 6
REMARK H PARENT
REMARK Flexibility Score: inf
ROOT
ATOM      1  C   UNL     1      15.891  42.440 -13.606  1.00  0.00     0.075 C 
ENDROOT
BRANCH   1   2
ATOM      2  C   UNL     1      15.117  43.375 -14.556  1.00  0.00    -0.010 C 
ATOM      3  C   UNL     1      14.361  44.463 -13.780  1.00  0.00     0.008 C 
ATOM      4  C   UNL     1      16.077  44.020 -15.562  1.00  0.00     0.008 C 
ENDBRANCH   1   2
BRANCH   1   5
ATOM      5  C   UNL     1      15.212  41.107 -13.468  1.00  0.00     0.224 C 
ATOM      6  O   UNL     1      14.082  40.941 -13.900  1.00  0.00    -0.303 OA
ENDBRANCH   1   5
TORSDOF 2
ENDMDL
MODEL 8
REMARK VINA RESULT:    -2.804     15.081     16.164
REMARK INTER + INTRA:          -3.154
REMARK INTER:                  -3.143
REMARK INTRA:                  -0.010
REMARK UNBOUND:                -0.022
REMARK SMILES CC(C)CC=O
REMARK SMILES IDX 4 1 2 2 1 3 3 4 5 5 6 6
REMARK H PARENT
REMARK Flexibility Score: inf
ROOT
ATOM      1  C   UNL     1      30.230  45.373   1.135  1.00  0.00     0.075 C 
ENDROOT
BRANCH   1   2
ATOM      2  C   UNL     1      31.769  45.345   1.077  1.00  0.00    -0.010 C 
ATOM      3  C   UNL     1      32.390  46.102   2.260  1.00  0.00     0.008 C 
ATOM      4  C   UNL     1      32.272  43.897   1.059  1.00  0.00     0.008 C 
ENDBRANCH   1   2
BRANCH   1   5
ATOM      5  C   UNL     1      29.619  45.008  -0.187  1.00  0.00     0.224 C 
ATOM      6  O   UNL     1      28.406  44.986  -0.324  1.00  0.00    -0.303 OA
ENDBRANCH   1   5
TORSDOF 2
ENDMDL
MODEL 9
REMARK VINA RESULT:    -2.700      7.001      7.954
REMARK INTER + INTRA:          -3.038
REMARK INTER:                  -3.009
REMARK INTRA:                  -0.029
REMARK UNBOUND:                -0.022
REMARK SMILES CC(C)CC=O
REMARK SMILES IDX 4 1 2 2 1 3 3 4 5 5 6 6
REMARK H PARENT
REMARK Flexibility Score: inf
ROOT
ATOM      1  C   UNL     1      30.733  58.694 -13.081  1.00  0.00     0.075 C 
ENDROOT
BRANCH   1   2
ATOM      2  C   UNL     1      31.569  57.401 -13.018  1.00  0.00    -0.010 C 
ATOM      3  C   UNL     1      30.746  56.177 -13.444  1.00  0.00     0.008 C 
ATOM      4  C   UNL     1      32.813  57.531 -13.905  1.00  0.00     0.008 C 
ENDBRANCH   1   2
BRANCH   1   5
ATOM      5  C   UNL     1      30.386  59.195 -11.708  1.00  0.00     0.224 C 
ATOM      6  O   UNL     1      29.271  59.011 -11.246  1.00  0.00    -0.303 OA
ENDBRANCH   1   5
TORSDOF 2
ENDMDL
