MODEL 1
REMARK VINA RESULT:    -3.359      0.000      0.000
REMARK INTER + INTRA:          -8.609
REMARK INTER:                  -6.108
REMARK INTRA:                  -2.501
REMARK UNBOUND:                -2.501
REMARK SMILES CCCCCCCCCCCCCCCCC
REMARK SMILES IDX 9 1 8 2 7 3 6 4 5 5 4 6 3 7 2 8 1 9 10 10 11 11 12 12 13 13
REMARK SMILES IDX 14 14 15 15 16 16 17 17
REMARK H PARENT
REMARK Flexibility Score: inf
ROOT
ATOM      1  C   UNL     1      53.857   4.873 -49.748  1.00  0.00    -0.000 C 
ENDROOT
BRANCH   1   2
ATOM      2  C   UNL     1      55.093   5.468 -50.443  1.00  0.00    -0.000 C 
BRANCH   2   3
ATOM      3  C   UNL     1      56.059   6.146 -49.456  1.00  0.00    -0.000 C 
BRANCH   3   4
ATOM      4  C   UNL     1      55.871   5.645 -48.013  1.00  0.00    -0.000 C 
BRANCH   4   5
ATOM      5  C   UNL     1      55.957   6.758 -46.951  1.00  0.00    -0.000 C 
BRANCH   5   6
ATOM      6  C   UNL     1      54.965   6.542 -45.794  1.00  0.00    -0.000 C 
BRANCH   6   7
ATOM      7  C   UNL     1      54.431   7.864 -45.220  1.00  0.00    -0.000 C 
BRANCH   7   8
ATOM      8  C   UNL     1      55.536   8.732 -44.601  1.00  0.00    -0.003 C 
ATOM      9  C   UNL     1      55.938   8.212 -43.224  1.00  0.00     0.004 C 
ENDBRANCH   7   8
ENDBRANCH   6   7
ENDBRANCH   5   6
ENDBRANCH   4   5
ENDBRANCH   3   4
ENDBRANCH   2   3
ENDBRANCH   1   2
BRANCH   1  10
ATOM     10  C   UNL     1      52.606   5.778 -49.824  1.00  0.00    -0.000 C 
BRANCH  10  11
ATOM     11  C   UNL     1      52.094   6.258 -48.451  1.00  0.00    -0.000 C 
BRANCH  11  12
ATOM     12  C   UNL     1      52.097   7.788 -48.239  1.00  0.00    -0.000 C 
BRANCH  12  13
ATOM     13  C   UNL     1      53.393   8.506 -48.654  1.00  0.00    -0.000 C 
BRANCH  13  14
ATOM     14  C   UNL     1      53.213   9.396 -49.895  1.00  0.00    -0.000 C 
BRANCH  14  15
ATOM     15  C   UNL     1      54.258   9.113 -50.989  1.00  0.00    -0.000 C 
BRANCH  15  16
ATOM     16  C   UNL     1      53.699   9.087 -52.423  1.00  0.00    -0.003 C 
ATOM     17  C   UNL     1      53.755   7.700 -53.063  1.00  0.00     0.004 C 
ENDBRANCH  15  16
ENDBRANCH  14  15
ENDBRANCH  13  14
ENDBRANCH  12  13
ENDBRANCH  11  12
ENDBRANCH  10  11
ENDBRANCH   1  10
TORSDOF 14
ENDMDL
MODEL 2
REMARK VINA RESULT:    -3.131     10.769     13.053
REMARK INTER + INTRA:          -8.194
REMARK INTER:                  -5.781
REMARK INTRA:                  -2.413
REMARK UNBOUND:                -2.501
REMARK SMILES CCCCCCCCCCCCCCCCC
REMARK SMILES IDX 9 1 8 2 7 3 6 4 5 5 4 6 3 7 2 8 1 9 10 10 11 11 12 12 13 13
REMARK SMILES IDX 14 14 15 15 16 16 17 17
REMARK H PARENT
REMARK Flexibility Score: inf
ROOT
ATOM      1  C   UNL     1      60.272  -2.435 -47.286  1.00  0.00    -0.000 C 
ENDROOT
BRANCH   1   2
ATOM      2  C   UNL     1      59.581  -2.794 -45.960  1.00  0.00    -0.000 C 
BRANCH   2   3
ATOM      3  C   UNL     1      58.292  -3.607 -46.165  1.00  0.00    -0.000 C 
BRANCH   3   4
ATOM      4  C   UNL     1      58.455  -4.709 -47.226  1.00  0.00    -0.000 C 
BRANCH   4   5
ATOM      5  C   UNL     1      58.276  -6.137 -46.675  1.00  0.00    -0.000 C 
BRANCH   5   6
ATOM      6  C   UNL     1      59.389  -6.527 -45.686  1.00  0.00    -0.000 C 
BRANCH   6   7
ATOM      7  C   UNL     1      60.788  -6.480 -46.321  1.00  0.00    -0.000 C 
BRANCH   7   8
ATOM      8  C   UNL     1      61.901  -6.232 -45.292  1.00  0.00    -0.003 C 
ATOM      9  C   UNL     1      61.692  -7.081 -44.041  1.00  0.00     0.004 C 
ENDBRANCH   7   8
ENDBRANCH   6   7
ENDBRANCH   5   6
ENDBRANCH   4   5
ENDBRANCH   3   4
ENDBRANCH   2   3
ENDBRANCH   1   2
BRANCH   1  10
ATOM     10  C   UNL     1      61.601  -3.189 -47.517  1.00  0.00    -0.000 C 
BRANCH  10  11
ATOM     11  C   UNL     1      61.711  -3.856 -48.903  1.00  0.00    -0.000 C 
BRANCH  11  12
ATOM     12  C   UNL     1      61.032  -3.095 -50.062  1.00  0.00    -0.000 C 
BRANCH  12  13
ATOM     13  C   UNL     1      59.861  -3.832 -50.735  1.00  0.00    -0.000 C 
BRANCH  13  14
ATOM     14  C   UNL     1      58.731  -2.885 -51.173  1.00  0.00    -0.000 C 
BRANCH  14  15
ATOM     15  C   UNL     1      57.726  -2.593 -50.045  1.00  0.00    -0.000 C 
BRANCH  15  16
ATOM     16  C   UNL     1      57.737  -1.141 -49.532  1.00  0.00    -0.003 C 
ATOM     17  C   UNL     1      58.756  -0.259 -50.253  1.00  0.00     0.004 C 
ENDBRANCH  15  16
ENDBRANCH  14  15
ENDBRANCH  13  14
ENDBRANCH  12  13
ENDBRANCH  11  12
ENDBRANCH  10  11
ENDBRANCH   1  10
TORSDOF 14
ENDMDL
MODEL 3
REMARK VINA RESULT:    -3.115     10.970     13.439
REMARK INTER + INTRA:          -8.165
REMARK INTER:                  -6.006
REMARK INTRA:                  -2.159
REMARK UNBOUND:                -2.501
REMARK SMILES CCCCCCCCCCCCCCCCC
REMARK SMILES IDX 9 1 8 2 7 3 6 4 5 5 4 6 3 7 2 8 1 9 10 10 11 11 12 12 13 13
REMARK SMILES IDX 14 14 15 15 16 16 17 17
REMARK H PARENT
REMARK Flexibility Score: inf
ROOT
ATOM      1  C   UNL     1      60.573  -4.881 -47.745  1.00  0.00    -0.000 C 
ENDROOT
BRANCH   1   2
ATOM      2  C   UNL     1      60.998  -5.898 -46.672  1.00  0.00    -0.000 C 
BRANCH   2   3
ATOM      3  C   UNL     1      59.876  -6.204 -45.666  1.00  0.00    -0.000 C 
BRANCH   3   4
ATOM      4  C   UNL     1      59.151  -4.931 -45.191  1.00  0.00    -0.000 C 
BRANCH   4   5
ATOM      5  C   UNL     1      57.617  -5.008 -45.307  1.00  0.00    -0.000 C 
BRANCH   5   6
ATOM      6  C   UNL     1      57.160  -5.608 -46.649  1.00  0.00    -0.000 C 
BRANCH   6   7
ATOM      7  C   UNL     1      55.652  -5.903 -46.681  1.00  0.00    -0.000 C 
BRANCH   7   8
ATOM      8  C   UNL     1      55.341  -7.384 -46.943  1.00  0.00    -0.003 C 
ATOM      9  C   UNL     1      56.555  -8.107 -47.519  1.00  0.00     0.004 C 
ENDBRANCH   7   8
ENDBRANCH   6   7
ENDBRANCH   5   6
ENDBRANCH   4   5
ENDBRANCH   3   4
ENDBRANCH   2   3
ENDBRANCH   1   2
BRANCH   1  10
ATOM     10  C   UNL     1      61.752  -4.088 -48.351  1.00  0.00    -0.000 C 
BRANCH  10  11
ATOM     11  C   UNL     1      61.468  -3.515 -49.754  1.00  0.00    -0.000 C 
BRANCH  11  12
ATOM     12  C   UNL     1      60.351  -4.227 -50.548  1.00  0.00    -0.000 C 
BRANCH  12  13
ATOM     13  C   UNL     1      59.303  -3.299 -51.184  1.00  0.00    -0.000 C 
BRANCH  13  14
ATOM     14  C   UNL     1      58.886  -2.143 -50.258  1.00  0.00    -0.000 C 
BRANCH  14  15
ATOM     15  C   UNL     1      57.881  -2.578 -49.177  1.00  0.00    -0.000 C 
BRANCH  15  16
ATOM     16  C   UNL     1      58.286  -2.211 -47.737  1.00  0.00    -0.003 C 
ATOM     17  C   UNL     1      59.382  -1.148 -47.675  1.00  0.00     0.004 C 
ENDBRANCH  15  16
ENDBRANCH  14  15
ENDBRANCH  13  14
ENDBRANCH  12  13
ENDBRANCH  11  12
ENDBRANCH  10  11
ENDBRANCH   1  10
TORSDOF 14
ENDMDL
MODEL 4
REMARK VINA RESULT:    -3.075     10.307     13.093
REMARK INTER + INTRA:          -8.092
REMARK INTER:                  -5.478
REMARK INTRA:                  -2.614
REMARK UNBOUND:                -2.501
REMARK SMILES CCCCCCCCCCCCCCCCC
REMARK SMILES IDX 9 1 8 2 7 3 6 4 5 5 4 6 3 7 2 8 1 9 10 10 11 11 12 12 13 13
REMARK SMILES IDX 14 14 15 15 16 16 17 17
REMARK H PARENT
REMARK Flexibility Score: inf
ROOT
ATOM      1  C   UNL     1      61.750  -4.529 -46.232  1.00  0.00    -0.000 C 
ENDROOT
BRANCH   1   2
ATOM      2  C   UNL     1      62.003  -3.621 -47.448  1.00  0.00    -0.000 C 
BRANCH   2   3
ATOM      3  C   UNL     1      62.125  -4.409 -48.763  1.00  0.00    -0.000 C 
BRANCH   3   4
ATOM      4  C   UNL     1      61.461  -3.683 -49.946  1.00  0.00    -0.000 C 
BRANCH   4   5
ATOM      5  C   UNL     1      59.987  -3.309 -49.701  1.00  0.00    -0.000 C 
BRANCH   5   6
ATOM      6  C   UNL     1      59.754  -1.788 -49.736  1.00  0.00    -0.000 C 
BRANCH   6   7
ATOM      7  C   UNL     1      58.487  -1.402 -50.517  1.00  0.00    -0.000 C 
BRANCH   7   8
ATOM      8  C   UNL     1      57.728  -2.623 -51.058  1.00  0.00    -0.003 C 
ATOM      9  C   UNL     1      56.319  -2.696 -50.477  1.00  0.00     0.004 C 
ENDBRANCH   7   8
ENDBRANCH   6   7
ENDBRANCH   5   6
ENDBRANCH   4   5
ENDBRANCH   3   4
ENDBRANCH   2   3
ENDBRANCH   1   2
BRANCH   1  10
ATOM     10  C   UNL     1      61.479  -6.003 -46.605  1.00  0.00    -0.000 C 
BRANCH  10  11
ATOM     11  C   UNL     1      60.120  -6.536 -46.108  1.00  0.00    -0.000 C 
BRANCH  11  12
ATOM     12  C   UNL     1      58.883  -6.017 -46.873  1.00  0.00    -0.000 C 
BRANCH  12  13
ATOM     13  C   UNL     1      58.070  -4.931 -46.147  1.00  0.00    -0.000 C 
BRANCH  13  14
ATOM     14  C   UNL     1      57.306  -4.010 -47.114  1.00  0.00    -0.000 C 
BRANCH  14  15
ATOM     15  C   UNL     1      57.645  -2.522 -46.914  1.00  0.00    -0.000 C 
BRANCH  15  16
ATOM     16  C   UNL     1      58.718  -2.245 -45.846  1.00  0.00    -0.003 C 
ATOM     17  C   UNL     1      59.573  -1.017 -46.160  1.00  0.00     0.004 C 
ENDBRANCH  15  16
ENDBRANCH  14  15
ENDBRANCH  13  14
ENDBRANCH  12  13
ENDBRANCH  11  12
ENDBRANCH  10  11
ENDBRANCH   1  10
TORSDOF 14
ENDMDL
MODEL 5
REMARK VINA RESULT:    -3.055      1.541      3.349
REMARK INTER + INTRA:          -8.056
REMARK INTER:                  -5.612
REMARK INTRA:                  -2.444
REMARK UNBOUND:                -2.501
REMARK SMILES CCCCCCCCCCCCCCCCC
REMARK SMILES IDX 9 1 8 2 7 3 6 4 5 5 4 6 3 7 2 8 1 9 10 10 11 11 12 12 13 13
REMARK SMILES IDX 14 14 15 15 16 16 17 17
REMARK H PARENT
REMARK Flexibility Score: inf
ROOT
ATOM      1  C   UNL     1      53.738   5.573 -46.531  1.00  0.00    -0.000 C 
ENDROOT
BRANCH   1   2
ATOM      2  C   UNL     1      54.905   6.035 -45.643  1.00  0.00    -0.000 C 
BRANCH   2   3
ATOM      3  C   UNL     1      55.810   7.065 -46.340  1.00  0.00    -0.000 C 
BRANCH   3   4
ATOM      4  C   UNL     1      55.644   8.480 -45.758  1.00  0.00    -0.000 C 
BRANCH   4   5
ATOM      5  C   UNL     1      54.991   8.507 -44.363  1.00  0.00    -0.000 C 
BRANCH   5   6
ATOM      6  C   UNL     1      56.030   8.593 -43.231  1.00  0.00    -0.000 C 
BRANCH   6   7
ATOM      7  C   UNL     1      55.552   7.914 -41.937  1.00  0.00    -0.000 C 
BRANCH   7   8
ATOM      8  C   UNL     1      54.237   7.144 -42.121  1.00  0.00    -0.003 C 
ATOM      9  C   UNL     1      53.445   7.089 -40.818  1.00  0.00     0.004 C 
ENDBRANCH   7   8
ENDBRANCH   6   7
ENDBRANCH   5   6
ENDBRANCH   4   5
ENDBRANCH   3   4
ENDBRANCH   2   3
ENDBRANCH   1   2
BRANCH   1  10
ATOM     10  C   UNL     1      52.377   6.188 -46.137  1.00  0.00    -0.000 C 
BRANCH  10  11
ATOM     11  C   UNL     1      52.067   7.526 -46.839  1.00  0.00    -0.000 C 
BRANCH  11  12
ATOM     12  C   UNL     1      52.307   7.547 -48.364  1.00  0.00    -0.000 C 
BRANCH  12  13
ATOM     13  C   UNL     1      53.239   8.662 -48.868  1.00  0.00    -0.000 C 
BRANCH  13  14
ATOM     14  C   UNL     1      54.229   8.175 -49.940  1.00  0.00    -0.000 C 
BRANCH  14  15
ATOM     15  C   UNL     1      54.339   6.641 -49.999  1.00  0.00    -0.000 C 
BRANCH  15  16
ATOM     16  C   UNL     1      55.779   6.098 -50.009  1.00  0.00    -0.003 C 
ATOM     17  C   UNL     1      55.914   4.743 -49.314  1.00  0.00     0.004 C 
ENDBRANCH  15  16
ENDBRANCH  14  15
ENDBRANCH  13  14
ENDBRANCH  12  13
ENDBRANCH  11  12
ENDBRANCH  10  11
ENDBRANCH   1  10
TORSDOF 14
ENDMDL
MODEL 6
REMARK VINA RESULT:    -3.003     10.560     13.013
REMARK INTER + INTRA:          -7.961
REMARK INTER:                  -5.521
REMARK INTRA:                  -2.440
REMARK UNBOUND:                -2.501
REMARK SMILES CCCCCCCCCCCCCCCCC
REMARK SMILES IDX 9 1 8 2 7 3 6 4 5 5 4 6 3 7 2 8 1 9 10 10 11 11 12 12 13 13
REMARK SMILES IDX 14 14 15 15 16 16 17 17
REMARK H PARENT
REMARK Flexibility Score: inf
ROOT
ATOM      1  C   UNL     1      59.162  -1.498 -50.047  1.00  0.00    -0.000 C 
ENDROOT
BRANCH   1   2
ATOM      2  C   UNL     1      58.820  -2.830 -50.736  1.00  0.00    -0.000 C 
BRANCH   2   3
ATOM      3  C   UNL     1      59.997  -3.820 -50.728  1.00  0.00    -0.000 C 
BRANCH   3   4
ATOM      4  C   UNL     1      61.275  -3.208 -50.128  1.00  0.00    -0.000 C 
BRANCH   4   5
ATOM      5  C   UNL     1      61.835  -3.989 -48.924  1.00  0.00    -0.000 C 
BRANCH   5   6
ATOM      6  C   UNL     1      60.726  -4.654 -48.090  1.00  0.00    -0.000 C 
BRANCH   6   7
ATOM      7  C   UNL     1      61.227  -5.139 -46.720  1.00  0.00    -0.000 C 
BRANCH   7   8
ATOM      8  C   UNL     1      60.638  -6.499 -46.319  1.00  0.00    -0.003 C 
ATOM      9  C   UNL     1      60.288  -6.530 -44.834  1.00  0.00     0.004 C 
ENDBRANCH   7   8
ENDBRANCH   6   7
ENDBRANCH   5   6
ENDBRANCH   4   5
ENDBRANCH   3   4
ENDBRANCH   2   3
ENDBRANCH   1   2
BRANCH   1  10
ATOM     10  C   UNL     1      58.485  -1.322 -48.669  1.00  0.00    -0.000 C 
BRANCH  10  11
ATOM     11  C   UNL     1      59.477  -1.138 -47.502  1.00  0.00    -0.000 C 
BRANCH  11  12
ATOM     12  C   UNL     1      59.141  -1.924 -46.215  1.00  0.00    -0.000 C 
BRANCH  12  13
ATOM     13  C   UNL     1      57.727  -2.528 -46.165  1.00  0.00    -0.000 C 
BRANCH  13  14
ATOM     14  C   UNL     1      57.730  -4.030 -45.833  1.00  0.00    -0.000 C 
BRANCH  14  15
ATOM     15  C   UNL     1      57.209  -4.898 -46.992  1.00  0.00    -0.000 C 
BRANCH  15  16
ATOM     16  C   UNL     1      56.944  -6.370 -46.626  1.00  0.00    -0.003 C 
ATOM     17  C   UNL     1      55.535  -6.835 -46.994  1.00  0.00     0.004 C 
ENDBRANCH  15  16
ENDBRANCH  14  15
ENDBRANCH  13  14
ENDBRANCH  12  13
ENDBRANCH  11  12
ENDBRANCH  10  11
ENDBRANCH   1  10
TORSDOF 14
ENDMDL
MODEL 7
REMARK VINA RESULT:    -2.987      1.717      2.925
REMARK INTER + INTRA:          -7.933
REMARK INTER:                  -5.422
REMARK INTRA:                  -2.511
REMARK UNBOUND:                -2.501
REMARK SMILES CCCCCCCCCCCCCCCCC
REMARK SMILES IDX 9 1 8 2 7 3 6 4 5 5 4 6 3 7 2 8 1 9 10 10 11 11 12 12 13 13
REMARK SMILES IDX 14 14 15 15 16 16 17 17
REMARK H PARENT
REMARK Flexibility Score: inf
ROOT
ATOM      1  C   UNL     1      54.843   4.694 -47.469  1.00  0.00    -0.000 C 
ENDROOT
BRANCH   1   2
ATOM      2  C   UNL     1      55.593   5.478 -46.379  1.00  0.00    -0.000 C 
BRANCH   2   3
ATOM      3  C   UNL     1      56.138   6.824 -46.885  1.00  0.00    -0.000 C 
BRANCH   3   4
ATOM      4  C   UNL     1      55.388   8.025 -46.280  1.00  0.00    -0.000 C 
BRANCH   4   5
ATOM      5  C   UNL     1      55.650   8.228 -44.776  1.00  0.00    -0.000 C 
BRANCH   5   6
ATOM      6  C   UNL     1      54.353   8.202 -43.947  1.00  0.00    -0.000 C 
BRANCH   6   7
ATOM      7  C   UNL     1      54.496   7.385 -42.653  1.00  0.00    -0.000 C 
BRANCH   7   8
ATOM      8  C   UNL     1      55.608   6.330 -42.735  1.00  0.00    -0.003 C 
ATOM      9  C   UNL     1      55.027   4.921 -42.803  1.00  0.00     0.004 C 
ENDBRANCH   7   8
ENDBRANCH   6   7
ENDBRANCH   5   6
ENDBRANCH   4   5
ENDBRANCH   3   4
ENDBRANCH   2   3
ENDBRANCH   1   2
BRANCH   1  10
ATOM     10  C   UNL     1      53.380   4.364 -47.100  1.00  0.00    -0.000 C 
BRANCH  10  11
ATOM     11  C   UNL     1      52.859   5.119 -45.861  1.00  0.00    -0.000 C 
BRANCH  11  12
ATOM     12  C   UNL     1      51.645   6.041 -46.107  1.00  0.00    -0.000 C 
BRANCH  12  13
ATOM     13  C   UNL     1      51.986   7.471 -46.560  1.00  0.00    -0.000 C 
BRANCH  13  14
ATOM     14  C   UNL     1      51.750   7.695 -48.064  1.00  0.00    -0.000 C 
BRANCH  14  15
ATOM     15  C   UNL     1      53.059   7.781 -48.867  1.00  0.00    -0.000 C 
BRANCH  15  16
ATOM     16  C   UNL     1      53.301   9.134 -49.562  1.00  0.00    -0.003 C 
ATOM     17  C   UNL     1      54.137   9.012 -50.836  1.00  0.00     0.004 C 
ENDBRANCH  15  16
ENDBRANCH  14  15
ENDBRANCH  13  14
ENDBRANCH  12  13
ENDBRANCH  11  12
ENDBRANCH  10  11
ENDBRANCH   1  10
TORSDOF 14
ENDMDL
MODEL 8
REMARK VINA RESULT:    -2.953     11.322     14.180
REMARK INTER + INTRA:          -7.871
REMARK INTER:                  -5.748
REMARK INTRA:                  -2.122
REMARK UNBOUND:                -2.501
REMARK SMILES CCCCCCCCCCCCCCCCC
REMARK SMILES IDX 9 1 8 2 7 3 6 4 5 5 4 6 3 7 2 8 1 9 10 10 11 11 12 12 13 13
REMARK SMILES IDX 14 14 15 15 16 16 17 17
REMARK H PARENT
REMARK Flexibility Score: inf
ROOT
ATOM      1  C   UNL     1      61.978  -3.684 -44.975  1.00  0.00    -0.000 C 
ENDROOT
BRANCH   1   2
ATOM      2  C   UNL     1      60.788  -2.987 -45.655  1.00  0.00    -0.000 C 
BRANCH   2   3
ATOM      3  C   UNL     1      60.940  -2.910 -47.184  1.00  0.00    -0.000 C 
BRANCH   3   4
ATOM      4  C   UNL     1      62.122  -3.752 -47.698  1.00  0.00    -0.000 C 
BRANCH   4   5
ATOM      5  C   UNL     1      61.960  -4.227 -49.155  1.00  0.00    -0.000 C 
BRANCH   5   6
ATOM      6  C   UNL     1      61.119  -3.254 -50.000  1.00  0.00    -0.000 C 
BRANCH   6   7
ATOM      7  C   UNL     1      59.975  -3.957 -50.747  1.00  0.00    -0.000 C 
BRANCH   7   8
ATOM      8  C   UNL     1      58.822  -3.006 -51.099  1.00  0.00    -0.003 C 
ATOM      9  C   UNL     1      58.441  -2.138 -49.904  1.00  0.00     0.004 C 
ENDBRANCH   7   8
ENDBRANCH   6   7
ENDBRANCH   5   6
ENDBRANCH   4   5
ENDBRANCH   3   4
ENDBRANCH   2   3
ENDBRANCH   1   2
BRANCH   1  10
ATOM     10  C   UNL     1      61.587  -4.960 -44.196  1.00  0.00    -0.000 C 
BRANCH  10  11
ATOM     11  C   UNL     1      61.891  -6.272 -44.948  1.00  0.00    -0.000 C 
BRANCH  11  12
ATOM     12  C   UNL     1      60.797  -6.740 -45.933  1.00  0.00    -0.000 C 
BRANCH  12  13
ATOM     13  C   UNL     1      59.356  -6.378 -45.535  1.00  0.00    -0.000 C 
BRANCH  13  14
ATOM     14  C   UNL     1      58.409  -6.276 -46.744  1.00  0.00    -0.000 C 
BRANCH  14  15
ATOM     15  C   UNL     1      57.852  -4.856 -46.947  1.00  0.00    -0.000 C 
BRANCH  15  16
ATOM     16  C   UNL     1      56.344  -4.711 -46.672  1.00  0.00    -0.003 C 
ATOM     17  C   UNL     1      55.698  -6.004 -46.175  1.00  0.00     0.004 C 
ENDBRANCH  15  16
ENDBRANCH  14  15
ENDBRANCH  13  14
ENDBRANCH  12  13
ENDBRANCH  11  12
ENDBRANCH  10  11
ENDBRANCH   1  10
TORSDOF 14
ENDMDL
MODEL 9
REMARK VINA RESULT:    -2.948     10.891     13.532
REMARK INTER + INTRA:          -7.862
REMARK INTER:                  -5.492
REMARK INTRA:                  -2.369
REMARK UNBOUND:                -2.501
REMARK SMILES CCCCCCCCCCCCCCCCC
REMARK SMILES IDX 9 1 8 2 7 3 6 4 5 5 4 6 3 7 2 8 1 9 10 10 11 11 12 12 13 13
REMARK SMILES IDX 14 14 15 15 16 16 17 17
REMARK H PARENT
REMARK Flexibility Score: inf
ROOT
ATOM      1  C   UNL     1      43.978   0.310 -47.600  1.00  0.00    -0.000 C 
ENDROOT
BRANCH   1   2
ATOM      2  C   UNL     1      43.748   1.716 -48.179  1.00  0.00    -0.000 C 
BRANCH   2   3
ATOM      3  C   UNL     1      42.466   2.376 -47.644  1.00  0.00    -0.000 C 
BRANCH   3   4
ATOM      4  C   UNL     1      42.753   3.388 -46.520  1.00  0.00    -0.000 C 
BRANCH   4   5
ATOM      5  C   UNL     1      42.122   3.011 -45.166  1.00  0.00    -0.000 C 
BRANCH   5   6
ATOM      6  C   UNL     1      43.095   2.230 -44.264  1.00  0.00    -0.000 C 
BRANCH   6   7
ATOM      7  C   UNL     1      44.519   2.808 -44.291  1.00  0.00    -0.000 C 
BRANCH   7   8
ATOM      8  C   UNL     1      45.591   1.735 -44.528  1.00  0.00    -0.003 C 
ATOM      9  C   UNL     1      46.504   2.118 -45.689  1.00  0.00     0.004 C 
ENDBRANCH   7   8
ENDBRANCH   6   7
ENDBRANCH   5   6
ENDBRANCH   4   5
ENDBRANCH   3   4
ENDBRANCH   2   3
ENDBRANCH   1   2
BRANCH   1  10
ATOM     10  C   UNL     1      42.708  -0.326 -46.993  1.00  0.00    -0.000 C 
BRANCH  10  11
ATOM     11  C   UNL     1      42.138  -1.500 -47.816  1.00  0.00    -0.000 C 
BRANCH  11  12
ATOM     12  C   UNL     1      42.968  -2.801 -47.779  1.00  0.00    -0.000 C 
BRANCH  12  13
ATOM     13  C   UNL     1      43.335  -3.306 -46.373  1.00  0.00    -0.000 C 
BRANCH  13  14
ATOM     14  C   UNL     1      44.577  -4.215 -46.368  1.00  0.00    -0.000 C 
BRANCH  14  15
ATOM     15  C   UNL     1      45.741  -3.630 -45.551  1.00  0.00    -0.000 C 
BRANCH  15  16
ATOM     16  C   UNL     1      46.127  -2.186 -45.920  1.00  0.00    -0.003 C 
ATOM     17  C   UNL     1      46.862  -2.085 -47.256  1.00  0.00     0.004 C 
ENDBRANCH  15  16
ENDBRANCH  14  15
ENDBRANCH  13  14
ENDBRANCH  12  13
ENDBRANCH  11  12
ENDBRANCH  10  11
ENDBRANCH   1  10
TORSDOF 14
ENDMDL
