MODEL 1
REMARK VINA RESULT:    -2.551      0.000      0.000
REMARK INTER + INTRA:          -2.988
REMARK INTER:                  -2.700
REMARK INTRA:                  -0.287
REMARK UNBOUND:                -0.287
REMARK SMILES CC1=CC[C@@]23[C@@H]([C@@H](C(C)C)CC[C@@H]2C)[C@H]13
REMARK SMILES IDX 14 1 13 2 12 3 11 4 7 5 6 6 5 7 15 8 2 9 3 10 4 11 1 12 8 13
REMARK SMILES IDX 9 14 10 15
REMARK H PARENT
REMARK Flexibility Score: inf
ROOT
ATOM      1  C   UNL     1     168.975 175.745 139.378  1.00  0.00     0.008 C 
ATOM      2  C   UNL     1     168.095 174.997 138.365  1.00  0.00    -0.007 C 
ATOM      3  C   UNL     1     168.773 173.675 137.956  1.00  0.00     0.004 C 
ATOM      4  C   UNL     1     167.825 172.796 137.146  1.00  0.00     0.004 C 
ATOM      5  C   UNL     1     166.662 172.304 138.031  1.00  0.00    -0.004 C 
ATOM      6  C   UNL     1     165.900 173.491 138.675  1.00  0.00     0.007 C 
ATOM      7  C   UNL     1     166.642 174.819 138.884  1.00  0.00    -0.013 C 
ATOM      8  C   UNL     1     166.422 173.881 140.066  1.00  0.00     0.025 C 
ATOM      9  C   UNL     1     165.473 174.632 140.940  1.00  0.00    -0.073 C 
ATOM     10  C   UNL     1     165.124 175.810 140.436  1.00  0.00    -0.027 C 
ATOM     11  C   UNL     1     165.753 176.054 139.108  1.00  0.00     0.035 C 
ATOM     12  C   UNL     1     164.961 174.110 142.246  1.00  0.00     0.039 C 
ENDROOT
BRANCH   5  13
ATOM     13  C   UNL     1     165.671 171.368 137.277  1.00  0.00    -0.014 C 
ATOM     14  C   UNL     1     165.915 169.872 137.542  1.00  0.00     0.007 C 
ATOM     15  C   UNL     1     164.204 171.725 137.566  1.00  0.00     0.007 C 
ENDBRANCH   5  13
TORSDOF 1
ENDMDL
MODEL 2
REMARK VINA RESULT:    -2.532     11.992     16.066
REMARK INTER + INTRA:          -2.968
REMARK INTER:                  -2.683
REMARK INTRA:                  -0.285
REMARK UNBOUND:                -0.287
REMARK SMILES CC1=CC[C@@]23[C@@H]([C@@H](C(C)C)CC[C@@H]2C)[C@H]13
REMARK SMILES IDX 14 1 13 2 12 3 11 4 7 5 6 6 5 7 15 8 2 9 3 10 4 11 1 12 8 13
REMARK SMILES IDX 9 14 10 15
REMARK H PARENT
REMARK Flexibility Score: inf
ROOT
ATOM      1  C   UNL     1     162.981 156.251 139.389  1.00  0.00     0.008 C 
ATOM      2  C   UNL     1     163.882 157.000 138.396  1.00  0.00    -0.007 C 
ATOM      3  C   UNL     1     163.236 158.346 138.014  1.00  0.00     0.004 C 
ATOM      4  C   UNL     1     164.208 159.221 137.228  1.00  0.00     0.004 C 
ATOM      5  C   UNL     1     165.377 159.667 138.129  1.00  0.00    -0.004 C 
ATOM      6  C   UNL     1     166.110 158.449 138.750  1.00  0.00     0.007 C 
ATOM      7  C   UNL     1     165.337 157.134 138.926  1.00  0.00    -0.013 C 
ATOM      8  C   UNL     1     165.572 158.041 140.130  1.00  0.00     0.025 C 
ATOM      9  C   UNL     1     166.500 157.249 140.991  1.00  0.00    -0.073 C 
ATOM     10  C   UNL     1     166.824 156.075 140.462  1.00  0.00    -0.027 C 
ATOM     11  C   UNL     1     166.197 155.875 139.126  1.00  0.00     0.035 C 
ATOM     12  C   UNL     1     167.017 157.730 142.310  1.00  0.00     0.039 C 
ENDROOT
BRANCH   5  13
ATOM     13  C   UNL     1     166.393 160.597 137.399  1.00  0.00    -0.014 C 
ATOM     14  C   UNL     1     166.131 162.095 137.630  1.00  0.00     0.007 C 
ATOM     15  C   UNL     1     167.849 160.254 137.753  1.00  0.00     0.007 C 
ENDBRANCH   5  13
TORSDOF 1
ENDMDL
MODEL 3
REMARK VINA RESULT:    -2.523      5.777      8.706
REMARK INTER + INTRA:          -2.958
REMARK INTER:                  -2.678
REMARK INTRA:                  -0.280
REMARK UNBOUND:                -0.287
REMARK SMILES CC1=CC[C@@]23[C@@H]([C@@H](C(C)C)CC[C@@H]2C)[C@H]13
REMARK SMILES IDX 14 1 13 2 12 3 11 4 7 5 6 6 5 7 15 8 2 9 3 10 4 11 1 12 8 13
REMARK SMILES IDX 9 14 10 15
REMARK H PARENT
REMARK Flexibility Score: inf
ROOT
ATOM      1  C   UNL     1     174.626 175.429 136.995  1.00  0.00     0.008 C 
ATOM      2  C   UNL     1     175.216 174.930 138.323  1.00  0.00    -0.007 C 
ATOM      3  C   UNL     1     175.495 176.125 139.255  1.00  0.00     0.004 C 
ATOM      4  C   UNL     1     175.848 175.656 140.663  1.00  0.00     0.004 C 
ATOM      5  C   UNL     1     174.623 175.000 141.333  1.00  0.00    -0.004 C 
ATOM      6  C   UNL     1     174.073 173.826 140.482  1.00  0.00     0.007 C 
ATOM      7  C   UNL     1     174.332 173.827 138.968  1.00  0.00    -0.013 C 
ATOM      8  C   UNL     1     172.964 174.238 139.502  1.00  0.00     0.025 C 
ATOM      9  C   UNL     1     172.060 173.147 139.033  1.00  0.00    -0.073 C 
ATOM     10  C   UNL     1     172.697 172.204 138.349  1.00  0.00    -0.027 C 
ATOM     11  C   UNL     1     174.159 172.473 138.260  1.00  0.00     0.035 C 
ATOM     12  C   UNL     1     170.589 173.114 139.311  1.00  0.00     0.039 C 
ENDROOT
BRANCH   5  13
ATOM     13  C   UNL     1     174.902 174.529 142.792  1.00  0.00    -0.014 C 
ATOM     14  C   UNL     1     174.627 175.610 143.851  1.00  0.00     0.007 C 
ATOM     15  C   UNL     1     174.139 173.241 143.139  1.00  0.00     0.007 C 
ENDBRANCH   5  13
TORSDOF 1
ENDMDL
MODEL 4
REMARK VINA RESULT:    -2.506     14.412     15.707
REMARK INTER + INTRA:          -2.940
REMARK INTER:                  -2.690
REMARK INTRA:                  -0.250
REMARK UNBOUND:                -0.287
REMARK SMILES CC1=CC[C@@]23[C@@H]([C@@H](C(C)C)CC[C@@H]2C)[C@H]13
REMARK SMILES IDX 14 1 13 2 12 3 11 4 7 5 6 6 5 7 15 8 2 9 3 10 4 11 1 12 8 13
REMARK SMILES IDX 9 14 10 15
REMARK H PARENT
REMARK Flexibility Score: inf
ROOT
ATOM      1  C   UNL     1     160.294 160.963 136.959  1.00  0.00     0.008 C 
ATOM      2  C   UNL     1     160.999 159.627 137.240  1.00  0.00    -0.007 C 
ATOM      3  C   UNL     1     162.492 159.735 136.876  1.00  0.00     0.004 C 
ATOM      4  C   UNL     1     163.269 158.517 137.366  1.00  0.00     0.004 C 
ATOM      5  C   UNL     1     163.312 158.494 138.908  1.00  0.00    -0.004 C 
ATOM      6  C   UNL     1     161.885 158.519 139.514  1.00  0.00     0.007 C 
ATOM      7  C   UNL     1     160.743 159.135 138.692  1.00  0.00    -0.013 C 
ATOM      8  C   UNL     1     161.371 159.932 139.830  1.00  0.00     0.025 C 
ATOM      9  C   UNL     1     160.276 160.026 140.840  1.00  0.00    -0.073 C 
ATOM     10  C   UNL     1     159.165 159.406 140.459  1.00  0.00    -0.027 C 
ATOM     11  C   UNL     1     159.320 158.752 139.130  1.00  0.00     0.035 C 
ATOM     12  C   UNL     1     160.416 160.736 142.150  1.00  0.00     0.039 C 
ENDROOT
BRANCH   5  13
ATOM     13  C   UNL     1     164.123 157.293 139.480  1.00  0.00    -0.014 C 
ATOM     14  C   UNL     1     163.398 155.942 139.351  1.00  0.00     0.007 C 
ATOM     15  C   UNL     1     165.529 157.200 138.866  1.00  0.00     0.007 C 
ENDBRANCH   5  13
TORSDOF 1
ENDMDL
MODEL 5
REMARK VINA RESULT:    -2.493      4.839      7.130
REMARK INTER + INTRA:          -2.926
REMARK INTER:                  -2.723
REMARK INTRA:                  -0.203
REMARK UNBOUND:                -0.287
REMARK SMILES CC1=CC[C@@]23[C@@H]([C@@H](C(C)C)CC[C@@H]2C)[C@H]13
REMARK SMILES IDX 14 1 13 2 12 3 11 4 7 5 6 6 5 7 15 8 2 9 3 10 4 11 1 12 8 13
REMARK SMILES IDX 9 14 10 15
REMARK H PARENT
REMARK Flexibility Score: inf
ROOT
ATOM      1  C   UNL     1     175.667 172.872 137.609  1.00  0.00     0.008 C 
ATOM      2  C   UNL     1     174.196 173.311 137.565  1.00  0.00    -0.007 C 
ATOM      3  C   UNL     1     173.278 172.073 137.559  1.00  0.00     0.004 C 
ATOM      4  C   UNL     1     171.818 172.467 137.763  1.00  0.00     0.004 C 
ATOM      5  C   UNL     1     171.606 173.021 139.186  1.00  0.00    -0.004 C 
ATOM      6  C   UNL     1     172.546 174.220 139.473  1.00  0.00     0.007 C 
ATOM      7  C   UNL     1     173.864 174.329 138.692  1.00  0.00    -0.013 C 
ATOM      8  C   UNL     1     173.876 173.822 140.130  1.00  0.00     0.025 C 
ATOM      9  C   UNL     1     174.592 174.898 140.877  1.00  0.00    -0.073 C 
ATOM     10  C   UNL     1     174.959 175.911 140.102  1.00  0.00    -0.027 C 
ATOM     11  C   UNL     1     174.528 175.715 138.690  1.00  0.00     0.035 C 
ATOM     12  C   UNL     1     174.860 174.846 142.349  1.00  0.00     0.039 C 
ENDROOT
BRANCH   5  13
ATOM     13  C   UNL     1     170.125 173.410 139.477  1.00  0.00    -0.014 C 
ATOM     14  C   UNL     1     169.230 173.405 138.226  1.00  0.00     0.007 C 
ATOM     15  C   UNL     1     169.503 172.536 140.578  1.00  0.00     0.007 C 
ENDBRANCH   5  13
TORSDOF 1
ENDMDL
MODEL 6
REMARK VINA RESULT:    -2.457      3.256      5.580
REMARK INTER + INTRA:          -2.888
REMARK INTER:                  -2.592
REMARK INTRA:                  -0.296
REMARK UNBOUND:                -0.287
REMARK SMILES CC1=CC[C@@]23[C@@H]([C@@H](C(C)C)CC[C@@H]2C)[C@H]13
REMARK SMILES IDX 14 1 13 2 12 3 11 4 7 5 6 6 5 7 15 8 2 9 3 10 4 11 1 12 8 13
REMARK SMILES IDX 9 14 10 15
REMARK H PARENT
REMARK Flexibility Score: inf
ROOT
ATOM      1  C   UNL     1     172.060 170.968 137.060  1.00  0.00     0.008 C 
ATOM      2  C   UNL     1     171.282 172.275 137.275  1.00  0.00    -0.007 C 
ATOM      3  C   UNL     1     169.803 172.075 136.893  1.00  0.00     0.004 C 
ATOM      4  C   UNL     1     168.955 173.269 137.321  1.00  0.00     0.004 C 
ATOM      5  C   UNL     1     168.885 173.351 138.860  1.00  0.00    -0.004 C 
ATOM      6  C   UNL     1     170.300 173.425 139.489  1.00  0.00     0.007 C 
ATOM      7  C   UNL     1     171.486 172.837 138.710  1.00  0.00    -0.013 C 
ATOM      8  C   UNL     1     170.881 172.054 139.870  1.00  0.00     0.025 C 
ATOM      9  C   UNL     1     171.961 172.059 140.900  1.00  0.00    -0.073 C 
ATOM     10  C   UNL     1     173.045 172.720 140.511  1.00  0.00    -0.027 C 
ATOM     11  C   UNL     1     172.879 173.312 139.154  1.00  0.00     0.035 C 
ATOM     12  C   UNL     1     171.835 171.395 142.235  1.00  0.00     0.039 C 
ENDROOT
BRANCH   5  13
ATOM     13  C   UNL     1     168.002 174.530 139.370  1.00  0.00    -0.014 C 
ATOM     14  C   UNL     1     167.377 174.277 140.753  1.00  0.00     0.007 C 
ATOM     15  C   UNL     1     168.764 175.865 139.370  1.00  0.00     0.007 C 
ENDBRANCH   5  13
TORSDOF 1
ENDMDL
MODEL 7
REMARK VINA RESULT:    -2.398     12.399     15.151
REMARK INTER + INTRA:          -2.826
REMARK INTER:                  -2.507
REMARK INTRA:                  -0.319
REMARK UNBOUND:                -0.287
REMARK SMILES CC1=CC[C@@]23[C@@H]([C@@H](C(C)C)CC[C@@H]2C)[C@H]13
REMARK SMILES IDX 14 1 13 2 12 3 11 4 7 5 6 6 5 7 15 8 2 9 3 10 4 11 1 12 8 13
REMARK SMILES IDX 9 14 10 15
REMARK H PARENT
REMARK Flexibility Score: inf
ROOT
ATOM      1  C   UNL     1     163.640 162.028 137.130  1.00  0.00     0.008 C 
ATOM      2  C   UNL     1     163.982 160.533 137.207  1.00  0.00    -0.007 C 
ATOM      3  C   UNL     1     165.272 160.331 138.027  1.00  0.00     0.004 C 
ATOM      4  C   UNL     1     165.507 158.854 138.330  1.00  0.00     0.004 C 
ATOM      5  C   UNL     1     164.425 158.326 139.293  1.00  0.00    -0.004 C 
ATOM      6  C   UNL     1     163.001 158.552 138.723  1.00  0.00     0.007 C 
ATOM      7  C   UNL     1     162.780 159.692 137.718  1.00  0.00    -0.013 C 
ATOM      8  C   UNL     1     162.356 159.872 139.172  1.00  0.00     0.025 C 
ATOM      9  C   UNL     1     160.866 159.937 139.099  1.00  0.00    -0.073 C 
ATOM     10  C   UNL     1     160.401 159.808 137.862  1.00  0.00    -0.027 C 
ATOM     11  C   UNL     1     161.497 159.601 136.875  1.00  0.00     0.035 C 
ATOM     12  C   UNL     1     159.986 160.120 140.296  1.00  0.00     0.039 C 
ENDROOT
BRANCH   5  13
ATOM     13  C   UNL     1     164.625 156.829 139.678  1.00  0.00    -0.014 C 
ATOM     14  C   UNL     1     163.412 155.942 139.347  1.00  0.00     0.007 C 
ATOM     15  C   UNL     1     165.899 156.237 139.055  1.00  0.00     0.007 C 
ENDBRANCH   5  13
TORSDOF 1
ENDMDL
MODEL 8
REMARK VINA RESULT:    -2.390      1.921      5.092
REMARK INTER + INTRA:          -2.818
REMARK INTER:                  -2.498
REMARK INTRA:                  -0.320
REMARK UNBOUND:                -0.287
REMARK SMILES CC1=CC[C@@]23[C@@H]([C@@H](C(C)C)CC[C@@H]2C)[C@H]13
REMARK SMILES IDX 14 1 13 2 12 3 11 4 7 5 6 6 5 7 15 8 2 9 3 10 4 11 1 12 8 13
REMARK SMILES IDX 9 14 10 15
REMARK H PARENT
REMARK Flexibility Score: inf
ROOT
ATOM      1  C   UNL     1     167.912 170.091 137.128  1.00  0.00     0.008 C 
ATOM      2  C   UNL     1     167.656 171.603 137.224  1.00  0.00    -0.007 C 
ATOM      3  C   UNL     1     166.386 171.868 138.056  1.00  0.00     0.004 C 
ATOM      4  C   UNL     1     166.238 173.352 138.378  1.00  0.00     0.004 C 
ATOM      5  C   UNL     1     167.356 173.806 139.339  1.00  0.00    -0.004 C 
ATOM      6  C   UNL     1     168.761 173.506 138.756  1.00  0.00     0.007 C 
ATOM      7  C   UNL     1     168.909 172.367 137.736  1.00  0.00    -0.013 C 
ATOM      8  C   UNL     1     169.332 172.146 139.184  1.00  0.00     0.025 C 
ATOM      9  C   UNL     1     170.814 171.996 139.100  1.00  0.00    -0.073 C 
ATOM     10  C   UNL     1     171.278 172.112 137.861  1.00  0.00    -0.027 C 
ATOM     11  C   UNL     1     170.189 172.395 136.884  1.00  0.00     0.035 C 
ATOM     12  C   UNL     1     171.691 171.749 140.288  1.00  0.00     0.039 C 
ENDROOT
BRANCH   5  13
ATOM     13  C   UNL     1     167.245 175.308 139.742  1.00  0.00    -0.014 C 
ATOM     14  C   UNL     1     168.510 176.124 139.428  1.00  0.00     0.007 C 
ATOM     15  C   UNL     1     166.011 175.983 139.121  1.00  0.00     0.007 C 
ENDBRANCH   5  13
TORSDOF 1
ENDMDL
