MODEL 1
REMARK VINA RESULT:    -4.398      0.000      0.000
REMARK INTER + INTRA:          -6.212
REMARK INTER:                  -5.684
REMARK INTRA:                  -0.529
REMARK UNBOUND:                -0.529
REMARK SMILES C=CC(=O)CCCCC
REMARK SMILES IDX 6 1 7 2 8 3 9 4 5 5 3 6 4 7 2 8 1 9
REMARK H PARENT
REMARK Flexibility Score: inf
ROOT
ATOM      1  C   UNL     1       4.011  15.551  -8.064  1.00  0.00     0.008 C 
ENDROOT
BRANCH   1   2
ATOM      2  C   UNL     1       2.786  14.730  -8.496  1.00  0.00     0.000 C 
BRANCH   2   3
ATOM      3  C   UNL     1       1.846  14.411  -7.324  1.00  0.00    -0.003 C 
ATOM      4  C   UNL     1       2.144  15.250  -6.081  1.00  0.00     0.004 C 
ENDBRANCH   2   3
ENDBRANCH   1   2
BRANCH   1   5
ATOM      5  C   UNL     1       5.290  14.711  -8.140  1.00  0.00     0.080 C 
BRANCH   5   6
ATOM      6  C   UNL     1       5.486  13.936  -6.871  1.00  0.00     0.155 C 
ATOM      7  O   UNL     1       5.596  14.558  -5.778  1.00  0.00    -0.295 OA
BRANCH   6   8
ATOM      8  C   UNL     1       5.594  12.465  -6.913  1.00  0.00     0.039 C 
ATOM      9  C   UNL     1       5.325  11.760  -8.010  1.00  0.00     0.012 C 
ENDBRANCH   6   8
ENDBRANCH   5   6
ENDBRANCH   1   5
TORSDOF 5
ENDMDL
MODEL 2
REMARK VINA RESULT:    -4.339      1.193      1.720
REMARK INTER + INTRA:          -6.136
REMARK INTER:                  -5.615
REMARK INTRA:                  -0.521
REMARK UNBOUND:                -0.529
REMARK SMILES C=CC(=O)CCCCC
REMARK SMILES IDX 6 1 7 2 8 3 9 4 5 5 3 6 4 7 2 8 1 9
REMARK H PARENT
REMARK Flexibility Score: inf
ROOT
ATOM      1  C   UNL     1       3.885  14.841  -5.754  1.00  0.00     0.008 C 
ENDROOT
BRANCH   1   2
ATOM      2  C   UNL     1       2.820  15.465  -6.670  1.00  0.00     0.000 C 
BRANCH   2   3
ATOM      3  C   UNL     1       1.936  14.411  -7.351  1.00  0.00    -0.003 C 
ATOM      4  C   UNL     1       2.170  14.328  -8.861  1.00  0.00     0.004 C 
ENDBRANCH   2   3
ENDBRANCH   1   2
BRANCH   1   5
ATOM      5  C   UNL     1       5.178  14.565  -6.526  1.00  0.00     0.080 C 
BRANCH   5   6
ATOM      6  C   UNL     1       5.619  13.145  -6.325  1.00  0.00     0.155 C 
ATOM      7  O   UNL     1       6.337  12.858  -5.328  1.00  0.00    -0.295 OA
BRANCH   6   8
ATOM      8  C   UNL     1       5.251  12.110  -7.310  1.00  0.00     0.039 C 
ATOM      9  C   UNL     1       5.298  12.324  -8.623  1.00  0.00     0.012 C 
ENDBRANCH   6   8
ENDBRANCH   5   6
ENDBRANCH   1   5
TORSDOF 5
ENDMDL
MODEL 3
REMARK VINA RESULT:    -4.292      2.198      4.050
REMARK INTER + INTRA:          -6.075
REMARK INTER:                  -5.791
REMARK INTRA:                  -0.285
REMARK UNBOUND:                -0.529
REMARK SMILES C=CC(=O)CCCCC
REMARK SMILES IDX 6 1 7 2 8 3 9 4 5 5 3 6 4 7 2 8 1 9
REMARK H PARENT
REMARK Flexibility Score: inf
ROOT
ATOM      1  C   UNL     1       2.368  15.097  -6.466  1.00  0.00     0.008 C 
ENDROOT
BRANCH   1   2
ATOM      2  C   UNL     1       2.406  14.678  -7.944  1.00  0.00     0.000 C 
BRANCH   2   3
ATOM      3  C   UNL     1       3.709  15.095  -8.642  1.00  0.00    -0.003 C 
ATOM      4  C   UNL     1       4.531  13.899  -9.124  1.00  0.00     0.004 C 
ENDBRANCH   2   3
ENDBRANCH   1   2
BRANCH   1   5
ATOM      5  C   UNL     1       3.779  15.146  -5.873  1.00  0.00     0.080 C 
BRANCH   5   6
ATOM      6  C   UNL     1       4.033  16.474  -5.226  1.00  0.00     0.155 C 
ATOM      7  O   UNL     1       4.757  16.531  -4.194  1.00  0.00    -0.295 OA
BRANCH   6   8
ATOM      8  C   UNL     1       3.403  17.693  -5.770  1.00  0.00     0.039 C 
ATOM      9  C   UNL     1       3.838  18.916  -5.471  1.00  0.00     0.012 C 
ENDBRANCH   6   8
ENDBRANCH   5   6
ENDBRANCH   1   5
TORSDOF 5
ENDMDL
MODEL 4
REMARK VINA RESULT:    -4.103      0.959      3.212
REMARK INTER + INTRA:          -5.831
REMARK INTER:                  -5.240
REMARK INTRA:                  -0.591
REMARK UNBOUND:                -0.529
REMARK SMILES C=CC(=O)CCCCC
REMARK SMILES IDX 6 1 7 2 8 3 9 4 5 5 3 6 4 7 2 8 1 9
REMARK H PARENT
REMARK Flexibility Score: inf
ROOT
ATOM      1  C   UNL     1       5.599  14.184  -8.492  1.00  0.00     0.008 C 
ENDROOT
BRANCH   1   2
ATOM      2  C   UNL     1       4.798  13.036  -9.125  1.00  0.00     0.000 C 
BRANCH   2   3
ATOM      3  C   UNL     1       4.684  11.815  -8.200  1.00  0.00    -0.003 C 
ATOM      4  C   UNL     1       5.772  11.784  -7.125  1.00  0.00     0.004 C 
ENDBRANCH   2   3
ENDBRANCH   1   2
BRANCH   1   5
ATOM      5  C   UNL     1       4.680  15.347  -8.105  1.00  0.00     0.080 C 
BRANCH   5   6
ATOM      6  C   UNL     1       4.166  15.169  -6.708  1.00  0.00     0.155 C 
ATOM      7  O   UNL     1       4.988  15.066  -5.756  1.00  0.00    -0.295 OA
BRANCH   6   8
ATOM      8  C   UNL     1       2.714  15.073  -6.461  1.00  0.00     0.039 C 
ATOM      9  C   UNL     1       1.900  14.376  -7.252  1.00  0.00     0.012 C 
ENDBRANCH   6   8
ENDBRANCH   5   6
ENDBRANCH   1   5
TORSDOF 5
ENDMDL
MODEL 5
REMARK VINA RESULT:    -3.988      1.850      2.451
REMARK INTER + INTRA:          -5.683
REMARK INTER:                  -5.137
REMARK INTRA:                  -0.546
REMARK UNBOUND:                -0.529
REMARK SMILES C=CC(=O)CCCCC
REMARK SMILES IDX 6 1 7 2 8 3 9 4 5 5 3 6 4 7 2 8 1 9
REMARK H PARENT
REMARK Flexibility Score: inf
ROOT
ATOM      1  C   UNL     1       2.262  14.287  -8.408  1.00  0.00     0.008 C 
ENDROOT
BRANCH   1   2
ATOM      2  C   UNL     1       3.423  15.273  -8.208  1.00  0.00     0.000 C 
BRANCH   2   3
ATOM      3  C   UNL     1       3.444  15.882  -6.798  1.00  0.00    -0.003 C 
ATOM      4  C   UNL     1       2.842  14.952  -5.743  1.00  0.00     0.004 C 
ENDBRANCH   2   3
ENDBRANCH   1   2
BRANCH   1   5
ATOM      5  C   UNL     1       2.736  13.020  -9.125  1.00  0.00     0.080 C 
BRANCH   5   6
ATOM      6  C   UNL     1       3.387  12.079  -8.156  1.00  0.00     0.155 C 
ATOM      7  O   UNL     1       2.701  11.583  -7.221  1.00  0.00    -0.295 OA
BRANCH   6   8
ATOM      8  C   UNL     1       4.826  11.775  -8.275  1.00  0.00     0.039 C 
ATOM      9  C   UNL     1       5.714  12.151  -7.356  1.00  0.00     0.012 C 
ENDBRANCH   6   8
ENDBRANCH   5   6
ENDBRANCH   1   5
TORSDOF 5
ENDMDL
MODEL 6
REMARK VINA RESULT:    -3.941      1.767      3.906
REMARK INTER + INTRA:          -5.622
REMARK INTER:                  -5.276
REMARK INTRA:                  -0.346
REMARK UNBOUND:                -0.529
REMARK SMILES C=CC(=O)CCCCC
REMARK SMILES IDX 6 1 7 2 8 3 9 4 5 5 3 6 4 7 2 8 1 9
REMARK H PARENT
REMARK Flexibility Score: inf
ROOT
ATOM      1  C   UNL     1       5.133  14.752  -7.775  1.00  0.00     0.008 C 
ENDROOT
BRANCH   1   2
ATOM      2  C   UNL     1       5.824  13.859  -8.817  1.00  0.00     0.000 C 
BRANCH   2   3
ATOM      3  C   UNL     1       5.431  12.380  -8.681  1.00  0.00    -0.003 C 
ATOM      4  C   UNL     1       5.620  11.846  -7.260  1.00  0.00     0.004 C 
ENDBRANCH   2   3
ENDBRANCH   1   2
BRANCH   1   5
ATOM      5  C   UNL     1       3.942  15.492  -8.390  1.00  0.00     0.080 C 
BRANCH   5   6
ATOM      6  C   UNL     1       2.664  14.762  -8.105  1.00  0.00     0.155 C 
ATOM      7  O   UNL     1       1.950  14.367  -9.068  1.00  0.00    -0.295 OA
BRANCH   6   8
ATOM      8  C   UNL     1       2.229  14.549  -6.711  1.00  0.00     0.039 C 
ATOM      9  C   UNL     1       2.201  15.533  -5.813  1.00  0.00     0.012 C 
ENDBRANCH   6   8
ENDBRANCH   5   6
ENDBRANCH   1   5
TORSDOF 5
ENDMDL
MODEL 7
REMARK VINA RESULT:    -3.934      1.519      3.554
REMARK INTER + INTRA:          -5.613
REMARK INTER:                  -5.014
REMARK INTRA:                  -0.599
REMARK UNBOUND:                -0.529
REMARK SMILES C=CC(=O)CCCCC
REMARK SMILES IDX 6 1 7 2 8 3 9 4 5 5 3 6 4 7 2 8 1 9
REMARK H PARENT
REMARK Flexibility Score: inf
ROOT
ATOM      1  C   UNL     1       2.915  12.307  -7.166  1.00  0.00     0.008 C 
ENDROOT
BRANCH   1   2
ATOM      2  C   UNL     1       3.400  12.280  -8.624  1.00  0.00     0.000 C 
BRANCH   2   3
ATOM      3  C   UNL     1       4.930  12.188  -8.735  1.00  0.00    -0.003 C 
ATOM      4  C   UNL     1       5.598  11.822  -7.409  1.00  0.00     0.004 C 
ENDBRANCH   2   3
ENDBRANCH   1   2
BRANCH   1   5
ATOM      5  C   UNL     1       2.359  13.686  -6.798  1.00  0.00     0.080 C 
BRANCH   5   6
ATOM      6  C   UNL     1       3.393  14.493  -6.071  1.00  0.00     0.155 C 
ATOM      7  O   UNL     1       3.780  14.117  -4.930  1.00  0.00    -0.295 OA
BRANCH   6   8
ATOM      8  C   UNL     1       3.916  15.736  -6.670  1.00  0.00     0.039 C 
ATOM      9  C   UNL     1       4.121  15.867  -7.980  1.00  0.00     0.012 C 
ENDBRANCH   6   8
ENDBRANCH   5   6
ENDBRANCH   1   5
TORSDOF 5
ENDMDL
MODEL 8
REMARK VINA RESULT:    -3.892      1.316      2.341
REMARK INTER + INTRA:          -5.559
REMARK INTER:                  -4.973
REMARK INTRA:                  -0.585
REMARK UNBOUND:                -0.529
REMARK SMILES C=CC(=O)CCCCC
REMARK SMILES IDX 6 1 7 2 8 3 9 4 5 5 3 6 4 7 2 8 1 9
REMARK H PARENT
REMARK Flexibility Score: inf
ROOT
ATOM      1  C   UNL     1       3.229  12.021  -7.642  1.00  0.00     0.008 C 
ENDROOT
BRANCH   1   2
ATOM      2  C   UNL     1       2.716  12.678  -8.932  1.00  0.00     0.000 C 
BRANCH   2   3
ATOM      3  C   UNL     1       2.173  14.096  -8.697  1.00  0.00    -0.003 C 
ATOM      4  C   UNL     1       2.021  14.433  -7.213  1.00  0.00     0.004 C 
ENDBRANCH   2   3
ENDBRANCH   1   2
BRANCH   1   5
ATOM      5  C   UNL     1       4.736  11.761  -7.720  1.00  0.00     0.080 C 
BRANCH   5   6
ATOM      6  C   UNL     1       5.502  13.030  -7.497  1.00  0.00     0.155 C 
ATOM      7  O   UNL     1       5.533  13.537  -6.342  1.00  0.00    -0.295 OA
BRANCH   6   8
ATOM      8  C   UNL     1       6.173  13.697  -8.628  1.00  0.00     0.039 C 
ATOM      9  C   UNL     1       5.753  14.860  -9.124  1.00  0.00     0.012 C 
ENDBRANCH   6   8
ENDBRANCH   5   6
ENDBRANCH   1   5
TORSDOF 5
ENDMDL
MODEL 9
REMARK VINA RESULT:    -3.873      1.284      3.641
REMARK INTER + INTRA:          -5.534
REMARK INTER:                  -5.042
REMARK INTRA:                  -0.492
REMARK UNBOUND:                -0.529
REMARK SMILES C=CC(=O)CCCCC
REMARK SMILES IDX 6 1 7 2 8 3 9 4 5 5 3 6 4 7 2 8 1 9
REMARK H PARENT
REMARK Flexibility Score: inf
ROOT
ATOM      1  C   UNL     1       5.615  12.937  -6.436  1.00  0.00     0.008 C 
ENDROOT
BRANCH   1   2
ATOM      2  C   UNL     1       5.624  11.787  -7.455  1.00  0.00     0.000 C 
BRANCH   2   3
ATOM      3  C   UNL     1       4.935  12.162  -8.775  1.00  0.00    -0.003 C 
ATOM      4  C   UNL     1       3.776  11.228  -9.125  1.00  0.00     0.004 C 
ENDBRANCH   2   3
ENDBRANCH   1   2
BRANCH   1   5
ATOM      5  C   UNL     1       4.803  14.126  -6.959  1.00  0.00     0.080 C 
BRANCH   5   6
ATOM      6  C   UNL     1       3.590  14.351  -6.106  1.00  0.00     0.155 C 
ATOM      7  O   UNL     1       3.680  14.208  -4.855  1.00  0.00    -0.295 OA
BRANCH   6   8
ATOM      8  C   UNL     1       2.299  14.692  -6.732  1.00  0.00     0.039 C 
ATOM      9  C   UNL     1       2.016  14.387  -7.998  1.00  0.00     0.012 C 
ENDBRANCH   6   8
ENDBRANCH   5   6
ENDBRANCH   1   5
TORSDOF 5
ENDMDL
