MODEL 1
REMARK VINA RESULT:    -3.427      0.000      0.000
REMARK INTER + INTRA:          -3.645
REMARK INTER:                  -3.627
REMARK INTRA:                  -0.018
REMARK UNBOUND:                -0.018
REMARK SMILES O=C([O-])c1cccnc1
REMARK SMILES IDX 4 1 5 2 9 3 6 4 8 5 7 6 2 7 1 8 3 9
REMARK H PARENT
REMARK Flexibility Score: inf
ROOT
ATOM      1  C   UNL     1     171.851 184.696  32.732  1.00  0.00     0.016 A 
ATOM      2  C   UNL     1     171.800 186.001  33.248  1.00  0.00     0.013 A 
ATOM      3  C   UNL     1     170.855 184.297  31.823  1.00  0.00     0.120 A 
ATOM      4  C   UNL     1     170.779 186.870  32.857  1.00  0.00     0.021 A 
ATOM      5  N   UNL     1     169.871 185.163  31.460  1.00  0.00    -0.264 NA
ATOM      6  C   UNL     1     169.813 186.428  31.953  1.00  0.00     0.111 A 
ENDROOT
BRANCH   1   7
ATOM      7  C   UNL     1     172.928 183.767  33.138  1.00  0.00     0.073 C 
ATOM      8  O   UNL     1     173.071 183.443  34.348  1.00  0.00    -0.545 OA
ATOM      9  O   UNL     1     173.796 183.238  32.190  1.00  0.00    -0.545 OA
ENDBRANCH   1   7
TORSDOF 1
ENDMDL
MODEL 2
REMARK VINA RESULT:    -3.412      3.838      4.753
REMARK INTER + INTRA:          -3.629
REMARK INTER:                  -3.613
REMARK INTRA:                  -0.017
REMARK UNBOUND:                -0.018
REMARK SMILES O=C([O-])c1cccnc1
REMARK SMILES IDX 4 1 5 2 9 3 6 4 8 5 7 6 2 7 1 8 3 9
REMARK H PARENT
REMARK Flexibility Score: inf
ROOT
ATOM      1  C   UNL     1     168.895 186.006  31.144  1.00  0.00     0.016 A 
ATOM      2  C   UNL     1     170.099 185.346  30.847  1.00  0.00     0.013 A 
ATOM      3  C   UNL     1     168.906 187.003  32.135  1.00  0.00     0.120 A 
ATOM      4  C   UNL     1     171.270 185.684  31.528  1.00  0.00     0.021 A 
ATOM      5  N   UNL     1     170.061 187.314  32.783  1.00  0.00    -0.264 NA
ATOM      6  C   UNL     1     171.230 186.681  32.504  1.00  0.00     0.111 A 
ENDROOT
BRANCH   1   7
ATOM      7  C   UNL     1     167.649 185.655  30.429  1.00  0.00     0.073 C 
ATOM      8  O   UNL     1     167.456 186.049  29.247  1.00  0.00    -0.545 OA
ATOM      9  O   UNL     1     166.673 184.886  31.051  1.00  0.00    -0.545 OA
ENDBRANCH   1   7
TORSDOF 1
ENDMDL
MODEL 3
REMARK VINA RESULT:    -3.333      3.763      4.461
REMARK INTER + INTRA:          -3.546
REMARK INTER:                  -3.530
REMARK INTRA:                  -0.016
REMARK UNBOUND:                -0.018
REMARK SMILES O=C([O-])c1cccnc1
REMARK SMILES IDX 4 1 5 2 9 3 6 4 8 5 7 6 2 7 1 8 3 9
REMARK H PARENT
REMARK Flexibility Score: inf
ROOT
ATOM      1  C   UNL     1     168.964 186.001  31.162  1.00  0.00     0.016 A 
ATOM      2  C   UNL     1     169.009 187.015  32.133  1.00  0.00     0.013 A 
ATOM      3  C   UNL     1     170.142 185.284  30.890  1.00  0.00     0.120 A 
ATOM      4  C   UNL     1     170.202 187.292  32.803  1.00  0.00     0.021 A 
ATOM      5  N   UNL     1     171.291 185.573  31.558  1.00  0.00    -0.264 NA
ATOM      6  C   UNL     1     171.346 186.552  32.498  1.00  0.00     0.111 A 
ENDROOT
BRANCH   1   7
ATOM      7  C   UNL     1     167.706 185.700  30.446  1.00  0.00     0.073 C 
ATOM      8  O   UNL     1     166.822 184.977  30.981  1.00  0.00    -0.545 OA
ATOM      9  O   UNL     1     167.480 186.211  29.173  1.00  0.00    -0.545 OA
ENDBRANCH   1   7
TORSDOF 1
ENDMDL
MODEL 4
REMARK VINA RESULT:    -3.306      1.920      2.452
REMARK INTER + INTRA:          -3.517
REMARK INTER:                  -3.501
REMARK INTRA:                  -0.016
REMARK UNBOUND:                -0.018
REMARK SMILES O=C([O-])c1cccnc1
REMARK SMILES IDX 4 1 5 2 9 3 6 4 8 5 7 6 2 7 1 8 3 9
REMARK H PARENT
REMARK Flexibility Score: inf
ROOT
ATOM      1  C   UNL     1     170.154 184.832  31.926  1.00  0.00     0.016 A 
ATOM      2  C   UNL     1     170.015 185.379  30.640  1.00  0.00     0.013 A 
ATOM      3  C   UNL     1     168.995 184.636  32.698  1.00  0.00     0.120 A 
ATOM      4  C   UNL     1     168.750 185.714  30.153  1.00  0.00     0.021 A 
ATOM      5  N   UNL     1     167.774 184.971  32.199  1.00  0.00    -0.264 NA
ATOM      6  C   UNL     1     167.629 185.500  30.957  1.00  0.00     0.111 A 
ENDROOT
BRANCH   1   7
ATOM      7  C   UNL     1     171.489 184.474  32.452  1.00  0.00     0.073 C 
ATOM      8  O   UNL     1     172.108 185.261  33.218  1.00  0.00    -0.545 OA
ATOM      9  O   UNL     1     172.079 183.263  32.108  1.00  0.00    -0.545 OA
ENDBRANCH   1   7
TORSDOF 1
ENDMDL
MODEL 5
REMARK VINA RESULT:    -3.245      1.809      2.558
REMARK INTER + INTRA:          -3.452
REMARK INTER:                  -3.429
REMARK INTRA:                  -0.024
REMARK UNBOUND:                -0.018
REMARK SMILES O=C([O-])c1cccnc1
REMARK SMILES IDX 4 1 5 2 9 3 6 4 8 5 7 6 2 7 1 8 3 9
REMARK H PARENT
REMARK Flexibility Score: inf
ROOT
ATOM      1  C   UNL     1     170.469 185.850  32.453  1.00  0.00     0.016 A 
ATOM      2  C   UNL     1     170.458 185.124  31.250  1.00  0.00     0.013 A 
ATOM      3  C   UNL     1     169.500 186.852  32.637  1.00  0.00     0.120 A 
ATOM      4  C   UNL     1     169.502 185.401  30.273  1.00  0.00     0.021 A 
ATOM      5  N   UNL     1     168.579 187.102  31.668  1.00  0.00    -0.264 NA
ATOM      6  C   UNL     1     168.560 186.406  30.502  1.00  0.00     0.111 A 
ENDROOT
BRANCH   1   7
ATOM      7  C   UNL     1     171.478 185.565  33.496  1.00  0.00     0.073 C 
ATOM      8  O   UNL     1     171.433 186.155  34.609  1.00  0.00    -0.545 OA
ATOM      9  O   UNL     1     172.490 184.640  33.262  1.00  0.00    -0.545 OA
ENDBRANCH   1   7
TORSDOF 1
ENDMDL
MODEL 6
REMARK VINA RESULT:    -3.227      1.932      2.409
REMARK INTER + INTRA:          -3.434
REMARK INTER:                  -3.417
REMARK INTRA:                  -0.016
REMARK UNBOUND:                -0.018
REMARK SMILES O=C([O-])c1cccnc1
REMARK SMILES IDX 4 1 5 2 9 3 6 4 8 5 7 6 2 7 1 8 3 9
REMARK H PARENT
REMARK Flexibility Score: inf
ROOT
ATOM      1  C   UNL     1     170.122 184.808  31.903  1.00  0.00     0.016 A 
ATOM      2  C   UNL     1     168.960 184.644  32.675  1.00  0.00     0.013 A 
ATOM      3  C   UNL     1     169.995 185.340  30.608  1.00  0.00     0.120 A 
ATOM      4  C   UNL     1     167.717 185.008  32.155  1.00  0.00     0.021 A 
ATOM      5  N   UNL     1     168.771 185.686  30.126  1.00  0.00    -0.264 NA
ATOM      6  C   UNL     1     167.642 185.532  30.864  1.00  0.00     0.111 A 
ENDROOT
BRANCH   1   7
ATOM      7  C   UNL     1     171.445 184.426  32.444  1.00  0.00     0.073 C 
ATOM      8  O   UNL     1     172.076 185.209  33.205  1.00  0.00    -0.545 OA
ATOM      9  O   UNL     1     172.010 183.198  32.120  1.00  0.00    -0.545 OA
ENDBRANCH   1   7
TORSDOF 1
ENDMDL
MODEL 7
REMARK VINA RESULT:    -3.049     22.363     22.899
REMARK INTER + INTRA:          -3.245
REMARK INTER:                  -3.221
REMARK INTRA:                  -0.024
REMARK UNBOUND:                -0.018
REMARK SMILES O=C([O-])c1cccnc1
REMARK SMILES IDX 4 1 5 2 9 3 6 4 8 5 7 6 2 7 1 8 3 9
REMARK H PARENT
REMARK Flexibility Score: inf
ROOT
ATOM      1  C   UNL     1     163.287 170.061  17.717  1.00  0.00     0.016 A 
ATOM      2  C   UNL     1     164.498 169.422  17.402  1.00  0.00     0.013 A 
ATOM      3  C   UNL     1     162.717 170.921  16.762  1.00  0.00     0.120 A 
ATOM      4  C   UNL     1     165.107 169.645  16.167  1.00  0.00     0.021 A 
ATOM      5  N   UNL     1     163.332 171.120  15.565  1.00  0.00    -0.264 NA
ATOM      6  C   UNL     1     164.502 170.507  15.251  1.00  0.00     0.111 A 
ENDROOT
BRANCH   1   7
ATOM      7  C   UNL     1     162.632 169.833  19.024  1.00  0.00     0.073 C 
ATOM      8  O   UNL     1     162.991 168.875  19.761  1.00  0.00    -0.545 OA
ATOM      9  O   UNL     1     161.612 170.672  19.456  1.00  0.00    -0.545 OA
ENDBRANCH   1   7
TORSDOF 1
ENDMDL
MODEL 8
REMARK VINA RESULT:    -3.031      1.433      2.051
REMARK INTER + INTRA:          -3.226
REMARK INTER:                  -3.202
REMARK INTRA:                  -0.023
REMARK UNBOUND:                -0.018
REMARK SMILES O=C([O-])c1cccnc1
REMARK SMILES IDX 4 1 5 2 9 3 6 4 8 5 7 6 2 7 1 8 3 9
REMARK H PARENT
REMARK Flexibility Score: inf
ROOT
ATOM      1  C   UNL     1     171.970 184.814  33.367  1.00  0.00     0.016 A 
ATOM      2  C   UNL     1     171.518 185.483  32.218  1.00  0.00     0.013 A 
ATOM      3  C   UNL     1     171.552 185.288  34.624  1.00  0.00     0.120 A 
ATOM      4  C   UNL     1     170.674 186.589  32.336  1.00  0.00     0.021 A 
ATOM      5  N   UNL     1     170.729 186.367  34.711  1.00  0.00    -0.264 NA
ATOM      6  C   UNL     1     170.286 187.021  33.605  1.00  0.00     0.111 A 
ENDROOT
BRANCH   1   7
ATOM      7  C   UNL     1     172.864 183.642  33.254  1.00  0.00     0.073 C 
ATOM      8  O   UNL     1     173.478 183.406  32.178  1.00  0.00    -0.545 OA
ATOM      9  O   UNL     1     173.040 182.784  34.333  1.00  0.00    -0.545 OA
ENDBRANCH   1   7
TORSDOF 1
ENDMDL
MODEL 9
REMARK VINA RESULT:    -2.992      2.778      3.906
REMARK INTER + INTRA:          -3.185
REMARK INTER:                  -3.164
REMARK INTRA:                  -0.021
REMARK UNBOUND:                -0.018
REMARK SMILES O=C([O-])c1cccnc1
REMARK SMILES IDX 4 1 5 2 9 3 6 4 8 5 7 6 2 7 1 8 3 9
REMARK H PARENT
REMARK Flexibility Score: inf
ROOT
ATOM      1  C   UNL     1     171.452 184.636  32.683  1.00  0.00     0.016 A 
ATOM      2  C   UNL     1     172.473 183.827  32.157  1.00  0.00     0.013 A 
ATOM      3  C   UNL     1     171.286 184.679  34.079  1.00  0.00     0.120 A 
ATOM      4  C   UNL     1     173.295 183.091  33.011  1.00  0.00     0.021 A 
ATOM      5  N   UNL     1     172.101 183.952  34.889  1.00  0.00    -0.264 NA
ATOM      6  C   UNL     1     173.091 183.167  34.390  1.00  0.00     0.111 A 
ENDROOT
BRANCH   1   7
ATOM      7  C   UNL     1     170.574 185.420  31.787  1.00  0.00     0.073 C 
ATOM      8  O   UNL     1     170.187 184.939  30.688  1.00  0.00    -0.545 OA
ATOM      9  O   UNL     1     170.164 186.699  32.146  1.00  0.00    -0.545 OA
ENDBRANCH   1   7
TORSDOF 1
ENDMDL
