MODEL 1
REMARK VINA RESULT:    -7.419      0.000      0.000
REMARK INTER + INTRA:          -9.016
REMARK INTER:                  -8.720
REMARK INTRA:                  -0.295
REMARK UNBOUND:                -0.295
REMARK SMILES O=c1cc(-c2ccc(O)c(O)c2)oc2cc(O)cc(O)c12
REMARK SMILES IDX 4 1 3 2 2 3 1 4 21 5 19 6 18 7 16 8 15 9 14 10 13 11 5 12
REMARK SMILES IDX 6 13 7 14 8 15 12 16 10 17 9 18 11 20 20 22 17 24
REMARK H PARENT 9 19 11 21 20 23 17 25
REMARK Flexibility Score: inf
ROOT
ATOM      1  C   UNL     1      -0.311 -10.082 -40.989  1.00  0.00     0.138 A 
ATOM      2  C   UNL     1      -1.137  -9.708 -42.058  1.00  0.00     0.100 A 
ATOM      3  C   UNL     1      -1.133  -8.386 -42.505  1.00  0.00     0.197 A 
ATOM      4  O   UNL     1      -1.838  -8.095 -43.505  1.00  0.00    -0.289 OA
ATOM      5  C   UNL     1      -0.321  -7.426 -41.855  1.00  0.00     0.107 A 
ATOM      6  C   UNL     1      -0.267  -6.042 -42.197  1.00  0.00     0.134 A 
ATOM      7  C   UNL     1       0.661  -5.209 -41.559  1.00  0.00     0.093 A 
ATOM      8  C   UNL     1       1.493  -5.696 -40.552  1.00  0.00     0.123 A 
ATOM      9  C   UNL     1       1.412  -7.036 -40.172  1.00  0.00     0.094 A 
ATOM     10  C   UNL     1       0.520  -7.900 -40.813  1.00  0.00     0.146 A 
ATOM     11  O   UNL     1       0.483  -9.173 -40.432  1.00  0.00    -0.456 OA
ENDROOT
BRANCH   1  12
ATOM     12  C   UNL     1      -0.275 -11.473 -40.473  1.00  0.00     0.021 A 
ATOM     13  C   UNL     1      -1.455 -12.214 -40.262  1.00  0.00     0.016 A 
ATOM     14  C   UNL     1      -1.393 -13.518 -39.767  1.00  0.00     0.051 A 
ATOM     15  C   UNL     1      -0.157 -14.103 -39.466  1.00  0.00     0.157 A 
ATOM     16  C   UNL     1       0.961 -12.064 -40.156  1.00  0.00     0.062 A 
ATOM     17  C   UNL     1       1.025 -13.371 -39.661  1.00  0.00     0.158 A 
BRANCH  15  18
ATOM     18  O   UNL     1      -0.099 -15.406 -38.974  1.00  0.00    -0.504 OA
ATOM     19  H   UNL     1       0.159 -15.600 -38.013  1.00  0.00     0.293 HD
ENDBRANCH  15  18
BRANCH  17  20
ATOM     20  O   UNL     1       2.271 -13.923 -39.368  1.00  0.00    -0.504 OA
ATOM     21  H   UNL     1       2.495 -14.889 -39.577  1.00  0.00     0.293 HD
ENDBRANCH  17  20
ENDBRANCH   1  12
BRANCH   6  22
ATOM     22  O   UNL     1      -1.113  -5.434 -43.129  1.00  0.00    -0.507 OA
ATOM     23  H   UNL     1      -1.474  -4.495 -43.055  1.00  0.00     0.293 HD
ENDBRANCH   6  22
BRANCH   8  24
ATOM     24  O   UNL     1       2.394  -4.835 -39.930  1.00  0.00    -0.508 OA
ATOM     25  H   UNL     1       3.238  -5.181 -39.486  1.00  0.00     0.293 HD
ENDBRANCH   8  24
TORSDOF 5
ENDMDL
MODEL 2
REMARK VINA RESULT:    -7.418      2.576      7.237
REMARK INTER + INTRA:          -9.014
REMARK INTER:                  -8.710
REMARK INTRA:                  -0.304
REMARK UNBOUND:                -0.295
REMARK SMILES O=c1cc(-c2ccc(O)c(O)c2)oc2cc(O)cc(O)c12
REMARK SMILES IDX 4 1 3 2 2 3 1 4 21 5 19 6 18 7 16 8 15 9 14 10 13 11 5 12
REMARK SMILES IDX 6 13 7 14 8 15 12 16 10 17 9 18 11 20 20 22 17 24
REMARK H PARENT 9 19 11 21 20 23 17 25
REMARK Flexibility Score: inf
ROOT
ATOM      1  C   UNL     1       2.145  -9.395 -40.784  1.00  0.00     0.138 A 
ATOM      2  C   UNL     1       2.761 -10.510 -41.370  1.00  0.00     0.100 A 
ATOM      3  C   UNL     1       2.598 -11.771 -40.795  1.00  0.00     0.197 A 
ATOM      4  O   UNL     1       3.110 -12.761 -41.378  1.00  0.00    -0.289 OA
ATOM      5  C   UNL     1       1.839 -11.910 -39.608  1.00  0.00     0.107 A 
ATOM      6  C   UNL     1       1.639 -13.139 -38.911  1.00  0.00     0.134 A 
ATOM      7  C   UNL     1       0.772 -13.176 -37.812  1.00  0.00     0.093 A 
ATOM      8  C   UNL     1       0.148 -12.018 -37.347  1.00  0.00     0.123 A 
ATOM      9  C   UNL     1       0.379 -10.801 -37.989  1.00  0.00     0.094 A 
ATOM     10  C   UNL     1       1.210 -10.738 -39.109  1.00  0.00     0.146 A 
ATOM     11  O   UNL     1       1.394  -9.562 -39.701  1.00  0.00    -0.456 OA
ENDROOT
BRANCH   1  12
ATOM     12  C   UNL     1       2.287  -8.031 -41.353  1.00  0.00     0.021 A 
ATOM     13  C   UNL     1       2.453  -7.820 -42.736  1.00  0.00     0.016 A 
ATOM     14  C   UNL     1       2.593  -6.526 -43.242  1.00  0.00     0.051 A 
ATOM     15  C   UNL     1       2.579  -5.423 -42.380  1.00  0.00     0.157 A 
ATOM     16  C   UNL     1       2.286  -6.918 -40.493  1.00  0.00     0.062 A 
ATOM     17  C   UNL     1       2.426  -5.621 -40.999  1.00  0.00     0.158 A 
BRANCH  15  18
ATOM     18  O   UNL     1       2.717  -4.133 -42.891  1.00  0.00    -0.504 OA
ATOM     19  H   UNL     1       3.619  -3.674 -42.936  1.00  0.00     0.293 HD
ENDBRANCH  15  18
BRANCH  17  20
ATOM     20  O   UNL     1       2.411  -4.545 -40.114  1.00  0.00    -0.504 OA
ATOM     21  H   UNL     1       1.824  -3.732 -40.264  1.00  0.00     0.293 HD
ENDBRANCH  17  20
ENDBRANCH   1  12
BRANCH   6  22
ATOM     22  O   UNL     1       2.281 -14.337 -39.240  1.00  0.00    -0.507 OA
ATOM     23  H   UNL     1       3.211 -14.407 -39.624  1.00  0.00     0.293 HD
ENDBRANCH   6  22
BRANCH   8  24
ATOM     24  O   UNL     1      -0.696 -12.090 -36.242  1.00  0.00    -0.508 OA
ATOM     25  H   UNL     1      -1.156 -11.265 -35.872  1.00  0.00     0.293 HD
ENDBRANCH   8  24
TORSDOF 5
ENDMDL
MODEL 3
REMARK VINA RESULT:    -7.268      1.139      2.710
REMARK INTER + INTRA:          -8.838
REMARK INTER:                  -8.550
REMARK INTRA:                  -0.287
REMARK UNBOUND:                -0.295
REMARK SMILES O=c1cc(-c2ccc(O)c(O)c2)oc2cc(O)cc(O)c12
REMARK SMILES IDX 4 1 3 2 2 3 1 4 21 5 19 6 18 7 16 8 15 9 14 10 13 11 5 12
REMARK SMILES IDX 6 13 7 14 8 15 12 16 10 17 9 18 11 20 20 22 17 24
REMARK H PARENT 9 19 11 21 20 23 17 25
REMARK Flexibility Score: inf
ROOT
ATOM      1  C   UNL     1       0.346 -10.109 -39.884  1.00  0.00     0.138 A 
ATOM      2  C   UNL     1       1.218  -9.417 -39.033  1.00  0.00     0.100 A 
ATOM      3  C   UNL     1       1.416  -8.047 -39.212  1.00  0.00     0.197 A 
ATOM      4  O   UNL     1       2.156  -7.442 -38.395  1.00  0.00    -0.289 OA
ATOM      5  C   UNL     1       0.760  -7.375 -40.271  1.00  0.00     0.107 A 
ATOM      6  C   UNL     1       0.918  -5.989 -40.575  1.00  0.00     0.134 A 
ATOM      7  C   UNL     1       0.128  -5.408 -41.574  1.00  0.00     0.093 A 
ATOM      8  C   UNL     1      -0.768  -6.172 -42.321  1.00  0.00     0.123 A 
ATOM      9  C   UNL     1      -0.891  -7.539 -42.069  1.00  0.00     0.094 A 
ATOM     10  C   UNL     1      -0.143  -8.142 -41.055  1.00  0.00     0.146 A 
ATOM     11  O   UNL     1      -0.299  -9.444 -40.836  1.00  0.00    -0.456 OA
ENDROOT
BRANCH   1  12
ATOM     12  C   UNL     1       0.099 -11.566 -39.739  1.00  0.00     0.021 A 
ATOM     13  C   UNL     1      -1.113 -12.156 -40.148  1.00  0.00     0.016 A 
ATOM     14  C   UNL     1      -1.321 -13.528 -39.991  1.00  0.00     0.051 A 
ATOM     15  C   UNL     1      -0.331 -14.333 -39.416  1.00  0.00     0.157 A 
ATOM     16  C   UNL     1       1.084 -12.381 -39.151  1.00  0.00     0.062 A 
ATOM     17  C   UNL     1       0.877 -13.756 -38.994  1.00  0.00     0.158 A 
BRANCH  15  18
ATOM     18  O   UNL     1      -0.542 -15.703 -39.263  1.00  0.00    -0.504 OA
ATOM     19  H   UNL     1       0.041 -16.265 -38.655  1.00  0.00     0.293 HD
ENDBRANCH  15  18
BRANCH  17  20
ATOM     20  O   UNL     1       1.882 -14.529 -38.415  1.00  0.00    -0.504 OA
ATOM     21  H   UNL     1       2.504 -14.160 -37.705  1.00  0.00     0.293 HD
ENDBRANCH  17  20
ENDBRANCH   1  12
BRANCH   6  22
ATOM     22  O   UNL     1       1.846  -5.153 -39.948  1.00  0.00    -0.507 OA
ATOM     23  H   UNL     1       2.223  -4.307 -40.348  1.00  0.00     0.293 HD
ENDBRANCH   6  22
BRANCH   8  24
ATOM     24  O   UNL     1      -1.526  -5.563 -43.318  1.00  0.00    -0.508 OA
ATOM     25  H   UNL     1      -2.290  -6.049 -43.774  1.00  0.00     0.293 HD
ENDBRANCH   8  24
TORSDOF 5
ENDMDL
MODEL 4
REMARK VINA RESULT:    -7.186      2.475      2.722
REMARK INTER + INTRA:          -8.742
REMARK INTER:                  -8.430
REMARK INTRA:                  -0.311
REMARK UNBOUND:                -0.295
REMARK SMILES O=c1cc(-c2ccc(O)c(O)c2)oc2cc(O)cc(O)c12
REMARK SMILES IDX 4 1 3 2 2 3 1 4 21 5 19 6 18 7 16 8 15 9 14 10 13 11 5 12
REMARK SMILES IDX 6 13 7 14 8 15 12 16 10 17 9 18 11 20 20 22 17 24
REMARK H PARENT 9 19 11 21 20 23 17 25
REMARK Flexibility Score: inf
ROOT
ATOM      1  C   UNL     1       1.560 -10.380 -40.318  1.00  0.00     0.138 A 
ATOM      2  C   UNL     1       1.870 -10.606 -41.666  1.00  0.00     0.100 A 
ATOM      3  C   UNL     1       2.197  -9.528 -42.490  1.00  0.00     0.197 A 
ATOM      4  O   UNL     1       2.531  -9.769 -43.679  1.00  0.00    -0.289 OA
ATOM      5  C   UNL     1       2.182  -8.213 -41.967  1.00  0.00     0.107 A 
ATOM      6  C   UNL     1       2.458  -7.035 -42.723  1.00  0.00     0.134 A 
ATOM      7  C   UNL     1       2.527  -5.797 -42.071  1.00  0.00     0.093 A 
ATOM      8  C   UNL     1       2.271  -5.687 -40.705  1.00  0.00     0.123 A 
ATOM      9  C   UNL     1       1.948  -6.825 -39.966  1.00  0.00     0.094 A 
ATOM     10  C   UNL     1       1.905  -8.079 -40.580  1.00  0.00     0.146 A 
ATOM     11  O   UNL     1       1.607  -9.141 -39.839  1.00  0.00    -0.456 OA
ENDROOT
BRANCH   1  12
ATOM     12  C   UNL     1       1.205 -11.489 -39.397  1.00  0.00     0.021 A 
ATOM     13  C   UNL     1       1.561 -12.823 -39.675  1.00  0.00     0.016 A 
ATOM     14  C   UNL     1       1.205 -13.848 -38.795  1.00  0.00     0.051 A 
ATOM     15  C   UNL     1       0.482 -13.563 -37.631  1.00  0.00     0.157 A 
ATOM     16  C   UNL     1       0.468 -11.213 -38.232  1.00  0.00     0.062 A 
ATOM     17  C   UNL     1       0.111 -12.239 -37.349  1.00  0.00     0.158 A 
BRANCH  15  18
ATOM     18  O   UNL     1       0.130 -14.589 -36.755  1.00  0.00    -0.504 OA
ATOM     19  H   UNL     1       0.486 -14.623 -35.807  1.00  0.00     0.293 HD
ENDBRANCH  15  18
BRANCH  17  20
ATOM     20  O   UNL     1      -0.612 -11.922 -36.201  1.00  0.00    -0.504 OA
ATOM     21  H   UNL     1      -0.832 -10.965 -35.949  1.00  0.00     0.293 HD
ENDBRANCH  17  20
ENDBRANCH   1  12
BRANCH   6  22
ATOM     22  O   UNL     1       2.644  -7.021 -44.109  1.00  0.00    -0.507 OA
ATOM     23  H   UNL     1       2.834  -7.836 -44.673  1.00  0.00     0.293 HD
ENDBRANCH   6  22
BRANCH   8  24
ATOM     24  O   UNL     1       2.335  -4.437 -40.093  1.00  0.00    -0.508 OA
ATOM     25  H   UNL     1       1.601  -4.112 -39.475  1.00  0.00     0.293 HD
ENDBRANCH   8  24
TORSDOF 5
ENDMDL
MODEL 5
REMARK VINA RESULT:    -7.127      4.609      6.246
REMARK INTER + INTRA:          -8.672
REMARK INTER:                  -8.403
REMARK INTRA:                  -0.269
REMARK UNBOUND:                -0.295
REMARK SMILES O=c1cc(-c2ccc(O)c(O)c2)oc2cc(O)cc(O)c12
REMARK SMILES IDX 4 1 3 2 2 3 1 4 21 5 19 6 18 7 16 8 15 9 14 10 13 11 5 12
REMARK SMILES IDX 6 13 7 14 8 15 12 16 10 17 9 18 11 20 20 22 17 24
REMARK H PARENT 9 19 11 21 20 23 17 25
REMARK Flexibility Score: inf
ROOT
ATOM      1  C   UNL     1       3.171 -11.842 -40.203  1.00  0.00     0.138 A 
ATOM      2  C   UNL     1       2.892 -11.635 -41.560  1.00  0.00     0.100 A 
ATOM      3  C   UNL     1       3.939 -11.603 -42.484  1.00  0.00     0.197 A 
ATOM      4  O   UNL     1       3.653 -11.478 -43.702  1.00  0.00    -0.289 OA
ATOM      5  C   UNL     1       5.274 -11.747 -42.037  1.00  0.00     0.107 A 
ATOM      6  C   UNL     1       6.423 -11.690 -42.881  1.00  0.00     0.134 A 
ATOM      7  C   UNL     1       7.688 -11.962 -42.345  1.00  0.00     0.093 A 
ATOM      8  C   UNL     1       7.852 -12.229 -40.986  1.00  0.00     0.123 A 
ATOM      9  C   UNL     1       6.741 -12.234 -40.141  1.00  0.00     0.094 A 
ATOM     10  C   UNL     1       5.463 -12.001 -40.653  1.00  0.00     0.146 A 
ATOM     11  O   UNL     1       4.428 -12.028 -39.818  1.00  0.00    -0.456 OA
ENDROOT
BRANCH   1  12
ATOM     12  C   UNL     1       2.096 -11.884 -39.179  1.00  0.00     0.021 A 
ATOM     13  C   UNL     1       1.554 -10.707 -38.628  1.00  0.00     0.016 A 
ATOM     14  C   UNL     1       0.550 -10.777 -37.659  1.00  0.00     0.051 A 
ATOM     15  C   UNL     1       0.077 -12.018 -37.217  1.00  0.00     0.157 A 
ATOM     16  C   UNL     1       1.624 -13.127 -38.721  1.00  0.00     0.062 A 
ATOM     17  C   UNL     1       0.618 -13.199 -37.751  1.00  0.00     0.158 A 
BRANCH  15  18
ATOM     18  O   UNL     1      -0.926 -12.083 -36.251  1.00  0.00    -0.504 OA
ATOM     19  H   UNL     1      -0.762 -11.792 -35.295  1.00  0.00     0.293 HD
ENDBRANCH  15  18
BRANCH  17  20
ATOM     20  O   UNL     1       0.171 -14.450 -37.330  1.00  0.00    -0.504 OA
ATOM     21  H   UNL     1      -0.722 -14.830 -37.623  1.00  0.00     0.293 HD
ENDBRANCH  17  20
ENDBRANCH   1  12
BRANCH   6  22
ATOM     22  O   UNL     1       6.381 -11.348 -44.236  1.00  0.00    -0.507 OA
ATOM     23  H   UNL     1       6.259 -12.004 -44.993  1.00  0.00     0.293 HD
ENDBRANCH   6  22
BRANCH   8  24
ATOM     24  O   UNL     1       9.127 -12.481 -40.485  1.00  0.00    -0.508 OA
ATOM     25  H   UNL     1       9.943 -12.003 -40.849  1.00  0.00     0.293 HD
ENDBRANCH   8  24
TORSDOF 5
ENDMDL
MODEL 6
REMARK VINA RESULT:    -7.115      6.717      7.719
REMARK INTER + INTRA:          -8.658
REMARK INTER:                  -8.361
REMARK INTRA:                  -0.297
REMARK UNBOUND:                -0.295
REMARK SMILES O=c1cc(-c2ccc(O)c(O)c2)oc2cc(O)cc(O)c12
REMARK SMILES IDX 4 1 3 2 2 3 1 4 21 5 19 6 18 7 16 8 15 9 14 10 13 11 5 12
REMARK SMILES IDX 6 13 7 14 8 15 12 16 10 17 9 18 11 20 20 22 17 24
REMARK H PARENT 9 19 11 21 20 23 17 25
REMARK Flexibility Score: inf
ROOT
ATOM      1  C   UNL     1       7.078  -8.512 -40.898  1.00  0.00     0.138 A 
ATOM      2  C   UNL     1       6.385  -7.548 -41.642  1.00  0.00     0.100 A 
ATOM      3  C   UNL     1       6.547  -6.195 -41.342  1.00  0.00     0.197 A 
ATOM      4  O   UNL     1       5.961  -5.351 -42.068  1.00  0.00    -0.289 OA
ATOM      5  C   UNL     1       7.384  -5.808 -40.268  1.00  0.00     0.107 A 
ATOM      6  C   UNL     1       7.593  -4.462 -39.845  1.00  0.00     0.134 A 
ATOM      7  C   UNL     1       8.535  -4.191 -38.844  1.00  0.00     0.093 A 
ATOM      8  C   UNL     1       9.229  -5.221 -38.211  1.00  0.00     0.123 A 
ATOM      9  C   UNL     1       8.994  -6.546 -38.580  1.00  0.00     0.094 A 
ATOM     10  C   UNL     1       8.086  -6.846 -39.598  1.00  0.00     0.146 A 
ATOM     11  O   UNL     1       7.900  -8.120 -39.930  1.00  0.00    -0.456 OA
ENDROOT
BRANCH   1  12
ATOM     12  C   UNL     1       6.942  -9.964 -41.174  1.00  0.00     0.021 A 
ATOM     13  C   UNL     1       6.866 -10.463 -42.489  1.00  0.00     0.016 A 
ATOM     14  C   UNL     1       6.728 -11.834 -42.719  1.00  0.00     0.051 A 
ATOM     15  C   UNL     1       6.655 -12.729 -41.645  1.00  0.00     0.157 A 
ATOM     16  C   UNL     1       6.855 -10.869 -40.101  1.00  0.00     0.062 A 
ATOM     17  C   UNL     1       6.718 -12.243 -40.329  1.00  0.00     0.158 A 
BRANCH  15  18
ATOM     18  O   UNL     1       6.520 -14.096 -41.879  1.00  0.00    -0.504 OA
ATOM     19  H   UNL     1       6.248 -14.455 -42.787  1.00  0.00     0.293 HD
ENDBRANCH  15  18
BRANCH  17  20
ATOM     20  O   UNL     1       6.646 -13.106 -39.237  1.00  0.00    -0.504 OA
ATOM     21  H   UNL     1       6.448 -14.094 -39.344  1.00  0.00     0.293 HD
ENDBRANCH  17  20
ENDBRANCH   1  12
BRANCH   6  22
ATOM     22  O   UNL     1       6.890  -3.365 -40.352  1.00  0.00    -0.507 OA
ATOM     23  H   UNL     1       7.011  -2.979 -41.276  1.00  0.00     0.293 HD
ENDBRANCH   6  22
BRANCH   8  24
ATOM     24  O   UNL     1      10.148  -4.915 -37.209  1.00  0.00    -0.508 OA
ATOM     25  H   UNL     1      10.989  -5.465 -37.077  1.00  0.00     0.293 HD
ENDBRANCH   8  24
TORSDOF 5
ENDMDL
MODEL 7
REMARK VINA RESULT:    -7.046      1.342      1.543
REMARK INTER + INTRA:          -8.577
REMARK INTER:                  -8.263
REMARK INTRA:                  -0.314
REMARK UNBOUND:                -0.295
REMARK SMILES O=c1cc(-c2ccc(O)c(O)c2)oc2cc(O)cc(O)c12
REMARK SMILES IDX 4 1 3 2 2 3 1 4 21 5 19 6 18 7 16 8 15 9 14 10 13 11 5 12
REMARK SMILES IDX 6 13 7 14 8 15 12 16 10 17 9 18 11 20 20 22 17 24
REMARK H PARENT 9 19 11 21 20 23 17 25
REMARK Flexibility Score: inf
ROOT
ATOM      1  C   UNL     1       0.391  -9.703 -41.208  1.00  0.00     0.138 A 
ATOM      2  C   UNL     1      -0.922  -9.463 -41.634  1.00  0.00     0.100 A 
ATOM      3  C   UNL     1      -1.253  -8.229 -42.195  1.00  0.00     0.197 A 
ATOM      4  O   UNL     1      -2.423  -8.065 -42.624  1.00  0.00    -0.289 OA
ATOM      5  C   UNL     1      -0.267  -7.218 -42.300  1.00  0.00     0.107 A 
ATOM      6  C   UNL     1      -0.499  -5.908 -42.816  1.00  0.00     0.134 A 
ATOM      7  C   UNL     1       0.580  -5.030 -42.980  1.00  0.00     0.093 A 
ATOM      8  C   UNL     1       1.869  -5.391 -42.589  1.00  0.00     0.123 A 
ATOM      9  C   UNL     1       2.097  -6.651 -42.033  1.00  0.00     0.094 A 
ATOM     10  C   UNL     1       1.048  -7.562 -41.889  1.00  0.00     0.146 A 
ATOM     11  O   UNL     1       1.310  -8.756 -41.368  1.00  0.00    -0.456 OA
ENDROOT
BRANCH   1  12
ATOM     12  C   UNL     1       0.797 -10.997 -40.604  1.00  0.00     0.021 A 
ATOM     13  C   UNL     1      -0.151 -11.900 -40.085  1.00  0.00     0.016 A 
ATOM     14  C   UNL     1       0.260 -13.107 -39.514  1.00  0.00     0.051 A 
ATOM     15  C   UNL     1       1.620 -13.430 -39.442  1.00  0.00     0.157 A 
ATOM     16  C   UNL     1       2.162 -11.323 -40.516  1.00  0.00     0.062 A 
ATOM     17  C   UNL     1       2.576 -12.532 -39.945  1.00  0.00     0.158 A 
BRANCH  15  18
ATOM     18  O   UNL     1       2.025 -14.636 -38.873  1.00  0.00    -0.504 OA
ATOM     19  H   UNL     1       3.002 -14.838 -38.695  1.00  0.00     0.293 HD
ENDBRANCH  15  18
BRANCH  17  20
ATOM     20  O   UNL     1       3.938 -12.822 -39.886  1.00  0.00    -0.504 OA
ATOM     21  H   UNL     1       4.363 -13.246 -39.070  1.00  0.00     0.293 HD
ENDBRANCH  17  20
ENDBRANCH   1  12
BRANCH   6  22
ATOM     22  O   UNL     1      -1.762  -5.415 -43.157  1.00  0.00    -0.507 OA
ATOM     23  H   UNL     1      -2.392  -4.953 -42.520  1.00  0.00     0.293 HD
ENDBRANCH   6  22
BRANCH   8  24
ATOM     24  O   UNL     1       2.915  -4.486 -42.753  1.00  0.00    -0.508 OA
ATOM     25  H   UNL     1       3.824  -4.647 -42.336  1.00  0.00     0.293 HD
ENDBRANCH   8  24
TORSDOF 5
ENDMDL
MODEL 8
REMARK VINA RESULT:    -6.948      2.798      3.876
REMARK INTER + INTRA:          -8.462
REMARK INTER:                  -8.183
REMARK INTRA:                  -0.279
REMARK UNBOUND:                -0.295
REMARK SMILES O=c1cc(-c2ccc(O)c(O)c2)oc2cc(O)cc(O)c12
REMARK SMILES IDX 4 1 3 2 2 3 1 4 21 5 19 6 18 7 16 8 15 9 14 10 13 11 5 12
REMARK SMILES IDX 6 13 7 14 8 15 12 16 10 17 9 18 11 20 20 22 17 24
REMARK H PARENT 9 19 11 21 20 23 17 25
REMARK Flexibility Score: inf
ROOT
ATOM      1  C   UNL     1       1.704 -10.311 -40.230  1.00  0.00     0.138 A 
ATOM      2  C   UNL     1       2.109  -9.070 -39.721  1.00  0.00     0.100 A 
ATOM      3  C   UNL     1       2.469  -8.047 -40.600  1.00  0.00     0.197 A 
ATOM      4  O   UNL     1       2.767  -6.925 -40.115  1.00  0.00    -0.289 OA
ATOM      5  C   UNL     1       2.453  -8.281 -41.996  1.00  0.00     0.107 A 
ATOM      6  C   UNL     1       2.837  -7.326 -42.984  1.00  0.00     0.134 A 
ATOM      7  C   UNL     1       2.669  -7.631 -44.341  1.00  0.00     0.093 A 
ATOM      8  C   UNL     1       2.189  -8.875 -44.745  1.00  0.00     0.123 A 
ATOM      9  C   UNL     1       1.859  -9.836 -43.788  1.00  0.00     0.094 A 
ATOM     10  C   UNL     1       1.983  -9.550 -42.427  1.00  0.00     0.146 A 
ATOM     11  O   UNL     1       1.646 -10.487 -41.546  1.00  0.00    -0.456 OA
ENDROOT
BRANCH   1  12
ATOM     12  C   UNL     1       1.312 -11.434 -39.342  1.00  0.00     0.021 A 
ATOM     13  C   UNL     1       1.670 -12.766 -39.631  1.00  0.00     0.016 A 
ATOM     14  C   UNL     1       1.279 -13.804 -38.782  1.00  0.00     0.051 A 
ATOM     15  C   UNL     1       0.520 -13.534 -37.637  1.00  0.00     0.157 A 
ATOM     16  C   UNL     1       0.539 -11.174 -38.196  1.00  0.00     0.062 A 
ATOM     17  C   UNL     1       0.147 -12.212 -37.344  1.00  0.00     0.158 A 
BRANCH  15  18
ATOM     18  O   UNL     1       0.134 -14.573 -36.791  1.00  0.00    -0.504 OA
ATOM     19  H   UNL     1      -0.699 -14.510 -36.218  1.00  0.00     0.293 HD
ENDBRANCH  15  18
BRANCH  17  20
ATOM     20  O   UNL     1      -0.611 -11.911 -36.214  1.00  0.00    -0.504 OA
ATOM     21  H   UNL     1      -0.349 -11.172 -35.571  1.00  0.00     0.293 HD
ENDBRANCH  17  20
ENDBRANCH   1  12
BRANCH   6  22
ATOM     22  O   UNL     1       3.409  -6.084 -42.690  1.00  0.00    -0.507 OA
ATOM     23  H   UNL     1       2.918  -5.203 -42.712  1.00  0.00     0.293 HD
ENDBRANCH   6  22
BRANCH   8  24
ATOM     24  O   UNL     1       2.049  -9.149 -46.104  1.00  0.00    -0.508 OA
ATOM     25  H   UNL     1       2.701  -8.783 -46.788  1.00  0.00     0.293 HD
ENDBRANCH   8  24
TORSDOF 5
ENDMDL
MODEL 9
REMARK VINA RESULT:    -6.901      7.612      9.219
REMARK INTER + INTRA:          -8.407
REMARK INTER:                  -8.141
REMARK INTRA:                  -0.266
REMARK UNBOUND:                -0.295
REMARK SMILES O=c1cc(-c2ccc(O)c(O)c2)oc2cc(O)cc(O)c12
REMARK SMILES IDX 4 1 3 2 2 3 1 4 21 5 19 6 18 7 16 8 15 9 14 10 13 11 5 12
REMARK SMILES IDX 6 13 7 14 8 15 12 16 10 17 9 18 11 20 20 22 17 24
REMARK H PARENT 9 19 11 21 20 23 17 25
REMARK Flexibility Score: inf
ROOT
ATOM      1  C   UNL     1       8.842  -8.758 -40.655  1.00  0.00     0.138 A 
ATOM      2  C   UNL     1      10.216  -8.660 -40.398  1.00  0.00     0.100 A 
ATOM      3  C   UNL     1      10.780  -7.415 -40.118  1.00  0.00     0.197 A 
ATOM      4  O   UNL     1      12.004  -7.368 -39.830  1.00  0.00    -0.289 OA
ATOM      5  C   UNL     1       9.967  -6.256 -40.128  1.00  0.00     0.107 A 
ATOM      6  C   UNL     1      10.440  -4.930 -39.897  1.00  0.00     0.134 A 
ATOM      7  C   UNL     1       9.522  -3.875 -39.816  1.00  0.00     0.093 A 
ATOM      8  C   UNL     1       8.159  -4.088 -40.018  1.00  0.00     0.123 A 
ATOM      9  C   UNL     1       7.692  -5.373 -40.297  1.00  0.00     0.094 A 
ATOM     10  C   UNL     1       8.578  -6.452 -40.350  1.00  0.00     0.146 A 
ATOM     11  O   UNL     1       8.092  -7.663 -40.605  1.00  0.00    -0.456 OA
ENDROOT
BRANCH   1  12
ATOM     12  C   UNL     1       8.191 -10.057 -40.960  1.00  0.00     0.021 A 
ATOM     13  C   UNL     1       7.781 -10.390 -42.266  1.00  0.00     0.016 A 
ATOM     14  C   UNL     1       7.161 -11.616 -42.521  1.00  0.00     0.051 A 
ATOM     15  C   UNL     1       6.933 -12.525 -41.481  1.00  0.00     0.157 A 
ATOM     16  C   UNL     1       7.946 -10.970 -39.919  1.00  0.00     0.062 A 
ATOM     17  C   UNL     1       7.327 -12.199 -40.173  1.00  0.00     0.158 A 
BRANCH  15  18
ATOM     18  O   UNL     1       6.317 -13.747 -41.742  1.00  0.00    -0.504 OA
ATOM     19  H   UNL     1       5.371 -13.942 -41.434  1.00  0.00     0.293 HD
ENDBRANCH  15  18
BRANCH  17  20
ATOM     20  O   UNL     1       7.111 -13.080 -39.115  1.00  0.00    -0.504 OA
ATOM     21  H   UNL     1       6.858 -14.050 -39.265  1.00  0.00     0.293 HD
ENDBRANCH  17  20
ENDBRANCH   1  12
BRANCH   6  22
ATOM     22  O   UNL     1      11.791  -4.594 -39.767  1.00  0.00    -0.507 OA
ATOM     23  H   UNL     1      12.430  -5.016 -39.111  1.00  0.00     0.293 HD
ENDBRANCH   6  22
BRANCH   8  24
ATOM     24  O   UNL     1       7.278  -3.012 -39.945  1.00  0.00    -0.508 OA
ATOM     25  H   UNL     1       6.463  -2.953 -40.544  1.00  0.00     0.293 HD
ENDBRANCH   8  24
TORSDOF 5
ENDMDL
