MODEL 1
REMARK VINA RESULT:    -5.184      0.000      0.000
REMARK INTER + INTRA:          -9.779
REMARK INTER:                  -8.063
REMARK INTRA:                  -1.717
REMARK UNBOUND:                -1.717
REMARK SMILES COc1cc(CNC(=O)CCCCC=CC(C)C)ccc1O
REMARK SMILES IDX 11 1 12 2 13 3 14 4 15 5 16 6 17 7 18 8 10 9 8 10 9 11 7 12
REMARK SMILES IDX 6 14 5 15 4 16 19 17 3 18 20 19 21 20 2 21 1 22 22 23
REMARK H PARENT 7 13 22 24
REMARK Flexibility Score: inf
ROOT
ATOM      1  C   UNL     1      14.370  54.479  35.445  1.00  0.00     0.010 C 
ENDROOT
BRANCH   1   2
ATOM      2  C   UNL     1      15.061  53.283  34.766  1.00  0.00     0.005 C 
BRANCH   2   3
ATOM      3  C   UNL     1      15.947  53.710  33.590  1.00  0.00     0.027 C 
BRANCH   3   4
ATOM      4  C   UNL     1      15.483  53.102  32.294  1.00  0.00    -0.031 C 
ATOM      5  C   UNL     1      14.658  52.041  32.273  1.00  0.00    -0.028 C 
BRANCH   5   6
ATOM      6  C   UNL     1      14.233  51.360  30.992  1.00  0.00     0.005 C 
ATOM      7  C   UNL     1      14.549  49.860  31.027  1.00  0.00     0.012 C 
ATOM      8  C   UNL     1      14.866  52.032  29.769  1.00  0.00     0.012 C 
ENDBRANCH   5   6
ENDBRANCH   3   4
ENDBRANCH   2   3
ENDBRANCH   1   2
BRANCH   1   9
ATOM      9  C   UNL     1      12.875  54.557  35.108  1.00  0.00     0.100 C 
BRANCH   9  10
ATOM     10  C   UNL     1      12.634  55.387  33.883  1.00  0.00     0.220 C 
ATOM     11  O   UNL     1      12.310  54.820  32.804  1.00  0.00    -0.275 OA
ATOM     12  N   UNL     1      12.829  56.806  33.922  1.00  0.00    -0.352 N 
ATOM     13  H   UNL     1      13.009  57.263  34.845  1.00  0.00     0.163 HD
BRANCH  12  14
ATOM     14  C   UNL     1      13.107  57.583  32.717  1.00  0.00     0.151 C 
BRANCH  14  15
ATOM     15  C   UNL     1      14.593  57.654  32.503  1.00  0.00    -0.025 A 
ATOM     16  C   UNL     1      15.211  56.793  31.583  1.00  0.00     0.056 A 
ATOM     17  C   UNL     1      15.354  58.649  33.134  1.00  0.00     0.009 A 
ATOM     18  C   UNL     1      16.589  56.907  31.309  1.00  0.00     0.160 A 
ATOM     19  C   UNL     1      16.720  58.764  32.867  1.00  0.00     0.050 A 
ATOM     20  C   UNL     1      17.339  57.897  31.959  1.00  0.00     0.157 A 
BRANCH  18  21
ATOM     21  O   UNL     1      17.242  56.061  30.399  1.00  0.00    -0.493 OA
ATOM     22  C   UNL     1      16.601  55.394  29.315  1.00  0.00     0.278 C 
ENDBRANCH  18  21
BRANCH  20  23
ATOM     23  O   UNL     1      18.701  58.016  31.690  1.00  0.00    -0.504 OA
ATOM     24  H   UNL     1      19.399  57.601  32.294  1.00  0.00     0.293 HD
ENDBRANCH  20  23
ENDBRANCH  14  15
ENDBRANCH  12  14
ENDBRANCH   9  10
ENDBRANCH   1   9
TORSDOF 10
ENDMDL
MODEL 2
REMARK VINA RESULT:    -5.058      5.406      9.817
REMARK INTER + INTRA:          -9.584
REMARK INTER:                  -8.576
REMARK INTRA:                  -1.008
REMARK UNBOUND:                -1.717
REMARK SMILES COc1cc(CNC(=O)CCCCC=CC(C)C)ccc1O
REMARK SMILES IDX 11 1 12 2 13 3 14 4 15 5 16 6 17 7 18 8 10 9 8 10 9 11 7 12
REMARK SMILES IDX 6 14 5 15 4 16 19 17 3 18 20 19 21 20 2 21 1 22 22 23
REMARK H PARENT 7 13 22 24
REMARK Flexibility Score: inf
ROOT
ATOM      1  C   UNL     1      16.234  50.227  30.763  1.00  0.00     0.010 C 
ENDROOT
BRANCH   1   2
ATOM      2  C   UNL     1      14.885  50.914  31.036  1.00  0.00     0.005 C 
BRANCH   2   3
ATOM      3  C   UNL     1      15.025  52.433  31.202  1.00  0.00     0.027 C 
BRANCH   3   4
ATOM      4  C   UNL     1      14.731  52.867  32.613  1.00  0.00    -0.031 C 
ATOM      5  C   UNL     1      15.708  53.290  33.433  1.00  0.00    -0.028 C 
BRANCH   5   6
ATOM      6  C   UNL     1      15.459  53.661  34.878  1.00  0.00     0.005 C 
ATOM      7  C   UNL     1      14.676  52.564  35.609  1.00  0.00     0.012 C 
ATOM      8  C   UNL     1      14.752  55.016  34.990  1.00  0.00     0.012 C 
ENDBRANCH   5   6
ENDBRANCH   3   4
ENDBRANCH   2   3
ENDBRANCH   1   2
BRANCH   1   9
ATOM      9  C   UNL     1      16.387  49.802  29.297  1.00  0.00     0.100 C 
BRANCH   9  10
ATOM     10  C   UNL     1      16.401  48.309  29.159  1.00  0.00     0.220 C 
ATOM     11  O   UNL     1      15.815  47.772  28.181  1.00  0.00    -0.275 OA
ATOM     12  N   UNL     1      17.023  47.497  30.163  1.00  0.00    -0.352 N 
ATOM     13  H   UNL     1      17.578  47.965  30.915  1.00  0.00     0.163 HD
BRANCH  12  14
ATOM     14  C   UNL     1      16.653  46.099  30.367  1.00  0.00     0.151 C 
BRANCH  14  15
ATOM     15  C   UNL     1      15.702  46.000  31.527  1.00  0.00    -0.025 A 
ATOM     16  C   UNL     1      14.921  44.847  31.697  1.00  0.00     0.056 A 
ATOM     17  C   UNL     1      15.668  47.005  32.503  1.00  0.00     0.009 A 
ATOM     18  C   UNL     1      14.090  44.704  32.826  1.00  0.00     0.160 A 
ATOM     19  C   UNL     1      14.845  46.869  33.624  1.00  0.00     0.050 A 
ATOM     20  C   UNL     1      14.055  45.724  33.787  1.00  0.00     0.157 A 
BRANCH  18  21
ATOM     21  O   UNL     1      13.291  43.568  33.028  1.00  0.00    -0.493 OA
ATOM     22  C   UNL     1      13.787  42.232  33.076  1.00  0.00     0.278 C 
ENDBRANCH  18  21
BRANCH  20  23
ATOM     23  O   UNL     1      13.238  45.589  34.907  1.00  0.00    -0.504 OA
ATOM     24  H   UNL     1      13.579  45.786  35.840  1.00  0.00     0.293 HD
ENDBRANCH  20  23
ENDBRANCH  14  15
ENDBRANCH  12  14
ENDBRANCH   9  10
ENDBRANCH   1   9
TORSDOF 10
ENDMDL
MODEL 3
REMARK VINA RESULT:    -5.042      3.850      7.750
REMARK INTER + INTRA:          -9.558
REMARK INTER:                  -8.743
REMARK INTRA:                  -0.815
REMARK UNBOUND:                -1.717
REMARK SMILES COc1cc(CNC(=O)CCCCC=CC(C)C)ccc1O
REMARK SMILES IDX 11 1 12 2 13 3 14 4 15 5 16 6 17 7 18 8 10 9 8 10 9 11 7 12
REMARK SMILES IDX 6 14 5 15 4 16 19 17 3 18 20 19 21 20 2 21 1 22 22 23
REMARK H PARENT 7 13 22 24
REMARK Flexibility Score: inf
ROOT
ATOM      1  C   UNL     1      14.873  53.423  34.694  1.00  0.00     0.010 C 
ENDROOT
BRANCH   1   2
ATOM      2  C   UNL     1      14.738  54.902  35.095  1.00  0.00     0.005 C 
BRANCH   2   3
ATOM      3  C   UNL     1      13.643  55.625  34.301  1.00  0.00     0.027 C 
BRANCH   3   4
ATOM      4  C   UNL     1      14.224  56.619  33.332  1.00  0.00    -0.031 C 
ATOM      5  C   UNL     1      15.543  56.871  33.292  1.00  0.00    -0.028 C 
BRANCH   5   6
ATOM      6  C   UNL     1      16.149  57.917  32.384  1.00  0.00     0.005 C 
ATOM      7  C   UNL     1      17.376  57.372  31.645  1.00  0.00     0.012 C 
ATOM      8  C   UNL     1      16.490  59.196  33.158  1.00  0.00     0.012 C 
ENDBRANCH   5   6
ENDBRANCH   3   4
ENDBRANCH   2   3
ENDBRANCH   1   2
BRANCH   1   9
ATOM      9  C   UNL     1      15.740  53.233  33.442  1.00  0.00     0.100 C 
BRANCH   9  10
ATOM     10  C   UNL     1      14.962  52.593  32.332  1.00  0.00     0.220 C 
ATOM     11  O   UNL     1      13.719  52.788  32.253  1.00  0.00    -0.275 OA
ATOM     12  N   UNL     1      15.616  51.718  31.404  1.00  0.00    -0.352 N 
ATOM     13  H   UNL     1      16.658  51.642  31.434  1.00  0.00     0.163 HD
BRANCH  12  14
ATOM     14  C   UNL     1      14.885  50.701  30.652  1.00  0.00     0.151 C 
BRANCH  14  15
ATOM     15  C   UNL     1      15.716  49.451  30.569  1.00  0.00    -0.025 A 
ATOM     16  C   UNL     1      15.373  48.329  31.338  1.00  0.00     0.056 A 
ATOM     17  C   UNL     1      16.767  49.359  29.645  1.00  0.00     0.009 A 
ATOM     18  C   UNL     1      16.091  47.123  31.206  1.00  0.00     0.160 A 
ATOM     19  C   UNL     1      17.482  48.166  29.511  1.00  0.00     0.050 A 
ATOM     20  C   UNL     1      17.149  47.050  30.289  1.00  0.00     0.157 A 
BRANCH  18  21
ATOM     21  O   UNL     1      15.781  45.981  31.961  1.00  0.00    -0.493 OA
ATOM     22  C   UNL     1      14.825  44.996  31.577  1.00  0.00     0.278 C 
ENDBRANCH  18  21
BRANCH  20  23
ATOM     23  O   UNL     1      17.861  45.861  30.150  1.00  0.00    -0.504 OA
ATOM     24  H   UNL     1      18.836  45.854  29.879  1.00  0.00     0.293 HD
ENDBRANCH  20  23
ENDBRANCH  14  15
ENDBRANCH  12  14
ENDBRANCH   9  10
ENDBRANCH   1   9
TORSDOF 10
ENDMDL
MODEL 4
REMARK VINA RESULT:    -4.895      3.801      7.733
REMARK INTER + INTRA:          -9.331
REMARK INTER:                  -8.563
REMARK INTRA:                  -0.768
REMARK UNBOUND:                -1.717
REMARK SMILES COc1cc(CNC(=O)CCCCC=CC(C)C)ccc1O
REMARK SMILES IDX 11 1 12 2 13 3 14 4 15 5 16 6 17 7 18 8 10 9 8 10 9 11 7 12
REMARK SMILES IDX 6 14 5 15 4 16 19 17 3 18 20 19 21 20 2 21 1 22 22 23
REMARK H PARENT 7 13 22 24
REMARK Flexibility Score: inf
ROOT
ATOM      1  C   UNL     1      15.840  53.461  33.977  1.00  0.00     0.010 C 
ENDROOT
BRANCH   1   2
ATOM      2  C   UNL     1      15.357  54.135  35.273  1.00  0.00     0.005 C 
BRANCH   2   3
ATOM      3  C   UNL     1      13.954  53.672  35.685  1.00  0.00     0.027 C 
BRANCH   3   4
ATOM      4  C   UNL     1      13.004  54.831  35.825  1.00  0.00    -0.031 C 
ATOM      5  C   UNL     1      12.237  55.236  34.799  1.00  0.00    -0.028 C 
BRANCH   5   6
ATOM      6  C   UNL     1      11.330  56.443  34.883  1.00  0.00     0.005 C 
ATOM      7  C   UNL     1      11.983  57.678  34.253  1.00  0.00     0.012 C 
ATOM      8  C   UNL     1      10.903  56.718  36.329  1.00  0.00     0.012 C 
ENDBRANCH   5   6
ENDBRANCH   3   4
ENDBRANCH   2   3
ENDBRANCH   1   2
BRANCH   1   9
ATOM      9  C   UNL     1      15.240  54.109  32.723  1.00  0.00     0.100 C 
BRANCH   9  10
ATOM     10  C   UNL     1      15.231  53.155  31.566  1.00  0.00     0.220 C 
ATOM     11  O   UNL     1      15.257  53.608  30.390  1.00  0.00    -0.275 OA
ATOM     12  N   UNL     1      15.134  51.744  31.794  1.00  0.00    -0.352 N 
ATOM     13  H   UNL     1      15.205  51.388  32.775  1.00  0.00     0.163 HD
BRANCH  12  14
ATOM     14  C   UNL     1      14.623  50.828  30.777  1.00  0.00     0.151 C 
BRANCH  14  15
ATOM     15  C   UNL     1      15.485  49.597  30.739  1.00  0.00    -0.025 A 
ATOM     16  C   UNL     1      15.107  48.454  31.460  1.00  0.00     0.056 A 
ATOM     17  C   UNL     1      16.607  49.543  29.900  1.00  0.00     0.009 A 
ATOM     18  C   UNL     1      15.859  47.266  31.365  1.00  0.00     0.160 A 
ATOM     19  C   UNL     1      17.356  48.367  29.803  1.00  0.00     0.050 A 
ATOM     20  C   UNL     1      16.987  47.231  30.533  1.00  0.00     0.157 A 
BRANCH  18  21
ATOM     21  O   UNL     1      15.515  46.105  32.074  1.00  0.00    -0.493 OA
ATOM     22  C   UNL     1      14.780  46.094  33.295  1.00  0.00     0.278 C 
ENDBRANCH  18  21
BRANCH  20  23
ATOM     23  O   UNL     1      17.732  46.058  30.432  1.00  0.00    -0.504 OA
ATOM     24  H   UNL     1      18.716  46.033  30.670  1.00  0.00     0.293 HD
ENDBRANCH  20  23
ENDBRANCH  14  15
ENDBRANCH  12  14
ENDBRANCH   9  10
ENDBRANCH   1   9
TORSDOF 10
ENDMDL
MODEL 5
REMARK VINA RESULT:    -4.886      1.102      2.186
REMARK INTER + INTRA:          -9.317
REMARK INTER:                  -7.206
REMARK INTRA:                  -2.110
REMARK UNBOUND:                -1.717
REMARK SMILES COc1cc(CNC(=O)CCCCC=CC(C)C)ccc1O
REMARK SMILES IDX 11 1 12 2 13 3 14 4 15 5 16 6 17 7 18 8 10 9 8 10 9 11 7 12
REMARK SMILES IDX 6 14 5 15 4 16 19 17 3 18 20 19 21 20 2 21 1 22 22 23
REMARK H PARENT 7 13 22 24
REMARK Flexibility Score: inf
ROOT
ATOM      1  C   UNL     1      14.366  53.172  35.409  1.00  0.00     0.010 C 
ENDROOT
BRANCH   1   2
ATOM      2  C   UNL     1      15.772  53.526  34.896  1.00  0.00     0.005 C 
BRANCH   2   3
ATOM      3  C   UNL     1      15.885  53.409  33.371  1.00  0.00     0.027 C 
BRANCH   3   4
ATOM      4  C   UNL     1      14.799  52.540  32.797  1.00  0.00    -0.031 C 
ATOM      5  C   UNL     1      15.020  51.753  31.731  1.00  0.00    -0.028 C 
BRANCH   5   6
ATOM      6  C   UNL     1      13.931  50.927  31.085  1.00  0.00     0.005 C 
ATOM      7  C   UNL     1      14.184  49.426  31.271  1.00  0.00     0.012 C 
ATOM      8  C   UNL     1      13.769  51.282  29.602  1.00  0.00     0.012 C 
ENDBRANCH   5   6
ENDBRANCH   3   4
ENDBRANCH   2   3
ENDBRANCH   1   2
BRANCH   1   9
ATOM      9  C   UNL     1      13.585  54.408  35.873  1.00  0.00     0.100 C 
BRANCH   9  10
ATOM     10  C   UNL     1      12.793  55.008  34.750  1.00  0.00     0.220 C 
ATOM     11  O   UNL     1      11.802  54.382  34.287  1.00  0.00    -0.275 OA
ATOM     12  N   UNL     1      13.196  56.254  34.167  1.00  0.00    -0.352 N 
ATOM     13  H   UNL     1      13.964  56.797  34.624  1.00  0.00     0.163 HD
BRANCH  12  14
ATOM     14  C   UNL     1      12.816  56.632  32.809  1.00  0.00     0.151 C 
BRANCH  14  15
ATOM     15  C   UNL     1      13.942  56.308  31.868  1.00  0.00    -0.025 A 
ATOM     16  C   UNL     1      15.222  56.834  32.099  1.00  0.00     0.056 A 
ATOM     17  C   UNL     1      13.751  55.396  30.821  1.00  0.00     0.009 A 
ATOM     18  C   UNL     1      16.306  56.470  31.275  1.00  0.00     0.160 A 
ATOM     19  C   UNL     1      14.822  55.033  30.000  1.00  0.00     0.050 A 
ATOM     20  C   UNL     1      16.097  55.568  30.223  1.00  0.00     0.157 A 
BRANCH  18  21
ATOM     21  O   UNL     1      17.599  56.979  31.472  1.00  0.00    -0.493 OA
ATOM     22  C   UNL     1      17.889  58.215  32.120  1.00  0.00     0.278 C 
ENDBRANCH  18  21
BRANCH  20  23
ATOM     23  O   UNL     1      17.164  55.201  29.407  1.00  0.00    -0.504 OA
ATOM     24  H   UNL     1      17.981  54.734  29.779  1.00  0.00     0.293 HD
ENDBRANCH  20  23
ENDBRANCH  14  15
ENDBRANCH  12  14
ENDBRANCH   9  10
ENDBRANCH   1   9
TORSDOF 10
ENDMDL
MODEL 6
REMARK VINA RESULT:    -4.865      3.813      6.582
REMARK INTER + INTRA:          -9.284
REMARK INTER:                  -8.501
REMARK INTRA:                  -0.783
REMARK UNBOUND:                -1.717
REMARK SMILES COc1cc(CNC(=O)CCCCC=CC(C)C)ccc1O
REMARK SMILES IDX 11 1 12 2 13 3 14 4 15 5 16 6 17 7 18 8 10 9 8 10 9 11 7 12
REMARK SMILES IDX 6 14 5 15 4 16 19 17 3 18 20 19 21 20 2 21 1 22 22 23
REMARK H PARENT 7 13 22 24
REMARK Flexibility Score: inf
ROOT
ATOM      1  C   UNL     1      15.162  47.656  31.042  1.00  0.00     0.010 C 
ENDROOT
BRANCH   1   2
ATOM      2  C   UNL     1      15.999  46.751  31.963  1.00  0.00     0.005 C 
BRANCH   2   3
ATOM      3  C   UNL     1      15.408  46.646  33.374  1.00  0.00     0.027 C 
BRANCH   3   4
ATOM      4  C   UNL     1      13.917  46.446  33.340  1.00  0.00    -0.031 C 
ATOM      5  C   UNL     1      13.250  45.962  34.401  1.00  0.00    -0.028 C 
BRANCH   5   6
ATOM      6  C   UNL     1      11.766  45.678  34.375  1.00  0.00     0.005 C 
ATOM      7  C   UNL     1      10.981  46.864  33.800  1.00  0.00     0.012 C 
ATOM      8  C   UNL     1      11.248  45.292  35.765  1.00  0.00     0.012 C 
ENDBRANCH   5   6
ENDBRANCH   3   4
ENDBRANCH   2   3
ENDBRANCH   1   2
BRANCH   1   9
ATOM      9  C   UNL     1      15.872  48.977  30.719  1.00  0.00     0.100 C 
BRANCH   9  10
ATOM     10  C   UNL     1      15.029  50.157  31.101  1.00  0.00     0.220 C 
ATOM     11  O   UNL     1      13.782  50.016  31.216  1.00  0.00    -0.275 OA
ATOM     12  N   UNL     1      15.629  51.447  31.275  1.00  0.00    -0.352 N 
ATOM     13  H   UNL     1      16.672  51.521  31.263  1.00  0.00     0.163 HD
BRANCH  12  14
ATOM     14  C   UNL     1      14.861  52.682  31.143  1.00  0.00     0.151 C 
BRANCH  14  15
ATOM     15  C   UNL     1      14.598  53.253  32.509  1.00  0.00    -0.025 A 
ATOM     16  C   UNL     1      13.314  53.710  32.842  1.00  0.00     0.056 A 
ATOM     17  C   UNL     1      15.599  53.232  33.490  1.00  0.00     0.009 A 
ATOM     18  C   UNL     1      13.032  54.167  34.145  1.00  0.00     0.160 A 
ATOM     19  C   UNL     1      15.324  53.686  34.783  1.00  0.00     0.050 A 
ATOM     20  C   UNL     1      14.046  54.154  35.112  1.00  0.00     0.157 A 
BRANCH  18  21
ATOM     21  O   UNL     1      11.761  54.635  34.514  1.00  0.00    -0.493 OA
ATOM     22  C   UNL     1      11.319  55.980  34.351  1.00  0.00     0.278 C 
ENDBRANCH  18  21
BRANCH  20  23
ATOM     23  O   UNL     1      13.773  54.602  36.403  1.00  0.00    -0.504 OA
ATOM     24  H   UNL     1      14.510  54.916  37.022  1.00  0.00     0.293 HD
ENDBRANCH  20  23
ENDBRANCH  14  15
ENDBRANCH  12  14
ENDBRANCH   9  10
ENDBRANCH   1   9
TORSDOF 10
ENDMDL
MODEL 7
REMARK VINA RESULT:    -4.755      3.893      7.634
REMARK INTER + INTRA:          -9.112
REMARK INTER:                  -8.089
REMARK INTRA:                  -1.023
REMARK UNBOUND:                -1.717
REMARK SMILES COc1cc(CNC(=O)CCCCC=CC(C)C)ccc1O
REMARK SMILES IDX 11 1 12 2 13 3 14 4 15 5 16 6 17 7 18 8 10 9 8 10 9 11 7 12
REMARK SMILES IDX 6 14 5 15 4 16 19 17 3 18 20 19 21 20 2 21 1 22 22 23
REMARK H PARENT 7 13 22 24
REMARK Flexibility Score: inf
ROOT
ATOM      1  C   UNL     1      15.095  55.353  30.729  1.00  0.00     0.010 C 
ENDROOT
BRANCH   1   2
ATOM      2  C   UNL     1      16.147  55.933  31.691  1.00  0.00     0.005 C 
BRANCH   2   3
ATOM      3  C   UNL     1      15.524  56.836  32.763  1.00  0.00     0.027 C 
BRANCH   3   4
ATOM      4  C   UNL     1      14.648  56.057  33.706  1.00  0.00    -0.031 C 
ATOM      5  C   UNL     1      15.156  55.107  34.511  1.00  0.00    -0.028 C 
BRANCH   5   6
ATOM      6  C   UNL     1      14.294  54.255  35.414  1.00  0.00     0.005 C 
ATOM      7  C   UNL     1      14.770  52.797  35.428  1.00  0.00     0.012 C 
ATOM      8  C   UNL     1      12.814  54.351  35.024  1.00  0.00     0.012 C 
ENDBRANCH   5   6
ENDBRANCH   3   4
ENDBRANCH   2   3
ENDBRANCH   1   2
BRANCH   1   9
ATOM      9  C   UNL     1      15.475  53.956  30.222  1.00  0.00     0.100 C 
BRANCH   9  10
ATOM     10  C   UNL     1      14.612  52.897  30.841  1.00  0.00     0.220 C 
ATOM     11  O   UNL     1      13.894  53.187  31.836  1.00  0.00    -0.275 OA
ATOM     12  N   UNL     1      14.648  51.553  30.344  1.00  0.00    -0.352 N 
ATOM     13  H   UNL     1      15.181  51.357  29.466  1.00  0.00     0.163 HD
BRANCH  12  14
ATOM     14  C   UNL     1      14.258  50.412  31.168  1.00  0.00     0.151 C 
BRANCH  14  15
ATOM     15  C   UNL     1      15.248  49.297  30.974  1.00  0.00    -0.025 A 
ATOM     16  C   UNL     1      15.026  48.050  31.578  1.00  0.00     0.056 A 
ATOM     17  C   UNL     1      16.336  49.458  30.105  1.00  0.00     0.009 A 
ATOM     18  C   UNL     1      15.900  46.971  31.335  1.00  0.00     0.160 A 
ATOM     19  C   UNL     1      17.206  48.392  29.862  1.00  0.00     0.050 A 
ATOM     20  C   UNL     1      16.992  47.151  30.475  1.00  0.00     0.157 A 
BRANCH  18  21
ATOM     21  O   UNL     1      15.713  45.711  31.924  1.00  0.00    -0.493 OA
ATOM     22  C   UNL     1      14.741  44.759  31.501  1.00  0.00     0.278 C 
ENDBRANCH  18  21
BRANCH  20  23
ATOM     23  O   UNL     1      17.857  46.088  30.228  1.00  0.00    -0.504 OA
ATOM     24  H   UNL     1      18.785  46.054  30.632  1.00  0.00     0.293 HD
ENDBRANCH  20  23
ENDBRANCH  14  15
ENDBRANCH  12  14
ENDBRANCH   9  10
ENDBRANCH   1   9
TORSDOF 10
ENDMDL
MODEL 8
REMARK VINA RESULT:    -4.715      1.669      2.123
REMARK INTER + INTRA:          -9.050
REMARK INTER:                  -7.018
REMARK INTRA:                  -2.031
REMARK UNBOUND:                -1.717
REMARK SMILES COc1cc(CNC(=O)CCCCC=CC(C)C)ccc1O
REMARK SMILES IDX 11 1 12 2 13 3 14 4 15 5 16 6 17 7 18 8 10 9 8 10 9 11 7 12
REMARK SMILES IDX 6 14 5 15 4 16 19 17 3 18 20 19 21 20 2 21 1 22 22 23
REMARK H PARENT 7 13 22 24
REMARK Flexibility Score: inf
ROOT
ATOM      1  C   UNL     1      14.823  54.433  35.682  1.00  0.00     0.010 C 
ENDROOT
BRANCH   1   2
ATOM      2  C   UNL     1      15.091  53.057  35.047  1.00  0.00     0.005 C 
BRANCH   2   3
ATOM      3  C   UNL     1      16.114  53.129  33.906  1.00  0.00     0.027 C 
BRANCH   3   4
ATOM      4  C   UNL     1      15.658  54.050  32.807  1.00  0.00    -0.031 C 
ATOM      5  C   UNL     1      15.346  53.584  31.586  1.00  0.00    -0.028 C 
BRANCH   5   6
ATOM      6  C   UNL     1      14.959  54.490  30.440  1.00  0.00     0.005 C 
ATOM      7  C   UNL     1      14.326  53.696  29.290  1.00  0.00     0.012 C 
ATOM      8  C   UNL     1      16.156  55.313  29.952  1.00  0.00     0.012 C 
ENDBRANCH   5   6
ENDBRANCH   3   4
ENDBRANCH   2   3
ENDBRANCH   1   2
BRANCH   1   9
ATOM      9  C   UNL     1      13.324  54.723  35.837  1.00  0.00     0.100 C 
BRANCH   9  10
ATOM     10  C   UNL     1      12.724  55.196  34.547  1.00  0.00     0.220 C 
ATOM     11  O   UNL     1      12.084  54.383  33.827  1.00  0.00    -0.275 OA
ATOM     12  N   UNL     1      12.927  56.545  34.107  1.00  0.00    -0.352 N 
ATOM     13  H   UNL     1      13.383  57.222  34.760  1.00  0.00     0.163 HD
BRANCH  12  14
ATOM     14  C   UNL     1      12.827  56.924  32.700  1.00  0.00     0.151 C 
BRANCH  14  15
ATOM     15  C   UNL     1      14.126  57.537  32.256  1.00  0.00    -0.025 A 
ATOM     16  C   UNL     1      14.182  58.274  31.064  1.00  0.00     0.056 A 
ATOM     17  C   UNL     1      15.259  57.471  33.080  1.00  0.00     0.009 A 
ATOM     18  C   UNL     1      15.371  58.926  30.680  1.00  0.00     0.160 A 
ATOM     19  C   UNL     1      16.440  58.115  32.703  1.00  0.00     0.050 A 
ATOM     20  C   UNL     1      16.500  58.840  31.506  1.00  0.00     0.157 A 
BRANCH  18  21
ATOM     21  O   UNL     1      15.467  59.669  29.493  1.00  0.00    -0.493 OA
ATOM     22  C   UNL     1      15.791  59.116  28.220  1.00  0.00     0.278 C 
ENDBRANCH  18  21
BRANCH  20  23
ATOM     23  O   UNL     1      17.677  59.485  31.134  1.00  0.00    -0.504 OA
ATOM     24  H   UNL     1      18.512  58.967  30.892  1.00  0.00     0.293 HD
ENDBRANCH  20  23
ENDBRANCH  14  15
ENDBRANCH  12  14
ENDBRANCH   9  10
ENDBRANCH   1   9
TORSDOF 10
ENDMDL
MODEL 9
REMARK VINA RESULT:    -4.543      3.599      6.179
REMARK INTER + INTRA:          -8.783
REMARK INTER:                  -8.109
REMARK INTRA:                  -0.673
REMARK UNBOUND:                -1.717
REMARK SMILES COc1cc(CNC(=O)CCCCC=CC(C)C)ccc1O
REMARK SMILES IDX 11 1 12 2 13 3 14 4 15 5 16 6 17 7 18 8 10 9 8 10 9 11 7 12
REMARK SMILES IDX 6 14 5 15 4 16 19 17 3 18 20 19 21 20 2 21 1 22 22 23
REMARK H PARENT 7 13 22 24
REMARK Flexibility Score: inf
ROOT
ATOM      1  C   UNL     1      16.592  48.039  29.800  1.00  0.00     0.010 C 
ENDROOT
BRANCH   1   2
ATOM      2  C   UNL     1      16.687  46.712  30.573  1.00  0.00     0.005 C 
BRANCH   2   3
ATOM      3  C   UNL     1      16.481  46.897  32.082  1.00  0.00     0.027 C 
BRANCH   3   4
ATOM      4  C   UNL     1      15.196  46.271  32.549  1.00  0.00    -0.031 C 
ATOM      5  C   UNL     1      14.636  46.611  33.722  1.00  0.00    -0.028 C 
BRANCH   5   6
ATOM      6  C   UNL     1      13.388  45.947  34.256  1.00  0.00     0.005 C 
ATOM      7  C   UNL     1      13.486  44.419  34.167  1.00  0.00     0.012 C 
ATOM      8  C   UNL     1      12.133  46.464  33.542  1.00  0.00     0.012 C 
ENDBRANCH   5   6
ENDBRANCH   3   4
ENDBRANCH   2   3
ENDBRANCH   1   2
BRANCH   1   9
ATOM      9  C   UNL     1      15.483  48.951  30.341  1.00  0.00     0.100 C 
BRANCH   9  10
ATOM     10  C   UNL     1      15.639  50.356  29.840  1.00  0.00     0.220 C 
ATOM     11  O   UNL     1      16.547  50.619  29.006  1.00  0.00    -0.275 OA
ATOM     12  N   UNL     1      14.803  51.402  30.351  1.00  0.00    -0.352 N 
ATOM     13  H   UNL     1      14.001  51.146  30.972  1.00  0.00     0.163 HD
BRANCH  12  14
ATOM     14  C   UNL     1      15.206  52.805  30.310  1.00  0.00     0.151 C 
BRANCH  14  15
ATOM     15  C   UNL     1      15.223  53.359  31.708  1.00  0.00    -0.025 A 
ATOM     16  C   UNL     1      15.371  54.739  31.913  1.00  0.00     0.056 A 
ATOM     17  C   UNL     1      14.982  52.520  32.805  1.00  0.00     0.009 A 
ATOM     18  C   UNL     1      15.303  55.281  33.212  1.00  0.00     0.160 A 
ATOM     19  C   UNL     1      14.914  53.053  34.095  1.00  0.00     0.050 A 
ATOM     20  C   UNL     1      15.075  54.429  34.302  1.00  0.00     0.157 A 
BRANCH  18  21
ATOM     21  O   UNL     1      15.450  56.655  33.458  1.00  0.00    -0.493 OA
ATOM     22  C   UNL     1      16.091  57.568  32.571  1.00  0.00     0.278 C 
ENDBRANCH  18  21
BRANCH  20  23
ATOM     23  O   UNL     1      15.003  54.958  35.588  1.00  0.00    -0.504 OA
ATOM     24  H   UNL     1      15.821  55.325  36.058  1.00  0.00     0.293 HD
ENDBRANCH  20  23
ENDBRANCH  14  15
ENDBRANCH  12  14
ENDBRANCH   9  10
ENDBRANCH   1   9
TORSDOF 10
ENDMDL
