MODEL 1
REMARK VINA RESULT:    -3.800      0.000      0.000
REMARK INTER + INTRA:          -6.934
REMARK INTER:                  -6.022
REMARK INTRA:                  -0.912
REMARK UNBOUND:                -0.912
REMARK SMILES CCCCCCCCCCCC(=O)[O-]
REMARK SMILES IDX 7 1 8 2 9 3 10 4 11 5 12 6 13 7 14 8 6 9 5 10 4 11 3 12 2 13
REMARK SMILES IDX 1 14
REMARK H PARENT
REMARK Flexibility Score: inf
ROOT
ATOM      1  C   UNL     1     162.734 157.619 166.822  1.00  0.00     0.000 C 
ENDROOT
BRANCH   1   2
ATOM      2  C   UNL     1     162.972 158.486 165.577  1.00  0.00     0.000 C 
BRANCH   2   3
ATOM      3  C   UNL     1     161.707 159.239 165.129  1.00  0.00     0.000 C 
BRANCH   3   4
ATOM      4  C   UNL     1     160.520 158.296 164.872  1.00  0.00     0.006 C 
BRANCH   4   5
ATOM      5  C   UNL     1     159.476 158.908 163.929  1.00  0.00     0.053 C 
BRANCH   5   6
ATOM      6  C   UNL     1     158.254 159.308 164.693  1.00  0.00     0.041 C 
ATOM      7  O   UNL     1     158.329 159.555 165.925  1.00  0.00    -0.550 OA
ATOM      8  O   UNL     1     157.020 159.359 164.056  1.00  0.00    -0.550 OA
ENDBRANCH   5   6
ENDBRANCH   4   5
ENDBRANCH   3   4
ENDBRANCH   2   3
ENDBRANCH   1   2
BRANCH   1   9
ATOM      9  C   UNL     1     163.149 156.152 166.608  1.00  0.00     0.000 C 
BRANCH   9  10
ATOM     10  C   UNL     1     163.832 155.926 165.245  1.00  0.00    -0.000 C 
BRANCH  10  11
ATOM     11  C   UNL     1     163.208 154.790 164.410  1.00  0.00    -0.000 C 
BRANCH  11  12
ATOM     12  C   UNL     1     161.666 154.810 164.368  1.00  0.00    -0.000 C 
BRANCH  12  13
ATOM     13  C   UNL     1     161.048 153.523 163.789  1.00  0.00    -0.003 C 
ATOM     14  C   UNL     1     162.067 152.390 163.669  1.00  0.00     0.004 C 
ENDBRANCH  12  13
ENDBRANCH  11  12
ENDBRANCH  10  11
ENDBRANCH   9  10
ENDBRANCH   1   9
TORSDOF 10
ENDMDL
MODEL 2
REMARK VINA RESULT:    -3.662     13.251     14.556
REMARK INTER + INTRA:          -6.716
REMARK INTER:                  -6.256
REMARK INTRA:                  -0.460
REMARK UNBOUND:                -0.912
REMARK SMILES CCCCCCCCCCCC(=O)[O-]
REMARK SMILES IDX 7 1 8 2 9 3 10 4 11 5 12 6 13 7 14 8 6 9 5 10 4 11 3 12 2 13
REMARK SMILES IDX 1 14
REMARK H PARENT
REMARK Flexibility Score: inf
ROOT
ATOM      1  C   UNL     1     159.770 158.484 149.993  1.00  0.00     0.000 C 
ENDROOT
BRANCH   1   2
ATOM      2  C   UNL     1     161.076 158.259 150.770  1.00  0.00     0.000 C 
BRANCH   2   3
ATOM      3  C   UNL     1     162.163 159.286 150.410  1.00  0.00     0.000 C 
BRANCH   3   4
ATOM      4  C   UNL     1     163.549 158.890 150.946  1.00  0.00     0.006 C 
BRANCH   4   5
ATOM      5  C   UNL     1     164.377 160.103 151.388  1.00  0.00     0.053 C 
BRANCH   5   6
ATOM      6  C   UNL     1     165.610 159.658 152.110  1.00  0.00     0.041 C 
ATOM      7  O   UNL     1     165.517 158.925 153.130  1.00  0.00    -0.550 OA
ATOM      8  O   UNL     1     166.859 160.092 151.686  1.00  0.00    -0.550 OA
ENDBRANCH   5   6
ENDBRANCH   4   5
ENDBRANCH   3   4
ENDBRANCH   2   3
ENDBRANCH   1   2
BRANCH   1   9
ATOM      9  C   UNL     1     158.597 158.876 150.909  1.00  0.00     0.000 C 
BRANCH   9  10
ATOM     10  C   UNL     1     157.296 158.131 150.551  1.00  0.00    -0.000 C 
BRANCH  10  11
ATOM     11  C   UNL     1     157.099 156.807 151.317  1.00  0.00    -0.000 C 
BRANCH  11  12
ATOM     12  C   UNL     1     157.643 156.825 152.762  1.00  0.00    -0.000 C 
BRANCH  12  13
ATOM     13  C   UNL     1     158.165 155.459 153.242  1.00  0.00    -0.003 C 
ATOM     14  C   UNL     1     157.116 154.355 153.111  1.00  0.00     0.004 C 
ENDBRANCH  12  13
ENDBRANCH  11  12
ENDBRANCH  10  11
ENDBRANCH   9  10
ENDBRANCH   1   9
TORSDOF 10
ENDMDL
MODEL 3
REMARK VINA RESULT:    -3.641      7.725     10.278
REMARK INTER + INTRA:          -6.681
REMARK INTER:                  -5.020
REMARK INTRA:                  -1.662
REMARK UNBOUND:                -0.912
REMARK SMILES CCCCCCCCCCCC(=O)[O-]
REMARK SMILES IDX 7 1 8 2 9 3 10 4 11 5 12 6 13 7 14 8 6 9 5 10 4 11 3 12 2 13
REMARK SMILES IDX 1 14
REMARK H PARENT
REMARK Flexibility Score: inf
ROOT
ATOM      1  C   UNL     1     151.252 158.172 160.966  1.00  0.00     0.000 C 
ENDROOT
BRANCH   1   2
ATOM      2  C   UNL     1     150.260 158.317 162.130  1.00  0.00     0.000 C 
BRANCH   2   3
ATOM      3  C   UNL     1     150.679 157.505 163.369  1.00  0.00     0.000 C 
BRANCH   3   4
ATOM      4  C   UNL     1     151.691 156.397 163.033  1.00  0.00     0.006 C 
BRANCH   4   5
ATOM      5  C   UNL     1     152.818 156.296 164.069  1.00  0.00     0.053 C 
BRANCH   5   6
ATOM      6  C   UNL     1     153.972 155.525 163.510  1.00  0.00     0.041 C 
ATOM      7  O   UNL     1     153.802 154.354 163.078  1.00  0.00    -0.550 OA
ATOM      8  O   UNL     1     155.246 156.079 163.513  1.00  0.00    -0.550 OA
ENDBRANCH   5   6
ENDBRANCH   4   5
ENDBRANCH   3   4
ENDBRANCH   2   3
ENDBRANCH   1   2
BRANCH   1   9
ATOM      9  C   UNL     1     151.587 159.521 160.304  1.00  0.00     0.000 C 
BRANCH   9  10
ATOM     10  C   UNL     1     152.906 160.121 160.828  1.00  0.00    -0.000 C 
BRANCH  10  11
ATOM     11  C   UNL     1     153.862 159.087 161.456  1.00  0.00    -0.000 C 
BRANCH  11  12
ATOM     12  C   UNL     1     154.319 159.437 162.888  1.00  0.00    -0.000 C 
BRANCH  12  13
ATOM     13  C   UNL     1     153.231 160.125 163.732  1.00  0.00    -0.003 C 
ATOM     14  C   UNL     1     153.329 159.767 165.215  1.00  0.00     0.004 C 
ENDBRANCH  12  13
ENDBRANCH  11  12
ENDBRANCH  10  11
ENDBRANCH   9  10
ENDBRANCH   1   9
TORSDOF 10
ENDMDL
MODEL 4
REMARK VINA RESULT:    -3.591      1.964      3.864
REMARK INTER + INTRA:          -6.603
REMARK INTER:                  -5.192
REMARK INTRA:                  -1.411
REMARK UNBOUND:                -0.912
REMARK SMILES CCCCCCCCCCCC(=O)[O-]
REMARK SMILES IDX 7 1 8 2 9 3 10 4 11 5 12 6 13 7 14 8 6 9 5 10 4 11 3 12 2 13
REMARK SMILES IDX 1 14
REMARK H PARENT
REMARK Flexibility Score: inf
ROOT
ATOM      1  C   UNL     1     162.624 154.482 162.680  1.00  0.00     0.000 C 
ENDROOT
BRANCH   1   2
ATOM      2  C   UNL     1     161.622 154.223 163.815  1.00  0.00     0.000 C 
BRANCH   2   3
ATOM      3  C   UNL     1     161.306 155.491 164.627  1.00  0.00     0.000 C 
BRANCH   3   4
ATOM      4  C   UNL     1     161.762 156.776 163.916  1.00  0.00     0.006 C 
BRANCH   4   5
ATOM      5  C   UNL     1     161.963 157.946 164.887  1.00  0.00     0.053 C 
BRANCH   5   6
ATOM      6  C   UNL     1     160.807 158.892 164.812  1.00  0.00     0.041 C 
ATOM      7  O   UNL     1     160.792 159.932 165.521  1.00  0.00    -0.550 OA
ATOM      8  O   UNL     1     159.721 158.599 163.996  1.00  0.00    -0.550 OA
ENDBRANCH   5   6
ENDBRANCH   4   5
ENDBRANCH   3   4
ENDBRANCH   2   3
ENDBRANCH   1   2
BRANCH   1   9
ATOM      9  C   UNL     1     163.767 153.451 162.654  1.00  0.00     0.000 C 
BRANCH   9  10
ATOM     10  C   UNL     1     164.095 152.901 164.055  1.00  0.00    -0.000 C 
BRANCH  10  11
ATOM     11  C   UNL     1     165.285 153.602 164.743  1.00  0.00    -0.000 C 
BRANCH  11  12
ATOM     12  C   UNL     1     164.913 154.913 165.467  1.00  0.00    -0.000 C 
BRANCH  12  13
ATOM     13  C   UNL     1     165.425 156.178 164.752  1.00  0.00    -0.003 C 
ATOM     14  C   UNL     1     166.531 155.870 163.743  1.00  0.00     0.004 C 
ENDBRANCH  12  13
ENDBRANCH  11  12
ENDBRANCH  10  11
ENDBRANCH   9  10
ENDBRANCH   1   9
TORSDOF 10
ENDMDL
MODEL 5
REMARK VINA RESULT:    -3.583     12.274     13.903
REMARK INTER + INTRA:          -6.590
REMARK INTER:                  -5.148
REMARK INTRA:                  -1.442
REMARK UNBOUND:                -0.912
REMARK SMILES CCCCCCCCCCCC(=O)[O-]
REMARK SMILES IDX 7 1 8 2 9 3 10 4 11 5 12 6 13 7 14 8 6 9 5 10 4 11 3 12 2 13
REMARK SMILES IDX 1 14
REMARK H PARENT
REMARK Flexibility Score: inf
ROOT
ATOM      1  C   UNL     1     160.261 157.106 150.653  1.00  0.00     0.000 C 
ENDROOT
BRANCH   1   2
ATOM      2  C   UNL     1     159.592 155.762 150.328  1.00  0.00     0.000 C 
BRANCH   2   3
ATOM      3  C   UNL     1     159.867 154.690 151.397  1.00  0.00     0.000 C 
BRANCH   3   4
ATOM      4  C   UNL     1     160.191 155.296 152.771  1.00  0.00     0.006 C 
BRANCH   4   5
ATOM      5  C   UNL     1     159.262 154.780 153.877  1.00  0.00     0.053 C 
BRANCH   5   6
ATOM      6  C   UNL     1     160.060 154.280 155.039  1.00  0.00     0.041 C 
ATOM      7  O   UNL     1     161.217 154.729 155.252  1.00  0.00    -0.550 OA
ATOM      8  O   UNL     1     159.547 153.282 155.858  1.00  0.00    -0.550 OA
ENDBRANCH   5   6
ENDBRANCH   4   5
ENDBRANCH   3   4
ENDBRANCH   2   3
ENDBRANCH   1   2
BRANCH   1   9
ATOM      9  C   UNL     1     159.280 158.289 150.574  1.00  0.00     0.000 C 
BRANCH   9  10
ATOM     10  C   UNL     1     158.049 158.095 151.481  1.00  0.00    -0.000 C 
BRANCH  10  11
ATOM     11  C   UNL     1     156.706 158.075 150.724  1.00  0.00    -0.000 C 
BRANCH  11  12
ATOM     12  C   UNL     1     156.056 156.679 150.626  1.00  0.00    -0.000 C 
BRANCH  12  13
ATOM     13  C   UNL     1     156.257 155.816 151.886  1.00  0.00    -0.003 C 
ATOM     14  C   UNL     1     156.191 154.319 151.584  1.00  0.00     0.004 C 
ENDBRANCH  12  13
ENDBRANCH  11  12
ENDBRANCH  10  11
ENDBRANCH   9  10
ENDBRANCH   1   9
TORSDOF 10
ENDMDL
MODEL 6
REMARK VINA RESULT:    -3.557      3.789      6.480
REMARK INTER + INTRA:          -6.548
REMARK INTER:                  -5.546
REMARK INTRA:                  -1.002
REMARK UNBOUND:                -0.912
REMARK SMILES CCCCCCCCCCCC(=O)[O-]
REMARK SMILES IDX 7 1 8 2 9 3 10 4 11 5 12 6 13 7 14 8 6 9 5 10 4 11 3 12 2 13
REMARK SMILES IDX 1 14
REMARK H PARENT
REMARK Flexibility Score: inf
ROOT
ATOM      1  C   UNL     1     162.051 155.245 163.886  1.00  0.00     0.000 C 
ENDROOT
BRANCH   1   2
ATOM      2  C   UNL     1     161.895 153.749 163.574  1.00  0.00     0.000 C 
BRANCH   2   3
ATOM      3  C   UNL     1     163.204 152.964 163.773  1.00  0.00     0.000 C 
BRANCH   3   4
ATOM      4  C   UNL     1     164.448 153.787 163.404  1.00  0.00     0.006 C 
BRANCH   4   5
ATOM      5  C   UNL     1     165.466 153.861 164.548  1.00  0.00     0.053 C 
BRANCH   5   6
ATOM      6  C   UNL     1     166.341 155.064 164.392  1.00  0.00     0.041 C 
ATOM      7  O   UNL     1     167.585 154.929 164.250  1.00  0.00    -0.550 OA
ATOM      8  O   UNL     1     165.790 156.338 164.453  1.00  0.00    -0.550 OA
ENDBRANCH   5   6
ENDBRANCH   4   5
ENDBRANCH   3   4
ENDBRANCH   2   3
ENDBRANCH   1   2
BRANCH   1   9
ATOM      9  C   UNL     1     161.678 155.587 165.340  1.00  0.00     0.000 C 
BRANCH   9  10
ATOM     10  C   UNL     1     162.876 156.133 166.141  1.00  0.00    -0.000 C 
BRANCH  10  11
ATOM     11  C   UNL     1     162.734 157.611 166.556  1.00  0.00    -0.000 C 
BRANCH  11  12
ATOM     12  C   UNL     1     162.800 158.607 165.379  1.00  0.00    -0.000 C 
BRANCH  12  13
ATOM     13  C   UNL     1     161.628 159.605 165.350  1.00  0.00    -0.003 C 
ATOM     14  C   UNL     1     160.317 158.953 164.908  1.00  0.00     0.004 C 
ENDBRANCH  12  13
ENDBRANCH  11  12
ENDBRANCH  10  11
ENDBRANCH   9  10
ENDBRANCH   1   9
TORSDOF 10
ENDMDL
MODEL 7
REMARK VINA RESULT:    -3.535     12.835     14.400
REMARK INTER + INTRA:          -6.515
REMARK INTER:                  -5.830
REMARK INTRA:                  -0.685
REMARK UNBOUND:                -0.912
REMARK SMILES CCCCCCCCCCCC(=O)[O-]
REMARK SMILES IDX 7 1 8 2 9 3 10 4 11 5 12 6 13 7 14 8 6 9 5 10 4 11 3 12 2 13
REMARK SMILES IDX 1 14
REMARK H PARENT
REMARK Flexibility Score: inf
ROOT
ATOM      1  C   UNL     1     157.593 158.215 150.905  1.00  0.00     0.000 C 
ENDROOT
BRANCH   1   2
ATOM      2  C   UNL     1     157.578 156.847 150.206  1.00  0.00     0.000 C 
BRANCH   2   3
ATOM      3  C   UNL     1     157.147 155.707 151.146  1.00  0.00     0.000 C 
BRANCH   3   4
ATOM      4  C   UNL     1     157.358 156.054 152.629  1.00  0.00     0.006 C 
BRANCH   4   5
ATOM      5  C   UNL     1     157.756 154.833 153.468  1.00  0.00     0.053 C 
BRANCH   5   6
ATOM      6  C   UNL     1     159.240 154.792 153.658  1.00  0.00     0.041 C 
ATOM      7  O   UNL     1     159.986 155.548 152.982  1.00  0.00    -0.550 OA
ATOM      8  O   UNL     1     159.803 153.884 154.545  1.00  0.00    -0.550 OA
ENDBRANCH   5   6
ENDBRANCH   4   5
ENDBRANCH   3   4
ENDBRANCH   2   3
ENDBRANCH   1   2
BRANCH   1   9
ATOM      9  C   UNL     1     158.891 159.000 150.642  1.00  0.00     0.000 C 
BRANCH   9  10
ATOM     10  C   UNL     1     159.965 158.141 149.946  1.00  0.00    -0.000 C 
BRANCH  10  11
ATOM     11  C   UNL     1     161.252 157.952 150.774  1.00  0.00    -0.000 C 
BRANCH  11  12
ATOM     12  C   UNL     1     162.516 158.556 150.125  1.00  0.00    -0.000 C 
BRANCH  12  13
ATOM     13  C   UNL     1     162.971 159.876 150.775  1.00  0.00    -0.003 C 
ATOM     14  C   UNL     1     164.337 159.751 151.452  1.00  0.00     0.004 C 
ENDBRANCH  12  13
ENDBRANCH  11  12
ENDBRANCH  10  11
ENDBRANCH   9  10
ENDBRANCH   1   9
TORSDOF 10
ENDMDL
MODEL 8
REMARK VINA RESULT:    -3.530      7.801     10.227
REMARK INTER + INTRA:          -6.506
REMARK INTER:                  -5.116
REMARK INTRA:                  -1.390
REMARK UNBOUND:                -0.912
REMARK SMILES CCCCCCCCCCCC(=O)[O-]
REMARK SMILES IDX 7 1 8 2 9 3 10 4 11 5 12 6 13 7 14 8 6 9 5 10 4 11 3 12 2 13
REMARK SMILES IDX 1 14
REMARK H PARENT
REMARK Flexibility Score: inf
ROOT
ATOM      1  C   UNL     1     154.142 160.125 161.880  1.00  0.00     0.000 C 
ENDROOT
BRANCH   1   2
ATOM      2  C   UNL     1     154.162 160.029 163.413  1.00  0.00     0.000 C 
BRANCH   2   3
ATOM      3  C   UNL     1     152.877 159.403 163.983  1.00  0.00     0.000 C 
BRANCH   3   4
ATOM      4  C   UNL     1     153.158 158.170 164.857  1.00  0.00     0.006 C 
BRANCH   4   5
ATOM      5  C   UNL     1     152.713 156.862 164.190  1.00  0.00     0.053 C 
BRANCH   5   6
ATOM      6  C   UNL     1     153.890 156.147 163.605  1.00  0.00     0.041 C 
ATOM      7  O   UNL     1     153.776 154.958 163.208  1.00  0.00    -0.550 OA
ATOM      8  O   UNL     1     155.127 156.777 163.546  1.00  0.00    -0.550 OA
ENDBRANCH   5   6
ENDBRANCH   4   5
ENDBRANCH   3   4
ENDBRANCH   2   3
ENDBRANCH   1   2
BRANCH   1   9
ATOM      9  C   UNL     1     153.201 159.092 161.235  1.00  0.00     0.000 C 
BRANCH   9  10
ATOM     10  C   UNL     1     152.151 159.746 160.317  1.00  0.00    -0.000 C 
BRANCH  10  11
ATOM     11  C   UNL     1     150.710 159.251 160.557  1.00  0.00    -0.000 C 
BRANCH  11  12
ATOM     12  C   UNL     1     150.620 157.905 161.306  1.00  0.00    -0.000 C 
BRANCH  12  13
ATOM     13  C   UNL     1     149.341 157.752 162.149  1.00  0.00    -0.003 C 
ATOM     14  C   UNL     1     149.362 158.624 163.404  1.00  0.00     0.004 C 
ENDBRANCH  12  13
ENDBRANCH  11  12
ENDBRANCH  10  11
ENDBRANCH   9  10
ENDBRANCH   1   9
TORSDOF 10
ENDMDL
MODEL 9
REMARK VINA RESULT:    -3.469      7.485      9.641
REMARK INTER + INTRA:          -6.410
REMARK INTER:                  -5.059
REMARK INTRA:                  -1.350
REMARK UNBOUND:                -0.912
REMARK SMILES CCCCCCCCCCCC(=O)[O-]
REMARK SMILES IDX 7 1 8 2 9 3 10 4 11 5 12 6 13 7 14 8 6 9 5 10 4 11 3 12 2 13
REMARK SMILES IDX 1 14
REMARK H PARENT
REMARK Flexibility Score: inf
ROOT
ATOM      1  C   UNL     1     150.915 157.993 160.406  1.00  0.00     0.000 C 
ENDROOT
BRANCH   1   2
ATOM      2  C   UNL     1     152.400 158.384 160.384  1.00  0.00     0.000 C 
BRANCH   2   3
ATOM      3  C   UNL     1     152.623 159.880 160.666  1.00  0.00     0.000 C 
BRANCH   3   4
ATOM      4  C   UNL     1     153.703 160.125 161.732  1.00  0.00     0.006 C 
BRANCH   4   5
ATOM      5  C   UNL     1     153.135 160.123 163.156  1.00  0.00     0.053 C 
BRANCH   5   6
ATOM      6  C   UNL     1     154.198 159.753 164.142  1.00  0.00     0.041 C 
ATOM      7  O   UNL     1     153.893 159.161 165.210  1.00  0.00    -0.550 OA
ATOM      8  O   UNL     1     155.520 160.107 163.904  1.00  0.00    -0.550 OA
ENDBRANCH   5   6
ENDBRANCH   4   5
ENDBRANCH   3   4
ENDBRANCH   2   3
ENDBRANCH   1   2
BRANCH   1   9
ATOM      9  C   UNL     1     150.281 158.160 161.799  1.00  0.00     0.000 C 
BRANCH   9  10
ATOM     10  C   UNL     1     150.434 156.897 162.669  1.00  0.00    -0.000 C 
BRANCH  10  11
ATOM     11  C   UNL     1     151.637 156.939 163.633  1.00  0.00    -0.000 C 
BRANCH  11  12
ATOM     12  C   UNL     1     152.421 155.612 163.724  1.00  0.00    -0.000 C 
BRANCH  12  13
ATOM     13  C   UNL     1     153.949 155.799 163.740  1.00  0.00    -0.003 C 
ATOM     14  C   UNL     1     154.472 156.434 162.452  1.00  0.00     0.004 C 
ENDBRANCH  12  13
ENDBRANCH  11  12
ENDBRANCH  10  11
ENDBRANCH   9  10
ENDBRANCH   1   9
TORSDOF 10
ENDMDL
