MODEL 1
REMARK VINA RESULT:    -6.083      0.000      0.000
REMARK INTER + INTRA:          -8.328
REMARK INTER:                  -8.928
REMARK INTRA:                   0.601
REMARK UNBOUND:                 0.601
REMARK SMILES O=c1c(O[C@H]2O[C@@H](CO)[C@H](O)[C@@H](O)[C@@H]2O)c(-c2ccc(O)c(O)c2)oc2cc(O)cc(O)c12
REMARK SMILES IDX 4 1 3 2 16 3 25 4 2 5 26 6 1 7 33 8 27 9 31 10 28 11 30 12
REMARK SMILES IDX 17 13 18 14 19 15 20 16 24 17 22 18 21 19 23 21 32 23 29 25
REMARK SMILES IDX 5 27 14 28 6 29 12 30 7 31 10 32 15 33 13 35 8 37 9 38 11 40
REMARK H PARENT 21 20 23 22 32 24 29 26 15 34 13 36 9 39 11 41
REMARK Flexibility Score: inf
ROOT
ATOM      1  O   UNL     1      50.224  12.771  25.153  1.00  0.00    -0.454 OA
ENDROOT
BRANCH   1   2
ATOM      2  C   UNL     1      51.110  13.080  26.213  1.00  0.00     0.214 A 
ATOM      3  C   UNL     1      51.137  14.393  26.717  1.00  0.00     0.180 A 
ATOM      4  O   UNL     1      52.339  14.901  26.977  1.00  0.00    -0.452 OA
ATOM      5  C   UNL     1      51.999  12.186  26.880  1.00  0.00     0.239 A 
ATOM      6  C   UNL     1      53.291  14.129  27.526  1.00  0.00     0.146 A 
ATOM      7  O   UNL     1      51.861  10.939  26.799  1.00  0.00    -0.285 OA
ATOM      8  C   UNL     1      53.006  12.753  27.707  1.00  0.00     0.111 A 
ATOM      9  C   UNL     1      54.445  14.717  28.075  1.00  0.00     0.094 A 
ATOM     10  C   UNL     1      53.722  12.077  28.704  1.00  0.00     0.134 A 
ATOM     11  C   UNL     1      55.145  14.031  29.070  1.00  0.00     0.123 A 
ATOM     12  C   UNL     1      54.719  12.771  29.456  1.00  0.00     0.093 A 
BRANCH   3  13
ATOM     13  C   UNL     1      50.077  14.653  27.717  1.00  0.00     0.025 A 
ATOM     14  C   UNL     1      49.038  15.522  27.401  1.00  0.00     0.016 A 
ATOM     15  C   UNL     1      47.727  15.274  27.835  1.00  0.00     0.051 A 
ATOM     16  C   UNL     1      47.484  14.175  28.643  1.00  0.00     0.157 A 
ATOM     17  C   UNL     1      49.841  13.698  28.730  1.00  0.00     0.062 A 
ATOM     18  C   UNL     1      48.558  13.484  29.227  1.00  0.00     0.158 A 
BRANCH  16  19
ATOM     19  O   UNL     1      46.177  13.771  28.910  1.00  0.00    -0.504 OA
ATOM     20  H   UNL     1      45.980  12.883  29.378  1.00  0.00     0.293 HD
ENDBRANCH  16  19
BRANCH  18  21
ATOM     21  O   UNL     1      48.327  12.596  30.275  1.00  0.00    -0.504 OA
ATOM     22  H   UNL     1      47.383  12.464  30.624  1.00  0.00     0.293 HD
ENDBRANCH  18  21
ENDBRANCH   3  13
BRANCH  10  23
ATOM     23  O   UNL     1      53.412  10.790  29.073  1.00  0.00    -0.507 OA
ATOM     24  H   UNL     1      53.202  10.630  30.058  1.00  0.00     0.293 HD
ENDBRANCH  10  23
BRANCH  11  25
ATOM     25  O   UNL     1      56.169  14.659  29.796  1.00  0.00    -0.508 OA
ATOM     26  H   UNL     1      56.678  15.493  29.474  1.00  0.00     0.293 HD
ENDBRANCH  11  25
ENDBRANCH   1   2
BRANCH   1  27
ATOM     27  C   UNL     1      49.917  13.606  24.012  1.00  0.00     0.339 C 
ATOM     28  C   UNL     1      51.012  14.688  23.847  1.00  0.00     0.214 C 
ATOM     29  O   UNL     1      48.746  14.361  24.273  1.00  0.00    -0.332 OA
ATOM     30  C   UNL     1      50.817  15.251  22.448  1.00  0.00     0.180 C 
ATOM     31  C   UNL     1      48.297  15.140  23.173  1.00  0.00     0.179 C 
ATOM     32  C   UNL     1      49.435  15.957  22.402  1.00  0.00     0.177 C 
BRANCH  28  33
ATOM     33  O   UNL     1      52.314  14.201  24.087  1.00  0.00    -0.384 OA
ATOM     34  H   UNL     1      52.622  14.587  24.974  1.00  0.00     0.211 HD
ENDBRANCH  28  33
BRANCH  30  35
ATOM     35  O   UNL     1      51.877  16.092  21.971  1.00  0.00    -0.387 OA
ATOM     36  H   UNL     1      51.619  17.050  22.109  1.00  0.00     0.211 HD
ENDBRANCH  30  35
BRANCH  31  37
ATOM     37  C   UNL     1      47.205  16.125  23.668  1.00  0.00     0.191 C 
BRANCH  37  38
ATOM     38  O   UNL     1      46.731  15.747  24.958  1.00  0.00    -0.394 OA
ATOM     39  H   UNL     1      45.743  15.749  24.888  1.00  0.00     0.210 HD
ENDBRANCH  37  38
ENDBRANCH  31  37
BRANCH  32  40
ATOM     40  O   UNL     1      49.034  16.125  21.064  1.00  0.00    -0.387 OA
ATOM     41  H   UNL     1      49.805  15.902  20.467  1.00  0.00     0.211 HD
ENDBRANCH  32  40
ENDBRANCH   1  27
TORSDOF 12
ENDMDL
MODEL 2
REMARK VINA RESULT:    -5.060      2.028      4.880
REMARK INTER + INTRA:          -6.826
REMARK INTER:                  -6.050
REMARK INTRA:                  -0.776
REMARK UNBOUND:                 0.601
REMARK SMILES O=c1c(O[C@H]2O[C@@H](CO)[C@H](O)[C@@H](O)[C@@H]2O)c(-c2ccc(O)c(O)c2)oc2cc(O)cc(O)c12
REMARK SMILES IDX 4 1 3 2 16 3 25 4 2 5 26 6 1 7 33 8 27 9 31 10 28 11 30 12
REMARK SMILES IDX 17 13 18 14 19 15 20 16 24 17 22 18 21 19 23 21 32 23 29 25
REMARK SMILES IDX 5 27 14 28 6 29 12 30 7 31 10 32 15 33 13 35 8 37 9 38 11 40
REMARK H PARENT 21 20 23 22 32 24 29 26 15 34 13 36 9 39 11 41
REMARK Flexibility Score: inf
ROOT
ATOM      1  O   UNL     1      51.028  13.675  27.972  1.00  0.00    -0.454 OA
ENDROOT
BRANCH   1   2
ATOM      2  C   UNL     1      52.430  13.764  27.794  1.00  0.00     0.214 A 
ATOM      3  C   UNL     1      53.276  13.131  28.723  1.00  0.00     0.180 A 
ATOM      4  O   UNL     1      54.350  13.816  29.105  1.00  0.00    -0.452 OA
ATOM      5  C   UNL     1      53.123  14.418  26.733  1.00  0.00     0.239 A 
ATOM      6  C   UNL     1      55.037  14.544  28.211  1.00  0.00     0.146 A 
ATOM      7  O   UNL     1      52.544  14.729  25.661  1.00  0.00    -0.285 OA
ATOM      8  C   UNL     1      54.517  14.643  26.897  1.00  0.00     0.111 A 
ATOM      9  C   UNL     1      56.323  15.021  28.528  1.00  0.00     0.094 A 
ATOM     10  C   UNL     1      55.426  14.925  25.868  1.00  0.00     0.134 A 
ATOM     11  C   UNL     1      57.216  15.295  27.491  1.00  0.00     0.123 A 
ATOM     12  C   UNL     1      56.805  15.141  26.178  1.00  0.00     0.093 A 
BRANCH   3  13
ATOM     13  C   UNL     1      53.473  11.690  28.441  1.00  0.00     0.025 A 
ATOM     14  C   UNL     1      54.694  11.096  28.742  1.00  0.00     0.016 A 
ATOM     15  C   UNL     1      54.760   9.786  29.240  1.00  0.00     0.051 A 
ATOM     16  C   UNL     1      53.588   9.058  29.373  1.00  0.00     0.157 A 
ATOM     17  C   UNL     1      52.343  10.848  28.354  1.00  0.00     0.062 A 
ATOM     18  C   UNL     1      52.404   9.523  28.776  1.00  0.00     0.158 A 
BRANCH  16  19
ATOM     19  O   UNL     1      53.584   7.848  30.064  1.00  0.00    -0.504 OA
ATOM     20  H   UNL     1      52.879   7.645  30.777  1.00  0.00     0.293 HD
ENDBRANCH  16  19
BRANCH  18  21
ATOM     21  O   UNL     1      51.316   8.665  28.629  1.00  0.00    -0.504 OA
ATOM     22  H   UNL     1      51.410   7.826  28.067  1.00  0.00     0.293 HD
ENDBRANCH  18  21
ENDBRANCH   3  13
BRANCH  10  23
ATOM     23  O   UNL     1      55.060  14.882  24.545  1.00  0.00    -0.507 OA
ATOM     24  H   UNL     1      55.465  14.138  23.977  1.00  0.00     0.293 HD
ENDBRANCH  10  23
BRANCH  11  25
ATOM     25  O   UNL     1      58.568  15.565  27.756  1.00  0.00    -0.508 OA
ATOM     26  H   UNL     1      59.349  14.978  27.434  1.00  0.00     0.293 HD
ENDBRANCH  11  25
ENDBRANCH   1   2
BRANCH   1  27
ATOM     27  C   UNL     1      50.014  14.336  27.180  1.00  0.00     0.339 C 
ATOM     28  C   UNL     1      48.662  14.308  27.933  1.00  0.00     0.214 C 
ATOM     29  O   UNL     1      49.753  13.579  26.010  1.00  0.00    -0.332 OA
ATOM     30  C   UNL     1      47.783  15.327  27.224  1.00  0.00     0.180 C 
ATOM     31  C   UNL     1      48.843  14.195  25.108  1.00  0.00     0.179 C 
ATOM     32  C   UNL     1      47.534  14.823  25.777  1.00  0.00     0.177 C 
BRANCH  28  33
ATOM     33  O   UNL     1      48.794  14.539  29.319  1.00  0.00    -0.384 OA
ATOM     34  H   UNL     1      49.783  14.477  29.542  1.00  0.00     0.211 HD
ENDBRANCH  28  33
BRANCH  30  35
ATOM     35  O   UNL     1      46.564  15.664  27.902  1.00  0.00    -0.387 OA
ATOM     36  H   UNL     1      45.992  16.212  27.290  1.00  0.00     0.211 HD
ENDBRANCH  30  35
BRANCH  31  37
ATOM     37  C   UNL     1      48.423  13.157  24.034  1.00  0.00     0.191 C 
BRANCH  37  38
ATOM     38  O   UNL     1      47.923  13.810  22.869  1.00  0.00    -0.394 OA
ATOM     39  H   UNL     1      48.510  13.513  22.127  1.00  0.00     0.210 HD
ENDBRANCH  37  38
ENDBRANCH  31  37
BRANCH  32  40
ATOM     40  O   UNL     1      47.092  15.891  24.974  1.00  0.00    -0.387 OA
ATOM     41  H   UNL     1      46.480  16.467  25.515  1.00  0.00     0.211 HD
ENDBRANCH  32  40
ENDBRANCH   1  27
TORSDOF 12
ENDMDL
MODEL 3
REMARK VINA RESULT:    -4.151      1.081      2.037
REMARK INTER + INTRA:          -5.492
REMARK INTER:                  -4.625
REMARK INTRA:                  -0.868
REMARK UNBOUND:                 0.601
REMARK SMILES O=c1c(O[C@H]2O[C@@H](CO)[C@H](O)[C@@H](O)[C@@H]2O)c(-c2ccc(O)c(O)c2)oc2cc(O)cc(O)c12
REMARK SMILES IDX 4 1 3 2 16 3 25 4 2 5 26 6 1 7 33 8 27 9 31 10 28 11 30 12
REMARK SMILES IDX 17 13 18 14 19 15 20 16 24 17 22 18 21 19 23 21 32 23 29 25
REMARK SMILES IDX 5 27 14 28 6 29 12 30 7 31 10 32 15 33 13 35 8 37 9 38 11 40
REMARK H PARENT 21 20 23 22 32 24 29 26 15 34 13 36 9 39 11 41
REMARK Flexibility Score: inf
ROOT
ATOM      1  O   UNL     1      50.445  12.721  25.280  1.00  0.00    -0.454 OA
ENDROOT
BRANCH   1   2
ATOM      2  C   UNL     1      51.307  13.045  26.355  1.00  0.00     0.214 A 
ATOM      3  C   UNL     1      51.338  14.370  26.827  1.00  0.00     0.180 A 
ATOM      4  O   UNL     1      52.539  14.869  27.107  1.00  0.00    -0.452 OA
ATOM      5  C   UNL     1      52.165  12.157  27.069  1.00  0.00     0.239 A 
ATOM      6  C   UNL     1      53.466  14.100  27.700  1.00  0.00     0.146 A 
ATOM      7  O   UNL     1      52.013  10.911  27.015  1.00  0.00    -0.285 OA
ATOM      8  C   UNL     1      53.158  12.733  27.907  1.00  0.00     0.111 A 
ATOM      9  C   UNL     1      54.613  14.687  28.266  1.00  0.00     0.094 A 
ATOM     10  C   UNL     1      53.838  12.073  28.940  1.00  0.00     0.134 A 
ATOM     11  C   UNL     1      55.276  14.017  29.295  1.00  0.00     0.123 A 
ATOM     12  C   UNL     1      54.824  12.773  29.701  1.00  0.00     0.093 A 
BRANCH   3  13
ATOM     13  C   UNL     1      50.255  14.669  27.791  1.00  0.00     0.025 A 
ATOM     14  C   UNL     1      49.269  15.587  27.449  1.00  0.00     0.016 A 
ATOM     15  C   UNL     1      47.933  15.395  27.833  1.00  0.00     0.051 A 
ATOM     16  C   UNL     1      47.611  14.300  28.619  1.00  0.00     0.157 A 
ATOM     17  C   UNL     1      49.940  13.716  28.785  1.00  0.00     0.062 A 
ATOM     18  C   UNL     1      48.631  13.556  29.234  1.00  0.00     0.158 A 
BRANCH  16  19
ATOM     19  O   UNL     1      46.278  13.954  28.834  1.00  0.00    -0.504 OA
ATOM     20  H   UNL     1      45.965  12.982  28.775  1.00  0.00     0.293 HD
ENDBRANCH  16  19
BRANCH  18  21
ATOM     21  O   UNL     1      48.323  12.669  30.263  1.00  0.00    -0.504 OA
ATOM     22  H   UNL     1      47.645  11.931  30.103  1.00  0.00     0.293 HD
ENDBRANCH  18  21
ENDBRANCH   3  13
BRANCH  10  23
ATOM     23  O   UNL     1      53.501  10.800  29.333  1.00  0.00    -0.507 OA
ATOM     24  H   UNL     1      52.571  10.468  29.078  1.00  0.00     0.293 HD
ENDBRANCH  10  23
BRANCH  11  25
ATOM     25  O   UNL     1      56.289  14.651  30.033  1.00  0.00    -0.508 OA
ATOM     26  H   UNL     1      57.115  15.099  29.614  1.00  0.00     0.293 HD
ENDBRANCH  11  25
ENDBRANCH   1   2
BRANCH   1  27
ATOM     27  C   UNL     1      49.839  13.647  24.350  1.00  0.00     0.339 C 
ATOM     28  C   UNL     1      49.273  12.873  23.134  1.00  0.00     0.214 C 
ATOM     29  O   UNL     1      50.839  14.472  23.776  1.00  0.00    -0.332 OA
ATOM     30  C   UNL     1      48.348  13.851  22.426  1.00  0.00     0.180 C 
ATOM     31  C   UNL     1      50.336  15.491  22.922  1.00  0.00     0.179 C 
ATOM     32  C   UNL     1      49.211  15.023  21.886  1.00  0.00     0.177 C 
BRANCH  28  33
ATOM     33  O   UNL     1      48.649  11.659  23.492  1.00  0.00    -0.384 OA
ATOM     34  H   UNL     1      48.247  11.787  24.415  1.00  0.00     0.211 HD
ENDBRANCH  28  33
BRANCH  30  35
ATOM     35  O   UNL     1      47.509  13.278  21.412  1.00  0.00    -0.387 OA
ATOM     36  H   UNL     1      46.612  13.722  21.444  1.00  0.00     0.211 HD
ENDBRANCH  30  35
BRANCH  31  37
ATOM     37  C   UNL     1      51.520  16.122  22.143  1.00  0.00     0.191 C 
BRANCH  37  38
ATOM     38  O   UNL     1      52.764  15.772  22.744  1.00  0.00    -0.394 OA
ATOM     39  H   UNL     1      53.179  15.115  22.130  1.00  0.00     0.210 HD
ENDBRANCH  37  38
ENDBRANCH  31  37
BRANCH  32  40
ATOM     40  O   UNL     1      48.384  16.125  21.599  1.00  0.00    -0.387 OA
ATOM     41  H   UNL     1      48.930  16.960  21.657  1.00  0.00     0.211 HD
ENDBRANCH  32  40
ENDBRANCH   1  27
TORSDOF 12
ENDMDL
MODEL 4
REMARK VINA RESULT:    -4.058      2.472      4.575
REMARK INTER + INTRA:          -5.355
REMARK INTER:                  -4.552
REMARK INTRA:                  -0.802
REMARK UNBOUND:                 0.601
REMARK SMILES O=c1c(O[C@H]2O[C@@H](CO)[C@H](O)[C@@H](O)[C@@H]2O)c(-c2ccc(O)c(O)c2)oc2cc(O)cc(O)c12
REMARK SMILES IDX 4 1 3 2 16 3 25 4 2 5 26 6 1 7 33 8 27 9 31 10 28 11 30 12
REMARK SMILES IDX 17 13 18 14 19 15 20 16 24 17 22 18 21 19 23 21 32 23 29 25
REMARK SMILES IDX 5 27 14 28 6 29 12 30 7 31 10 32 15 33 13 35 8 37 9 38 11 40
REMARK H PARENT 21 20 23 22 32 24 29 26 15 34 13 36 9 39 11 41
REMARK Flexibility Score: inf
ROOT
ATOM      1  O   UNL     1      52.111  15.647  25.933  1.00  0.00    -0.454 OA
ENDROOT
BRANCH   1   2
ATOM      2  C   UNL     1      53.504  15.457  26.097  1.00  0.00     0.214 A 
ATOM      3  C   UNL     1      53.975  14.844  27.272  1.00  0.00     0.180 A 
ATOM      4  O   UNL     1      55.057  15.382  27.826  1.00  0.00    -0.452 OA
ATOM      5  C   UNL     1      54.534  15.801  25.171  1.00  0.00     0.239 A 
ATOM      6  C   UNL     1      56.060  15.825  27.051  1.00  0.00     0.146 A 
ATOM      7  O   UNL     1      54.281  16.032  23.962  1.00  0.00    -0.285 OA
ATOM      8  C   UNL     1      55.873  15.801  25.647  1.00  0.00     0.111 A 
ATOM      9  C   UNL     1      57.315  16.113  27.618  1.00  0.00     0.094 A 
ATOM     10  C   UNL     1      57.024  15.750  24.849  1.00  0.00     0.134 A 
ATOM     11  C   UNL     1      58.452  16.055  26.809  1.00  0.00     0.123 A 
ATOM     12  C   UNL     1      58.315  15.767  25.462  1.00  0.00     0.093 A 
BRANCH   3  13
ATOM     13  C   UNL     1      53.924  13.365  27.215  1.00  0.00     0.025 A 
ATOM     14  C   UNL     1      54.405  12.623  28.287  1.00  0.00     0.016 A 
ATOM     15  C   UNL     1      53.771  11.439  28.693  1.00  0.00     0.051 A 
ATOM     16  C   UNL     1      52.684  10.977  27.969  1.00  0.00     0.157 A 
ATOM     17  C   UNL     1      52.984  12.744  26.363  1.00  0.00     0.062 A 
ATOM     18  C   UNL     1      52.394  11.532  26.712  1.00  0.00     0.158 A 
BRANCH  16  19
ATOM     19  O   UNL     1      51.897   9.938  28.463  1.00  0.00    -0.504 OA
ATOM     20  H   UNL     1      52.262   8.985  28.540  1.00  0.00     0.293 HD
ENDBRANCH  16  19
BRANCH  18  21
ATOM     21  O   UNL     1      51.520  10.877  25.847  1.00  0.00    -0.504 OA
ATOM     22  H   UNL     1      51.848  10.573  24.936  1.00  0.00     0.293 HD
ENDBRANCH  18  21
ENDBRANCH   3  13
BRANCH  10  23
ATOM     23  O   UNL     1      56.956  15.559  23.490  1.00  0.00    -0.507 OA
ATOM     24  H   UNL     1      57.292  16.319  22.899  1.00  0.00     0.293 HD
ENDBRANCH  10  23
BRANCH  11  25
ATOM     25  O   UNL     1      59.739  16.123  27.366  1.00  0.00    -0.508 OA
ATOM     26  H   UNL     1      60.584  16.376  26.839  1.00  0.00     0.293 HD
ENDBRANCH  11  25
ENDBRANCH   1   2
BRANCH   1  27
ATOM     27  C   UNL     1      51.183  14.732  25.302  1.00  0.00     0.339 C 
ATOM     28  C   UNL     1      50.586  15.387  24.033  1.00  0.00     0.214 C 
ATOM     29  O   UNL     1      50.054  14.546  26.137  1.00  0.00    -0.332 OA
ATOM     30  C   UNL     1      49.944  14.248  23.255  1.00  0.00     0.180 C 
ATOM     31  C   UNL     1      49.126  13.582  25.657  1.00  0.00     0.179 C 
ATOM     32  C   UNL     1      48.770  13.689  24.102  1.00  0.00     0.177 C 
BRANCH  28  33
ATOM     33  O   UNL     1      51.534  16.120  23.288  1.00  0.00    -0.384 OA
ATOM     34  H   UNL     1      52.095  16.647  23.950  1.00  0.00     0.211 HD
ENDBRANCH  28  33
BRANCH  30  35
ATOM     35  O   UNL     1      49.546  14.569  21.914  1.00  0.00    -0.387 OA
ATOM     36  H   UNL     1      49.085  13.776  21.513  1.00  0.00     0.211 HD
ENDBRANCH  30  35
BRANCH  31  37
ATOM     37  C   UNL     1      47.821  13.683  26.490  1.00  0.00     0.191 C 
BRANCH  37  38
ATOM     38  O   UNL     1      48.067  13.360  27.857  1.00  0.00    -0.394 OA
ATOM     39  H   UNL     1      47.743  12.431  27.973  1.00  0.00     0.210 HD
ENDBRANCH  37  38
ENDBRANCH  31  37
BRANCH  32  40
ATOM     40  O   UNL     1      48.419  12.408  23.636  1.00  0.00    -0.387 OA
ATOM     41  H   UNL     1      49.075  12.131  22.935  1.00  0.00     0.211 HD
ENDBRANCH  32  40
ENDBRANCH   1  27
TORSDOF 12
ENDMDL
MODEL 5
REMARK VINA RESULT:    -3.951      1.690      6.507
REMARK INTER + INTRA:          -5.199
REMARK INTER:                  -4.149
REMARK INTRA:                  -1.050
REMARK UNBOUND:                 0.601
REMARK SMILES O=c1c(O[C@H]2O[C@@H](CO)[C@H](O)[C@@H](O)[C@@H]2O)c(-c2ccc(O)c(O)c2)oc2cc(O)cc(O)c12
REMARK SMILES IDX 4 1 3 2 16 3 25 4 2 5 26 6 1 7 33 8 27 9 31 10 28 11 30 12
REMARK SMILES IDX 17 13 18 14 19 15 20 16 24 17 22 18 21 19 23 21 32 23 29 25
REMARK SMILES IDX 5 27 14 28 6 29 12 30 7 31 10 32 15 33 13 35 8 37 9 38 11 40
REMARK H PARENT 21 20 23 22 32 24 29 26 15 34 13 36 9 39 11 41
REMARK Flexibility Score: inf
ROOT
ATOM      1  O   UNL     1      52.980  13.018  27.190  1.00  0.00    -0.454 OA
ENDROOT
BRANCH   1   2
ATOM      2  C   UNL     1      51.932  13.341  26.296  1.00  0.00     0.214 A 
ATOM      3  C   UNL     1      50.625  12.914  26.594  1.00  0.00     0.180 A 
ATOM      4  O   UNL     1      49.915  12.432  25.578  1.00  0.00    -0.452 OA
ATOM      5  C   UNL     1      52.031  14.100  25.092  1.00  0.00     0.239 A 
ATOM      6  C   UNL     1      49.993  13.010  24.369  1.00  0.00     0.146 A 
ATOM      7  O   UNL     1      53.024  14.834  24.857  1.00  0.00    -0.285 OA
ATOM      8  C   UNL     1      50.929  14.059  24.195  1.00  0.00     0.111 A 
ATOM      9  C   UNL     1      49.039  12.708  23.380  1.00  0.00     0.094 A 
ATOM     10  C   UNL     1      50.672  14.983  23.173  1.00  0.00     0.134 A 
ATOM     11  C   UNL     1      48.794  13.640  22.370  1.00  0.00     0.123 A 
ATOM     12  C   UNL     1      49.527  14.814  22.334  1.00  0.00     0.093 A 
BRANCH   3  13
ATOM     13  C   UNL     1      49.917  13.818  27.528  1.00  0.00     0.025 A 
ATOM     14  C   UNL     1      49.265  14.941  27.031  1.00  0.00     0.016 A 
ATOM     15  C   UNL     1      48.045  15.371  27.573  1.00  0.00     0.051 A 
ATOM     16  C   UNL     1      47.519  14.696  28.663  1.00  0.00     0.157 A 
ATOM     17  C   UNL     1      49.486  13.314  28.776  1.00  0.00     0.062 A 
ATOM     18  C   UNL     1      48.315  13.778  29.368  1.00  0.00     0.158 A 
BRANCH  16  19
ATOM     19  O   UNL     1      46.216  14.949  29.087  1.00  0.00    -0.504 OA
ATOM     20  H   UNL     1      45.630  15.646  28.620  1.00  0.00     0.293 HD
ENDBRANCH  16  19
BRANCH  18  21
ATOM     21  O   UNL     1      47.919  13.339  30.630  1.00  0.00    -0.504 OA
ATOM     22  H   UNL     1      48.109  13.913  31.444  1.00  0.00     0.293 HD
ENDBRANCH  18  21
ENDBRANCH   3  13
BRANCH  10  23
ATOM     23  O   UNL     1      51.421  16.125  23.023  1.00  0.00    -0.507 OA
ATOM     24  H   UNL     1      50.954  17.012  23.209  1.00  0.00     0.293 HD
ENDBRANCH  10  23
BRANCH  11  25
ATOM     25  O   UNL     1      47.712  13.483  21.490  1.00  0.00    -0.508 OA
ATOM     26  H   UNL     1      46.742  13.741  21.715  1.00  0.00     0.293 HD
ENDBRANCH  11  25
ENDBRANCH   1   2
BRANCH   1  27
ATOM     27  C   UNL     1      54.125  13.841  27.513  1.00  0.00     0.339 C 
ATOM     28  C   UNL     1      55.402  13.232  26.884  1.00  0.00     0.214 C 
ATOM     29  O   UNL     1      54.383  13.777  28.905  1.00  0.00    -0.332 OA
ATOM     30  C   UNL     1      56.449  14.333  26.947  1.00  0.00     0.180 C 
ATOM     31  C   UNL     1      55.427  14.635  29.345  1.00  0.00     0.179 C 
ATOM     32  C   UNL     1      56.746  14.628  28.442  1.00  0.00     0.177 C 
BRANCH  28  33
ATOM     33  O   UNL     1      55.191  12.723  25.585  1.00  0.00    -0.384 OA
ATOM     34  H   UNL     1      54.304  12.229  25.595  1.00  0.00     0.211 HD
ENDBRANCH  28  33
BRANCH  30  35
ATOM     35  O   UNL     1      57.644  14.088  26.190  1.00  0.00    -0.387 OA
ATOM     36  H   UNL     1      57.486  13.314  25.575  1.00  0.00     0.211 HD
ENDBRANCH  30  35
BRANCH  31  37
ATOM     37  C   UNL     1      55.802  14.262  30.804  1.00  0.00     0.191 C 
BRANCH  37  38
ATOM     38  O   UNL     1      56.958  14.981  31.229  1.00  0.00    -0.394 OA
ATOM     39  H   UNL     1      57.731  14.442  30.924  1.00  0.00     0.210 HD
ENDBRANCH  37  38
ENDBRANCH  31  37
BRANCH  32  40
ATOM     40  O   UNL     1      57.375  15.881  28.560  1.00  0.00    -0.387 OA
ATOM     41  H   UNL     1      56.733  16.591  28.272  1.00  0.00     0.211 HD
ENDBRANCH  32  40
ENDBRANCH   1  27
TORSDOF 12
ENDMDL
MODEL 6
REMARK VINA RESULT:    -3.911      2.152      6.322
REMARK INTER + INTRA:          -5.139
REMARK INTER:                  -5.712
REMARK INTRA:                   0.573
REMARK UNBOUND:                 0.601
REMARK SMILES O=c1c(O[C@H]2O[C@@H](CO)[C@H](O)[C@@H](O)[C@@H]2O)c(-c2ccc(O)c(O)c2)oc2cc(O)cc(O)c12
REMARK SMILES IDX 4 1 3 2 16 3 25 4 2 5 26 6 1 7 33 8 27 9 31 10 28 11 30 12
REMARK SMILES IDX 17 13 18 14 19 15 20 16 24 17 22 18 21 19 23 21 32 23 29 25
REMARK SMILES IDX 5 27 14 28 6 29 12 30 7 31 10 32 15 33 13 35 8 37 9 38 11 40
REMARK H PARENT 21 20 23 22 32 24 29 26 15 34 13 36 9 39 11 41
REMARK Flexibility Score: inf
ROOT
ATOM      1  O   UNL     1      53.431  15.746  25.290  1.00  0.00    -0.454 OA
ENDROOT
BRANCH   1   2
ATOM      2  C   UNL     1      52.232  15.255  25.862  1.00  0.00     0.214 A 
ATOM      3  C   UNL     1      51.001  15.727  25.374  1.00  0.00     0.180 A 
ATOM      4  O   UNL     1      50.072  16.005  26.284  1.00  0.00    -0.452 OA
ATOM      5  C   UNL     1      52.109  14.282  26.898  1.00  0.00     0.239 A 
ATOM      6  C   UNL     1      49.919  15.209  27.355  1.00  0.00     0.146 A 
ATOM      7  O   UNL     1      53.062  13.521  27.202  1.00  0.00    -0.285 OA
ATOM      8  C   UNL     1      50.842  14.149  27.529  1.00  0.00     0.111 A 
ATOM      9  C   UNL     1      48.766  15.315  28.153  1.00  0.00     0.094 A 
ATOM     10  C   UNL     1      50.417  13.048  28.284  1.00  0.00     0.134 A 
ATOM     11  C   UNL     1      48.355  14.207  28.898  1.00  0.00     0.123 A 
ATOM     12  C   UNL     1      49.115  13.051  28.873  1.00  0.00     0.093 A 
BRANCH   3  13
ATOM     13  C   UNL     1      50.546  15.014  24.159  1.00  0.00     0.025 A 
ATOM     14  C   UNL     1      49.979  13.750  24.280  1.00  0.00     0.016 A 
ATOM     15  C   UNL     1      48.907  13.355  23.466  1.00  0.00     0.051 A 
ATOM     16  C   UNL     1      48.454  14.221  22.484  1.00  0.00     0.157 A 
ATOM     17  C   UNL     1      50.229  15.762  23.003  1.00  0.00     0.062 A 
ATOM     18  C   UNL     1      49.216  15.350  22.141  1.00  0.00     0.158 A 
BRANCH  16  19
ATOM     19  O   UNL     1      47.262  13.961  21.809  1.00  0.00    -0.504 OA
ATOM     20  H   UNL     1      47.252  13.432  20.933  1.00  0.00     0.293 HD
ENDBRANCH  16  19
BRANCH  18  21
ATOM     21  O   UNL     1      48.944  16.042  20.963  1.00  0.00    -0.504 OA
ATOM     22  H   UNL     1      49.676  16.165  20.271  1.00  0.00     0.293 HD
ENDBRANCH  18  21
ENDBRANCH   3  13
BRANCH  10  23
ATOM     23  O   UNL     1      51.167  11.900  28.379  1.00  0.00    -0.507 OA
ATOM     24  H   UNL     1      51.211  11.450  29.293  1.00  0.00     0.293 HD
ENDBRANCH  10  23
BRANCH  11  25
ATOM     25  O   UNL     1      47.105  14.191  29.537  1.00  0.00    -0.508 OA
ATOM     26  H   UNL     1      46.287  13.671  29.194  1.00  0.00     0.293 HD
ENDBRANCH  11  25
ENDBRANCH   1   2
BRANCH   1  27
ATOM     27  C   UNL     1      54.699  15.925  25.962  1.00  0.00     0.339 C 
ATOM     28  C   UNL     1      55.848  15.429  25.051  1.00  0.00     0.214 C 
ATOM     29  O   UNL     1      54.772  15.060  27.083  1.00  0.00    -0.332 OA
ATOM     30  C   UNL     1      57.121  15.995  25.662  1.00  0.00     0.180 C 
ATOM     31  C   UNL     1      55.939  15.231  27.876  1.00  0.00     0.179 C 
ATOM     32  C   UNL     1      57.309  15.352  27.062  1.00  0.00     0.177 C 
BRANCH  28  33
ATOM     33  O   UNL     1      55.668  15.772  23.695  1.00  0.00    -0.384 OA
ATOM     34  H   UNL     1      54.739  16.172  23.605  1.00  0.00     0.211 HD
ENDBRANCH  28  33
BRANCH  30  35
ATOM     35  O   UNL     1      58.297  15.882  24.846  1.00  0.00    -0.387 OA
ATOM     36  H   UNL     1      59.000  16.499  25.201  1.00  0.00     0.211 HD
ENDBRANCH  30  35
BRANCH  31  37
ATOM     37  C   UNL     1      56.041  14.051  28.879  1.00  0.00     0.191 C 
BRANCH  37  38
ATOM     38  O   UNL     1      54.746  13.649  29.320  1.00  0.00    -0.394 OA
ATOM     39  H   UNL     1      54.126  14.350  28.995  1.00  0.00     0.210 HD
ENDBRANCH  37  38
ENDBRANCH  31  37
BRANCH  32  40
ATOM     40  O   UNL     1      58.211  16.124  27.819  1.00  0.00    -0.387 OA
ATOM     41  H   UNL     1      57.692  16.687  28.461  1.00  0.00     0.211 HD
ENDBRANCH  32  40
ENDBRANCH   1  27
TORSDOF 12
ENDMDL
MODEL 7
REMARK VINA RESULT:    -3.744      1.511      6.365
REMARK INTER + INTRA:          -4.894
REMARK INTER:                  -4.585
REMARK INTRA:                  -0.309
REMARK UNBOUND:                 0.601
REMARK SMILES O=c1c(O[C@H]2O[C@@H](CO)[C@H](O)[C@@H](O)[C@@H]2O)c(-c2ccc(O)c(O)c2)oc2cc(O)cc(O)c12
REMARK SMILES IDX 4 1 3 2 16 3 25 4 2 5 26 6 1 7 33 8 27 9 31 10 28 11 30 12
REMARK SMILES IDX 17 13 18 14 19 15 20 16 24 17 22 18 21 19 23 21 32 23 29 25
REMARK SMILES IDX 5 27 14 28 6 29 12 30 7 31 10 32 15 33 13 35 8 37 9 38 11 40
REMARK H PARENT 21 20 23 22 32 24 29 26 15 34 13 36 9 39 11 41
REMARK Flexibility Score: inf
ROOT
ATOM      1  O   UNL     1      52.983  15.353  25.695  1.00  0.00    -0.454 OA
ENDROOT
BRANCH   1   2
ATOM      2  C   UNL     1      51.747  14.822  25.253  1.00  0.00     0.214 A 
ATOM      3  C   UNL     1      51.054  13.925  26.087  1.00  0.00     0.180 A 
ATOM      4  O   UNL     1      50.509  12.867  25.491  1.00  0.00    -0.452 OA
ATOM      5  C   UNL     1      51.073  15.113  24.031  1.00  0.00     0.239 A 
ATOM      6  C   UNL     1      49.921  13.000  24.292  1.00  0.00     0.146 A 
ATOM      7  O   UNL     1      51.364  16.125  23.344  1.00  0.00    -0.285 OA
ATOM      8  C   UNL     1      50.003  14.259  23.648  1.00  0.00     0.111 A 
ATOM      9  C   UNL     1      49.091  11.976  23.797  1.00  0.00     0.094 A 
ATOM     10  C   UNL     1      49.007  14.565  22.712  1.00  0.00     0.134 A 
ATOM     11  C   UNL     1      48.102  12.300  22.866  1.00  0.00     0.123 A 
ATOM     12  C   UNL     1      47.992  13.604  22.414  1.00  0.00     0.093 A 
BRANCH   3  13
ATOM     13  C   UNL     1      50.234  14.603  27.116  1.00  0.00     0.025 A 
ATOM     14  C   UNL     1      49.419  15.668  26.748  1.00  0.00     0.016 A 
ATOM     15  C   UNL     1      48.156  15.850  27.330  1.00  0.00     0.051 A 
ATOM     16  C   UNL     1      47.747  14.984  28.332  1.00  0.00     0.157 A 
ATOM     17  C   UNL     1      49.896  13.901  28.294  1.00  0.00     0.062 A 
ATOM     18  C   UNL     1      48.676  14.118  28.930  1.00  0.00     0.158 A 
BRANCH  16  19
ATOM     19  O   UNL     1      46.426  14.994  28.777  1.00  0.00    -0.504 OA
ATOM     20  H   UNL     1      46.113  15.648  29.499  1.00  0.00     0.293 HD
ENDBRANCH  16  19
BRANCH  18  21
ATOM     21  O   UNL     1      48.364  13.483  30.131  1.00  0.00    -0.504 OA
ATOM     22  H   UNL     1      48.712  12.547  30.310  1.00  0.00     0.293 HD
ENDBRANCH  18  21
ENDBRANCH   3  13
BRANCH  10  23
ATOM     23  O   UNL     1      48.897  15.816  22.153  1.00  0.00    -0.507 OA
ATOM     24  H   UNL     1      49.766  16.316  21.964  1.00  0.00     0.293 HD
ENDBRANCH  10  23
BRANCH  11  25
ATOM     25  O   UNL     1      47.118  11.366  22.505  1.00  0.00    -0.508 OA
ATOM     26  H   UNL     1      46.580  10.805  23.178  1.00  0.00     0.293 HD
ENDBRANCH  11  25
ENDBRANCH   1   2
BRANCH   1  27
ATOM     27  C   UNL     1      53.670  15.031  26.926  1.00  0.00     0.339 C 
ATOM     28  C   UNL     1      55.196  14.970  26.672  1.00  0.00     0.214 C 
ATOM     29  O   UNL     1      53.350  13.707  27.320  1.00  0.00    -0.332 OA
ATOM     30  C   UNL     1      55.838  15.007  28.051  1.00  0.00     0.180 C 
ATOM     31  C   UNL     1      53.894  13.325  28.577  1.00  0.00     0.179 C 
ATOM     32  C   UNL     1      55.427  13.715  28.807  1.00  0.00     0.177 C 
BRANCH  28  33
ATOM     33  O   UNL     1      55.655  15.983  25.805  1.00  0.00    -0.384 OA
ATOM     34  H   UNL     1      54.849  16.333  25.296  1.00  0.00     0.211 HD
ENDBRANCH  28  33
BRANCH  30  35
ATOM     35  O   UNL     1      57.257  15.219  28.062  1.00  0.00    -0.387 OA
ATOM     36  H   UNL     1      57.690  14.549  27.458  1.00  0.00     0.211 HD
ENDBRANCH  30  35
BRANCH  31  37
ATOM     37  C   UNL     1      53.723  11.793  28.752  1.00  0.00     0.191 C 
BRANCH  37  38
ATOM     38  O   UNL     1      52.408  11.385  28.381  1.00  0.00    -0.394 OA
ATOM     39  H   UNL     1      51.979  11.079  29.220  1.00  0.00     0.210 HD
ENDBRANCH  37  38
ENDBRANCH  31  37
BRANCH  32  40
ATOM     40  O   UNL     1      55.640  13.889  30.188  1.00  0.00    -0.387 OA
ATOM     41  H   UNL     1      56.508  14.366  30.321  1.00  0.00     0.211 HD
ENDBRANCH  32  40
ENDBRANCH   1  27
TORSDOF 12
ENDMDL
