MODEL 1
REMARK VINA RESULT:    -4.842      0.000      0.000
REMARK INTER + INTRA:          -7.354
REMARK INTER:                  -6.824
REMARK INTRA:                  -0.530
REMARK UNBOUND:                -0.530
REMARK SMILES CCCCCCCCC(=O)[O-]
REMARK SMILES IDX 6 1 7 2 8 3 9 4 10 5 11 6 5 7 4 8 3 9 2 10 1 11
REMARK H PARENT
REMARK Flexibility Score: inf
ROOT
ATOM      1  C   UNL     1       7.261  54.721  22.236  1.00  0.00     0.000 C 
ENDROOT
BRANCH   1   2
ATOM      2  C   UNL     1       8.777  54.956  22.154  1.00  0.00     0.006 C 
BRANCH   2   3
ATOM      3  C   UNL     1       9.516  53.770  21.519  1.00  0.00     0.053 C 
BRANCH   3   4
ATOM      4  C   UNL     1      10.419  53.088  22.501  1.00  0.00     0.041 C 
ATOM      5  O   UNL     1      10.652  51.855  22.396  1.00  0.00    -0.550 OA
ATOM      6  O   UNL     1      11.028  53.821  23.512  1.00  0.00    -0.550 OA
ENDBRANCH   3   4
ENDBRANCH   2   3
ENDBRANCH   1   2
BRANCH   1   7
ATOM      7  C   UNL     1       6.526  55.482  21.125  1.00  0.00     0.000 C 
BRANCH   7   8
ATOM      8  C   UNL     1       7.362  56.670  20.626  1.00  0.00    -0.000 C 
BRANCH   8   9
ATOM      9  C   UNL     1       7.645  56.603  19.118  1.00  0.00    -0.000 C 
BRANCH   9  10
ATOM     10  C   UNL     1       7.552  55.174  18.561  1.00  0.00    -0.003 C 
ATOM     11  C   UNL     1       7.144  55.183  17.091  1.00  0.00     0.004 C 
ENDBRANCH   9  10
ENDBRANCH   8   9
ENDBRANCH   7   8
ENDBRANCH   1   7
TORSDOF 7
ENDMDL
MODEL 2
REMARK VINA RESULT:    -4.736      1.556      1.882
REMARK INTER + INTRA:          -7.205
REMARK INTER:                  -6.913
REMARK INTRA:                  -0.292
REMARK UNBOUND:                -0.530
REMARK SMILES CCCCCCCCC(=O)[O-]
REMARK SMILES IDX 6 1 7 2 8 3 9 4 10 5 11 6 5 7 4 8 3 9 2 10 1 11
REMARK H PARENT
REMARK Flexibility Score: inf
ROOT
ATOM      1  C   UNL     1       8.437  54.558  21.671  1.00  0.00     0.000 C 
ENDROOT
BRANCH   1   2
ATOM      2  C   UNL     1       9.956  54.355  21.768  1.00  0.00     0.006 C 
BRANCH   2   3
ATOM      3  C   UNL     1      10.355  53.531  23.000  1.00  0.00     0.053 C 
BRANCH   3   4
ATOM      4  C   UNL     1      10.442  54.380  24.232  1.00  0.00     0.041 C 
ATOM      5  O   UNL     1       9.393  54.744  24.826  1.00  0.00    -0.550 OA
ATOM      6  O   UNL     1      11.683  54.742  24.742  1.00  0.00    -0.550 OA
ENDBRANCH   3   4
ENDBRANCH   2   3
ENDBRANCH   1   2
BRANCH   1   7
ATOM      7  C   UNL     1       8.099  55.995  21.255  1.00  0.00     0.000 C 
BRANCH   7   8
ATOM      8  C   UNL     1       7.649  56.052  19.788  1.00  0.00    -0.000 C 
BRANCH   8   9
ATOM      9  C   UNL     1       7.149  54.695  19.269  1.00  0.00    -0.000 C 
BRANCH   9  10
ATOM     10  C   UNL     1       7.682  54.366  17.867  1.00  0.00    -0.003 C 
ATOM     11  C   UNL     1       7.047  55.267  16.811  1.00  0.00     0.004 C 
ENDBRANCH   9  10
ENDBRANCH   8   9
ENDBRANCH   7   8
ENDBRANCH   1   7
TORSDOF 7
ENDMDL
MODEL 3
REMARK VINA RESULT:    -4.707      3.146      4.916
REMARK INTER + INTRA:          -7.163
REMARK INTER:                  -6.476
REMARK INTRA:                  -0.687
REMARK UNBOUND:                -0.530
REMARK SMILES CCCCCCCCC(=O)[O-]
REMARK SMILES IDX 6 1 7 2 8 3 9 4 10 5 11 6 5 7 4 8 3 9 2 10 1 11
REMARK H PARENT
REMARK Flexibility Score: inf
ROOT
ATOM      1  C   UNL     1       7.911  56.095  21.617  1.00  0.00     0.000 C 
ENDROOT
BRANCH   1   2
ATOM      2  C   UNL     1       8.369  56.047  20.152  1.00  0.00     0.006 C 
BRANCH   2   3
ATOM      3  C   UNL     1       7.974  54.734  19.462  1.00  0.00     0.053 C 
BRANCH   3   4
ATOM      4  C   UNL     1       7.341  54.977  18.126  1.00  0.00     0.041 C 
ATOM      5  O   UNL     1       7.335  56.133  17.628  1.00  0.00    -0.550 OA
ATOM      6  O   UNL     1       6.785  53.919  17.416  1.00  0.00    -0.550 OA
ENDBRANCH   3   4
ENDBRANCH   2   3
ENDBRANCH   1   2
BRANCH   1   7
ATOM      7  C   UNL     1       7.278  54.763  22.039  1.00  0.00     0.000 C 
BRANCH   7   8
ATOM      8  C   UNL     1       8.148  54.045  23.081  1.00  0.00    -0.000 C 
BRANCH   8   9
ATOM      9  C   UNL     1       9.411  54.840  23.446  1.00  0.00    -0.000 C 
BRANCH   9  10
ATOM     10  C   UNL     1      10.703  54.051  23.185  1.00  0.00    -0.003 C 
ATOM     11  C   UNL     1      10.682  53.405  21.801  1.00  0.00     0.004 C 
ENDBRANCH   9  10
ENDBRANCH   8   9
ENDBRANCH   7   8
ENDBRANCH   1   7
TORSDOF 7
ENDMDL
MODEL 4
REMARK VINA RESULT:    -4.686      3.027      5.022
REMARK INTER + INTRA:          -7.134
REMARK INTER:                  -6.697
REMARK INTRA:                  -0.437
REMARK UNBOUND:                -0.530
REMARK SMILES CCCCCCCCC(=O)[O-]
REMARK SMILES IDX 6 1 7 2 8 3 9 4 10 5 11 6 5 7 4 8 3 9 2 10 1 11
REMARK H PARENT
REMARK Flexibility Score: inf
ROOT
ATOM      1  C   UNL     1       7.413  55.314  21.647  1.00  0.00     0.000 C 
ENDROOT
BRANCH   1   2
ATOM      2  C   UNL     1       8.340  55.540  20.443  1.00  0.00     0.006 C 
BRANCH   2   3
ATOM      3  C   UNL     1       7.625  56.242  19.282  1.00  0.00     0.053 C 
BRANCH   3   4
ATOM      4  C   UNL     1       7.346  55.301  18.150  1.00  0.00     0.041 C 
ATOM      5  O   UNL     1       7.221  54.067  18.369  1.00  0.00    -0.550 OA
ATOM      6  O   UNL     1       7.193  55.790  16.858  1.00  0.00    -0.550 OA
ENDBRANCH   3   4
ENDBRANCH   2   3
ENDBRANCH   1   2
BRANCH   1   7
ATOM      7  C   UNL     1       8.136  54.548  22.762  1.00  0.00     0.000 C 
BRANCH   7   8
ATOM      8  C   UNL     1       9.474  55.216  23.109  1.00  0.00    -0.000 C 
BRANCH   8   9
ATOM      9  C   UNL     1      10.591  54.197  23.383  1.00  0.00    -0.000 C 
BRANCH   9  10
ATOM     10  C   UNL     1      10.929  53.345  22.151  1.00  0.00    -0.003 C 
ATOM     11  C   UNL     1      10.543  51.885  22.370  1.00  0.00     0.004 C 
ENDBRANCH   9  10
ENDBRANCH   8   9
ENDBRANCH   7   8
ENDBRANCH   1   7
TORSDOF 7
ENDMDL
MODEL 5
REMARK VINA RESULT:    -4.672      3.175      5.385
REMARK INTER + INTRA:          -7.114
REMARK INTER:                  -6.470
REMARK INTRA:                  -0.644
REMARK UNBOUND:                -0.530
REMARK SMILES CCCCCCCCC(=O)[O-]
REMARK SMILES IDX 6 1 7 2 8 3 9 4 10 5 11 6 5 7 4 8 3 9 2 10 1 11
REMARK H PARENT
REMARK Flexibility Score: inf
ROOT
ATOM      1  C   UNL     1       9.474  54.673  21.085  1.00  0.00     0.000 C 
ENDROOT
BRANCH   1   2
ATOM      2  C   UNL     1       8.025  54.459  20.623  1.00  0.00     0.006 C 
BRANCH   2   3
ATOM      3  C   UNL     1       7.011  55.138  21.555  1.00  0.00     0.053 C 
BRANCH   3   4
ATOM      4  C   UNL     1       6.506  56.426  20.981  1.00  0.00     0.041 C 
ATOM      5  O   UNL     1       7.052  56.923  19.961  1.00  0.00    -0.550 OA
ATOM      6  O   UNL     1       5.411  57.062  21.555  1.00  0.00    -0.550 OA
ENDBRANCH   3   4
ENDBRANCH   2   3
ENDBRANCH   1   2
BRANCH   1   7
ATOM      7  C   UNL     1      10.160  53.334  21.382  1.00  0.00     0.000 C 
BRANCH   7   8
ATOM      8  C   UNL     1      10.248  53.084  22.895  1.00  0.00    -0.000 C 
BRANCH   8   9
ATOM      9  C   UNL     1      10.663  54.337  23.679  1.00  0.00    -0.000 C 
BRANCH   9  10
ATOM     10  C   UNL     1       9.634  54.734  24.748  1.00  0.00    -0.003 C 
ATOM     11  C   UNL     1       8.372  53.883  24.638  1.00  0.00     0.004 C 
ENDBRANCH   9  10
ENDBRANCH   8   9
ENDBRANCH   7   8
ENDBRANCH   1   7
TORSDOF 7
ENDMDL
MODEL 6
REMARK VINA RESULT:    -4.665      3.033      5.209
REMARK INTER + INTRA:          -7.104
REMARK INTER:                  -6.576
REMARK INTRA:                  -0.528
REMARK UNBOUND:                -0.530
REMARK SMILES CCCCCCCCC(=O)[O-]
REMARK SMILES IDX 6 1 7 2 8 3 9 4 10 5 11 6 5 7 4 8 3 9 2 10 1 11
REMARK H PARENT
REMARK Flexibility Score: inf
ROOT
ATOM      1  C   UNL     1       8.102  55.993  21.717  1.00  0.00     0.000 C 
ENDROOT
BRANCH   1   2
ATOM      2  C   UNL     1       7.057  56.334  20.645  1.00  0.00     0.006 C 
BRANCH   2   3
ATOM      3  C   UNL     1       7.690  56.554  19.264  1.00  0.00     0.053 C 
BRANCH   3   4
ATOM      4  C   UNL     1       7.244  55.521  18.277  1.00  0.00     0.041 C 
ATOM      5  O   UNL     1       7.232  55.784  17.045  1.00  0.00    -0.550 OA
ATOM      6  O   UNL     1       6.870  54.255  18.714  1.00  0.00    -0.550 OA
ENDBRANCH   3   4
ENDBRANCH   2   3
ENDBRANCH   1   2
BRANCH   1   7
ATOM      7  C   UNL     1       8.164  54.480  21.962  1.00  0.00     0.000 C 
BRANCH   7   8
ATOM      8  C   UNL     1       9.336  53.847  21.198  1.00  0.00    -0.000 C 
BRANCH   8   9
ATOM      9  C   UNL     1      10.683  54.040  21.912  1.00  0.00    -0.000 C 
BRANCH   9  10
ATOM     10  C   UNL     1      10.641  53.597  23.382  1.00  0.00    -0.003 C 
ATOM     11  C   UNL     1      10.961  54.761  24.316  1.00  0.00     0.004 C 
ENDBRANCH   9  10
ENDBRANCH   8   9
ENDBRANCH   7   8
ENDBRANCH   1   7
TORSDOF 7
ENDMDL
MODEL 7
REMARK VINA RESULT:    -4.464      1.946      3.128
REMARK INTER + INTRA:          -6.821
REMARK INTER:                  -6.444
REMARK INTRA:                  -0.377
REMARK UNBOUND:                -0.530
REMARK SMILES CCCCCCCCC(=O)[O-]
REMARK SMILES IDX 6 1 7 2 8 3 9 4 10 5 11 6 5 7 4 8 3 9 2 10 1 11
REMARK H PARENT
REMARK Flexibility Score: inf
ROOT
ATOM      1  C   UNL     1      10.315  53.590  21.407  1.00  0.00     0.000 C 
ENDROOT
BRANCH   1   2
ATOM      2  C   UNL     1      10.606  53.318  22.891  1.00  0.00     0.006 C 
BRANCH   2   3
ATOM      3  C   UNL     1      10.561  54.598  23.736  1.00  0.00     0.053 C 
BRANCH   3   4
ATOM      4  C   UNL     1       9.604  54.474  24.882  1.00  0.00     0.041 C 
ATOM      5  O   UNL     1       9.984  54.726  26.056  1.00  0.00    -0.550 OA
ATOM      6  O   UNL     1       8.282  54.112  24.649  1.00  0.00    -0.550 OA
ENDBRANCH   3   4
ENDBRANCH   2   3
ENDBRANCH   1   2
BRANCH   1   7
ATOM      7  C   UNL     1       9.302  54.730  21.246  1.00  0.00     0.000 C 
BRANCH   7   8
ATOM      8  C   UNL     1       7.929  54.190  20.820  1.00  0.00    -0.000 C 
BRANCH   8   9
ATOM      9  C   UNL     1       7.227  55.097  19.798  1.00  0.00    -0.000 C 
BRANCH   9  10
ATOM     10  C   UNL     1       7.130  56.555  20.269  1.00  0.00    -0.003 C 
ATOM     11  C   UNL     1       5.976  56.741  21.250  1.00  0.00     0.004 C 
ENDBRANCH   9  10
ENDBRANCH   8   9
ENDBRANCH   7   8
ENDBRANCH   1   7
TORSDOF 7
ENDMDL
MODEL 8
REMARK VINA RESULT:    -4.320      1.759      2.955
REMARK INTER + INTRA:          -6.619
REMARK INTER:                  -6.328
REMARK INTRA:                  -0.290
REMARK UNBOUND:                -0.530
REMARK SMILES CCCCCCCCC(=O)[O-]
REMARK SMILES IDX 6 1 7 2 8 3 9 4 10 5 11 6 5 7 4 8 3 9 2 10 1 11
REMARK H PARENT
REMARK Flexibility Score: inf
ROOT
ATOM      1  C   UNL     1       9.756  53.105  22.449  1.00  0.00     0.000 C 
ENDROOT
BRANCH   1   2
ATOM      2  C   UNL     1       8.513  53.309  23.328  1.00  0.00     0.006 C 
BRANCH   2   3
ATOM      3  C   UNL     1       8.822  54.120  24.593  1.00  0.00     0.053 C 
BRANCH   3   4
ATOM      4  C   UNL     1      10.059  54.950  24.432  1.00  0.00     0.041 C 
ATOM      5  O   UNL     1      10.021  56.020  23.769  1.00  0.00    -0.550 OA
ATOM      6  O   UNL     1      11.245  54.559  25.042  1.00  0.00    -0.550 OA
ENDBRANCH   3   4
ENDBRANCH   2   3
ENDBRANCH   1   2
BRANCH   1   7
ATOM      7  C   UNL     1       9.580  53.777  21.082  1.00  0.00     0.000 C 
BRANCH   7   8
ATOM      8  C   UNL     1       8.167  54.359  20.933  1.00  0.00    -0.000 C 
BRANCH   8   9
ATOM      9  C   UNL     1       7.962  55.084  19.594  1.00  0.00    -0.000 C 
BRANCH   9  10
ATOM     10  C   UNL     1       7.596  56.564  19.773  1.00  0.00    -0.003 C 
ATOM     11  C   UNL     1       6.870  56.795  21.096  1.00  0.00     0.004 C 
ENDBRANCH   9  10
ENDBRANCH   8   9
ENDBRANCH   7   8
ENDBRANCH   1   7
TORSDOF 7
ENDMDL
MODEL 9
REMARK VINA RESULT:    -4.309      3.405      5.570
REMARK INTER + INTRA:          -6.602
REMARK INTER:                  -6.229
REMARK INTRA:                  -0.373
REMARK UNBOUND:                -0.530
REMARK SMILES CCCCCCCCC(=O)[O-]
REMARK SMILES IDX 6 1 7 2 8 3 9 4 10 5 11 6 5 7 4 8 3 9 2 10 1 11
REMARK H PARENT
REMARK Flexibility Score: inf
ROOT
ATOM      1  C   UNL     1       8.549  53.645  21.746  1.00  0.00     0.000 C 
ENDROOT
BRANCH   1   2
ATOM      2  C   UNL     1       8.498  54.692  20.623  1.00  0.00     0.006 C 
BRANCH   2   3
ATOM      3  C   UNL     1       8.062  56.072  21.135  1.00  0.00     0.053 C 
BRANCH   3   4
ATOM      4  C   UNL     1       7.166  56.770  20.158  1.00  0.00     0.041 C 
ATOM      5  O   UNL     1       6.121  57.347  20.557  1.00  0.00    -0.550 OA
ATOM      6  O   UNL     1       7.503  56.810  18.810  1.00  0.00    -0.550 OA
ENDBRANCH   3   4
ENDBRANCH   2   3
ENDBRANCH   1   2
BRANCH   1   7
ATOM      7  C   UNL     1       7.670  54.065  22.931  1.00  0.00     0.000 C 
BRANCH   7   8
ATOM      8  C   UNL     1       8.283  53.605  24.261  1.00  0.00    -0.000 C 
BRANCH   8   9
ATOM      9  C   UNL     1       9.144  54.690  24.925  1.00  0.00    -0.000 C 
BRANCH   9  10
ATOM     10  C   UNL     1      10.548  54.788  24.311  1.00  0.00    -0.003 C 
ATOM     11  C   UNL     1      11.626  54.694  25.388  1.00  0.00     0.004 C 
ENDBRANCH   9  10
ENDBRANCH   8   9
ENDBRANCH   7   8
ENDBRANCH   1   7
TORSDOF 7
ENDMDL
