MODEL 1
REMARK VINA RESULT:    -7.272      0.000      0.000
REMARK INTER + INTRA:          -7.731
REMARK INTER:                  -7.698
REMARK INTRA:                  -0.033
REMARK UNBOUND:                -0.033
REMARK SMILES COc1ccc2ccc(=O)oc2c1
REMARK SMILES IDX 3 1 13 2 12 3 6 4 5 5 4 6 7 7 8 8 9 9 10 10 11 11 2 12 1 13
REMARK H PARENT
REMARK Flexibility Score: inf
ROOT
ATOM      1  C   UNL     1      12.937   7.258  28.368  1.00  0.00     0.122 A 
ATOM      2  C   UNL     1      13.153   8.293  29.287  1.00  0.00     0.094 A 
ATOM      3  C   UNL     1      12.199   9.300  29.461  1.00  0.00     0.142 A 
ATOM      4  C   UNL     1      11.007   9.274  28.707  1.00  0.00     0.018 A 
ATOM      5  C   UNL     1      10.785   8.242  27.786  1.00  0.00     0.016 A 
ATOM      6  C   UNL     1      11.744   7.238  27.617  1.00  0.00     0.047 A 
ATOM      7  C   UNL     1      10.070  10.295  28.903  1.00  0.00     0.019 A 
ATOM      8  C   UNL     1      10.340  11.300  29.831  1.00  0.00     0.094 A 
ATOM      9  C   UNL     1      11.542  11.260  30.544  1.00  0.00     0.336 A 
ATOM     10  O   UNL     1      11.803  12.158  31.387  1.00  0.00    -0.246 OA
ATOM     11  O   UNL     1      12.416  10.277  30.337  1.00  0.00    -0.423 OA
ENDROOT
BRANCH   1  12
ATOM     12  O   UNL     1      13.927   6.272  28.231  1.00  0.00    -0.497 OA
ATOM     13  C   UNL     1      13.821   4.950  28.748  1.00  0.00     0.278 C 
ENDBRANCH   1  12
TORSDOF 1
ENDMDL
MODEL 2
REMARK VINA RESULT:    -6.793      1.619      2.306
REMARK INTER + INTRA:          -7.223
REMARK INTER:                  -7.192
REMARK INTRA:                  -0.032
REMARK UNBOUND:                -0.033
REMARK SMILES COc1ccc2ccc(=O)oc2c1
REMARK SMILES IDX 3 1 13 2 12 3 6 4 5 5 4 6 7 7 8 8 9 9 10 10 11 11 2 12 1 13
REMARK H PARENT
REMARK Flexibility Score: inf
ROOT
ATOM      1  C   UNL     1      12.931   7.372  28.595  1.00  0.00     0.122 A 
ATOM      2  C   UNL     1      11.597   7.771  28.435  1.00  0.00     0.094 A 
ATOM      3  C   UNL     1      11.144   8.973  28.987  1.00  0.00     0.142 A 
ATOM      4  C   UNL     1      12.036   9.793  29.710  1.00  0.00     0.018 A 
ATOM      5  C   UNL     1      13.371   9.400  29.873  1.00  0.00     0.016 A 
ATOM      6  C   UNL     1      13.816   8.196  29.318  1.00  0.00     0.047 A 
ATOM      7  C   UNL     1      11.555  10.991  30.250  1.00  0.00     0.019 A 
ATOM      8  C   UNL     1      10.217  11.336  30.060  1.00  0.00     0.094 A 
ATOM      9  C   UNL     1       9.390  10.475  29.331  1.00  0.00     0.336 A 
ATOM     10  O   UNL     1       8.181  10.770  29.148  1.00  0.00    -0.246 OA
ATOM     11  O   UNL     1       9.875   9.342  28.828  1.00  0.00    -0.423 OA
ENDROOT
BRANCH   1  12
ATOM     12  O   UNL     1      13.334   6.156  28.021  1.00  0.00    -0.497 OA
ATOM     13  C   UNL     1      13.709   5.001  28.766  1.00  0.00     0.278 C 
ENDBRANCH   1  12
TORSDOF 1
ENDMDL
MODEL 3
REMARK VINA RESULT:    -6.738      1.112      4.640
REMARK INTER + INTRA:          -7.165
REMARK INTER:                  -7.122
REMARK INTRA:                  -0.043
REMARK UNBOUND:                -0.033
REMARK SMILES COc1ccc2ccc(=O)oc2c1
REMARK SMILES IDX 3 1 13 2 12 3 6 4 5 5 4 6 7 7 8 8 9 9 10 10 11 11 2 12 1 13
REMARK H PARENT
REMARK Flexibility Score: inf
ROOT
ATOM      1  C   UNL     1      11.163  11.079  30.294  1.00  0.00     0.122 A 
ATOM      2  C   UNL     1      12.196  10.162  30.053  1.00  0.00     0.094 A 
ATOM      3  C   UNL     1      12.036   9.143  29.110  1.00  0.00     0.142 A 
ATOM      4  C   UNL     1      10.826   9.035  28.392  1.00  0.00     0.018 A 
ATOM      5  C   UNL     1       9.790   9.947  28.629  1.00  0.00     0.016 A 
ATOM      6  C   UNL     1       9.957  10.964  29.574  1.00  0.00     0.047 A 
ATOM      7  C   UNL     1      10.695   8.005  27.454  1.00  0.00     0.019 A 
ATOM      8  C   UNL     1      11.757   7.122  27.257  1.00  0.00     0.094 A 
ATOM      9  C   UNL     1      12.927   7.291  28.004  1.00  0.00     0.336 A 
ATOM     10  O   UNL     1      13.896   6.504  27.840  1.00  0.00    -0.246 OA
ATOM     11  O   UNL     1      13.024   8.279  28.890  1.00  0.00    -0.423 OA
ENDROOT
BRANCH   1  12
ATOM     12  O   UNL     1      11.375  12.083  31.252  1.00  0.00    -0.497 OA
ATOM     13  C   UNL     1      12.498  12.136  32.125  1.00  0.00     0.278 C 
ENDBRANCH   1  12
TORSDOF 1
ENDMDL
MODEL 4
REMARK VINA RESULT:    -5.632      2.097      4.513
REMARK INTER + INTRA:          -5.995
REMARK INTER:                  -5.958
REMARK INTRA:                  -0.037
REMARK UNBOUND:                -0.033
REMARK SMILES COc1ccc2ccc(=O)oc2c1
REMARK SMILES IDX 3 1 13 2 12 3 6 4 5 5 4 6 7 7 8 8 9 9 10 10 11 11 2 12 1 13
REMARK H PARENT
REMARK Flexibility Score: inf
ROOT
ATOM      1  C   UNL     1      12.616  10.165  31.000  1.00  0.00     0.122 A 
ATOM      2  C   UNL     1      11.339  10.070  30.430  1.00  0.00     0.094 A 
ATOM      3  C   UNL     1      11.116   9.247  29.322  1.00  0.00     0.142 A 
ATOM      4  C   UNL     1      12.182   8.505  28.773  1.00  0.00     0.018 A 
ATOM      5  C   UNL     1      13.460   8.595  29.339  1.00  0.00     0.016 A 
ATOM      6  C   UNL     1      13.677   9.420  30.447  1.00  0.00     0.047 A 
ATOM      7  C   UNL     1      11.928   7.689  27.665  1.00  0.00     0.019 A 
ATOM      8  C   UNL     1      10.638   7.635  27.138  1.00  0.00     0.094 A 
ATOM      9  C   UNL     1       9.629   8.399  27.735  1.00  0.00     0.336 A 
ATOM     10  O   UNL     1       8.458   8.362  27.275  1.00  0.00    -0.246 OA
ATOM     11  O   UNL     1       9.899   9.166  28.789  1.00  0.00    -0.423 OA
ENDROOT
BRANCH   1  12
ATOM     12  O   UNL     1      12.786  11.006  32.111  1.00  0.00    -0.497 OA
ATOM     13  C   UNL     1      12.469  12.394  32.125  1.00  0.00     0.278 C 
ENDBRANCH   1  12
TORSDOF 1
ENDMDL
MODEL 5
REMARK VINA RESULT:    -5.400      2.020      5.124
REMARK INTER + INTRA:          -5.748
REMARK INTER:                  -5.713
REMARK INTRA:                  -0.036
REMARK UNBOUND:                -0.033
REMARK SMILES COc1ccc2ccc(=O)oc2c1
REMARK SMILES IDX 3 1 13 2 12 3 6 4 5 5 4 6 7 7 8 8 9 9 10 10 11 11 2 12 1 13
REMARK H PARENT
REMARK Flexibility Score: inf
ROOT
ATOM      1  C   UNL     1      10.145   9.543  28.961  1.00  0.00     0.122 A 
ATOM      2  C   UNL     1      10.777   8.786  27.965  1.00  0.00     0.094 A 
ATOM      3  C   UNL     1      11.914   8.028  28.263  1.00  0.00     0.142 A 
ATOM      4  C   UNL     1      12.430   8.024  29.576  1.00  0.00     0.018 A 
ATOM      5  C   UNL     1      11.803   8.780  30.575  1.00  0.00     0.016 A 
ATOM      6  C   UNL     1      10.667   9.535  30.270  1.00  0.00     0.047 A 
ATOM      7  C   UNL     1      13.569   7.257  29.844  1.00  0.00     0.019 A 
ATOM      8  C   UNL     1      14.156   6.523  28.813  1.00  0.00     0.094 A 
ATOM      9  C   UNL     1      13.589   6.574  27.535  1.00  0.00     0.336 A 
ATOM     10  O   UNL     1      14.104   5.919  26.593  1.00  0.00    -0.246 OA
ATOM     11  O   UNL     1      12.506   7.313  27.309  1.00  0.00    -0.423 OA
ENDROOT
BRANCH   1  12
ATOM     12  O   UNL     1       9.007  10.286  28.609  1.00  0.00    -0.497 OA
ATOM     13  C   UNL     1       8.159  10.947  29.542  1.00  0.00     0.278 C 
ENDBRANCH   1  12
TORSDOF 1
ENDMDL
MODEL 6
REMARK VINA RESULT:    -5.214      1.587      5.198
REMARK INTER + INTRA:          -5.552
REMARK INTER:                  -5.516
REMARK INTRA:                  -0.036
REMARK UNBOUND:                -0.033
REMARK SMILES COc1ccc2ccc(=O)oc2c1
REMARK SMILES IDX 3 1 13 2 12 3 6 4 5 5 4 6 7 7 8 8 9 9 10 10 11 11 2 12 1 13
REMARK H PARENT
REMARK Flexibility Score: inf
ROOT
ATOM      1  C   UNL     1      12.311   9.489  30.000  1.00  0.00     0.122 A 
ATOM      2  C   UNL     1      12.483   8.141  30.344  1.00  0.00     0.094 A 
ATOM      3  C   UNL     1      13.066   7.247  29.441  1.00  0.00     0.142 A 
ATOM      4  C   UNL     1      13.486   7.703  28.174  1.00  0.00     0.018 A 
ATOM      5  C   UNL     1      13.316   9.048  27.824  1.00  0.00     0.016 A 
ATOM      6  C   UNL     1      12.732   9.937  28.732  1.00  0.00     0.047 A 
ATOM      7  C   UNL     1      14.066   6.785  27.292  1.00  0.00     0.019 A 
ATOM      8  C   UNL     1      14.212   5.455  27.688  1.00  0.00     0.094 A 
ATOM      9  C   UNL     1      13.774   5.075  28.961  1.00  0.00     0.336 A 
ATOM     10  O   UNL     1      13.898   3.880  29.336  1.00  0.00    -0.246 OA
ATOM     11  O   UNL     1      13.225   5.969  29.779  1.00  0.00    -0.423 OA
ENDROOT
BRANCH   1  12
ATOM     12  O   UNL     1      11.720  10.345  30.942  1.00  0.00    -0.497 OA
ATOM     13  C   UNL     1      11.446  11.724  30.715  1.00  0.00     0.278 C 
ENDBRANCH   1  12
TORSDOF 1
ENDMDL
MODEL 7
REMARK VINA RESULT:    -4.561      1.783      4.782
REMARK INTER + INTRA:          -4.861
REMARK INTER:                  -4.826
REMARK INTRA:                  -0.035
REMARK UNBOUND:                -0.033
REMARK SMILES COc1ccc2ccc(=O)oc2c1
REMARK SMILES IDX 3 1 13 2 12 3 6 4 5 5 4 6 7 7 8 8 9 9 10 10 11 11 2 12 1 13
REMARK H PARENT
REMARK Flexibility Score: inf
ROOT
ATOM      1  C   UNL     1       9.989   9.752  29.301  1.00  0.00     0.122 A 
ATOM      2  C   UNL     1      11.003   9.032  29.948  1.00  0.00     0.094 A 
ATOM      3  C   UNL     1      11.737   8.063  29.257  1.00  0.00     0.142 A 
ATOM      4  C   UNL     1      11.458   7.808  27.898  1.00  0.00     0.018 A 
ATOM      5  C   UNL     1      10.445   8.524  27.246  1.00  0.00     0.016 A 
ATOM      6  C   UNL     1       9.715   9.492  27.944  1.00  0.00     0.047 A 
ATOM      7  C   UNL     1      12.209   6.833  27.233  1.00  0.00     0.019 A 
ATOM      8  C   UNL     1      13.206   6.147  27.927  1.00  0.00     0.094 A 
ATOM      9  C   UNL     1      13.428   6.454  29.274  1.00  0.00     0.336 A 
ATOM     10  O   UNL     1      14.323   5.846  29.916  1.00  0.00    -0.246 OA
ATOM     11  O   UNL     1      12.698   7.386  29.881  1.00  0.00    -0.423 OA
ENDROOT
BRANCH   1  12
ATOM     12  O   UNL     1       9.282  10.713  30.041  1.00  0.00    -0.497 OA
ATOM     13  C   UNL     1       7.953  11.132  29.750  1.00  0.00     0.278 C 
ENDBRANCH   1  12
TORSDOF 1
ENDMDL
