MODEL 1
REMARK VINA RESULT:    -3.505      0.000      0.000
REMARK INTER + INTRA:         -10.353
REMARK INTER:                  -7.603
REMARK INTRA:                  -2.750
REMARK UNBOUND:                -2.750
REMARK SMILES CCCCCCCCCCCCCCCCCCCCCC(=O)[O-]
REMARK SMILES IDX 12 1 11 2 10 3 9 4 8 5 7 6 6 7 5 8 4 9 3 10 2 11 1 12 13 13
REMARK SMILES IDX 14 14 15 15 16 16 17 17 18 18 19 19 20 20 21 21 22 22 23 23
REMARK SMILES IDX 24 24
REMARK H PARENT
REMARK Flexibility Score: inf
ROOT
ATOM      1  C   UNL     1      60.487  32.330  59.708  1.00  0.00     0.000 C 
ENDROOT
BRANCH   1   2
ATOM      2  C   UNL     1      60.988  32.515  58.259  1.00  0.00     0.000 C 
BRANCH   2   3
ATOM      3  C   UNL     1      61.241  33.973  57.818  1.00  0.00     0.000 C 
BRANCH   3   4
ATOM      4  C   UNL     1      60.316  35.022  58.473  1.00  0.00    -0.000 C 
BRANCH   4   5
ATOM      5  C   UNL     1      61.053  36.060  59.340  1.00  0.00    -0.000 C 
BRANCH   5   6
ATOM      6  C   UNL     1      61.362  35.576  60.773  1.00  0.00    -0.000 C 
BRANCH   6   7
ATOM      7  C   UNL     1      62.596  36.265  61.389  1.00  0.00    -0.000 C 
BRANCH   7   8
ATOM      8  C   UNL     1      63.928  35.751  60.812  1.00  0.00    -0.000 C 
BRANCH   8   9
ATOM      9  C   UNL     1      64.507  34.590  61.635  1.00  0.00    -0.000 C 
BRANCH   9  10
ATOM     10  C   UNL     1      64.115  33.209  61.082  1.00  0.00    -0.000 C 
BRANCH  10  11
ATOM     11  C   UNL     1      64.371  33.051  59.568  1.00  0.00    -0.003 C 
ATOM     12  C   UNL     1      65.111  31.755  59.232  1.00  0.00     0.004 C 
ENDBRANCH  10  11
ENDBRANCH   9  10
ENDBRANCH   8   9
ENDBRANCH   7   8
ENDBRANCH   6   7
ENDBRANCH   5   6
ENDBRANCH   4   5
ENDBRANCH   3   4
ENDBRANCH   2   3
ENDBRANCH   1   2
BRANCH   1  13
ATOM     13  C   UNL     1      60.749  30.943  60.322  1.00  0.00     0.000 C 
BRANCH  13  14
ATOM     14  C   UNL     1      61.077  31.011  61.822  1.00  0.00     0.000 C 
BRANCH  14  15
ATOM     15  C   UNL     1      61.904  29.805  62.295  1.00  0.00     0.000 C 
BRANCH  15  16
ATOM     16  C   UNL     1      63.288  29.753  61.626  1.00  0.00     0.000 C 
BRANCH  16  17
ATOM     17  C   UNL     1      63.608  28.371  61.036  1.00  0.00     0.000 C 
BRANCH  17  18
ATOM     18  C   UNL     1      62.495  27.340  61.300  1.00  0.00     0.000 C 
BRANCH  18  19
ATOM     19  C   UNL     1      63.048  25.926  61.533  1.00  0.00     0.000 C 
BRANCH  19  20
ATOM     20  C   UNL     1      62.303  25.176  62.651  1.00  0.00     0.006 C 
BRANCH  20  21
ATOM     21  C   UNL     1      61.189  26.026  63.275  1.00  0.00     0.053 C 
BRANCH  21  22
ATOM     22  C   UNL     1      59.831  25.485  62.950  1.00  0.00     0.041 C 
ATOM     23  O   UNL     1      59.565  24.271  63.156  1.00  0.00    -0.550 OA
ATOM     24  O   UNL     1      58.862  26.319  62.407  1.00  0.00    -0.550 OA
ENDBRANCH  21  22
ENDBRANCH  20  21
ENDBRANCH  19  20
ENDBRANCH  18  19
ENDBRANCH  17  18
ENDBRANCH  16  17
ENDBRANCH  15  16
ENDBRANCH  14  15
ENDBRANCH  13  14
ENDBRANCH   1  13
TORSDOF 20
ENDMDL
MODEL 2
REMARK VINA RESULT:    -3.489      3.301      4.857
REMARK INTER + INTRA:         -10.319
REMARK INTER:                  -6.384
REMARK INTRA:                  -3.936
REMARK UNBOUND:                -2.750
REMARK SMILES CCCCCCCCCCCCCCCCCCCCCC(=O)[O-]
REMARK SMILES IDX 12 1 11 2 10 3 9 4 8 5 7 6 6 7 5 8 4 9 3 10 2 11 1 12 13 13
REMARK SMILES IDX 14 14 15 15 16 16 17 17 18 18 19 19 20 20 21 21 22 22 23 23
REMARK SMILES IDX 24 24
REMARK H PARENT
REMARK Flexibility Score: inf
ROOT
ATOM      1  C   UNL     1      61.197  32.308  58.397  1.00  0.00     0.000 C 
ENDROOT
BRANCH   1   2
ATOM      2  C   UNL     1      61.589  33.798  58.497  1.00  0.00     0.000 C 
BRANCH   2   3
ATOM      3  C   UNL     1      60.971  34.576  59.680  1.00  0.00     0.000 C 
BRANCH   3   4
ATOM      4  C   UNL     1      61.966  34.956  60.799  1.00  0.00    -0.000 C 
BRANCH   4   5
ATOM      5  C   UNL     1      63.026  33.877  61.094  1.00  0.00    -0.000 C 
BRANCH   5   6
ATOM      6  C   UNL     1      64.381  34.443  61.570  1.00  0.00    -0.000 C 
BRANCH   6   7
ATOM      7  C   UNL     1      64.608  35.906  61.141  1.00  0.00    -0.000 C 
BRANCH   7   8
ATOM      8  C   UNL     1      65.642  36.052  60.009  1.00  0.00    -0.000 C 
BRANCH   8   9
ATOM      9  C   UNL     1      65.228  35.285  58.743  1.00  0.00    -0.000 C 
BRANCH   9  10
ATOM     10  C   UNL     1      64.342  36.117  57.801  1.00  0.00    -0.000 C 
BRANCH  10  11
ATOM     11  C   UNL     1      64.266  35.557  56.365  1.00  0.00    -0.003 C 
ATOM     12  C   UNL     1      64.545  34.054  56.308  1.00  0.00     0.004 C 
ENDBRANCH  10  11
ENDBRANCH   9  10
ENDBRANCH   8   9
ENDBRANCH   7   8
ENDBRANCH   6   7
ENDBRANCH   5   6
ENDBRANCH   4   5
ENDBRANCH   3   4
ENDBRANCH   2   3
ENDBRANCH   1   2
BRANCH   1  13
ATOM     13  C   UNL     1      60.055  31.865  59.329  1.00  0.00     0.000 C 
BRANCH  13  14
ATOM     14  C   UNL     1      60.434  30.655  60.198  1.00  0.00     0.000 C 
BRANCH  14  15
ATOM     15  C   UNL     1      60.736  31.052  61.652  1.00  0.00     0.000 C 
BRANCH  15  16
ATOM     16  C   UNL     1      62.061  30.451  62.154  1.00  0.00     0.000 C 
BRANCH  16  17
ATOM     17  C   UNL     1      62.383  29.100  61.498  1.00  0.00     0.000 C 
BRANCH  17  18
ATOM     18  C   UNL     1      63.775  29.075  60.842  1.00  0.00     0.000 C 
BRANCH  18  19
ATOM     19  C   UNL     1      64.395  30.476  60.725  1.00  0.00     0.000 C 
BRANCH  19  20
ATOM     20  C   UNL     1      64.351  31.024  59.288  1.00  0.00     0.006 C 
BRANCH  20  21
ATOM     21  C   UNL     1      65.719  31.533  58.820  1.00  0.00     0.053 C 
BRANCH  21  22
ATOM     22  C   UNL     1      66.703  30.413  58.666  1.00  0.00     0.041 C 
ATOM     23  O   UNL     1      67.903  30.571  59.015  1.00  0.00    -0.550 OA
ATOM     24  O   UNL     1      66.296  29.200  58.127  1.00  0.00    -0.550 OA
ENDBRANCH  21  22
ENDBRANCH  20  21
ENDBRANCH  19  20
ENDBRANCH  18  19
ENDBRANCH  17  18
ENDBRANCH  16  17
ENDBRANCH  15  16
ENDBRANCH  14  15
ENDBRANCH  13  14
ENDBRANCH   1  13
TORSDOF 20
ENDMDL
MODEL 3
REMARK VINA RESULT:    -3.489      2.638      4.585
REMARK INTER + INTRA:         -10.318
REMARK INTER:                  -6.506
REMARK INTRA:                  -3.812
REMARK UNBOUND:                -2.750
REMARK SMILES CCCCCCCCCCCCCCCCCCCCCC(=O)[O-]
REMARK SMILES IDX 12 1 11 2 10 3 9 4 8 5 7 6 6 7 5 8 4 9 3 10 2 11 1 12 13 13
REMARK SMILES IDX 14 14 15 15 16 16 17 17 18 18 19 19 20 20 21 21 22 22 23 23
REMARK SMILES IDX 24 24
REMARK H PARENT
REMARK Flexibility Score: inf
ROOT
ATOM      1  C   UNL     1      62.841  34.516  60.975  1.00  0.00     0.000 C 
ENDROOT
BRANCH   1   2
ATOM      2  C   UNL     1      62.969  36.002  61.373  1.00  0.00     0.000 C 
BRANCH   2   3
ATOM      3  C   UNL     1      61.707  36.866  61.153  1.00  0.00     0.000 C 
BRANCH   3   4
ATOM      4  C   UNL     1      60.449  36.082  60.719  1.00  0.00    -0.000 C 
BRANCH   4   5
ATOM      5  C   UNL     1      59.657  36.743  59.575  1.00  0.00    -0.000 C 
BRANCH   5   6
ATOM      6  C   UNL     1      59.163  35.751  58.499  1.00  0.00    -0.000 C 
BRANCH   6   7
ATOM      7  C   UNL     1      59.931  34.415  58.513  1.00  0.00    -0.000 C 
BRANCH   7   8
ATOM      8  C   UNL     1      60.154  33.831  57.106  1.00  0.00    -0.000 C 
BRANCH   8   9
ATOM      9  C   UNL     1      61.412  34.403  56.433  1.00  0.00    -0.000 C 
BRANCH   9  10
ATOM     10  C   UNL     1      62.577  34.610  57.416  1.00  0.00    -0.000 C 
BRANCH  10  11
ATOM     11  C   UNL     1      63.026  36.080  57.545  1.00  0.00    -0.003 C 
ATOM     12  C   UNL     1      64.465  36.211  58.048  1.00  0.00     0.004 C 
ENDBRANCH  10  11
ENDBRANCH   9  10
ENDBRANCH   8   9
ENDBRANCH   7   8
ENDBRANCH   6   7
ENDBRANCH   5   6
ENDBRANCH   4   5
ENDBRANCH   3   4
ENDBRANCH   2   3
ENDBRANCH   1   2
BRANCH   1  13
ATOM     13  C   UNL     1      64.105  33.666  61.193  1.00  0.00     0.000 C 
BRANCH  13  14
ATOM     14  C   UNL     1      64.494  32.850  59.950  1.00  0.00     0.000 C 
BRANCH  14  15
ATOM     15  C   UNL     1      64.772  31.375  60.282  1.00  0.00     0.000 C 
BRANCH  15  16
ATOM     16  C   UNL     1      64.128  30.948  61.612  1.00  0.00     0.000 C 
BRANCH  16  17
ATOM     17  C   UNL     1      63.116  29.806  61.439  1.00  0.00     0.000 C 
BRANCH  17  18
ATOM     18  C   UNL     1      61.702  30.187  61.911  1.00  0.00     0.000 C 
BRANCH  18  19
ATOM     19  C   UNL     1      61.074  31.295  61.052  1.00  0.00     0.000 C 
BRANCH  19  20
ATOM     20  C   UNL     1      61.149  30.990  59.546  1.00  0.00     0.006 C 
BRANCH  20  21
ATOM     21  C   UNL     1      60.419  29.691  59.182  1.00  0.00     0.053 C 
BRANCH  21  22
ATOM     22  C   UNL     1      58.941  29.903  59.054  1.00  0.00     0.041 C 
ATOM     23  O   UNL     1      58.139  28.988  59.378  1.00  0.00    -0.550 OA
ATOM     24  O   UNL     1      58.452  31.108  58.567  1.00  0.00    -0.550 OA
ENDBRANCH  21  22
ENDBRANCH  20  21
ENDBRANCH  19  20
ENDBRANCH  18  19
ENDBRANCH  17  18
ENDBRANCH  16  17
ENDBRANCH  15  16
ENDBRANCH  14  15
ENDBRANCH  13  14
ENDBRANCH   1  13
TORSDOF 20
ENDMDL
MODEL 4
REMARK VINA RESULT:    -3.480      3.277      6.509
REMARK INTER + INTRA:         -10.299
REMARK INTER:                  -6.904
REMARK INTRA:                  -3.395
REMARK UNBOUND:                -2.750
REMARK SMILES CCCCCCCCCCCCCCCCCCCCCC(=O)[O-]
REMARK SMILES IDX 12 1 11 2 10 3 9 4 8 5 7 6 6 7 5 8 4 9 3 10 2 11 1 12 13 13
REMARK SMILES IDX 14 14 15 15 16 16 17 17 18 18 19 19 20 20 21 21 22 22 23 23
REMARK SMILES IDX 24 24
REMARK H PARENT
REMARK Flexibility Score: inf
ROOT
ATOM      1  C   UNL     1      60.934  35.491  59.436  1.00  0.00     0.000 C 
ENDROOT
BRANCH   1   2
ATOM      2  C   UNL     1      61.149  34.235  58.564  1.00  0.00     0.000 C 
BRANCH   2   3
ATOM      3  C   UNL     1      59.917  33.318  58.395  1.00  0.00     0.000 C 
BRANCH   3   4
ATOM      4  C   UNL     1      60.031  31.942  59.086  1.00  0.00    -0.000 C 
BRANCH   4   5
ATOM      5  C   UNL     1      61.334  31.740  59.883  1.00  0.00    -0.000 C 
BRANCH   5   6
ATOM      6  C   UNL     1      61.136  31.702  61.413  1.00  0.00    -0.000 C 
BRANCH   6   7
ATOM      7  C   UNL     1      61.712  30.429  62.064  1.00  0.00    -0.000 C 
BRANCH   7   8
ATOM      8  C   UNL     1      63.212  30.230  61.778  1.00  0.00    -0.000 C 
BRANCH   8   9
ATOM      9  C   UNL     1      63.479  28.972  60.936  1.00  0.00    -0.000 C 
BRANCH   9  10
ATOM     10  C   UNL     1      62.347  27.934  61.032  1.00  0.00    -0.000 C 
BRANCH  10  11
ATOM     11  C   UNL     1      62.728  26.673  61.836  1.00  0.00    -0.003 C 
ATOM     12  C   UNL     1      61.628  26.247  62.810  1.00  0.00     0.004 C 
ENDBRANCH  10  11
ENDBRANCH   9  10
ENDBRANCH   8   9
ENDBRANCH   7   8
ENDBRANCH   6   7
ENDBRANCH   5   6
ENDBRANCH   4   5
ENDBRANCH   3   4
ENDBRANCH   2   3
ENDBRANCH   1   2
BRANCH   1  13
ATOM     13  C   UNL     1      61.477  35.394  60.873  1.00  0.00     0.000 C 
BRANCH  13  14
ATOM     14  C   UNL     1      62.998  35.607  60.949  1.00  0.00     0.000 C 
BRANCH  14  15
ATOM     15  C   UNL     1      63.738  34.363  61.464  1.00  0.00     0.000 C 
BRANCH  15  16
ATOM     16  C   UNL     1      64.498  33.634  60.343  1.00  0.00     0.000 C 
BRANCH  16  17
ATOM     17  C   UNL     1      64.806  34.548  59.147  1.00  0.00     0.000 C 
BRANCH  17  18
ATOM     18  C   UNL     1      64.882  33.779  57.816  1.00  0.00     0.000 C 
BRANCH  18  19
ATOM     19  C   UNL     1      64.300  32.361  57.921  1.00  0.00     0.000 C 
BRANCH  19  20
ATOM     20  C   UNL     1      65.311  31.275  57.517  1.00  0.00     0.006 C 
BRANCH  20  21
ATOM     21  C   UNL     1      65.930  30.578  58.735  1.00  0.00     0.053 C 
BRANCH  21  22
ATOM     22  C   UNL     1      67.309  30.071  58.440  1.00  0.00     0.041 C 
ATOM     23  O   UNL     1      68.316  30.782  58.701  1.00  0.00    -0.550 OA
ATOM     24  O   UNL     1      67.481  28.818  57.866  1.00  0.00    -0.550 OA
ENDBRANCH  21  22
ENDBRANCH  20  21
ENDBRANCH  19  20
ENDBRANCH  18  19
ENDBRANCH  17  18
ENDBRANCH  16  17
ENDBRANCH  15  16
ENDBRANCH  14  15
ENDBRANCH  13  14
ENDBRANCH   1  13
TORSDOF 20
ENDMDL
MODEL 5
REMARK VINA RESULT:    -3.461      3.245      6.952
REMARK INTER + INTRA:         -10.257
REMARK INTER:                  -6.225
REMARK INTRA:                  -4.032
REMARK UNBOUND:                -2.750
REMARK SMILES CCCCCCCCCCCCCCCCCCCCCC(=O)[O-]
REMARK SMILES IDX 12 1 11 2 10 3 9 4 8 5 7 6 6 7 5 8 4 9 3 10 2 11 1 12 13 13
REMARK SMILES IDX 14 14 15 15 16 16 17 17 18 18 19 19 20 20 21 21 22 22 23 23
REMARK SMILES IDX 24 24
REMARK H PARENT
REMARK Flexibility Score: inf
ROOT
ATOM      1  C   UNL     1      64.027  32.957  59.095  1.00  0.00     0.000 C 
ENDROOT
BRANCH   1   2
ATOM      2  C   UNL     1      65.193  31.946  59.056  1.00  0.00     0.000 C 
BRANCH   2   3
ATOM      3  C   UNL     1      65.002  30.669  59.904  1.00  0.00     0.000 C 
BRANCH   3   4
ATOM      4  C   UNL     1      64.336  30.895  61.279  1.00  0.00    -0.000 C 
BRANCH   4   5
ATOM      5  C   UNL     1      63.470  29.715  61.763  1.00  0.00    -0.000 C 
BRANCH   5   6
ATOM      6  C   UNL     1      61.957  30.020  61.801  1.00  0.00    -0.000 C 
BRANCH   6   7
ATOM      7  C   UNL     1      61.640  31.517  61.612  1.00  0.00    -0.000 C 
BRANCH   7   8
ATOM      8  C   UNL     1      60.712  31.792  60.415  1.00  0.00    -0.000 C 
BRANCH   8   9
ATOM      9  C   UNL     1      60.553  30.560  59.509  1.00  0.00    -0.000 C 
BRANCH   9  10
ATOM     10  C   UNL     1      61.451  30.614  58.261  1.00  0.00    -0.000 C 
BRANCH  10  11
ATOM     11  C   UNL     1      61.677  29.238  57.600  1.00  0.00    -0.003 C 
ATOM     12  C   UNL     1      62.623  28.349  58.408  1.00  0.00     0.004 C 
ENDBRANCH  10  11
ENDBRANCH   9  10
ENDBRANCH   8   9
ENDBRANCH   7   8
ENDBRANCH   6   7
ENDBRANCH   5   6
ENDBRANCH   4   5
ENDBRANCH   3   4
ENDBRANCH   2   3
ENDBRANCH   1   2
BRANCH   1  13
ATOM     13  C   UNL     1      64.363  34.324  59.718  1.00  0.00     0.000 C 
BRANCH  13  14
ATOM     14  C   UNL     1      63.708  34.528  61.093  1.00  0.00     0.000 C 
BRANCH  14  15
ATOM     15  C   UNL     1      63.636  36.010  61.493  1.00  0.00     0.000 C 
BRANCH  15  16
ATOM     16  C   UNL     1      62.250  36.618  61.220  1.00  0.00     0.000 C 
BRANCH  16  17
ATOM     17  C   UNL     1      61.194  35.555  60.881  1.00  0.00     0.000 C 
BRANCH  17  18
ATOM     18  C   UNL     1      60.392  35.898  59.613  1.00  0.00     0.000 C 
BRANCH  18  19
ATOM     19  C   UNL     1      60.489  34.802  58.541  1.00  0.00     0.000 C 
BRANCH  19  20
ATOM     20  C   UNL     1      59.144  34.535  57.844  1.00  0.00     0.006 C 
BRANCH  20  21
ATOM     21  C   UNL     1      59.220  33.351  56.873  1.00  0.00     0.053 C 
BRANCH  21  22
ATOM     22  C   UNL     1      58.249  32.270  57.241  1.00  0.00     0.041 C 
ATOM     23  O   UNL     1      57.418  32.453  58.169  1.00  0.00    -0.550 OA
ATOM     24  O   UNL     1      58.271  31.057  56.565  1.00  0.00    -0.550 OA
ENDBRANCH  21  22
ENDBRANCH  20  21
ENDBRANCH  19  20
ENDBRANCH  18  19
ENDBRANCH  17  18
ENDBRANCH  16  17
ENDBRANCH  15  16
ENDBRANCH  14  15
ENDBRANCH  13  14
ENDBRANCH   1  13
TORSDOF 20
ENDMDL
MODEL 6
REMARK VINA RESULT:    -3.445      2.729      6.482
REMARK INTER + INTRA:         -10.222
REMARK INTER:                  -5.965
REMARK INTRA:                  -4.257
REMARK UNBOUND:                -2.750
REMARK SMILES CCCCCCCCCCCCCCCCCCCCCC(=O)[O-]
REMARK SMILES IDX 12 1 11 2 10 3 9 4 8 5 7 6 6 7 5 8 4 9 3 10 2 11 1 12 13 13
REMARK SMILES IDX 14 14 15 15 16 16 17 17 18 18 19 19 20 20 21 21 22 22 23 23
REMARK SMILES IDX 24 24
REMARK H PARENT
REMARK Flexibility Score: inf
ROOT
ATOM      1  C   UNL     1      61.067  33.137  58.630  1.00  0.00     0.000 C 
ENDROOT
BRANCH   1   2
ATOM      2  C   UNL     1      60.289  31.905  59.141  1.00  0.00     0.000 C 
BRANCH   2   3
ATOM      3  C   UNL     1      61.109  30.890  59.968  1.00  0.00     0.000 C 
BRANCH   3   4
ATOM      4  C   UNL     1      60.807  30.890  61.483  1.00  0.00    -0.000 C 
BRANCH   4   5
ATOM      5  C   UNL     1      61.892  30.213  62.342  1.00  0.00    -0.000 C 
BRANCH   5   6
ATOM      6  C   UNL     1      62.833  29.282  61.547  1.00  0.00    -0.000 C 
BRANCH   6   7
ATOM      7  C   UNL     1      62.392  27.806  61.583  1.00  0.00    -0.000 C 
BRANCH   7   8
ATOM      8  C   UNL     1      61.883  27.293  60.223  1.00  0.00    -0.000 C 
BRANCH   8   9
ATOM      9  C   UNL     1      60.465  26.710  60.317  1.00  0.00    -0.000 C 
BRANCH   9  10
ATOM     10  C   UNL     1      59.700  27.189  61.563  1.00  0.00    -0.000 C 
BRANCH  10  11
ATOM     11  C   UNL     1      58.446  28.027  61.237  1.00  0.00    -0.003 C 
ATOM     12  C   UNL     1      58.366  28.410  59.758  1.00  0.00     0.004 C 
ENDBRANCH  10  11
ENDBRANCH   9  10
ENDBRANCH   8   9
ENDBRANCH   7   8
ENDBRANCH   6   7
ENDBRANCH   5   6
ENDBRANCH   4   5
ENDBRANCH   3   4
ENDBRANCH   2   3
ENDBRANCH   1   2
BRANCH   1  13
ATOM     13  C   UNL     1      60.832  34.437  59.420  1.00  0.00     0.000 C 
BRANCH  13  14
ATOM     14  C   UNL     1      61.533  34.435  60.789  1.00  0.00     0.000 C 
BRANCH  14  15
ATOM     15  C   UNL     1      62.819  35.277  60.788  1.00  0.00     0.000 C 
BRANCH  15  16
ATOM     16  C   UNL     1      63.999  34.535  61.439  1.00  0.00     0.000 C 
BRANCH  16  17
ATOM     17  C   UNL     1      64.038  33.045  61.065  1.00  0.00     0.000 C 
BRANCH  17  18
ATOM     18  C   UNL     1      64.591  32.802  59.650  1.00  0.00     0.000 C 
BRANCH  18  19
ATOM     19  C   UNL     1      64.792  31.309  59.345  1.00  0.00     0.000 C 
BRANCH  19  20
ATOM     20  C   UNL     1      64.373  30.936  57.913  1.00  0.00     0.006 C 
BRANCH  20  21
ATOM     21  C   UNL     1      63.816  29.510  57.825  1.00  0.00     0.053 C 
BRANCH  21  22
ATOM     22  C   UNL     1      62.579  29.450  56.981  1.00  0.00     0.041 C 
ATOM     23  O   UNL     1      61.945  28.369  56.862  1.00  0.00    -0.550 OA
ATOM     24  O   UNL     1      62.135  30.586  56.317  1.00  0.00    -0.550 OA
ENDBRANCH  21  22
ENDBRANCH  20  21
ENDBRANCH  19  20
ENDBRANCH  18  19
ENDBRANCH  17  18
ENDBRANCH  16  17
ENDBRANCH  15  16
ENDBRANCH  14  15
ENDBRANCH  13  14
ENDBRANCH   1  13
TORSDOF 20
ENDMDL
MODEL 7
REMARK VINA RESULT:    -3.423      4.074      8.306
REMARK INTER + INTRA:         -10.175
REMARK INTER:                  -7.111
REMARK INTRA:                  -3.064
REMARK UNBOUND:                -2.750
REMARK SMILES CCCCCCCCCCCCCCCCCCCCCC(=O)[O-]
REMARK SMILES IDX 12 1 11 2 10 3 9 4 8 5 7 6 6 7 5 8 4 9 3 10 2 11 1 12 13 13
REMARK SMILES IDX 14 14 15 15 16 16 17 17 18 18 19 19 20 20 21 21 22 22 23 23
REMARK SMILES IDX 24 24
REMARK H PARENT
REMARK Flexibility Score: inf
ROOT
ATOM      1  C   UNL     1      64.136  30.357  58.847  1.00  0.00     0.000 C 
ENDROOT
BRANCH   1   2
ATOM      2  C   UNL     1      64.785  31.384  59.800  1.00  0.00     0.000 C 
BRANCH   2   3
ATOM      3  C   UNL     1      64.356  31.290  61.280  1.00  0.00     0.000 C 
BRANCH   3   4
ATOM      4  C   UNL     1      63.781  29.922  61.706  1.00  0.00    -0.000 C 
BRANCH   4   5
ATOM      5  C   UNL     1      62.273  29.941  62.022  1.00  0.00    -0.000 C 
BRANCH   5   6
ATOM      6  C   UNL     1      61.453  28.894  61.238  1.00  0.00    -0.000 C 
BRANCH   6   7
ATOM      7  C   UNL     1      60.039  29.387  60.873  1.00  0.00    -0.000 C 
BRANCH   7   8
ATOM      8  C   UNL     1      59.226  28.353  60.073  1.00  0.00    -0.000 C 
BRANCH   8   9
ATOM      9  C   UNL     1      59.030  27.041  60.850  1.00  0.00    -0.000 C 
BRANCH   9  10
ATOM     10  C   UNL     1      58.025  27.174  62.007  1.00  0.00    -0.000 C 
BRANCH  10  11
ATOM     11  C   UNL     1      56.733  27.926  61.623  1.00  0.00    -0.003 C 
ATOM     12  C   UNL     1      55.741  28.014  62.784  1.00  0.00     0.004 C 
ENDBRANCH  10  11
ENDBRANCH   9  10
ENDBRANCH   8   9
ENDBRANCH   7   8
ENDBRANCH   6   7
ENDBRANCH   5   6
ENDBRANCH   4   5
ENDBRANCH   3   4
ENDBRANCH   2   3
ENDBRANCH   1   2
BRANCH   1  13
ATOM     13  C   UNL     1      62.798  30.794  58.223  1.00  0.00     0.000 C 
BRANCH  13  14
ATOM     14  C   UNL     1      62.849  32.219  57.647  1.00  0.00     0.000 C 
BRANCH  14  15
ATOM     15  C   UNL     1      61.766  33.131  58.245  1.00  0.00     0.000 C 
BRANCH  15  16
ATOM     16  C   UNL     1      61.158  32.544  59.530  1.00  0.00     0.000 C 
BRANCH  16  17
ATOM     17  C   UNL     1      61.427  33.419  60.764  1.00  0.00     0.000 C 
BRANCH  17  18
ATOM     18  C   UNL     1      61.623  34.904  60.408  1.00  0.00     0.000 C 
BRANCH  18  19
ATOM     19  C   UNL     1      62.632  35.602  61.332  1.00  0.00     0.000 C 
BRANCH  19  20
ATOM     20  C   UNL     1      63.965  34.841  61.434  1.00  0.00     0.006 C 
BRANCH  20  21
ATOM     21  C   UNL     1      65.168  35.736  61.114  1.00  0.00     0.053 C 
BRANCH  21  22
ATOM     22  C   UNL     1      65.408  35.834  59.638  1.00  0.00     0.041 C 
ATOM     23  O   UNL     1      65.468  34.791  58.934  1.00  0.00    -0.550 OA
ATOM     24  O   UNL     1      65.576  37.077  59.042  1.00  0.00    -0.550 OA
ENDBRANCH  21  22
ENDBRANCH  20  21
ENDBRANCH  19  20
ENDBRANCH  18  19
ENDBRANCH  17  18
ENDBRANCH  16  17
ENDBRANCH  15  16
ENDBRANCH  14  15
ENDBRANCH  13  14
ENDBRANCH   1  13
TORSDOF 20
ENDMDL
MODEL 8
REMARK VINA RESULT:    -3.419     10.120     12.341
REMARK INTER + INTRA:         -10.167
REMARK INTER:                  -6.466
REMARK INTRA:                  -3.702
REMARK UNBOUND:                -2.750
REMARK SMILES CCCCCCCCCCCCCCCCCCCCCC(=O)[O-]
REMARK SMILES IDX 12 1 11 2 10 3 9 4 8 5 7 6 6 7 5 8 4 9 3 10 2 11 1 12 13 13
REMARK SMILES IDX 14 14 15 15 16 16 17 17 18 18 19 19 20 20 21 21 22 22 23 23
REMARK SMILES IDX 24 24
REMARK H PARENT
REMARK Flexibility Score: inf
ROOT
ATOM      1  C   UNL     1      56.149  26.365  49.975  1.00  0.00     0.000 C 
ENDROOT
BRANCH   1   2
ATOM      2  C   UNL     1      54.781  25.714  49.680  1.00  0.00     0.000 C 
BRANCH   2   3
ATOM      3  C   UNL     1      53.549  26.625  49.872  1.00  0.00     0.000 C 
BRANCH   3   4
ATOM      4  C   UNL     1      53.858  28.137  49.914  1.00  0.00    -0.000 C 
BRANCH   4   5
ATOM      5  C   UNL     1      53.506  28.816  51.252  1.00  0.00    -0.000 C 
BRANCH   5   6
ATOM      6  C   UNL     1      53.459  27.849  52.454  1.00  0.00    -0.000 C 
BRANCH   6   7
ATOM      7  C   UNL     1      53.603  28.566  53.811  1.00  0.00    -0.000 C 
BRANCH   7   8
ATOM      8  C   UNL     1      55.064  28.897  54.167  1.00  0.00    -0.000 C 
BRANCH   8   9
ATOM      9  C   UNL     1      55.256  30.385  54.503  1.00  0.00    -0.000 C 
BRANCH   9  10
ATOM     10  C   UNL     1      55.563  31.244  53.265  1.00  0.00    -0.000 C 
BRANCH  10  11
ATOM     11  C   UNL     1      56.701  32.264  53.484  1.00  0.00    -0.003 C 
ATOM     12  C   UNL     1      58.087  31.638  53.324  1.00  0.00     0.004 C 
ENDBRANCH  10  11
ENDBRANCH   9  10
ENDBRANCH   8   9
ENDBRANCH   7   8
ENDBRANCH   6   7
ENDBRANCH   5   6
ENDBRANCH   4   5
ENDBRANCH   3   4
ENDBRANCH   2   3
ENDBRANCH   1   2
BRANCH   1  13
ATOM     13  C   UNL     1      56.662  26.192  51.416  1.00  0.00     0.000 C 
BRANCH  13  14
ATOM     14  C   UNL     1      57.453  27.413  51.915  1.00  0.00     0.000 C 
BRANCH  14  15
ATOM     15  C   UNL     1      57.192  28.666  51.065  1.00  0.00     0.000 C 
BRANCH  15  16
ATOM     16  C   UNL     1      58.494  29.287  50.530  1.00  0.00     0.000 C 
BRANCH  16  17
ATOM     17  C   UNL     1      58.809  28.850  49.092  1.00  0.00     0.000 C 
BRANCH  17  18
ATOM     18  C   UNL     1      60.021  27.904  49.010  1.00  0.00     0.000 C 
BRANCH  18  19
ATOM     19  C   UNL     1      60.769  27.790  50.347  1.00  0.00     0.000 C 
BRANCH  19  20
ATOM     20  C   UNL     1      60.943  26.333  50.805  1.00  0.00     0.006 C 
BRANCH  20  21
ATOM     21  C   UNL     1      60.011  25.374  50.054  1.00  0.00     0.053 C 
BRANCH  21  22
ATOM     22  C   UNL     1      60.370  23.941  50.306  1.00  0.00     0.041 C 
ATOM     23  O   UNL     1      59.627  23.218  51.020  1.00  0.00    -0.550 OA
ATOM     24  O   UNL     1      61.532  23.410  49.762  1.00  0.00    -0.550 OA
ENDBRANCH  21  22
ENDBRANCH  20  21
ENDBRANCH  19  20
ENDBRANCH  18  19
ENDBRANCH  17  18
ENDBRANCH  16  17
ENDBRANCH  15  16
ENDBRANCH  14  15
ENDBRANCH  13  14
ENDBRANCH   1  13
TORSDOF 20
ENDMDL
MODEL 9
REMARK VINA RESULT:    -3.391      4.876      8.229
REMARK INTER + INTRA:         -10.106
REMARK INTER:                  -6.775
REMARK INTRA:                  -3.332
REMARK UNBOUND:                -2.750
REMARK SMILES CCCCCCCCCCCCCCCCCCCCCC(=O)[O-]
REMARK SMILES IDX 12 1 11 2 10 3 9 4 8 5 7 6 6 7 5 8 4 9 3 10 2 11 1 12 13 13
REMARK SMILES IDX 14 14 15 15 16 16 17 17 18 18 19 19 20 20 21 21 22 22 23 23
REMARK SMILES IDX 24 24
REMARK H PARENT
REMARK Flexibility Score: inf
ROOT
ATOM      1  C   UNL     1      63.980  36.254  61.433  1.00  0.00     0.000 C 
ENDROOT
BRANCH   1   2
ATOM      2  C   UNL     1      62.445  36.171  61.296  1.00  0.00     0.000 C 
BRANCH   2   3
ATOM      3  C   UNL     1      61.864  36.671  59.955  1.00  0.00     0.000 C 
BRANCH   3   4
ATOM      4  C   UNL     1      60.979  35.650  59.207  1.00  0.00    -0.000 C 
BRANCH   4   5
ATOM      5  C   UNL     1      60.824  34.299  59.932  1.00  0.00    -0.000 C 
BRANCH   5   6
ATOM      6  C   UNL     1      60.741  33.083  58.984  1.00  0.00    -0.000 C 
BRANCH   6   7
ATOM      7  C   UNL     1      60.868  31.735  59.721  1.00  0.00    -0.000 C 
BRANCH   7   8
ATOM      8  C   UNL     1      60.762  31.870  61.251  1.00  0.00    -0.000 C 
BRANCH   8   9
ATOM      9  C   UNL     1      60.983  30.528  61.968  1.00  0.00    -0.000 C 
BRANCH   9  10
ATOM     10  C   UNL     1      62.457  30.088  61.975  1.00  0.00    -0.000 C 
BRANCH  10  11
ATOM     11  C   UNL     1      62.674  28.637  61.497  1.00  0.00    -0.003 C 
ATOM     12  C   UNL     1      61.614  28.189  60.488  1.00  0.00     0.004 C 
ENDBRANCH  10  11
ENDBRANCH   9  10
ENDBRANCH   8   9
ENDBRANCH   7   8
ENDBRANCH   6   7
ENDBRANCH   5   6
ENDBRANCH   4   5
ENDBRANCH   3   4
ENDBRANCH   2   3
ENDBRANCH   1   2
BRANCH   1  13
ATOM     13  C   UNL     1      64.699  34.902  61.596  1.00  0.00     0.000 C 
BRANCH  13  14
ATOM     14  C   UNL     1      63.786  33.703  61.289  1.00  0.00     0.000 C 
BRANCH  14  15
ATOM     15  C   UNL     1      64.528  32.577  60.552  1.00  0.00     0.000 C 
BRANCH  15  16
ATOM     16  C   UNL     1      65.221  33.079  59.273  1.00  0.00     0.000 C 
BRANCH  16  17
ATOM     17  C   UNL     1      64.222  33.567  58.213  1.00  0.00     0.000 C 
BRANCH  17  18
ATOM     18  C   UNL     1      64.361  35.070  57.913  1.00  0.00     0.000 C 
BRANCH  18  19
ATOM     19  C   UNL     1      65.766  35.443  57.417  1.00  0.00     0.000 C 
BRANCH  19  20
ATOM     20  C   UNL     1      66.462  36.469  58.328  1.00  0.00     0.006 C 
BRANCH  20  21
ATOM     21  C   UNL     1      67.669  37.125  57.646  1.00  0.00     0.053 C 
BRANCH  21  22
ATOM     22  C   UNL     1      68.957  36.484  58.066  1.00  0.00     0.041 C 
ATOM     23  O   UNL     1      68.976  35.665  59.022  1.00  0.00    -0.550 OA
ATOM     24  O   UNL     1      70.138  36.803  57.408  1.00  0.00    -0.550 OA
ENDBRANCH  21  22
ENDBRANCH  20  21
ENDBRANCH  19  20
ENDBRANCH  18  19
ENDBRANCH  17  18
ENDBRANCH  16  17
ENDBRANCH  15  16
ENDBRANCH  14  15
ENDBRANCH  13  14
ENDBRANCH   1  13
TORSDOF 20
ENDMDL
