MODEL 1
REMARK VINA RESULT:    -7.494      0.000      0.000
REMARK INTER + INTRA:          -9.604
REMARK INTER:                  -9.247
REMARK INTRA:                  -0.357
REMARK UNBOUND:                -0.357
REMARK SMILES O=c1c(O)c(-c2cc(O)c(O)c(O)c2)oc2cc(O)cc(O)c12
REMARK SMILES IDX 5 1 3 2 2 3 1 4 23 5 21 6 20 7 18 8 17 9 16 10 15 11 6 12
REMARK SMILES IDX 7 13 8 14 14 15 10 16 12 17 9 18 11 20 13 22 4 24 22 26
REMARK SMILES IDX 19 28
REMARK H PARENT 9 19 11 21 13 23 4 25 22 27 19 29
REMARK Flexibility Score: inf
ROOT
ATOM      1  C   UNL     1       3.583 -36.388  43.111  1.00  0.00     0.180 A 
ATOM      2  C   UNL     1       2.445 -36.721  43.867  1.00  0.00     0.208 A 
ATOM      3  C   UNL     1       1.276 -37.120  43.199  1.00  0.00     0.238 A 
ATOM      4  O   UNL     1       0.246 -37.364  43.879  1.00  0.00    -0.285 OA
ATOM      5  C   UNL     1       1.263 -37.198  41.786  1.00  0.00     0.111 A 
ATOM      6  C   UNL     1       0.147 -37.628  41.008  1.00  0.00     0.134 A 
ATOM      7  C   UNL     1       0.203 -37.541  39.612  1.00  0.00     0.093 A 
ATOM      8  C   UNL     1       1.357 -37.101  38.964  1.00  0.00     0.123 A 
ATOM      9  C   UNL     1       2.475 -36.734  39.713  1.00  0.00     0.094 A 
ATOM     10  C   UNL     1       2.436 -36.775  41.108  1.00  0.00     0.146 A 
ATOM     11  O   UNL     1       3.519 -36.408  41.784  1.00  0.00    -0.452 OA
ENDROOT
BRANCH   1  12
ATOM     12  C   UNL     1       4.858 -35.983  43.743  1.00  0.00     0.029 A 
ATOM     13  C   UNL     1       5.128 -34.640  44.052  1.00  0.00     0.062 A 
ATOM     14  C   UNL     1       6.332 -34.278  44.672  1.00  0.00     0.162 A 
ATOM     15  C   UNL     1       5.796 -36.965  44.096  1.00  0.00     0.062 A 
ATOM     16  C   UNL     1       7.275 -35.267  45.001  1.00  0.00     0.200 A 
ATOM     17  C   UNL     1       7.001 -36.615  44.713  1.00  0.00     0.162 A 
BRANCH  14  18
ATOM     18  O   UNL     1       6.591 -32.940  44.968  1.00  0.00    -0.504 OA
ATOM     19  H   UNL     1       7.198 -32.375  44.386  1.00  0.00     0.293 HD
ENDBRANCH  14  18
BRANCH  16  20
ATOM     20  O   UNL     1       8.481 -34.925  45.614  1.00  0.00    -0.502 OA
ATOM     21  H   UNL     1       9.173 -35.621  45.868  1.00  0.00     0.293 HD
ENDBRANCH  16  20
BRANCH  17  22
ATOM     22  O   UNL     1       7.913 -37.620  45.033  1.00  0.00    -0.504 OA
ATOM     23  H   UNL     1       8.902 -37.434  45.146  1.00  0.00     0.293 HD
ENDBRANCH  17  22
ENDBRANCH   1  12
BRANCH   2  24
ATOM     24  O   UNL     1       2.473 -36.616  45.260  1.00  0.00    -0.502 OA
ATOM     25  H   UNL     1       2.814 -35.789  45.736  1.00  0.00     0.293 HD
ENDBRANCH   2  24
BRANCH   6  26
ATOM     26  O   UNL     1      -1.021 -38.171  41.553  1.00  0.00    -0.507 OA
ATOM     27  H   UNL     1      -1.803 -38.510  41.014  1.00  0.00     0.293 HD
ENDBRANCH   6  26
BRANCH   8  28
ATOM     28  O   UNL     1       1.383 -37.041  37.572  1.00  0.00    -0.508 OA
ATOM     29  H   UNL     1       1.219 -37.864  37.003  1.00  0.00     0.293 HD
ENDBRANCH   8  28
TORSDOF 7
ENDMDL
MODEL 2
REMARK VINA RESULT:    -7.301      3.348      6.042
REMARK INTER + INTRA:          -9.365
REMARK INTER:                  -9.132
REMARK INTRA:                  -0.233
REMARK UNBOUND:                -0.357
REMARK SMILES O=c1c(O)c(-c2cc(O)c(O)c(O)c2)oc2cc(O)cc(O)c12
REMARK SMILES IDX 5 1 3 2 2 3 1 4 23 5 21 6 20 7 18 8 17 9 16 10 15 11 6 12
REMARK SMILES IDX 7 13 8 14 14 15 10 16 12 17 9 18 11 20 13 22 4 24 22 26
REMARK SMILES IDX 19 28
REMARK H PARENT 9 19 11 21 13 23 4 25 22 27 19 29
REMARK Flexibility Score: inf
ROOT
ATOM      1  C   UNL     1       7.276 -33.977  44.808  1.00  0.00     0.180 A 
ATOM      2  C   UNL     1       8.037 -35.150  44.953  1.00  0.00     0.208 A 
ATOM      3  C   UNL     1       7.380 -36.391  44.969  1.00  0.00     0.238 A 
ATOM      4  O   UNL     1       8.061 -37.433  45.155  1.00  0.00    -0.285 OA
ATOM      5  C   UNL     1       5.973 -36.445  44.824  1.00  0.00     0.111 A 
ATOM      6  C   UNL     1       5.208 -37.649  44.786  1.00  0.00     0.134 A 
ATOM      7  C   UNL     1       3.809 -37.579  44.769  1.00  0.00     0.093 A 
ATOM      8  C   UNL     1       3.151 -36.350  44.723  1.00  0.00     0.123 A 
ATOM      9  C   UNL     1       3.891 -35.168  44.699  1.00  0.00     0.094 A 
ATOM     10  C   UNL     1       5.286 -35.205  44.752  1.00  0.00     0.146 A 
ATOM     11  O   UNL     1       5.952 -34.057  44.738  1.00  0.00    -0.452 OA
ENDROOT
BRANCH   1  12
ATOM     12  C   UNL     1       7.899 -32.636  44.755  1.00  0.00     0.029 A 
ATOM     13  C   UNL     1       8.734 -32.257  43.690  1.00  0.00     0.062 A 
ATOM     14  C   UNL     1       9.297 -30.974  43.646  1.00  0.00     0.162 A 
ATOM     15  C   UNL     1       7.608 -31.699  45.759  1.00  0.00     0.062 A 
ATOM     16  C   UNL     1       9.017 -30.050  44.668  1.00  0.00     0.200 A 
ATOM     17  C   UNL     1       8.166 -30.417  45.725  1.00  0.00     0.162 A 
BRANCH  14  18
ATOM     18  O   UNL     1      10.128 -30.612  42.587  1.00  0.00    -0.504 OA
ATOM     19  H   UNL     1       9.760 -30.428  41.662  1.00  0.00     0.293 HD
ENDBRANCH  14  18
BRANCH  16  20
ATOM     20  O   UNL     1       9.572 -28.770  44.644  1.00  0.00    -0.502 OA
ATOM     21  H   UNL     1       9.362 -28.078  45.353  1.00  0.00     0.293 HD
ENDBRANCH  16  20
BRANCH  17  22
ATOM     22  O   UNL     1       7.862 -29.522  46.750  1.00  0.00    -0.504 OA
ATOM     23  H   UNL     1       6.917 -29.395  47.092  1.00  0.00     0.293 HD
ENDBRANCH  17  22
ENDBRANCH   1  12
BRANCH   2  24
ATOM     24  O   UNL     1       9.422 -35.072  45.117  1.00  0.00    -0.502 OA
ATOM     25  H   UNL     1       9.951 -35.777  45.618  1.00  0.00     0.293 HD
ENDBRANCH   2  24
BRANCH   6  26
ATOM     26  O   UNL     1       5.769 -38.929  44.736  1.00  0.00    -0.507 OA
ATOM     27  H   UNL     1       6.585 -39.219  45.252  1.00  0.00     0.293 HD
ENDBRANCH   6  26
BRANCH   8  28
ATOM     28  O   UNL     1       1.758 -36.318  44.692  1.00  0.00    -0.508 OA
ATOM     29  H   UNL     1       1.204 -37.135  44.924  1.00  0.00     0.293 HD
ENDBRANCH   8  28
TORSDOF 7
ENDMDL
MODEL 3
REMARK VINA RESULT:    -7.239      3.311      5.858
REMARK INTER + INTRA:          -9.289
REMARK INTER:                  -9.078
REMARK INTRA:                  -0.211
REMARK UNBOUND:                -0.357
REMARK SMILES O=c1c(O)c(-c2cc(O)c(O)c(O)c2)oc2cc(O)cc(O)c12
REMARK SMILES IDX 5 1 3 2 2 3 1 4 23 5 21 6 20 7 18 8 17 9 16 10 15 11 6 12
REMARK SMILES IDX 7 13 8 14 14 15 10 16 12 17 9 18 11 20 13 22 4 24 22 26
REMARK SMILES IDX 19 28
REMARK H PARENT 9 19 11 21 13 23 4 25 22 27 19 29
REMARK Flexibility Score: inf
ROOT
ATOM      1  C   UNL     1       7.190 -34.102  44.813  1.00  0.00     0.180 A 
ATOM      2  C   UNL     1       7.960 -35.273  44.933  1.00  0.00     0.208 A 
ATOM      3  C   UNL     1       7.311 -36.518  44.932  1.00  0.00     0.238 A 
ATOM      4  O   UNL     1       8.000 -37.558  45.095  1.00  0.00    -0.285 OA
ATOM      5  C   UNL     1       5.904 -36.579  44.795  1.00  0.00     0.111 A 
ATOM      6  C   UNL     1       5.146 -37.787  44.742  1.00  0.00     0.134 A 
ATOM      7  C   UNL     1       3.747 -37.726  44.736  1.00  0.00     0.093 A 
ATOM      8  C   UNL     1       3.080 -36.501  44.716  1.00  0.00     0.123 A 
ATOM      9  C   UNL     1       3.812 -35.314  44.707  1.00  0.00     0.094 A 
ATOM     10  C   UNL     1       5.208 -35.343  44.750  1.00  0.00     0.146 A 
ATOM     11  O   UNL     1       5.867 -34.190  44.751  1.00  0.00    -0.452 OA
ENDROOT
BRANCH   1  12
ATOM     12  C   UNL     1       7.804 -32.756  44.780  1.00  0.00     0.029 A 
ATOM     13  C   UNL     1       7.626 -31.844  45.833  1.00  0.00     0.062 A 
ATOM     14  C   UNL     1       8.234 -30.581  45.795  1.00  0.00     0.162 A 
ATOM     15  C   UNL     1       8.630 -32.400  43.702  1.00  0.00     0.062 A 
ATOM     16  C   UNL     1       9.041 -30.225  44.700  1.00  0.00     0.200 A 
ATOM     17  C   UNL     1       9.240 -31.142  43.654  1.00  0.00     0.162 A 
BRANCH  14  18
ATOM     18  O   UNL     1       8.044 -29.682  46.843  1.00  0.00    -0.504 OA
ATOM     19  H   UNL     1       7.611 -29.966  47.714  1.00  0.00     0.293 HD
ENDBRANCH  14  18
BRANCH  16  20
ATOM     20  O   UNL     1       9.651 -28.971  44.643  1.00  0.00    -0.502 OA
ATOM     21  H   UNL     1       9.272 -28.165  45.125  1.00  0.00     0.293 HD
ENDBRANCH  16  20
BRANCH  17  22
ATOM     22  O   UNL     1      10.041 -30.823  42.558  1.00  0.00    -0.504 OA
ATOM     23  H   UNL     1       9.717 -30.931  41.604  1.00  0.00     0.293 HD
ENDBRANCH  17  22
ENDBRANCH   1  12
BRANCH   2  24
ATOM     24  O   UNL     1       9.346 -35.188  45.089  1.00  0.00    -0.502 OA
ATOM     25  H   UNL     1       9.978 -35.114  44.300  1.00  0.00     0.293 HD
ENDBRANCH   2  24
BRANCH   6  26
ATOM     26  O   UNL     1       5.715 -39.062  44.666  1.00  0.00    -0.507 OA
ATOM     27  H   UNL     1       6.266 -39.401  43.892  1.00  0.00     0.293 HD
ENDBRANCH   6  26
BRANCH   8  28
ATOM     28  O   UNL     1       1.688 -36.478  44.695  1.00  0.00    -0.508 OA
ATOM     29  H   UNL     1       1.146 -37.317  44.521  1.00  0.00     0.293 HD
ENDBRANCH   8  28
TORSDOF 7
ENDMDL
MODEL 4
REMARK VINA RESULT:    -7.043      1.503      7.308
REMARK INTER + INTRA:          -9.048
REMARK INTER:                  -8.755
REMARK INTRA:                  -0.292
REMARK UNBOUND:                -0.357
REMARK SMILES O=c1c(O)c(-c2cc(O)c(O)c(O)c2)oc2cc(O)cc(O)c12
REMARK SMILES IDX 5 1 3 2 2 3 1 4 23 5 21 6 20 7 18 8 17 9 16 10 15 11 6 12
REMARK SMILES IDX 7 13 8 14 14 15 10 16 12 17 9 18 11 20 13 22 4 24 22 26
REMARK SMILES IDX 19 28
REMARK H PARENT 9 19 11 21 13 23 4 25 22 27 19 29
REMARK Flexibility Score: inf
ROOT
ATOM      1  C   UNL     1       4.936 -36.128  43.874  1.00  0.00     0.180 A 
ATOM      2  C   UNL     1       5.976 -37.017  44.198  1.00  0.00     0.208 A 
ATOM      3  C   UNL     1       7.163 -36.505  44.746  1.00  0.00     0.238 A 
ATOM      4  O   UNL     1       8.110 -37.298  44.983  1.00  0.00    -0.285 OA
ATOM      5  C   UNL     1       7.291 -35.114  44.976  1.00  0.00     0.111 A 
ATOM      6  C   UNL     1       8.433 -34.491  45.563  1.00  0.00     0.134 A 
ATOM      7  C   UNL     1       8.503 -33.093  45.624  1.00  0.00     0.093 A 
ATOM      8  C   UNL     1       7.445 -32.300  45.180  1.00  0.00     0.123 A 
ATOM      9  C   UNL     1       6.299 -32.901  44.660  1.00  0.00     0.094 A 
ATOM     10  C   UNL     1       6.215 -34.291  44.552  1.00  0.00     0.146 A 
ATOM     11  O   UNL     1       5.111 -34.822  44.042  1.00  0.00    -0.452 OA
ENDROOT
BRANCH   1  12
ATOM     12  C   UNL     1       3.646 -36.595  43.318  1.00  0.00     0.029 A 
ATOM     13  C   UNL     1       2.479 -36.621  44.099  1.00  0.00     0.062 A 
ATOM     14  C   UNL     1       1.261 -37.044  43.549  1.00  0.00     0.162 A 
ATOM     15  C   UNL     1       3.570 -36.966  41.967  1.00  0.00     0.062 A 
ATOM     16  C   UNL     1       1.200 -37.436  42.201  1.00  0.00     0.200 A 
ATOM     17  C   UNL     1       2.360 -37.392  41.409  1.00  0.00     0.162 A 
BRANCH  14  18
ATOM     18  O   UNL     1       0.111 -37.072  44.337  1.00  0.00    -0.504 OA
ATOM     19  H   UNL     1      -0.545 -37.843  44.293  1.00  0.00     0.293 HD
ENDBRANCH  14  18
BRANCH  16  20
ATOM     20  O   UNL     1      -0.003 -37.865  41.637  1.00  0.00    -0.502 OA
ATOM     21  H   UNL     1      -0.039 -38.343  40.744  1.00  0.00     0.293 HD
ENDBRANCH  16  20
BRANCH  17  22
ATOM     22  O   UNL     1       2.331 -37.766  40.066  1.00  0.00    -0.504 OA
ATOM     23  H   UNL     1       2.361 -37.086  39.316  1.00  0.00     0.293 HD
ENDBRANCH  17  22
ENDBRANCH   1  12
BRANCH   2  24
ATOM     24  O   UNL     1       5.837 -38.383  43.942  1.00  0.00    -0.502 OA
ATOM     25  H   UNL     1       5.742 -39.068  44.683  1.00  0.00     0.293 HD
ENDBRANCH   2  24
BRANCH   6  26
ATOM     26  O   UNL     1       9.505 -35.194  46.121  1.00  0.00    -0.507 OA
ATOM     27  H   UNL     1       9.924 -34.989  47.015  1.00  0.00     0.293 HD
ENDBRANCH   6  26
BRANCH   8  28
ATOM     28  O   UNL     1       7.543 -30.913  45.269  1.00  0.00    -0.508 OA
ATOM     29  H   UNL     1       8.351 -30.464  45.686  1.00  0.00     0.293 HD
ENDBRANCH   8  28
TORSDOF 7
ENDMDL
MODEL 5
REMARK VINA RESULT:    -6.981      1.490      3.566
REMARK INTER + INTRA:          -8.971
REMARK INTER:                  -8.643
REMARK INTRA:                  -0.328
REMARK UNBOUND:                -0.357
REMARK SMILES O=c1c(O)c(-c2cc(O)c(O)c(O)c2)oc2cc(O)cc(O)c12
REMARK SMILES IDX 5 1 3 2 2 3 1 4 23 5 21 6 20 7 18 8 17 9 16 10 15 11 6 12
REMARK SMILES IDX 7 13 8 14 14 15 10 16 12 17 9 18 11 20 13 22 4 24 22 26
REMARK SMILES IDX 19 28
REMARK H PARENT 9 19 11 21 13 23 4 25 22 27 19 29
REMARK Flexibility Score: inf
ROOT
ATOM      1  C   UNL     1       4.913 -35.500  43.128  1.00  0.00     0.180 A 
ATOM      2  C   UNL     1       5.030 -35.367  41.733  1.00  0.00     0.208 A 
ATOM      3  C   UNL     1       4.001 -35.859  40.914  1.00  0.00     0.238 A 
ATOM      4  O   UNL     1       4.137 -35.786  39.665  1.00  0.00    -0.285 OA
ATOM      5  C   UNL     1       2.862 -36.464  41.498  1.00  0.00     0.111 A 
ATOM      6  C   UNL     1       1.744 -36.962  40.766  1.00  0.00     0.134 A 
ATOM      7  C   UNL     1       0.732 -37.658  41.439  1.00  0.00     0.093 A 
ATOM      8  C   UNL     1       0.765 -37.817  42.823  1.00  0.00     0.123 A 
ATOM      9  C   UNL     1       1.825 -37.282  43.556  1.00  0.00     0.094 A 
ATOM     10  C   UNL     1       2.868 -36.615  42.909  1.00  0.00     0.146 A 
ATOM     11  O   UNL     1       3.863 -36.130  43.643  1.00  0.00    -0.452 OA
ENDROOT
BRANCH   1  12
ATOM     12  C   UNL     1       5.942 -34.983  44.058  1.00  0.00     0.029 A 
ATOM     13  C   UNL     1       7.125 -35.698  44.310  1.00  0.00     0.062 A 
ATOM     14  C   UNL     1       8.100 -35.181  45.176  1.00  0.00     0.162 A 
ATOM     15  C   UNL     1       5.763 -33.727  44.657  1.00  0.00     0.062 A 
ATOM     16  C   UNL     1       7.901 -33.932  45.789  1.00  0.00     0.200 A 
ATOM     17  C   UNL     1       6.728 -33.204  45.524  1.00  0.00     0.162 A 
BRANCH  14  18
ATOM     18  O   UNL     1       9.267 -35.902  45.423  1.00  0.00    -0.504 OA
ATOM     19  H   UNL     1       9.244 -36.817  45.859  1.00  0.00     0.293 HD
ENDBRANCH  14  18
BRANCH  16  20
ATOM     20  O   UNL     1       8.858 -33.405  46.657  1.00  0.00    -0.502 OA
ATOM     21  H   UNL     1       8.946 -33.718  47.617  1.00  0.00     0.293 HD
ENDBRANCH  16  20
BRANCH  17  22
ATOM     22  O   UNL     1       6.505 -31.959  46.110  1.00  0.00    -0.504 OA
ATOM     23  H   UNL     1       6.948 -31.115  45.768  1.00  0.00     0.293 HD
ENDBRANCH  17  22
ENDBRANCH   1  12
BRANCH   2  24
ATOM     24  O   UNL     1       6.172 -34.786  41.177  1.00  0.00    -0.502 OA
ATOM     25  H   UNL     1       6.134 -33.949  40.609  1.00  0.00     0.293 HD
ENDBRANCH   2  24
BRANCH   6  26
ATOM     26  O   UNL     1       1.566 -36.777  39.391  1.00  0.00    -0.507 OA
ATOM     27  H   UNL     1       2.234 -36.332  38.780  1.00  0.00     0.293 HD
ENDBRANCH   6  26
BRANCH   8  28
ATOM     28  O   UNL     1      -0.266 -38.502  43.462  1.00  0.00    -0.508 OA
ATOM     29  H   UNL     1      -0.572 -39.415  43.144  1.00  0.00     0.293 HD
ENDBRANCH   8  28
TORSDOF 7
ENDMDL
MODEL 6
REMARK VINA RESULT:    -6.967      1.511      3.150
REMARK INTER + INTRA:          -8.953
REMARK INTER:                  -8.612
REMARK INTRA:                  -0.341
REMARK UNBOUND:                -0.357
REMARK SMILES O=c1c(O)c(-c2cc(O)c(O)c(O)c2)oc2cc(O)cc(O)c12
REMARK SMILES IDX 5 1 3 2 2 3 1 4 23 5 21 6 20 7 18 8 17 9 16 10 15 11 6 12
REMARK SMILES IDX 7 13 8 14 14 15 10 16 12 17 9 18 11 20 13 22 4 24 22 26
REMARK SMILES IDX 19 28
REMARK H PARENT 9 19 11 21 13 23 4 25 22 27 19 29
REMARK Flexibility Score: inf
ROOT
ATOM      1  C   UNL     1       4.925 -35.423  43.067  1.00  0.00     0.180 A 
ATOM      2  C   UNL     1       5.034 -35.287  41.671  1.00  0.00     0.208 A 
ATOM      3  C   UNL     1       4.017 -35.805  40.854  1.00  0.00     0.238 A 
ATOM      4  O   UNL     1       4.147 -35.728  39.605  1.00  0.00    -0.285 OA
ATOM      5  C   UNL     1       2.896 -36.440  41.442  1.00  0.00     0.111 A 
ATOM      6  C   UNL     1       1.789 -36.967  40.712  1.00  0.00     0.134 A 
ATOM      7  C   UNL     1       0.797 -37.690  41.387  1.00  0.00     0.093 A 
ATOM      8  C   UNL     1       0.839 -37.848  42.772  1.00  0.00     0.123 A 
ATOM      9  C   UNL     1       1.886 -37.286  43.502  1.00  0.00     0.094 A 
ATOM     10  C   UNL     1       2.909 -36.592  42.852  1.00  0.00     0.146 A 
ATOM     11  O   UNL     1       3.893 -36.081  43.583  1.00  0.00    -0.452 OA
ENDROOT
BRANCH   1  12
ATOM     12  C   UNL     1       5.942 -34.880  43.993  1.00  0.00     0.029 A 
ATOM     13  C   UNL     1       5.759 -33.646  44.640  1.00  0.00     0.062 A 
ATOM     14  C   UNL     1       6.724 -33.158  45.533  1.00  0.00     0.162 A 
ATOM     15  C   UNL     1       7.090 -35.635  44.279  1.00  0.00     0.062 A 
ATOM     16  C   UNL     1       7.881 -33.912  45.795  1.00  0.00     0.200 A 
ATOM     17  C   UNL     1       8.059 -35.156  45.166  1.00  0.00     0.162 A 
BRANCH  14  18
ATOM     18  O   UNL     1       6.533 -31.929  46.163  1.00  0.00    -0.504 OA
ATOM     19  H   UNL     1       7.286 -31.257  46.255  1.00  0.00     0.293 HD
ENDBRANCH  14  18
BRANCH  16  20
ATOM     20  O   UNL     1       8.854 -33.440  46.676  1.00  0.00    -0.502 OA
ATOM     21  H   UNL     1       9.763 -33.880  46.762  1.00  0.00     0.293 HD
ENDBRANCH  16  20
BRANCH  17  22
ATOM     22  O   UNL     1       9.192 -35.932  45.411  1.00  0.00    -0.504 OA
ATOM     23  H   UNL     1       9.677 -35.911  46.301  1.00  0.00     0.293 HD
ENDBRANCH  17  22
ENDBRANCH   1  12
BRANCH   2  24
ATOM     24  O   UNL     1       6.159 -34.676  41.112  1.00  0.00    -0.502 OA
ATOM     25  H   UNL     1       6.827 -34.155  41.669  1.00  0.00     0.293 HD
ENDBRANCH   2  24
BRANCH   6  26
ATOM     26  O   UNL     1       1.603 -36.787  39.338  1.00  0.00    -0.507 OA
ATOM     27  H   UNL     1       1.600 -37.529  38.655  1.00  0.00     0.293 HD
ENDBRANCH   6  26
BRANCH   8  28
ATOM     28  O   UNL     1      -0.172 -38.560  43.412  1.00  0.00    -0.508 OA
ATOM     29  H   UNL     1      -0.066 -39.542  43.642  1.00  0.00     0.293 HD
ENDBRANCH   8  28
TORSDOF 7
ENDMDL
MODEL 7
REMARK VINA RESULT:    -6.961      1.471      7.207
REMARK INTER + INTRA:          -8.946
REMARK INTER:                  -8.595
REMARK INTRA:                  -0.350
REMARK UNBOUND:                -0.357
REMARK SMILES O=c1c(O)c(-c2cc(O)c(O)c(O)c2)oc2cc(O)cc(O)c12
REMARK SMILES IDX 5 1 3 2 2 3 1 4 23 5 21 6 20 7 18 8 17 9 16 10 15 11 6 12
REMARK SMILES IDX 7 13 8 14 14 15 10 16 12 17 9 18 11 20 13 22 4 24 22 26
REMARK SMILES IDX 19 28
REMARK H PARENT 9 19 11 21 13 23 4 25 22 27 19 29
REMARK Flexibility Score: inf
ROOT
ATOM      1  C   UNL     1       4.808 -36.384  43.507  1.00  0.00     0.180 A 
ATOM      2  C   UNL     1       5.707 -37.316  44.058  1.00  0.00     0.208 A 
ATOM      3  C   UNL     1       6.935 -36.860  44.562  1.00  0.00     0.238 A 
ATOM      4  O   UNL     1       7.757 -37.705  45.003  1.00  0.00    -0.285 OA
ATOM      5  C   UNL     1       7.244 -35.479  44.525  1.00  0.00     0.111 A 
ATOM      6  C   UNL     1       8.442 -34.903  45.044  1.00  0.00     0.134 A 
ATOM      7  C   UNL     1       8.700 -33.542  44.836  1.00  0.00     0.093 A 
ATOM      8  C   UNL     1       7.776 -32.725  44.187  1.00  0.00     0.123 A 
ATOM      9  C   UNL     1       6.575 -33.266  43.728  1.00  0.00     0.094 A 
ATOM     10  C   UNL     1       6.305 -34.628  43.888  1.00  0.00     0.146 A 
ATOM     11  O   UNL     1       5.154 -35.105  43.429  1.00  0.00    -0.452 OA
ENDROOT
BRANCH   1  12
ATOM     12  C   UNL     1       3.484 -36.784  42.980  1.00  0.00     0.029 A 
ATOM     13  C   UNL     1       3.331 -37.250  41.664  1.00  0.00     0.062 A 
ATOM     14  C   UNL     1       2.073 -37.646  41.189  1.00  0.00     0.162 A 
ATOM     15  C   UNL     1       2.366 -36.754  43.827  1.00  0.00     0.062 A 
ATOM     16  C   UNL     1       0.954 -37.590  42.038  1.00  0.00     0.200 A 
ATOM     17  C   UNL     1       1.106 -37.145  43.362  1.00  0.00     0.162 A 
BRANCH  14  18
ATOM     18  O   UNL     1       1.932 -38.101  39.878  1.00  0.00    -0.504 OA
ATOM     19  H   UNL     1       2.635 -38.685  39.441  1.00  0.00     0.293 HD
ENDBRANCH  14  18
BRANCH  16  20
ATOM     20  O   UNL     1      -0.307 -37.976  41.581  1.00  0.00    -0.502 OA
ATOM     21  H   UNL     1      -1.145 -37.452  41.805  1.00  0.00     0.293 HD
ENDBRANCH  16  20
BRANCH  17  22
ATOM     22  O   UNL     1       0.017 -37.085  44.232  1.00  0.00    -0.504 OA
ATOM     23  H   UNL     1      -0.552 -37.897  44.438  1.00  0.00     0.293 HD
ENDBRANCH  17  22
ENDBRANCH   1  12
BRANCH   2  24
ATOM     24  O   UNL     1       5.390 -38.676  44.064  1.00  0.00    -0.502 OA
ATOM     25  H   UNL     1       5.043 -39.157  43.243  1.00  0.00     0.293 HD
ENDBRANCH   2  24
BRANCH   6  26
ATOM     26  O   UNL     1       9.390 -35.612  45.788  1.00  0.00    -0.507 OA
ATOM     27  H   UNL     1       9.635 -35.412  46.746  1.00  0.00     0.293 HD
ENDBRANCH   6  26
BRANCH   8  28
ATOM     28  O   UNL     1       8.059 -31.373  44.011  1.00  0.00    -0.508 OA
ATOM     29  H   UNL     1       7.497 -30.788  43.403  1.00  0.00     0.293 HD
ENDBRANCH   8  28
TORSDOF 7
ENDMDL
MODEL 8
REMARK VINA RESULT:    -6.731      2.990      4.984
REMARK INTER + INTRA:          -8.663
REMARK INTER:                  -8.307
REMARK INTRA:                  -0.355
REMARK UNBOUND:                -0.357
REMARK SMILES O=c1c(O)c(-c2cc(O)c(O)c(O)c2)oc2cc(O)cc(O)c12
REMARK SMILES IDX 5 1 3 2 2 3 1 4 23 5 21 6 20 7 18 8 17 9 16 10 15 11 6 12
REMARK SMILES IDX 7 13 8 14 14 15 10 16 12 17 9 18 11 20 13 22 4 24 22 26
REMARK SMILES IDX 19 28
REMARK H PARENT 9 19 11 21 13 23 4 25 22 27 19 29
REMARK Flexibility Score: inf
ROOT
ATOM      1  C   UNL     1       6.167 -35.020  43.737  1.00  0.00     0.180 A 
ATOM      2  C   UNL     1       5.188 -35.008  42.727  1.00  0.00     0.208 A 
ATOM      3  C   UNL     1       4.455 -36.178  42.477  1.00  0.00     0.238 A 
ATOM      4  O   UNL     1       3.619 -36.178  41.536  1.00  0.00    -0.285 OA
ATOM      5  C   UNL     1       4.697 -37.341  43.247  1.00  0.00     0.111 A 
ATOM      6  C   UNL     1       3.986 -38.570  43.106  1.00  0.00     0.134 A 
ATOM      7  C   UNL     1       4.398 -39.694  43.832  1.00  0.00     0.093 A 
ATOM      8  C   UNL     1       5.452 -39.617  44.742  1.00  0.00     0.123 A 
ATOM      9  C   UNL     1       6.116 -38.405  44.931  1.00  0.00     0.094 A 
ATOM     10  C   UNL     1       5.752 -37.276  44.195  1.00  0.00     0.146 A 
ATOM     11  O   UNL     1       6.416 -36.144  44.398  1.00  0.00    -0.452 OA
ENDROOT
BRANCH   1  12
ATOM     12  C   UNL     1       6.962 -33.818  44.077  1.00  0.00     0.029 A 
ATOM     13  C   UNL     1       8.154 -33.513  43.398  1.00  0.00     0.062 A 
ATOM     14  C   UNL     1       8.882 -32.358  43.718  1.00  0.00     0.162 A 
ATOM     15  C   UNL     1       6.490 -32.933  45.057  1.00  0.00     0.062 A 
ATOM     16  C   UNL     1       8.412 -31.489  44.718  1.00  0.00     0.200 A 
ATOM     17  C   UNL     1       7.210 -31.779  45.385  1.00  0.00     0.162 A 
BRANCH  14  18
ATOM     18  O   UNL     1      10.066 -32.069  43.041  1.00  0.00    -0.504 OA
ATOM     19  H   UNL     1      10.726 -32.796  42.792  1.00  0.00     0.293 HD
ENDBRANCH  14  18
BRANCH  16  20
ATOM     20  O   UNL     1       9.125 -30.337  45.053  1.00  0.00    -0.502 OA
ATOM     21  H   UNL     1       9.752 -30.304  45.848  1.00  0.00     0.293 HD
ENDBRANCH  16  20
BRANCH  17  22
ATOM     22  O   UNL     1       6.713 -30.933  46.376  1.00  0.00    -0.504 OA
ATOM     23  H   UNL     1       5.830 -31.108  46.842  1.00  0.00     0.293 HD
ENDBRANCH  17  22
ENDBRANCH   1  12
BRANCH   2  24
ATOM     24  O   UNL     1       4.981 -33.856  41.965  1.00  0.00    -0.502 OA
ATOM     25  H   UNL     1       4.881 -32.938  42.383  1.00  0.00     0.293 HD
ENDBRANCH   2  24
BRANCH   6  26
ATOM     26  O   UNL     1       2.860 -38.731  42.293  1.00  0.00    -0.507 OA
ATOM     27  H   UNL     1       2.331 -39.585  42.206  1.00  0.00     0.293 HD
ENDBRANCH   6  26
BRANCH   8  28
ATOM     28  O   UNL     1       5.825 -40.752  45.458  1.00  0.00    -0.508 OA
ATOM     29  H   UNL     1       6.792 -41.054  45.507  1.00  0.00     0.293 HD
ENDBRANCH   8  28
TORSDOF 7
ENDMDL
MODEL 9
REMARK VINA RESULT:    -6.474      4.056      8.143
REMARK INTER + INTRA:          -8.345
REMARK INTER:                  -8.222
REMARK INTRA:                  -0.123
REMARK UNBOUND:                -0.357
REMARK SMILES O=c1c(O)c(-c2cc(O)c(O)c(O)c2)oc2cc(O)cc(O)c12
REMARK SMILES IDX 5 1 3 2 2 3 1 4 23 5 21 6 20 7 18 8 17 9 16 10 15 11 6 12
REMARK SMILES IDX 7 13 8 14 14 15 10 16 12 17 9 18 11 20 13 22 4 24 22 26
REMARK SMILES IDX 19 28
REMARK H PARENT 9 19 11 21 13 23 4 25 22 27 19 29
REMARK Flexibility Score: inf
ROOT
ATOM      1  C   UNL     1       7.150 -34.405  44.217  1.00  0.00     0.180 A 
ATOM      2  C   UNL     1       7.862 -34.310  43.008  1.00  0.00     0.208 A 
ATOM      3  C   UNL     1       8.615 -33.154  42.751  1.00  0.00     0.238 A 
ATOM      4  O   UNL     1       9.205 -33.051  41.644  1.00  0.00    -0.285 OA
ATOM      5  C   UNL     1       8.661 -32.114  43.711  1.00  0.00     0.111 A 
ATOM      6  C   UNL     1       9.423 -30.915  43.572  1.00  0.00     0.134 A 
ATOM      7  C   UNL     1       9.291 -29.898  44.525  1.00  0.00     0.093 A 
ATOM      8  C   UNL     1       8.476 -30.062  45.644  1.00  0.00     0.123 A 
ATOM      9  C   UNL     1       7.772 -31.253  45.820  1.00  0.00     0.094 A 
ATOM     10  C   UNL     1       7.855 -32.272  44.868  1.00  0.00     0.146 A 
ATOM     11  O   UNL     1       7.161 -33.386  45.069  1.00  0.00    -0.452 OA
ENDROOT
BRANCH   1  12
ATOM     12  C   UNL     1       6.356 -35.603  44.571  1.00  0.00     0.029 A 
ATOM     13  C   UNL     1       6.933 -36.883  44.596  1.00  0.00     0.062 A 
ATOM     14  C   UNL     1       6.171 -38.003  44.956  1.00  0.00     0.162 A 
ATOM     15  C   UNL     1       5.011 -35.454  44.945  1.00  0.00     0.062 A 
ATOM     16  C   UNL     1       4.818 -37.847  45.308  1.00  0.00     0.200 A 
ATOM     17  C   UNL     1       4.241 -36.565  45.304  1.00  0.00     0.162 A 
BRANCH  14  18
ATOM     18  O   UNL     1       6.753 -39.269  44.972  1.00  0.00    -0.504 OA
ATOM     19  H   UNL     1       7.710 -39.418  44.672  1.00  0.00     0.293 HD
ENDBRANCH  14  18
BRANCH  16  20
ATOM     20  O   UNL     1       4.042 -38.950  45.664  1.00  0.00    -0.502 OA
ATOM     21  H   UNL     1       4.238 -39.882  45.316  1.00  0.00     0.293 HD
ENDBRANCH  16  20
BRANCH  17  22
ATOM     22  O   UNL     1       2.905 -36.375  45.655  1.00  0.00    -0.504 OA
ATOM     23  H   UNL     1       2.268 -37.151  45.789  1.00  0.00     0.293 HD
ENDBRANCH  17  22
ENDBRANCH   1  12
BRANCH   2  24
ATOM     24  O   UNL     1       7.785 -35.338  42.066  1.00  0.00    -0.502 OA
ATOM     25  H   UNL     1       7.120 -35.326  41.301  1.00  0.00     0.293 HD
ENDBRANCH   2  24
BRANCH   6  26
ATOM     26  O   UNL     1      10.338 -30.688  42.539  1.00  0.00    -0.507 OA
ATOM     27  H   UNL     1      10.259 -31.067  41.607  1.00  0.00     0.293 HD
ENDBRANCH   6  26
BRANCH   8  28
ATOM     28  O   UNL     1       8.380 -29.034  46.580  1.00  0.00    -0.508 OA
ATOM     29  H   UNL     1       8.470 -29.213  47.574  1.00  0.00     0.293 HD
ENDBRANCH   8  28
TORSDOF 7
ENDMDL
