MODEL 1
REMARK VINA RESULT:    -1.373      0.000      0.000
REMARK INTER + INTRA:          -1.880
REMARK INTER:                  -1.774
REMARK INTRA:                  -0.106
REMARK UNBOUND:                -0.106
REMARK SMILES CO[C@]1(CO)O[C@H](CO)[C@H](O)[C@@H]1O
REMARK SMILES IDX 3 1 12 2 10 3 7 4 6 5 2 6 1 7 4 8 5 9 13 11 11 13 8 15 9 16
REMARK H PARENT 5 10 13 12 11 14 9 17
REMARK Flexibility Score: inf
ROOT
ATOM      1  C   UNL     1      12.160  -7.805 -14.357  1.00  0.00     0.221 C 
ATOM      2  C   UNL     1      11.976  -9.278 -14.762  1.00  0.00     0.207 C 
ATOM      3  C   UNL     1      10.483  -9.453 -14.694  1.00  0.00     0.180 C 
ATOM      4  C   UNL     1      10.011  -8.066 -15.124  1.00  0.00     0.179 C 
ATOM      5  O   UNL     1      10.968  -7.113 -14.713  1.00  0.00    -0.337 OA
ENDROOT
BRANCH   1   6
ATOM      6  O   UNL     1      12.426  -7.751 -12.953  1.00  0.00    -0.349 OA
ATOM      7  C   UNL     1      11.540  -6.913 -12.238  1.00  0.00     0.198 C 
ENDBRANCH   1   6
BRANCH   1   8
ATOM      8  C   UNL     1      13.356  -7.202 -15.125  1.00  0.00     0.224 C 
BRANCH   8   9
ATOM      9  O   UNL     1      14.504  -7.150 -14.322  1.00  0.00    -0.391 OA
ATOM     10  H   UNL     1      14.351  -6.437 -13.650  1.00  0.00     0.210 HD
ENDBRANCH   8   9
ENDBRANCH   1   8
BRANCH   2  11
ATOM     11  O   UNL     1      12.655 -10.154 -13.897  1.00  0.00    -0.385 OA
ATOM     12  H   UNL     1      13.372  -9.621 -13.462  1.00  0.00     0.211 HD
ENDBRANCH   2  11
BRANCH   3  13
ATOM     13  O   UNL     1      10.090  -9.749 -13.375  1.00  0.00    -0.387 OA
ATOM     14  H   UNL     1      10.343 -10.694 -13.205  1.00  0.00     0.211 HD
ENDBRANCH   3  13
BRANCH   4  15
ATOM     15  C   UNL     1       8.621  -7.692 -14.590  1.00  0.00     0.191 C 
BRANCH  15  16
ATOM     16  O   UNL     1       8.737  -6.954 -13.403  1.00  0.00    -0.394 OA
ATOM     17  H   UNL     1       9.138  -6.079 -13.651  1.00  0.00     0.210 HD
ENDBRANCH  15  16
ENDBRANCH   4  15
TORSDOF 7
ENDMDL
MODEL 2
REMARK VINA RESULT:    -1.335      1.691      3.407
REMARK INTER + INTRA:          -1.831
REMARK INTER:                  -2.076
REMARK INTRA:                   0.245
REMARK UNBOUND:                -0.106
REMARK SMILES CO[C@]1(CO)O[C@H](CO)[C@H](O)[C@@H]1O
REMARK SMILES IDX 3 1 12 2 10 3 7 4 6 5 2 6 1 7 4 8 5 9 13 11 11 13 8 15 9 16
REMARK H PARENT 5 10 13 12 11 14 9 17
REMARK Flexibility Score: inf
ROOT
ATOM      1  C   UNL     1      11.272 -10.366 -13.670  1.00  0.00     0.221 C 
ATOM      2  C   UNL     1      10.636 -10.020 -15.028  1.00  0.00     0.207 C 
ATOM      3  C   UNL     1      10.721  -8.518 -15.058  1.00  0.00     0.180 C 
ATOM      4  C   UNL     1      12.026  -8.289 -14.298  1.00  0.00     0.179 C 
ATOM      5  O   UNL     1      12.187  -9.323 -13.350  1.00  0.00    -0.337 OA
ENDROOT
BRANCH   1   6
ATOM      6  O   UNL     1      10.228 -10.495 -12.701  1.00  0.00    -0.349 OA
ATOM      7  C   UNL     1       9.585 -11.753 -12.722  1.00  0.00     0.198 C 
ENDBRANCH   1   6
BRANCH   1   8
ATOM      8  C   UNL     1      12.033 -11.705 -13.780  1.00  0.00     0.224 C 
BRANCH   8   9
ATOM      9  O   UNL     1      13.153 -11.726 -12.936  1.00  0.00    -0.391 OA
ATOM     10  H   UNL     1      13.145 -10.874 -12.428  1.00  0.00     0.210 HD
ENDBRANCH   8   9
ENDBRANCH   1   8
BRANCH   2  11
ATOM     11  O   UNL     1       9.312 -10.481 -15.125  1.00  0.00    -0.385 OA
ATOM     12  H   UNL     1       9.258 -11.011 -15.964  1.00  0.00     0.211 HD
ENDBRANCH   2  11
BRANCH   3  13
ATOM     13  O   UNL     1       9.621  -7.958 -14.381  1.00  0.00    -0.387 OA
ATOM     14  H   UNL     1       8.805  -8.342 -14.795  1.00  0.00     0.211 HD
ENDBRANCH   3  13
BRANCH   4  15
ATOM     15  C   UNL     1      12.110  -6.918 -13.611  1.00  0.00     0.191 C 
BRANCH  15  16
ATOM     16  O   UNL     1      11.253  -6.875 -12.502  1.00  0.00    -0.394 OA
ATOM     17  H   UNL     1      11.774  -6.478 -11.756  1.00  0.00     0.210 HD
ENDBRANCH  15  16
ENDBRANCH   4  15
TORSDOF 7
ENDMDL
MODEL 3
REMARK VINA RESULT:     0.841      1.454      2.121
REMARK INTER + INTRA:           0.981
REMARK INTER:                   1.514
REMARK INTRA:                  -0.533
REMARK UNBOUND:                -0.106
REMARK SMILES CO[C@]1(CO)O[C@H](CO)[C@H](O)[C@@H]1O
REMARK SMILES IDX 3 1 12 2 10 3 7 4 6 5 2 6 1 7 4 8 5 9 13 11 11 13 8 15 9 16
REMARK H PARENT 5 10 13 12 11 14 9 17
REMARK Flexibility Score: inf
ROOT
ATOM      1  C   UNL     1      11.541  -7.847 -14.100  1.00  0.00     0.221 C 
ATOM      2  C   UNL     1      12.256  -8.816 -13.142  1.00  0.00     0.207 C 
ATOM      3  C   UNL     1      11.459 -10.083 -13.300  1.00  0.00     0.180 C 
ATOM      4  C   UNL     1      11.062  -9.990 -14.773  1.00  0.00     0.179 C 
ATOM      5  O   UNL     1      10.935  -8.629 -15.124  1.00  0.00    -0.337 OA
ENDROOT
BRANCH   1   6
ATOM      6  O   UNL     1      10.584  -7.092 -13.350  1.00  0.00    -0.349 OA
ATOM      7  C   UNL     1       9.365  -6.880 -14.033  1.00  0.00     0.198 C 
ENDBRANCH   1   6
BRANCH   1   8
ATOM      8  C   UNL     1      12.571  -6.882 -14.726  1.00  0.00     0.224 C 
BRANCH   8   9
ATOM      9  O   UNL     1      13.878  -7.209 -14.337  1.00  0.00    -0.391 OA
ATOM     10  H   UNL     1      14.307  -7.647 -15.116  1.00  0.00     0.210 HD
ENDBRANCH   8   9
ENDBRANCH   1   8
BRANCH   2  11
ATOM     11  O   UNL     1      12.254  -8.348 -11.816  1.00  0.00    -0.385 OA
ATOM     12  H   UNL     1      11.574  -7.625 -11.773  1.00  0.00     0.211 HD
ENDBRANCH   2  11
BRANCH   3  13
ATOM     13  O   UNL     1      10.332 -10.053 -12.456  1.00  0.00    -0.387 OA
ATOM     14  H   UNL     1       9.904  -9.167 -12.581  1.00  0.00     0.211 HD
ENDBRANCH   3  13
BRANCH   4  15
ATOM     15  C   UNL     1       9.773 -10.752 -15.115  1.00  0.00     0.191 C 
BRANCH  15  16
ATOM     16  O   UNL     1       8.678  -9.877 -15.124  1.00  0.00    -0.394 OA
ATOM     17  H   UNL     1       8.129 -10.117 -15.917  1.00  0.00     0.210 HD
ENDBRANCH  15  16
ENDBRANCH   4  15
TORSDOF 7
ENDMDL
MODEL 4
REMARK VINA RESULT:     1.051      1.836      3.835
REMARK INTER + INTRA:           1.252
REMARK INTER:                   1.311
REMARK INTRA:                  -0.059
REMARK UNBOUND:                -0.106
REMARK SMILES CO[C@]1(CO)O[C@H](CO)[C@H](O)[C@@H]1O
REMARK SMILES IDX 3 1 12 2 10 3 7 4 6 5 2 6 1 7 4 8 5 9 13 11 11 13 8 15 9 16
REMARK H PARENT 5 10 13 12 11 14 9 17
REMARK Flexibility Score: inf
ROOT
ATOM      1  C   UNL     1      10.562 -10.409 -13.584  1.00  0.00     0.221 C 
ATOM      2  C   UNL     1      12.100 -10.423 -13.578  1.00  0.00     0.207 C 
ATOM      3  C   UNL     1      12.443  -8.963 -13.699  1.00  0.00     0.180 C 
ATOM      4  C   UNL     1      11.287  -8.332 -12.925  1.00  0.00     0.179 C 
ATOM      5  O   UNL     1      10.145  -9.149 -13.068  1.00  0.00    -0.337 OA
ENDROOT
BRANCH   1   6
ATOM      6  O   UNL     1      10.112 -10.628 -14.924  1.00  0.00    -0.349 OA
ATOM      7  C   UNL     1       8.748 -10.314 -15.124  1.00  0.00     0.198 C 
ENDBRANCH   1   6
BRANCH   1   8
ATOM      8  C   UNL     1      10.030 -11.541 -12.678  1.00  0.00     0.224 C 
BRANCH   8   9
ATOM      9  O   UNL     1       9.441 -12.565 -13.433  1.00  0.00    -0.391 OA
ATOM     10  H   UNL     1       8.518 -12.270 -13.645  1.00  0.00     0.210 HD
ENDBRANCH   8   9
ENDBRANCH   1   8
BRANCH   2  11
ATOM     11  O   UNL     1      12.627 -11.183 -14.638  1.00  0.00    -0.385 OA
ATOM     12  H   UNL     1      13.587 -10.938 -14.710  1.00  0.00     0.211 HD
ENDBRANCH   2  11
BRANCH   3  13
ATOM     13  O   UNL     1      12.435  -8.574 -15.052  1.00  0.00    -0.387 OA
ATOM     14  H   UNL     1      11.645  -9.007 -15.470  1.00  0.00     0.211 HD
ENDBRANCH   3  13
BRANCH   4  15
ATOM     15  C   UNL     1      10.969  -6.892 -13.352  1.00  0.00     0.191 C 
BRANCH  15  16
ATOM     16  O   UNL     1      10.244  -6.888 -14.552  1.00  0.00    -0.394 OA
ATOM     17  H   UNL     1       9.408  -6.380 -14.378  1.00  0.00     0.210 HD
ENDBRANCH  15  16
ENDBRANCH   4  15
TORSDOF 7
ENDMDL
MODEL 5
REMARK VINA RESULT:     1.063      1.458      3.840
REMARK INTER + INTRA:           1.267
REMARK INTER:                   1.703
REMARK INTRA:                  -0.436
REMARK UNBOUND:                -0.106
REMARK SMILES CO[C@]1(CO)O[C@H](CO)[C@H](O)[C@@H]1O
REMARK SMILES IDX 3 1 12 2 10 3 7 4 6 5 2 6 1 7 4 8 5 9 13 11 11 13 8 15 9 16
REMARK H PARENT 5 10 13 12 11 14 9 17
REMARK Flexibility Score: inf
ROOT
ATOM      1  C   UNL     1      11.437  -9.850 -14.090  1.00  0.00     0.221 C 
ATOM      2  C   UNL     1      10.304  -8.836 -13.852  1.00  0.00     0.207 C 
ATOM      3  C   UNL     1      10.998  -7.515 -14.048  1.00  0.00     0.180 C 
ATOM      4  C   UNL     1      12.017  -7.883 -15.125  1.00  0.00     0.179 C 
ATOM      5  O   UNL     1      12.382  -9.237 -14.962  1.00  0.00    -0.337 OA
ENDROOT
BRANCH   1   6
ATOM      6  O   UNL     1      12.007 -10.197 -12.824  1.00  0.00    -0.349 OA
ATOM      7  C   UNL     1      12.694 -11.432 -12.830  1.00  0.00     0.198 C 
ENDBRANCH   1   6
BRANCH   1   8
ATOM      8  C   UNL     1      10.866 -11.120 -14.756  1.00  0.00     0.224 C 
BRANCH   8   9
ATOM      9  O   UNL     1       9.776 -11.628 -14.036  1.00  0.00    -0.391 OA
ATOM     10  H   UNL     1      10.133 -11.958 -13.171  1.00  0.00     0.210 HD
ENDBRANCH   8   9
ENDBRANCH   1   8
BRANCH   2  11
ATOM     11  O   UNL     1       9.744  -8.959 -12.569  1.00  0.00    -0.385 OA
ATOM     12  H   UNL     1      10.474  -8.767 -11.923  1.00  0.00     0.211 HD
ENDBRANCH   2  11
BRANCH   3  13
ATOM     13  O   UNL     1      11.626  -7.118 -12.852  1.00  0.00    -0.387 OA
ATOM     14  H   UNL     1      12.323  -7.797 -12.655  1.00  0.00     0.211 HD
ENDBRANCH   3  13
BRANCH   4  15
ATOM     15  C   UNL     1      13.266  -6.990 -15.125  1.00  0.00     0.191 C 
BRANCH  15  16
ATOM     16  O   UNL     1      14.276  -7.565 -14.340  1.00  0.00    -0.394 OA
ATOM     17  H   UNL     1      14.478  -8.451 -14.742  1.00  0.00     0.210 HD
ENDBRANCH  15  16
ENDBRANCH   4  15
TORSDOF 7
ENDMDL
