MODEL 1
REMARK VINA RESULT:    -2.769      0.000      0.000
REMARK INTER + INTRA:          -4.660
REMARK INTER:                  -4.387
REMARK INTRA:                  -0.273
REMARK UNBOUND:                -0.273
REMARK SMILES CCCCCCCCCCCC(=O)[O-]
REMARK SMILES IDX 7 1 8 2 9 3 10 4 11 5 12 6 13 7 14 8 6 9 5 10 4 11 3 12 2 13
REMARK SMILES IDX 1 14
REMARK H PARENT
REMARK Flexibility Score: inf
ROOT
ATOM      1  C   UNL     1      11.577  19.699  55.251  1.00  0.00     0.000 C 
ENDROOT
BRANCH   1   2
ATOM      2  C   UNL     1      10.310  19.734  56.122  1.00  0.00     0.000 C 
BRANCH   2   3
ATOM      3  C   UNL     1       9.330  20.841  55.698  1.00  0.00     0.000 C 
BRANCH   3   4
ATOM      4  C   UNL     1       7.867  20.485  56.008  1.00  0.00     0.006 C 
BRANCH   4   5
ATOM      5  C   UNL     1       6.950  21.715  56.031  1.00  0.00     0.053 C 
BRANCH   5   6
ATOM      6  C   UNL     1       5.723  21.465  55.212  1.00  0.00     0.041 C 
ATOM      7  O   UNL     1       5.746  20.623  54.275  1.00  0.00    -0.550 OA
ATOM      8  O   UNL     1       4.539  22.125  55.515  1.00  0.00    -0.550 OA
ENDBRANCH   5   6
ENDBRANCH   4   5
ENDBRANCH   3   4
ENDBRANCH   2   3
ENDBRANCH   1   2
BRANCH   1   9
ATOM      9  C   UNL     1      12.322  21.045  55.236  1.00  0.00     0.000 C 
BRANCH   9  10
ATOM     10  C   UNL     1      13.628  21.005  56.048  1.00  0.00    -0.000 C 
BRANCH  10  11
ATOM     11  C   UNL     1      14.644  22.065  55.584  1.00  0.00    -0.000 C 
BRANCH  11  12
ATOM     12  C   UNL     1      16.094  21.679  55.921  1.00  0.00    -0.000 C 
BRANCH  12  13
ATOM     13  C   UNL     1      17.092  22.121  54.842  1.00  0.00    -0.003 C 
ATOM     14  C   UNL     1      18.519  22.121  55.381  1.00  0.00     0.004 C 
ENDBRANCH  12  13
ENDBRANCH  11  12
ENDBRANCH  10  11
ENDBRANCH   9  10
ENDBRANCH   1   9
TORSDOF 10
ENDMDL
MODEL 2
REMARK VINA RESULT:    -2.571      1.244      2.234
REMARK INTER + INTRA:          -4.346
REMARK INTER:                  -3.908
REMARK INTRA:                  -0.438
REMARK UNBOUND:                -0.273
REMARK SMILES CCCCCCCCCCCC(=O)[O-]
REMARK SMILES IDX 7 1 8 2 9 3 10 4 11 5 12 6 13 7 14 8 6 9 5 10 4 11 3 12 2 13
REMARK SMILES IDX 1 14
REMARK H PARENT
REMARK Flexibility Score: inf
ROOT
ATOM      1  C   UNL     1       9.387  22.086  56.003  1.00  0.00     0.000 C 
ENDROOT
BRANCH   1   2
ATOM      2  C   UNL     1       8.796  20.670  55.894  1.00  0.00     0.000 C 
BRANCH   2   3
ATOM      3  C   UNL     1       7.265  20.655  56.047  1.00  0.00     0.000 C 
BRANCH   3   4
ATOM      4  C   UNL     1       6.607  21.937  55.511  1.00  0.00     0.006 C 
BRANCH   4   5
ATOM      5  C   UNL     1       5.084  21.944  55.700  1.00  0.00     0.053 C 
BRANCH   5   6
ATOM      6  C   UNL     1       4.414  21.243  54.560  1.00  0.00     0.041 C 
ATOM      7  O   UNL     1       4.007  21.899  53.565  1.00  0.00    -0.550 OA
ATOM      8  O   UNL     1       4.283  19.861  54.574  1.00  0.00    -0.550 OA
ENDBRANCH   5   6
ENDBRANCH   4   5
ENDBRANCH   3   4
ENDBRANCH   2   3
ENDBRANCH   1   2
BRANCH   1   9
ATOM      9  C   UNL     1      10.921  22.078  56.125  1.00  0.00     0.000 C 
BRANCH   9  10
ATOM     10  C   UNL     1      11.544  20.752  55.655  1.00  0.00    -0.000 C 
BRANCH  10  11
ATOM     11  C   UNL     1      12.803  20.962  54.794  1.00  0.00    -0.000 C 
BRANCH  11  12
ATOM     12  C   UNL     1      13.807  21.927  55.446  1.00  0.00    -0.000 C 
BRANCH  12  13
ATOM     13  C   UNL     1      15.067  21.215  55.958  1.00  0.00    -0.003 C 
ATOM     14  C   UNL     1      16.330  21.871  55.408  1.00  0.00     0.004 C 
ENDBRANCH  12  13
ENDBRANCH  11  12
ENDBRANCH  10  11
ENDBRANCH   9  10
ENDBRANCH   1   9
TORSDOF 10
ENDMDL
MODEL 3
REMARK VINA RESULT:    -1.066      4.255      8.655
REMARK INTER + INTRA:          -1.961
REMARK INTER:                  -1.487
REMARK INTRA:                  -0.475
REMARK UNBOUND:                -0.273
REMARK SMILES CCCCCCCCCCCC(=O)[O-]
REMARK SMILES IDX 7 1 8 2 9 3 10 4 11 5 12 6 13 7 14 8 6 9 5 10 4 11 3 12 2 13
REMARK SMILES IDX 1 14
REMARK H PARENT
REMARK Flexibility Score: inf
ROOT
ATOM      1  C   UNL     1       8.678  20.062  55.885  1.00  0.00     0.000 C 
ENDROOT
BRANCH   1   2
ATOM      2  C   UNL     1      10.192  20.101  55.615  1.00  0.00     0.000 C 
BRANCH   2   3
ATOM      3  C   UNL     1      10.794  21.501  55.826  1.00  0.00     0.000 C 
BRANCH   3   4
ATOM      4  C   UNL     1      12.323  21.467  55.986  1.00  0.00     0.006 C 
BRANCH   4   5
ATOM      5  C   UNL     1      12.872  20.041  56.123  1.00  0.00     0.053 C 
BRANCH   5   6
ATOM      6  C   UNL     1      14.356  20.034  55.936  1.00  0.00     0.041 C 
ATOM      7  O   UNL     1      14.974  18.943  55.809  1.00  0.00    -0.550 OA
ATOM      8  O   UNL     1      15.052  21.233  55.851  1.00  0.00    -0.550 OA
ENDBRANCH   5   6
ENDBRANCH   4   5
ENDBRANCH   3   4
ENDBRANCH   2   3
ENDBRANCH   1   2
BRANCH   1   9
ATOM      9  C   UNL     1       8.065  21.466  56.027  1.00  0.00     0.000 C 
BRANCH   9  10
ATOM     10  C   UNL     1       6.528  21.437  56.078  1.00  0.00    -0.000 C 
BRANCH  10  11
ATOM     11  C   UNL     1       5.899  21.079  54.720  1.00  0.00    -0.000 C 
BRANCH  11  12
ATOM     12  C   UNL     1       4.603  20.266  54.867  1.00  0.00    -0.000 C 
BRANCH  12  13
ATOM     13  C   UNL     1       3.578  20.577  53.767  1.00  0.00    -0.003 C 
ATOM     14  C   UNL     1       3.462  22.081  53.535  1.00  0.00     0.004 C 
ENDBRANCH  12  13
ENDBRANCH  11  12
ENDBRANCH  10  11
ENDBRANCH   9  10
ENDBRANCH   1   9
TORSDOF 10
ENDMDL
