MODEL 1
REMARK VINA RESULT:    -2.037      0.000      0.000
REMARK INTER + INTRA:          -4.304
REMARK INTER:                  -3.585
REMARK INTRA:                  -0.719
REMARK UNBOUND:                -0.719
REMARK SMILES CCCCCCCCCCCCCCC(=O)[O-]
REMARK SMILES IDX 9 1 10 2 11 3 12 4 13 5 14 6 15 7 16 8 17 9 8 10 7 11 6 12
REMARK SMILES IDX 5 13 4 14 3 15 2 16 1 17
REMARK H PARENT
REMARK Flexibility Score: inf
ROOT
ATOM      1  C   UNL     1      27.688  21.233  16.118  1.00  0.00     0.000 C 
ENDROOT
BRANCH   1   2
ATOM      2  C   UNL     1      28.390  20.129  15.298  1.00  0.00     0.000 C 
BRANCH   2   3
ATOM      3  C   UNL     1      29.603  20.661  14.515  1.00  0.00     0.000 C 
BRANCH   3   4
ATOM      4  C   UNL     1      29.470  20.445  12.999  1.00  0.00     0.000 C 
BRANCH   4   5
ATOM      5  C   UNL     1      28.743  21.606  12.297  1.00  0.00     0.006 C 
BRANCH   5   6
ATOM      6  C   UNL     1      29.239  21.813  10.859  1.00  0.00     0.053 C 
BRANCH   6   7
ATOM      7  C   UNL     1      28.921  20.637   9.987  1.00  0.00     0.041 C 
ATOM      8  O   UNL     1      27.747  20.184   9.937  1.00  0.00    -0.550 OA
ATOM      9  O   UNL     1      29.928  20.020   9.254  1.00  0.00    -0.550 OA
ENDBRANCH   6   7
ENDBRANCH   5   6
ENDBRANCH   4   5
ENDBRANCH   3   4
ENDBRANCH   2   3
ENDBRANCH   1   2
BRANCH   1  10
ATOM     10  C   UNL     1      26.511  20.719  16.969  1.00  0.00     0.000 C 
BRANCH  10  11
ATOM     11  C   UNL     1      25.447  19.924  16.190  1.00  0.00    -0.000 C 
BRANCH  11  12
ATOM     12  C   UNL     1      24.064  20.601  16.102  1.00  0.00    -0.000 C 
BRANCH  12  13
ATOM     13  C   UNL     1      23.043  19.892  15.190  1.00  0.00    -0.000 C 
BRANCH  13  14
ATOM     14  C   UNL     1      23.256  20.114  13.682  1.00  0.00    -0.000 C 
BRANCH  14  15
ATOM     15  C   UNL     1      21.977  19.875  12.860  1.00  0.00    -0.000 C 
BRANCH  15  16
ATOM     16  C   UNL     1      21.699  21.010  11.863  1.00  0.00    -0.003 C 
ATOM     17  C   UNL     1      21.917  22.396  12.470  1.00  0.00     0.004 C 
ENDBRANCH  15  16
ENDBRANCH  14  15
ENDBRANCH  13  14
ENDBRANCH  12  13
ENDBRANCH  11  12
ENDBRANCH  10  11
ENDBRANCH   1  10
TORSDOF 13
ENDMDL
MODEL 2
REMARK VINA RESULT:    -1.796      2.494      6.359
REMARK INTER + INTRA:          -3.880
REMARK INTER:                  -3.580
REMARK INTRA:                  -0.300
REMARK UNBOUND:                -0.719
REMARK SMILES CCCCCCCCCCCCCCC(=O)[O-]
REMARK SMILES IDX 9 1 10 2 11 3 12 4 13 5 14 6 15 7 16 8 17 9 8 10 7 11 6 12
REMARK SMILES IDX 5 13 4 14 3 15 2 16 1 17
REMARK H PARENT
REMARK Flexibility Score: inf
ROOT
ATOM      1  C   UNL     1      26.349  21.076  16.147  1.00  0.00     0.000 C 
ENDROOT
BRANCH   1   2
ATOM      2  C   UNL     1      25.187  20.269  16.766  1.00  0.00     0.000 C 
BRANCH   2   3
ATOM      3  C   UNL     1      24.125  19.875  15.725  1.00  0.00     0.000 C 
BRANCH   3   4
ATOM      4  C   UNL     1      23.087  20.984  15.492  1.00  0.00     0.000 C 
BRANCH   4   5
ATOM      5  C   UNL     1      21.640  20.461  15.539  1.00  0.00     0.006 C 
BRANCH   5   6
ATOM      6  C   UNL     1      21.189  19.885  14.189  1.00  0.00     0.053 C 
BRANCH   6   7
ATOM      7  C   UNL     1      21.964  20.470  13.049  1.00  0.00     0.041 C 
ATOM      8  O   UNL     1      22.981  19.877  12.603  1.00  0.00    -0.550 OA
ATOM      9  O   UNL     1      21.582  21.688  12.500  1.00  0.00    -0.550 OA
ENDBRANCH   6   7
ENDBRANCH   5   6
ENDBRANCH   4   5
ENDBRANCH   3   4
ENDBRANCH   2   3
ENDBRANCH   1   2
BRANCH   1  10
ATOM     10  C   UNL     1      27.655  21.007  16.961  1.00  0.00     0.000 C 
BRANCH  10  11
ATOM     11  C   UNL     1      28.719  20.046  16.398  1.00  0.00    -0.000 C 
BRANCH  11  12
ATOM     12  C   UNL     1      29.051  20.246  14.905  1.00  0.00    -0.000 C 
BRANCH  12  13
ATOM     13  C   UNL     1      29.244  21.711  14.466  1.00  0.00    -0.000 C 
BRANCH  13  14
ATOM     14  C   UNL     1      28.877  22.002  13.000  1.00  0.00    -0.000 C 
BRANCH  14  15
ATOM     15  C   UNL     1      29.103  20.790  12.079  1.00  0.00    -0.000 C 
BRANCH  15  16
ATOM     16  C   UNL     1      29.299  21.196  10.611  1.00  0.00    -0.003 C 
ATOM     17  C   UNL     1      28.362  20.449   9.662  1.00  0.00     0.004 C 
ENDBRANCH  15  16
ENDBRANCH  14  15
ENDBRANCH  13  14
ENDBRANCH  12  13
ENDBRANCH  11  12
ENDBRANCH  10  11
ENDBRANCH   1  10
TORSDOF 13
ENDMDL
MODEL 3
REMARK VINA RESULT:    -1.388     12.809     15.843
REMARK INTER + INTRA:          -3.162
REMARK INTER:                  -1.976
REMARK INTRA:                  -1.186
REMARK UNBOUND:                -0.719
REMARK SMILES CCCCCCCCCCCCCCC(=O)[O-]
REMARK SMILES IDX 9 1 10 2 11 3 12 4 13 5 14 6 15 7 16 8 17 9 8 10 7 11 6 12
REMARK SMILES IDX 5 13 4 14 3 15 2 16 1 17
REMARK H PARENT
REMARK Flexibility Score: inf
ROOT
ATOM      1  C   UNL     1      14.596  20.404  18.003  1.00  0.00     0.000 C 
ENDROOT
BRANCH   1   2
ATOM      2  C   UNL     1      14.829  20.189  16.492  1.00  0.00     0.000 C 
BRANCH   2   3
ATOM      3  C   UNL     1      15.286  21.474  15.779  1.00  0.00     0.000 C 
BRANCH   3   4
ATOM      4  C   UNL     1      14.108  22.359  15.343  1.00  0.00     0.000 C 
BRANCH   4   5
ATOM      5  C   UNL     1      12.843  21.544  15.019  1.00  0.00     0.006 C 
BRANCH   5   6
ATOM      6  C   UNL     1      11.657  22.443  14.642  1.00  0.00     0.053 C 
BRANCH   6   7
ATOM      7  C   UNL     1      10.537  22.326  15.629  1.00  0.00     0.041 C 
ATOM      8  O   UNL     1       9.875  21.258  15.713  1.00  0.00    -0.550 OA
ATOM      9  O   UNL     1      10.201  23.408  16.434  1.00  0.00    -0.550 OA
ENDBRANCH   6   7
ENDBRANCH   5   6
ENDBRANCH   4   5
ENDBRANCH   3   4
ENDBRANCH   2   3
ENDBRANCH   1   2
BRANCH   1  10
ATOM     10  C   UNL     1      13.223  19.906  18.495  1.00  0.00     0.000 C 
BRANCH  10  11
ATOM     11  C   UNL     1      12.144  20.999  18.614  1.00  0.00    -0.000 C 
BRANCH  11  12
ATOM     12  C   UNL     1      10.741  20.488  19.001  1.00  0.00    -0.000 C 
BRANCH  12  13
ATOM     13  C   UNL     1      10.019  21.310  20.088  1.00  0.00    -0.000 C 
BRANCH  13  14
ATOM     14  C   UNL     1      10.932  21.859  21.199  1.00  0.00    -0.000 C 
BRANCH  14  15
ATOM     15  C   UNL     1      10.166  22.171  22.497  1.00  0.00    -0.000 C 
BRANCH  15  16
ATOM     16  C   UNL     1      10.304  21.055  23.543  1.00  0.00    -0.003 C 
ATOM     17  C   UNL     1      11.656  20.345  23.474  1.00  0.00     0.004 C 
ENDBRANCH  15  16
ENDBRANCH  14  15
ENDBRANCH  13  14
ENDBRANCH  12  13
ENDBRANCH  11  12
ENDBRANCH  10  11
ENDBRANCH   1  10
TORSDOF 13
ENDMDL
MODEL 4
REMARK VINA RESULT:    -1.024      2.927      6.509
REMARK INTER + INTRA:          -2.522
REMARK INTER:                  -2.137
REMARK INTRA:                  -0.385
REMARK UNBOUND:                -0.719
REMARK SMILES CCCCCCCCCCCCCCC(=O)[O-]
REMARK SMILES IDX 9 1 10 2 11 3 12 4 13 5 14 6 15 7 16 8 17 9 8 10 7 11 6 12
REMARK SMILES IDX 5 13 4 14 3 15 2 16 1 17
REMARK H PARENT
REMARK Flexibility Score: inf
ROOT
ATOM      1  C   UNL     1      24.362  19.989  16.109  1.00  0.00     0.000 C 
ENDROOT
BRANCH   1   2
ATOM      2  C   UNL     1      23.519  21.241  16.434  1.00  0.00     0.000 C 
BRANCH   2   3
ATOM      3  C   UNL     1      22.115  21.183  15.806  1.00  0.00     0.000 C 
BRANCH   3   4
ATOM      4  C   UNL     1      21.864  19.875  15.039  1.00  0.00     0.000 C 
BRANCH   4   5
ATOM      5  C   UNL     1      22.509  19.875  13.642  1.00  0.00     0.006 C 
BRANCH   5   6
ATOM      6  C   UNL     1      21.502  20.236  12.541  1.00  0.00     0.053 C 
BRANCH   6   7
ATOM      7  C   UNL     1      21.678  21.646  12.069  1.00  0.00     0.041 C 
ATOM      8  O   UNL     1      22.182  22.512  12.831  1.00  0.00    -0.550 OA
ATOM      9  O   UNL     1      21.254  22.013  10.797  1.00  0.00    -0.550 OA
ENDBRANCH   6   7
ENDBRANCH   5   6
ENDBRANCH   4   5
ENDBRANCH   3   4
ENDBRANCH   2   3
ENDBRANCH   1   2
BRANCH   1  10
ATOM     10  C   UNL     1      25.793  20.311  15.638  1.00  0.00     0.000 C 
BRANCH  10  11
ATOM     11  C   UNL     1      26.797  20.600  16.769  1.00  0.00    -0.000 C 
BRANCH  11  12
ATOM     12  C   UNL     1      28.277  20.631  16.334  1.00  0.00    -0.000 C 
BRANCH  12  13
ATOM     13  C   UNL     1      28.545  20.177  14.885  1.00  0.00    -0.000 C 
BRANCH  13  14
ATOM     14  C   UNL     1      29.493  21.088  14.085  1.00  0.00    -0.000 C 
BRANCH  14  15
ATOM     15  C   UNL     1      28.883  22.470  13.793  1.00  0.00    -0.000 C 
BRANCH  15  16
ATOM     16  C   UNL     1      28.720  22.734  12.289  1.00  0.00    -0.003 C 
ATOM     17  C   UNL     1      30.021  23.181  11.623  1.00  0.00     0.004 C 
ENDBRANCH  15  16
ENDBRANCH  14  15
ENDBRANCH  13  14
ENDBRANCH  12  13
ENDBRANCH  11  12
ENDBRANCH  10  11
ENDBRANCH   1  10
TORSDOF 13
ENDMDL
MODEL 5
REMARK VINA RESULT:    -0.595     14.002     16.338
REMARK INTER + INTRA:          -1.766
REMARK INTER:                  -1.220
REMARK INTRA:                  -0.546
REMARK UNBOUND:                -0.719
REMARK SMILES CCCCCCCCCCCCCCC(=O)[O-]
REMARK SMILES IDX 9 1 10 2 11 3 12 4 13 5 14 6 15 7 16 8 17 9 8 10 7 11 6 12
REMARK SMILES IDX 5 13 4 14 3 15 2 16 1 17
REMARK H PARENT
REMARK Flexibility Score: inf
ROOT
ATOM      1  C   UNL     1      13.787  20.606  20.030  1.00  0.00     0.000 C 
ENDROOT
BRANCH   1   2
ATOM      2  C   UNL     1      13.621  19.875  21.379  1.00  0.00     0.000 C 
BRANCH   2   3
ATOM      3  C   UNL     1      12.181  19.955  21.917  1.00  0.00     0.000 C 
BRANCH   3   4
ATOM      4  C   UNL     1      11.863  21.316  22.555  1.00  0.00     0.000 C 
BRANCH   4   5
ATOM      5  C   UNL     1      10.609  21.975  21.953  1.00  0.00     0.006 C 
BRANCH   5   6
ATOM      6  C   UNL     1      10.063  21.189  20.752  1.00  0.00     0.053 C 
BRANCH   6   7
ATOM      7  C   UNL     1      10.064  22.014  19.502  1.00  0.00     0.041 C 
ATOM      8  O   UNL     1       9.875  21.469  18.383  1.00  0.00    -0.550 OA
ATOM      9  O   UNL     1      10.307  23.381  19.570  1.00  0.00    -0.550 OA
ENDBRANCH   6   7
ENDBRANCH   5   6
ENDBRANCH   4   5
ENDBRANCH   3   4
ENDBRANCH   2   3
ENDBRANCH   1   2
BRANCH   1  10
ATOM     10  C   UNL     1      13.108  19.888  18.848  1.00  0.00     0.000 C 
BRANCH  10  11
ATOM     11  C   UNL     1      12.876  20.767  17.604  1.00  0.00    -0.000 C 
BRANCH  11  12
ATOM     12  C   UNL     1      13.943  20.626  16.499  1.00  0.00    -0.000 C 
BRANCH  12  13
ATOM     13  C   UNL     1      13.766  21.569  15.292  1.00  0.00    -0.000 C 
BRANCH  13  14
ATOM     14  C   UNL     1      12.466  22.394  15.298  1.00  0.00    -0.000 C 
BRANCH  14  15
ATOM     15  C   UNL     1      11.434  21.884  14.277  1.00  0.00    -0.000 C 
BRANCH  15  16
ATOM     16  C   UNL     1       9.991  22.215  14.685  1.00  0.00    -0.003 C 
ATOM     17  C   UNL     1       9.904  22.879  16.059  1.00  0.00     0.004 C 
ENDBRANCH  15  16
ENDBRANCH  14  15
ENDBRANCH  13  14
ENDBRANCH  12  13
ENDBRANCH  11  12
ENDBRANCH  10  11
ENDBRANCH   1  10
TORSDOF 13
ENDMDL
MODEL 6
REMARK VINA RESULT:    -0.521      1.491      2.231
REMARK INTER + INTRA:          -1.636
REMARK INTER:                  -1.754
REMARK INTRA:                   0.118
REMARK UNBOUND:                -0.719
REMARK SMILES CCCCCCCCCCCCCCC(=O)[O-]
REMARK SMILES IDX 9 1 10 2 11 3 12 4 13 5 14 6 15 7 16 8 17 9 8 10 7 11 6 12
REMARK SMILES IDX 5 13 4 14 3 15 2 16 1 17
REMARK H PARENT
REMARK Flexibility Score: inf
ROOT
ATOM      1  C   UNL     1      26.038  20.097  15.925  1.00  0.00     0.000 C 
ENDROOT
BRANCH   1   2
ATOM      2  C   UNL     1      26.860  21.159  16.686  1.00  0.00     0.000 C 
BRANCH   2   3
ATOM      3  C   UNL     1      28.197  21.476  15.992  1.00  0.00     0.000 C 
BRANCH   3   4
ATOM      4  C   UNL     1      28.824  20.241  15.326  1.00  0.00     0.000 C 
BRANCH   4   5
ATOM      5  C   UNL     1      29.779  20.610  14.176  1.00  0.00     0.006 C 
BRANCH   5   6
ATOM      6  C   UNL     1      29.599  22.064  13.719  1.00  0.00     0.053 C 
BRANCH   6   7
ATOM      7  C   UNL     1      29.123  22.146  12.301  1.00  0.00     0.041 C 
ATOM      8  O   UNL     1      27.909  21.951  12.028  1.00  0.00    -0.550 OA
ATOM      9  O   UNL     1      30.026  22.405  11.277  1.00  0.00    -0.550 OA
ENDBRANCH   6   7
ENDBRANCH   5   6
ENDBRANCH   4   5
ENDBRANCH   3   4
ENDBRANCH   2   3
ENDBRANCH   1   2
BRANCH   1  10
ATOM     10  C   UNL     1      26.173  20.190  14.393  1.00  0.00     0.000 C 
BRANCH  10  11
ATOM     11  C   UNL     1      24.885  19.875  13.610  1.00  0.00    -0.000 C 
BRANCH  11  12
ATOM     12  C   UNL     1      23.742  20.894  13.800  1.00  0.00    -0.000 C 
BRANCH  12  13
ATOM     13  C   UNL     1      22.560  20.402  14.659  1.00  0.00    -0.000 C 
BRANCH  13  14
ATOM     14  C   UNL     1      21.269  20.103  13.876  1.00  0.00    -0.000 C 
BRANCH  14  15
ATOM     15  C   UNL     1      21.524  19.875  12.376  1.00  0.00    -0.000 C 
BRANCH  15  16
ATOM     16  C   UNL     1      21.047  21.053  11.513  1.00  0.00    -0.003 C 
ATOM     17  C   UNL     1      21.493  22.407  12.065  1.00  0.00     0.004 C 
ENDBRANCH  15  16
ENDBRANCH  14  15
ENDBRANCH  13  14
ENDBRANCH  12  13
ENDBRANCH  11  12
ENDBRANCH  10  11
ENDBRANCH   1  10
TORSDOF 13
ENDMDL
MODEL 7
REMARK VINA RESULT:     0.554      1.692      3.088
REMARK INTER + INTRA:           0.256
REMARK INTER:                  -1.560
REMARK INTRA:                   1.816
REMARK UNBOUND:                -0.719
REMARK SMILES CCCCCCCCCCCCCCC(=O)[O-]
REMARK SMILES IDX 9 1 10 2 11 3 12 4 13 5 14 6 15 7 16 8 17 9 8 10 7 11 6 12
REMARK SMILES IDX 5 13 4 14 3 15 2 16 1 17
REMARK H PARENT
REMARK Flexibility Score: inf
ROOT
ATOM      1  C   UNL     1      25.270  20.479  15.623  1.00  0.00     0.000 C 
ENDROOT
BRANCH   1   2
ATOM      2  C   UNL     1      26.298  20.922  16.687  1.00  0.00     0.000 C 
BRANCH   2   3
ATOM      3  C   UNL     1      27.729  20.995  16.126  1.00  0.00     0.000 C 
BRANCH   3   4
ATOM      4  C   UNL     1      27.889  20.219  14.810  1.00  0.00     0.000 C 
BRANCH   4   5
ATOM      5  C   UNL     1      29.191  20.571  14.068  1.00  0.00     0.006 C 
BRANCH   5   6
ATOM      6  C   UNL     1      29.332  22.082  13.834  1.00  0.00     0.053 C 
BRANCH   6   7
ATOM      7  C   UNL     1      28.872  22.476  12.464  1.00  0.00     0.041 C 
ATOM      8  O   UNL     1      29.298  23.536  11.933  1.00  0.00    -0.550 OA
ATOM      9  O   UNL     1      27.948  21.690  11.786  1.00  0.00    -0.550 OA
ENDBRANCH   6   7
ENDBRANCH   5   6
ENDBRANCH   4   5
ENDBRANCH   3   4
ENDBRANCH   2   3
ENDBRANCH   1   2
BRANCH   1  10
ATOM     10  C   UNL     1      25.820  20.501  14.183  1.00  0.00     0.000 C 
BRANCH  10  11
ATOM     11  C   UNL     1      24.891  19.876  13.126  1.00  0.00    -0.000 C 
BRANCH  11  12
ATOM     12  C   UNL     1      23.732  20.782  12.662  1.00  0.00    -0.000 C 
BRANCH  12  13
ATOM     13  C   UNL     1      22.392  20.059  12.414  1.00  0.00    -0.000 C 
BRANCH  13  14
ATOM     14  C   UNL     1      21.514  19.875  13.664  1.00  0.00    -0.000 C 
BRANCH  14  15
ATOM     15  C   UNL     1      22.293  20.087  14.974  1.00  0.00    -0.000 C 
BRANCH  15  16
ATOM     16  C   UNL     1      21.483  20.867  16.020  1.00  0.00    -0.003 C 
ATOM     17  C   UNL     1      22.349  21.814  16.851  1.00  0.00     0.004 C 
ENDBRANCH  15  16
ENDBRANCH  14  15
ENDBRANCH  13  14
ENDBRANCH  12  13
ENDBRANCH  11  12
ENDBRANCH  10  11
ENDBRANCH   1  10
TORSDOF 13
ENDMDL
