MODEL 1
REMARK VINA RESULT:    -5.591      0.000      0.000
REMARK INTER + INTRA:          -7.016
REMARK INTER:                  -6.734
REMARK INTRA:                  -0.282
REMARK UNBOUND:                -0.282
REMARK SMILES O=c1c(O)c(-c2ccc(O)c(O)c2)oc2cc(O)cc(O)c12
REMARK SMILES IDX 5 1 3 2 2 3 1 4 22 5 20 6 19 7 17 8 16 9 15 10 14 11 6 12
REMARK SMILES IDX 7 13 8 14 9 15 13 16 11 17 10 18 12 20 4 22 21 24 18 26
REMARK H PARENT 10 19 12 21 4 23 21 25 18 27
REMARK Flexibility Score: inf
ROOT
ATOM      1  C   UNL     1     -17.093  24.911  -7.708  1.00  0.00     0.180 A 
ATOM      2  C   UNL     1     -17.640  23.652  -8.022  1.00  0.00     0.208 A 
ATOM      3  C   UNL     1     -16.785  22.633  -8.471  1.00  0.00     0.238 A 
ATOM      4  O   UNL     1     -17.266  21.505  -8.766  1.00  0.00    -0.285 OA
ATOM      5  C   UNL     1     -15.401  22.882  -8.578  1.00  0.00     0.111 A 
ATOM      6  C   UNL     1     -14.471  21.908  -9.017  1.00  0.00     0.134 A 
ATOM      7  C   UNL     1     -13.107  22.230  -9.088  1.00  0.00     0.093 A 
ATOM      8  C   UNL     1     -12.657  23.503  -8.728  1.00  0.00     0.123 A 
ATOM      9  C   UNL     1     -13.570  24.468  -8.294  1.00  0.00     0.094 A 
ATOM     10  C   UNL     1     -14.933  24.167  -8.218  1.00  0.00     0.146 A 
ATOM     11  O   UNL     1     -15.780  25.104  -7.807  1.00  0.00    -0.452 OA
ENDROOT
BRANCH   1  12
ATOM     12  C   UNL     1     -17.931  26.041  -7.248  1.00  0.00     0.025 A 
ATOM     13  C   UNL     1     -17.878  26.437  -5.904  1.00  0.00     0.016 A 
ATOM     14  C   UNL     1     -18.646  27.513  -5.453  1.00  0.00     0.051 A 
ATOM     15  C   UNL     1     -19.468  28.222  -6.335  1.00  0.00     0.157 A 
ATOM     16  C   UNL     1     -18.739  26.765  -8.142  1.00  0.00     0.062 A 
ATOM     17  C   UNL     1     -19.510  27.848  -7.699  1.00  0.00     0.158 A 
BRANCH  15  18
ATOM     18  O   UNL     1     -20.216  29.282  -5.819  1.00  0.00    -0.504 OA
ATOM     19  H   UNL     1     -21.035  29.666  -6.268  1.00  0.00     0.293 HD
ENDBRANCH  15  18
BRANCH  17  20
ATOM     20  O   UNL     1     -20.291  28.521  -8.641  1.00  0.00    -0.504 OA
ATOM     21  H   UNL     1     -21.294  28.614  -8.580  1.00  0.00     0.293 HD
ENDBRANCH  17  20
ENDBRANCH   1  12
BRANCH   2  22
ATOM     22  O   UNL     1     -19.008  23.417  -7.861  1.00  0.00    -0.502 OA
ATOM     23  H   UNL     1     -19.386  22.487  -7.727  1.00  0.00     0.293 HD
ENDBRANCH   2  22
BRANCH   6  24
ATOM     24  O   UNL     1     -14.890  20.628  -9.383  1.00  0.00    -0.507 OA
ATOM     25  H   UNL     1     -15.247  19.969  -8.701  1.00  0.00     0.293 HD
ENDBRANCH   6  24
BRANCH   8  26
ATOM     26  O   UNL     1     -11.297  23.796  -8.807  1.00  0.00    -0.508 OA
ATOM     27  H   UNL     1     -10.967  24.745  -8.942  1.00  0.00     0.293 HD
ENDBRANCH   8  26
TORSDOF 6
ENDMDL
MODEL 2
REMARK VINA RESULT:    -5.457      2.882      5.962
REMARK INTER + INTRA:          -6.856
REMARK INTER:                  -6.732
REMARK INTRA:                  -0.124
REMARK UNBOUND:                -0.282
REMARK SMILES O=c1c(O)c(-c2ccc(O)c(O)c2)oc2cc(O)cc(O)c12
REMARK SMILES IDX 5 1 3 2 2 3 1 4 22 5 20 6 19 7 17 8 16 9 15 10 14 11 6 12
REMARK SMILES IDX 7 13 8 14 9 15 13 16 11 17 10 18 12 20 4 22 21 24 18 26
REMARK H PARENT 10 19 12 21 4 23 21 25 18 27
REMARK Flexibility Score: inf
ROOT
ATOM      1  C   UNL     1     -12.335  23.819  -8.525  1.00  0.00     0.180 A 
ATOM      2  C   UNL     1     -11.483  24.890  -8.855  1.00  0.00     0.208 A 
ATOM      3  C   UNL     1     -10.094  24.688  -8.822  1.00  0.00     0.238 A 
ATOM      4  O   UNL     1      -9.320  25.643  -9.105  1.00  0.00    -0.285 OA
ATOM      5  C   UNL     1      -9.583  23.418  -8.481  1.00  0.00     0.111 A 
ATOM      6  C   UNL     1      -8.197  23.129  -8.429  1.00  0.00     0.134 A 
ATOM      7  C   UNL     1      -7.768  21.837  -8.090  1.00  0.00     0.093 A 
ATOM      8  C   UNL     1      -8.694  20.831  -7.805  1.00  0.00     0.123 A 
ATOM      9  C   UNL     1     -10.063  21.110  -7.854  1.00  0.00     0.094 A 
ATOM     10  C   UNL     1     -10.511  22.391  -8.188  1.00  0.00     0.146 A 
ATOM     11  O   UNL     1     -11.817  22.632  -8.223  1.00  0.00    -0.452 OA
ENDROOT
BRANCH   1  12
ATOM     12  C   UNL     1     -13.808  23.960  -8.518  1.00  0.00     0.025 A 
ATOM     13  C   UNL     1     -14.588  23.094  -9.298  1.00  0.00     0.016 A 
ATOM     14  C   UNL     1     -15.981  23.196  -9.291  1.00  0.00     0.051 A 
ATOM     15  C   UNL     1     -16.622  24.152  -8.497  1.00  0.00     0.157 A 
ATOM     16  C   UNL     1     -14.450  24.906  -7.701  1.00  0.00     0.062 A 
ATOM     17  C   UNL     1     -15.847  25.014  -7.685  1.00  0.00     0.158 A 
BRANCH  15  18
ATOM     18  O   UNL     1     -18.016  24.207  -8.541  1.00  0.00    -0.504 OA
ATOM     19  H   UNL     1     -18.608  24.196  -7.723  1.00  0.00     0.293 HD
ENDBRANCH  15  18
BRANCH  17  20
ATOM     20  O   UNL     1     -16.417  25.978  -6.851  1.00  0.00    -0.504 OA
ATOM     21  H   UNL     1     -15.945  26.821  -6.557  1.00  0.00     0.293 HD
ENDBRANCH  17  20
ENDBRANCH   1  12
BRANCH   2  22
ATOM     22  O   UNL     1     -12.015  26.125  -9.237  1.00  0.00    -0.502 OA
ATOM     23  H   UNL     1     -11.431  26.914  -9.483  1.00  0.00     0.293 HD
ENDBRANCH   2  22
BRANCH   6  24
ATOM     24  O   UNL     1      -7.248  24.113  -8.710  1.00  0.00    -0.507 OA
ATOM     25  H   UNL     1      -6.279  24.013  -8.431  1.00  0.00     0.293 HD
ENDBRANCH   6  24
BRANCH   8  26
ATOM     26  O   UNL     1      -8.241  19.556  -7.471  1.00  0.00    -0.508 OA
ATOM     27  H   UNL     1      -8.095  18.845  -8.178  1.00  0.00     0.293 HD
ENDBRANCH   8  26
TORSDOF 6
ENDMDL
MODEL 3
REMARK VINA RESULT:    -5.412      4.268      9.892
REMARK INTER + INTRA:          -6.801
REMARK INTER:                  -6.512
REMARK INTRA:                  -0.289
REMARK UNBOUND:                -0.282
REMARK SMILES O=c1c(O)c(-c2ccc(O)c(O)c2)oc2cc(O)cc(O)c12
REMARK SMILES IDX 5 1 3 2 2 3 1 4 22 5 20 6 19 7 17 8 16 9 15 10 14 11 6 12
REMARK SMILES IDX 7 13 8 14 9 15 13 16 11 17 10 18 12 20 4 22 21 24 18 26
REMARK H PARENT 10 19 12 21 4 23 21 25 18 27
REMARK Flexibility Score: inf
ROOT
ATOM      1  C   UNL     1      -9.829  22.032  -8.040  1.00  0.00     0.180 A 
ATOM      2  C   UNL     1      -9.312  23.284  -8.424  1.00  0.00     0.208 A 
ATOM      3  C   UNL     1     -10.206  24.316  -8.750  1.00  0.00     0.238 A 
ATOM      4  O   UNL     1      -9.755  25.439  -9.107  1.00  0.00    -0.285 OA
ATOM      5  C   UNL     1     -11.595  24.086  -8.666  1.00  0.00     0.111 A 
ATOM      6  C   UNL     1     -12.563  25.074  -8.972  1.00  0.00     0.134 A 
ATOM      7  C   UNL     1     -13.928  24.770  -8.856  1.00  0.00     0.093 A 
ATOM      8  C   UNL     1     -14.343  23.503  -8.439  1.00  0.00     0.123 A 
ATOM      9  C   UNL     1     -13.392  22.524  -8.135  1.00  0.00     0.094 A 
ATOM     10  C   UNL     1     -12.028  22.806  -8.247  1.00  0.00     0.146 A 
ATOM     11  O   UNL     1     -11.145  21.856  -7.958  1.00  0.00    -0.452 OA
ENDROOT
BRANCH   1  12
ATOM     12  C   UNL     1      -8.951  20.889  -7.700  1.00  0.00     0.025 A 
ATOM     13  C   UNL     1      -8.349  20.151  -8.730  1.00  0.00     0.016 A 
ATOM     14  C   UNL     1      -7.502  19.082  -8.432  1.00  0.00     0.051 A 
ATOM     15  C   UNL     1      -7.227  18.738  -7.104  1.00  0.00     0.157 A 
ATOM     16  C   UNL     1      -8.659  20.560  -6.365  1.00  0.00     0.062 A 
ATOM     17  C   UNL     1      -7.807  19.492  -6.057  1.00  0.00     0.158 A 
BRANCH  15  18
ATOM     18  O   UNL     1      -6.378  17.654  -6.875  1.00  0.00    -0.504 OA
ATOM     19  H   UNL     1      -5.372  17.725  -6.825  1.00  0.00     0.293 HD
ENDBRANCH  15  18
BRANCH  17  20
ATOM     20  O   UNL     1      -7.563  19.221  -4.709  1.00  0.00    -0.504 OA
ATOM     21  H   UNL     1      -6.669  19.352  -4.259  1.00  0.00     0.293 HD
ENDBRANCH  17  20
ENDBRANCH   1  12
BRANCH   2  22
ATOM     22  O   UNL     1      -7.932  23.500  -8.452  1.00  0.00    -0.502 OA
ATOM     23  H   UNL     1      -7.279  22.898  -7.967  1.00  0.00     0.293 HD
ENDBRANCH   2  22
BRANCH   6  24
ATOM     24  O   UNL     1     -12.181  26.349  -9.391  1.00  0.00    -0.507 OA
ATOM     25  H   UNL     1     -11.447  26.867  -8.921  1.00  0.00     0.293 HD
ENDBRANCH   6  24
BRANCH   8  26
ATOM     26  O   UNL     1     -15.704  23.228  -8.330  1.00  0.00    -0.508 OA
ATOM     27  H   UNL     1     -16.236  22.867  -9.114  1.00  0.00     0.293 HD
ENDBRANCH   8  26
TORSDOF 6
ENDMDL
MODEL 4
REMARK VINA RESULT:    -5.253      1.396      2.035
REMARK INTER + INTRA:          -6.610
REMARK INTER:                  -6.323
REMARK INTRA:                  -0.286
REMARK UNBOUND:                -0.282
REMARK SMILES O=c1c(O)c(-c2ccc(O)c(O)c2)oc2cc(O)cc(O)c12
REMARK SMILES IDX 5 1 3 2 2 3 1 4 22 5 20 6 19 7 17 8 16 9 15 10 14 11 6 12
REMARK SMILES IDX 7 13 8 14 9 15 13 16 11 17 10 18 12 20 4 22 21 24 18 26
REMARK H PARENT 10 19 12 21 4 23 21 25 18 27
REMARK Flexibility Score: inf
ROOT
ATOM      1  C   UNL     1     -16.389  24.790  -8.088  1.00  0.00     0.180 A 
ATOM      2  C   UNL     1     -16.438  23.392  -8.256  1.00  0.00     0.208 A 
ATOM      3  C   UNL     1     -15.258  22.707  -8.585  1.00  0.00     0.238 A 
ATOM      4  O   UNL     1     -15.292  21.456  -8.748  1.00  0.00    -0.285 OA
ATOM      5  C   UNL     1     -14.051  23.423  -8.721  1.00  0.00     0.111 A 
ATOM      6  C   UNL     1     -12.817  22.807  -9.046  1.00  0.00     0.134 A 
ATOM      7  C   UNL     1     -11.657  23.588  -9.154  1.00  0.00     0.093 A 
ATOM      8  C   UNL     1     -11.705  24.968  -8.942  1.00  0.00     0.123 A 
ATOM      9  C   UNL     1     -12.919  25.582  -8.621  1.00  0.00     0.094 A 
ATOM     10  C   UNL     1     -14.087  24.822  -8.511  1.00  0.00     0.146 A 
ATOM     11  O   UNL     1     -15.229  25.430  -8.210  1.00  0.00    -0.452 OA
ENDROOT
BRANCH   1  12
ATOM     12  C   UNL     1     -17.593  25.585  -7.760  1.00  0.00     0.025 A 
ATOM     13  C   UNL     1     -18.272  26.264  -8.783  1.00  0.00     0.016 A 
ATOM     14  C   UNL     1     -19.421  27.004  -8.499  1.00  0.00     0.051 A 
ATOM     15  C   UNL     1     -19.924  27.070  -7.195  1.00  0.00     0.157 A 
ATOM     16  C   UNL     1     -18.109  25.630  -6.453  1.00  0.00     0.062 A 
ATOM     17  C   UNL     1     -19.263  26.367  -6.160  1.00  0.00     0.158 A 
BRANCH  15  18
ATOM     18  O   UNL     1     -21.072  27.833  -6.977  1.00  0.00    -0.504 OA
ATOM     19  H   UNL     1     -21.645  27.766  -6.148  1.00  0.00     0.293 HD
ENDBRANCH  15  18
BRANCH  17  20
ATOM     20  O   UNL     1     -19.717  26.369  -4.839  1.00  0.00    -0.504 OA
ATOM     21  H   UNL     1     -19.183  26.720  -4.058  1.00  0.00     0.293 HD
ENDBRANCH  17  20
ENDBRANCH   1  12
BRANCH   2  22
ATOM     22  O   UNL     1     -17.637  22.700  -8.068  1.00  0.00    -0.502 OA
ATOM     23  H   UNL     1     -18.251  22.882  -7.284  1.00  0.00     0.293 HD
ENDBRANCH   2  22
BRANCH   6  24
ATOM     24  O   UNL     1     -12.736  21.431  -9.262  1.00  0.00    -0.507 OA
ATOM     25  H   UNL     1     -13.521  20.816  -9.079  1.00  0.00     0.293 HD
ENDBRANCH   6  24
BRANCH   8  26
ATOM     26  O   UNL     1     -10.537  25.721  -9.055  1.00  0.00    -0.508 OA
ATOM     27  H   UNL     1      -9.819  25.485  -9.729  1.00  0.00     0.293 HD
ENDBRANCH   8  26
TORSDOF 6
ENDMDL
MODEL 5
REMARK VINA RESULT:    -5.146      1.732      6.729
REMARK INTER + INTRA:          -6.481
REMARK INTER:                  -6.382
REMARK INTRA:                  -0.099
REMARK UNBOUND:                -0.282
REMARK SMILES O=c1c(O)c(-c2ccc(O)c(O)c2)oc2cc(O)cc(O)c12
REMARK SMILES IDX 5 1 3 2 2 3 1 4 22 5 20 6 19 7 17 8 16 9 15 10 14 11 6 12
REMARK SMILES IDX 7 13 8 14 9 15 13 16 11 17 10 18 12 20 4 22 21 24 18 26
REMARK H PARENT 10 19 12 21 4 23 21 25 18 27
REMARK Flexibility Score: inf
ROOT
ATOM      1  C   UNL     1     -14.486  24.005  -8.362  1.00  0.00     0.180 A 
ATOM      2  C   UNL     1     -15.355  23.239  -9.162  1.00  0.00     0.208 A 
ATOM      3  C   UNL     1     -16.741  23.391  -8.995  1.00  0.00     0.238 A 
ATOM      4  O   UNL     1     -17.530  22.702  -9.698  1.00  0.00    -0.285 OA
ATOM      5  C   UNL     1     -17.232  24.316  -8.051  1.00  0.00     0.111 A 
ATOM      6  C   UNL     1     -18.613  24.533  -7.824  1.00  0.00     0.134 A 
ATOM      7  C   UNL     1     -19.022  25.478  -6.872  1.00  0.00     0.093 A 
ATOM      8  C   UNL     1     -18.080  26.211  -6.146  1.00  0.00     0.123 A 
ATOM      9  C   UNL     1     -16.716  26.001  -6.365  1.00  0.00     0.094 A 
ATOM     10  C   UNL     1     -16.287  25.062  -7.307  1.00  0.00     0.146 A 
ATOM     11  O   UNL     1     -14.985  24.879  -7.492  1.00  0.00    -0.452 OA
ENDROOT
BRANCH   1  12
ATOM     12  C   UNL     1     -13.014  23.888  -8.466  1.00  0.00     0.025 A 
ATOM     13  C   UNL     1     -12.403  22.645  -8.242  1.00  0.00     0.016 A 
ATOM     14  C   UNL     1     -11.018  22.508  -8.353  1.00  0.00     0.051 A 
ATOM     15  C   UNL     1     -10.218  23.600  -8.704  1.00  0.00     0.157 A 
ATOM     16  C   UNL     1     -12.215  24.982  -8.840  1.00  0.00     0.062 A 
ATOM     17  C   UNL     1     -10.826  24.853  -8.958  1.00  0.00     0.158 A 
BRANCH  15  18
ATOM     18  O   UNL     1      -8.840  23.398  -8.790  1.00  0.00    -0.504 OA
ATOM     19  H   UNL     1      -8.358  22.608  -8.386  1.00  0.00     0.293 HD
ENDBRANCH  15  18
BRANCH  17  20
ATOM     20  O   UNL     1     -10.095  25.982  -9.332  1.00  0.00    -0.504 OA
ATOM     21  H   UNL     1     -10.338  26.926  -9.067  1.00  0.00     0.293 HD
ENDBRANCH  17  20
ENDBRANCH   1  12
BRANCH   2  22
ATOM     22  O   UNL     1     -14.844  22.365 -10.125  1.00  0.00    -0.502 OA
ATOM     23  H   UNL     1     -15.401  22.024 -10.898  1.00  0.00     0.293 HD
ENDBRANCH   2  22
BRANCH   6  24
ATOM     24  O   UNL     1     -19.578  23.817  -8.535  1.00  0.00    -0.507 OA
ATOM     25  H   UNL     1     -19.338  23.256  -9.344  1.00  0.00     0.293 HD
ENDBRANCH   6  24
BRANCH   8  26
ATOM     26  O   UNL     1     -18.514  27.145  -5.207  1.00  0.00    -0.508 OA
ATOM     27  H   UNL     1     -18.979  28.000  -5.487  1.00  0.00     0.293 HD
ENDBRANCH   8  26
TORSDOF 6
ENDMDL
MODEL 6
REMARK VINA RESULT:    -5.102      6.195      9.266
REMARK INTER + INTRA:          -6.428
REMARK INTER:                  -6.389
REMARK INTRA:                  -0.039
REMARK UNBOUND:                -0.282
REMARK SMILES O=c1c(O)c(-c2ccc(O)c(O)c2)oc2cc(O)cc(O)c12
REMARK SMILES IDX 5 1 3 2 2 3 1 4 22 5 20 6 19 7 17 8 16 9 15 10 14 11 6 12
REMARK SMILES IDX 7 13 8 14 9 15 13 16 11 17 10 18 12 20 4 22 21 24 18 26
REMARK H PARENT 10 19 12 21 4 23 21 25 18 27
REMARK Flexibility Score: inf
ROOT
ATOM      1  C   UNL     1      -8.925  21.709  -7.689  1.00  0.00     0.180 A 
ATOM      2  C   UNL     1      -7.588  21.476  -8.065  1.00  0.00     0.208 A 
ATOM      3  C   UNL     1      -6.883  20.429  -7.449  1.00  0.00     0.238 A 
ATOM      4  O   UNL     1      -5.681  20.217  -7.770  1.00  0.00    -0.285 OA
ATOM      5  C   UNL     1      -7.529  19.624  -6.489  1.00  0.00     0.111 A 
ATOM      6  C   UNL     1      -6.892  18.546  -5.826  1.00  0.00     0.134 A 
ATOM      7  C   UNL     1      -7.607  17.786  -4.888  1.00  0.00     0.093 A 
ATOM      8  C   UNL     1      -8.942  18.079  -4.603  1.00  0.00     0.123 A 
ATOM      9  C   UNL     1      -9.577  19.141  -5.254  1.00  0.00     0.094 A 
ATOM     10  C   UNL     1      -8.882  19.912  -6.190  1.00  0.00     0.146 A 
ATOM     11  O   UNL     1      -9.506  20.920  -6.790  1.00  0.00    -0.452 OA
ENDROOT
BRANCH   1  12
ATOM     12  C   UNL     1      -9.727  22.805  -8.278  1.00  0.00     0.025 A 
ATOM     13  C   UNL     1      -9.235  24.117  -8.241  1.00  0.00     0.016 A 
ATOM     14  C   UNL     1      -9.966  25.163  -8.807  1.00  0.00     0.051 A 
ATOM     15  C   UNL     1     -11.193  24.919  -9.433  1.00  0.00     0.157 A 
ATOM     16  C   UNL     1     -10.949  22.553  -8.925  1.00  0.00     0.062 A 
ATOM     17  C   UNL     1     -11.688  23.595  -9.499  1.00  0.00     0.158 A 
BRANCH  15  18
ATOM     18  O   UNL     1     -11.878  26.009  -9.972  1.00  0.00    -0.504 OA
ATOM     19  H   UNL     1     -12.738  26.379  -9.594  1.00  0.00     0.293 HD
ENDBRANCH  15  18
BRANCH  17  20
ATOM     20  O   UNL     1     -12.894  23.271 -10.125  1.00  0.00    -0.504 OA
ATOM     21  H   UNL     1     -12.990  23.108 -11.117  1.00  0.00     0.293 HD
ENDBRANCH  17  20
ENDBRANCH   1  12
BRANCH   2  22
ATOM     22  O   UNL     1      -6.985  22.257  -9.054  1.00  0.00    -0.502 OA
ATOM     23  H   UNL     1      -7.269  22.216 -10.025  1.00  0.00     0.293 HD
ENDBRANCH   2  22
BRANCH   6  24
ATOM     24  O   UNL     1      -5.559  18.228  -6.091  1.00  0.00    -0.507 OA
ATOM     25  H   UNL     1      -5.194  17.294  -5.941  1.00  0.00     0.293 HD
ENDBRANCH   6  24
BRANCH   8  26
ATOM     26  O   UNL     1      -9.629  17.307  -3.668  1.00  0.00    -0.508 OA
ATOM     27  H   UNL     1      -9.650  17.558  -2.687  1.00  0.00     0.293 HD
ENDBRANCH   8  26
TORSDOF 6
ENDMDL
MODEL 7
REMARK VINA RESULT:    -4.889      3.403      8.274
REMARK INTER + INTRA:          -6.171
REMARK INTER:                  -6.460
REMARK INTRA:                   0.289
REMARK UNBOUND:                -0.282
REMARK SMILES O=c1c(O)c(-c2ccc(O)c(O)c2)oc2cc(O)cc(O)c12
REMARK SMILES IDX 5 1 3 2 2 3 1 4 22 5 20 6 19 7 17 8 16 9 15 10 14 11 6 12
REMARK SMILES IDX 7 13 8 14 9 15 13 16 11 17 10 18 12 20 4 22 21 24 18 26
REMARK H PARENT 10 19 12 21 4 23 21 25 18 27
REMARK Flexibility Score: inf
ROOT
ATOM      1  C   UNL     1     -11.756  23.418  -8.899  1.00  0.00     0.180 A 
ATOM      2  C   UNL     1     -12.185  24.616  -9.502  1.00  0.00     0.208 A 
ATOM      3  C   UNL     1     -13.562  24.883  -9.576  1.00  0.00     0.238 A 
ATOM      4  O   UNL     1     -13.959  25.947 -10.124  1.00  0.00    -0.285 OA
ATOM      5  C   UNL     1     -14.480  23.963  -9.029  1.00  0.00     0.111 A 
ATOM      6  C   UNL     1     -15.882  24.159  -9.057  1.00  0.00     0.134 A 
ATOM      7  C   UNL     1     -16.731  23.200  -8.483  1.00  0.00     0.093 A 
ATOM      8  C   UNL     1     -16.206  22.054  -7.881  1.00  0.00     0.123 A 
ATOM      9  C   UNL     1     -14.822  21.855  -7.851  1.00  0.00     0.094 A 
ATOM     10  C   UNL     1     -13.960  22.797  -8.419  1.00  0.00     0.146 A 
ATOM     11  O   UNL     1     -12.650  22.581  -8.381  1.00  0.00    -0.452 OA
ENDROOT
BRANCH   1  12
ATOM     12  C   UNL     1     -10.324  23.057  -8.801  1.00  0.00     0.025 A 
ATOM     13  C   UNL     1      -9.950  21.705  -8.827  1.00  0.00     0.016 A 
ATOM     14  C   UNL     1      -8.603  21.343  -8.756  1.00  0.00     0.051 A 
ATOM     15  C   UNL     1      -7.605  22.319  -8.672  1.00  0.00     0.157 A 
ATOM     16  C   UNL     1      -9.321  24.041  -8.739  1.00  0.00     0.062 A 
ATOM     17  C   UNL     1      -7.968  23.686  -8.671  1.00  0.00     0.158 A 
BRANCH  15  18
ATOM     18  O   UNL     1      -6.279  21.890  -8.596  1.00  0.00    -0.504 OA
ATOM     19  H   UNL     1      -6.003  20.928  -8.461  1.00  0.00     0.293 HD
ENDBRANCH  15  18
BRANCH  17  20
ATOM     20  O   UNL     1      -7.027  24.716  -8.611  1.00  0.00    -0.504 OA
ATOM     21  H   UNL     1      -6.365  24.832  -7.858  1.00  0.00     0.293 HD
ENDBRANCH  17  20
ENDBRANCH   1  12
BRANCH   2  22
ATOM     22  O   UNL     1     -11.253  25.534  -9.993  1.00  0.00    -0.502 OA
ATOM     23  H   UNL     1     -11.452  26.142 -10.778  1.00  0.00     0.293 HD
ENDBRANCH   2  22
BRANCH   6  24
ATOM     24  O   UNL     1     -16.437  25.294  -9.650  1.00  0.00    -0.507 OA
ATOM     25  H   UNL     1     -16.516  25.385 -10.656  1.00  0.00     0.293 HD
ENDBRANCH   6  24
BRANCH   8  26
ATOM     26  O   UNL     1     -17.071  21.118  -7.318  1.00  0.00    -0.508 OA
ATOM     27  H   UNL     1     -17.742  20.610  -7.882  1.00  0.00     0.293 HD
ENDBRANCH   8  26
TORSDOF 6
ENDMDL
MODEL 8
REMARK VINA RESULT:    -4.830      8.677     12.385
REMARK INTER + INTRA:          -6.101
REMARK INTER:                  -5.809
REMARK INTRA:                  -0.292
REMARK UNBOUND:                -0.282
REMARK SMILES O=c1c(O)c(-c2ccc(O)c(O)c2)oc2cc(O)cc(O)c12
REMARK SMILES IDX 5 1 3 2 2 3 1 4 22 5 20 6 19 7 17 8 16 9 15 10 14 11 6 12
REMARK SMILES IDX 7 13 8 14 9 15 13 16 11 17 10 18 12 20 4 22 21 24 18 26
REMARK H PARENT 10 19 12 21 4 23 21 25 18 27
REMARK Flexibility Score: inf
ROOT
ATOM      1  C   UNL     1      -7.628  18.581  -5.608  1.00  0.00     0.180 A 
ATOM      2  C   UNL     1      -6.510  18.869  -4.802  1.00  0.00     0.208 A 
ATOM      3  C   UNL     1      -6.138  17.956  -3.804  1.00  0.00     0.238 A 
ATOM      4  O   UNL     1      -5.145  18.209  -3.069  1.00  0.00    -0.285 OA
ATOM      5  C   UNL     1      -6.875  16.764  -3.641  1.00  0.00     0.111 A 
ATOM      6  C   UNL     1      -6.564  15.788  -2.663  1.00  0.00     0.134 A 
ATOM      7  C   UNL     1      -7.340  14.623  -2.570  1.00  0.00     0.093 A 
ATOM      8  C   UNL     1      -8.417  14.415  -3.435  1.00  0.00     0.123 A 
ATOM      9  C   UNL     1      -8.729  15.374  -4.403  1.00  0.00     0.094 A 
ATOM     10  C   UNL     1      -7.969  16.542  -4.511  1.00  0.00     0.146 A 
ATOM     11  O   UNL     1      -8.289  17.440  -5.436  1.00  0.00    -0.452 OA
ENDROOT
BRANCH   1  12
ATOM     12  C   UNL     1      -8.093  19.503  -6.668  1.00  0.00     0.025 A 
ATOM     13  C   UNL     1      -9.157  20.377  -6.404  1.00  0.00     0.016 A 
ATOM     14  C   UNL     1      -9.599  21.269  -7.383  1.00  0.00     0.051 A 
ATOM     15  C   UNL     1      -8.980  21.318  -8.636  1.00  0.00     0.157 A 
ATOM     16  C   UNL     1      -7.454  19.565  -7.919  1.00  0.00     0.062 A 
ATOM     17  C   UNL     1      -7.888  20.459  -8.905  1.00  0.00     0.158 A 
BRANCH  15  18
ATOM     18  O   UNL     1      -9.475  22.226  -9.573  1.00  0.00    -0.504 OA
ATOM     19  H   UNL     1     -10.452  22.317  -9.811  1.00  0.00     0.293 HD
ENDBRANCH  15  18
BRANCH  17  20
ATOM     20  O   UNL     1      -7.207  20.465 -10.125  1.00  0.00    -0.504 OA
ATOM     21  H   UNL     1      -7.663  20.452 -11.026  1.00  0.00     0.293 HD
ENDBRANCH  17  20
ENDBRANCH   1  12
BRANCH   2  22
ATOM     22  O   UNL     1      -5.767  20.034  -5.016  1.00  0.00    -0.502 OA
ATOM     23  H   UNL     1      -5.854  20.849  -4.422  1.00  0.00     0.293 HD
ENDBRANCH   2  22
BRANCH   6  24
ATOM     24  O   UNL     1      -5.494  15.968  -1.784  1.00  0.00    -0.507 OA
ATOM     25  H   UNL     1      -5.173  15.223  -1.176  1.00  0.00     0.293 HD
ENDBRANCH   6  24
BRANCH   8  26
ATOM     26  O   UNL     1      -9.171  13.248  -3.323  1.00  0.00    -0.508 OA
ATOM     27  H   UNL     1      -8.764  12.385  -2.982  1.00  0.00     0.293 HD
ENDBRANCH   8  26
TORSDOF 6
ENDMDL
MODEL 9
REMARK VINA RESULT:    -4.821      6.576      9.925
REMARK INTER + INTRA:          -6.090
REMARK INTER:                  -5.863
REMARK INTRA:                  -0.227
REMARK UNBOUND:                -0.282
REMARK SMILES O=c1c(O)c(-c2ccc(O)c(O)c2)oc2cc(O)cc(O)c12
REMARK SMILES IDX 5 1 3 2 2 3 1 4 22 5 20 6 19 7 17 8 16 9 15 10 14 11 6 12
REMARK SMILES IDX 7 13 8 14 9 15 13 16 11 17 10 18 12 20 4 22 21 24 18 26
REMARK H PARENT 10 19 12 21 4 23 21 25 18 27
REMARK Flexibility Score: inf
ROOT
ATOM      1  C   UNL     1      -8.216  20.990  -7.783  1.00  0.00     0.180 A 
ATOM      2  C   UNL     1      -8.036  19.979  -8.747  1.00  0.00     0.208 A 
ATOM      3  C   UNL     1      -7.325  18.822  -8.391  1.00  0.00     0.238 A 
ATOM      4  O   UNL     1      -7.147  17.914  -9.249  1.00  0.00    -0.285 OA
ATOM      5  C   UNL     1      -6.827  18.686  -7.079  1.00  0.00     0.111 A 
ATOM      6  C   UNL     1      -6.104  17.551  -6.638  1.00  0.00     0.134 A 
ATOM      7  C   UNL     1      -5.649  17.486  -5.313  1.00  0.00     0.093 A 
ATOM      8  C   UNL     1      -5.902  18.532  -4.422  1.00  0.00     0.123 A 
ATOM      9  C   UNL     1      -6.615  19.655  -4.850  1.00  0.00     0.094 A 
ATOM     10  C   UNL     1      -7.075  19.739  -6.167  1.00  0.00     0.146 A 
ATOM     11  O   UNL     1      -7.745  20.821  -6.551  1.00  0.00    -0.452 OA
ENDROOT
BRANCH   1  12
ATOM     12  C   UNL     1      -8.937  22.247  -8.087  1.00  0.00     0.025 A 
ATOM     13  C   UNL     1      -8.214  23.439  -8.235  1.00  0.00     0.016 A 
ATOM     14  C   UNL     1      -8.871  24.632  -8.542  1.00  0.00     0.051 A 
ATOM     15  C   UNL     1     -10.258  24.657  -8.721  1.00  0.00     0.157 A 
ATOM     16  C   UNL     1     -10.328  22.264  -8.289  1.00  0.00     0.062 A 
ATOM     17  C   UNL     1     -10.996  23.455  -8.600  1.00  0.00     0.158 A 
BRANCH  15  18
ATOM     18  O   UNL     1     -10.855  25.883  -9.017  1.00  0.00    -0.504 OA
ATOM     19  H   UNL     1     -10.613  26.450  -9.817  1.00  0.00     0.293 HD
ENDBRANCH  15  18
BRANCH  17  20
ATOM     20  O   UNL     1     -12.379  23.398  -8.785  1.00  0.00    -0.504 OA
ATOM     21  H   UNL     1     -12.953  22.611  -8.520  1.00  0.00     0.293 HD
ENDBRANCH  17  20
ENDBRANCH   1  12
BRANCH   2  22
ATOM     22  O   UNL     1      -8.582  20.116 -10.026  1.00  0.00    -0.502 OA
ATOM     23  H   UNL     1      -8.061  20.514 -10.798  1.00  0.00     0.293 HD
ENDBRANCH   2  22
BRANCH   6  24
ATOM     24  O   UNL     1      -5.836  16.490  -7.504  1.00  0.00    -0.507 OA
ATOM     25  H   UNL     1      -6.023  15.528  -7.244  1.00  0.00     0.293 HD
ENDBRANCH   6  24
BRANCH   8  26
ATOM     26  O   UNL     1      -5.440  18.442  -3.110  1.00  0.00    -0.508 OA
ATOM     27  H   UNL     1      -5.378  19.259  -2.514  1.00  0.00     0.293 HD
ENDBRANCH   8  26
TORSDOF 6
ENDMDL
