MODEL 1
REMARK VINA RESULT:    -6.798      0.000      0.000
REMARK INTER + INTRA:         -11.107
REMARK INTER:                 -10.574
REMARK INTRA:                  -0.533
REMARK UNBOUND:                -0.533
REMARK SMILES COc1cc(CNC(=O)CCCCC=CC(C)C)ccc1O
REMARK SMILES IDX 11 1 12 2 13 3 14 4 15 5 16 6 17 7 18 8 10 9 8 10 9 11 7 12
REMARK SMILES IDX 6 14 5 15 4 16 19 17 3 18 20 19 21 20 2 21 1 22 22 23
REMARK H PARENT 7 13 22 24
REMARK Flexibility Score: inf
ROOT
ATOM      1  C   UNL     1     140.345 136.149 142.388  1.00  0.00     0.010 C 
ENDROOT
BRANCH   1   2
ATOM      2  C   UNL     1     141.114 136.171 141.052  1.00  0.00     0.005 C 
BRANCH   2   3
ATOM      3  C   UNL     1     142.645 136.205 141.201  1.00  0.00     0.027 C 
BRANCH   3   4
ATOM      4  C   UNL     1     143.215 134.882 141.636  1.00  0.00    -0.031 C 
ATOM      5  C   UNL     1     144.473 134.772 142.095  1.00  0.00    -0.028 C 
BRANCH   5   6
ATOM      6  C   UNL     1     145.077 133.452 142.516  1.00  0.00     0.005 C 
ATOM      7  C   UNL     1     144.001 132.369 142.660  1.00  0.00     0.012 C 
ATOM      8  C   UNL     1     145.896 133.598 143.803  1.00  0.00     0.012 C 
ENDBRANCH   5   6
ENDBRANCH   3   4
ENDBRANCH   2   3
ENDBRANCH   1   2
BRANCH   1   9
ATOM      9  C   UNL     1     139.015 135.380 142.338  1.00  0.00     0.100 C 
BRANCH   9  10
ATOM     10  C   UNL     1     137.854 136.245 142.732  1.00  0.00     0.220 C 
ATOM     11  O   UNL     1     137.903 136.891 143.814  1.00  0.00    -0.275 OA
ATOM     12  N   UNL     1     136.684 136.310 141.903  1.00  0.00    -0.352 N 
ATOM     13  H   UNL     1     136.648 135.742 141.026  1.00  0.00     0.163 HD
BRANCH  12  14
ATOM     14  C   UNL     1     135.524 137.127 142.248  1.00  0.00     0.151 C 
BRANCH  14  15
ATOM     15  C   UNL     1     134.275 136.287 142.243  1.00  0.00    -0.025 A 
ATOM     16  C   UNL     1     133.470 136.223 143.391  1.00  0.00     0.056 A 
ATOM     17  C   UNL     1     133.921 135.543 141.109  1.00  0.00     0.009 A 
ATOM     18  C   UNL     1     132.310 135.421 143.407  1.00  0.00     0.160 A 
ATOM     19  C   UNL     1     132.773 134.748 141.119  1.00  0.00     0.050 A 
ATOM     20  C   UNL     1     131.967 134.685 142.263  1.00  0.00     0.157 A 
BRANCH  18  21
ATOM     21  O   UNL     1     131.478 135.332 144.534  1.00  0.00    -0.493 OA
ATOM     22  C   UNL     1     131.911 135.545 145.874  1.00  0.00     0.278 C 
ENDBRANCH  18  21
BRANCH  20  23
ATOM     23  O   UNL     1     130.822 133.892 142.273  1.00  0.00    -0.504 OA
ATOM     24  H   UNL     1     130.861 132.901 142.063  1.00  0.00     0.293 HD
ENDBRANCH  20  23
ENDBRANCH  14  15
ENDBRANCH  12  14
ENDBRANCH   9  10
ENDBRANCH   1   9
TORSDOF 10
ENDMDL
MODEL 2
REMARK VINA RESULT:    -6.761      1.001      2.150
REMARK INTER + INTRA:         -11.050
REMARK INTER:                 -10.557
REMARK INTRA:                  -0.493
REMARK UNBOUND:                -0.533
REMARK SMILES COc1cc(CNC(=O)CCCCC=CC(C)C)ccc1O
REMARK SMILES IDX 11 1 12 2 13 3 14 4 15 5 16 6 17 7 18 8 10 9 8 10 9 11 7 12
REMARK SMILES IDX 6 14 5 15 4 16 19 17 3 18 20 19 21 20 2 21 1 22 22 23
REMARK H PARENT 7 13 22 24
REMARK Flexibility Score: inf
ROOT
ATOM      1  C   UNL     1     140.113 136.221 141.826  1.00  0.00     0.010 C 
ENDROOT
BRANCH   1   2
ATOM      2  C   UNL     1     141.424 135.413 141.891  1.00  0.00     0.005 C 
BRANCH   2   3
ATOM      3  C   UNL     1     142.622 136.090 141.200  1.00  0.00     0.027 C 
BRANCH   3   4
ATOM      4  C   UNL     1     143.920 135.375 141.461  1.00  0.00    -0.031 C 
ATOM      5  C   UNL     1     143.970 134.249 142.192  1.00  0.00    -0.028 C 
BRANCH   5   6
ATOM      6  C   UNL     1     145.263 133.524 142.488  1.00  0.00     0.005 C 
ATOM      7  C   UNL     1     145.077 132.004 142.422  1.00  0.00     0.012 C 
ATOM      8  C   UNL     1     145.848 133.955 143.838  1.00  0.00     0.012 C 
ENDBRANCH   5   6
ENDBRANCH   3   4
ENDBRANCH   2   3
ENDBRANCH   1   2
BRANCH   1   9
ATOM      9  C   UNL     1     138.843 135.379 142.028  1.00  0.00     0.100 C 
BRANCH   9  10
ATOM     10  C   UNL     1     137.744 136.172 142.672  1.00  0.00     0.220 C 
ATOM     11  O   UNL     1     138.024 136.979 143.598  1.00  0.00    -0.275 OA
ATOM     12  N   UNL     1     136.381 135.987 142.261  1.00  0.00    -0.352 N 
ATOM     13  H   UNL     1     136.163 135.289 141.514  1.00  0.00     0.163 HD
BRANCH  12  14
ATOM     14  C   UNL     1     135.273 136.725 142.863  1.00  0.00     0.151 C 
BRANCH  14  15
ATOM     15  C   UNL     1     133.984 135.970 142.681  1.00  0.00    -0.025 A 
ATOM     16  C   UNL     1     133.631 135.482 141.413  1.00  0.00     0.056 A 
ATOM     17  C   UNL     1     133.114 135.774 143.763  1.00  0.00     0.009 A 
ATOM     18  C   UNL     1     132.415 134.794 141.225  1.00  0.00     0.160 A 
ATOM     19  C   UNL     1     131.909 135.093 143.582  1.00  0.00     0.050 A 
ATOM     20  C   UNL     1     131.557 134.603 142.318  1.00  0.00     0.157 A 
BRANCH  18  21
ATOM     21  O   UNL     1     132.028 134.289 139.974  1.00  0.00    -0.493 OA
ATOM     22  C   UNL     1     131.465 135.074 138.927  1.00  0.00     0.278 C 
ENDBRANCH  18  21
BRANCH  20  23
ATOM     23  O   UNL     1     130.354 133.923 142.138  1.00  0.00    -0.504 OA
ATOM     24  H   UNL     1     129.500 134.226 142.592  1.00  0.00     0.293 HD
ENDBRANCH  20  23
ENDBRANCH  14  15
ENDBRANCH  12  14
ENDBRANCH   9  10
ENDBRANCH   1   9
TORSDOF 10
ENDMDL
MODEL 3
REMARK VINA RESULT:    -6.736      4.687      6.411
REMARK INTER + INTRA:         -11.011
REMARK INTER:                 -10.170
REMARK INTRA:                  -0.841
REMARK UNBOUND:                -0.533
REMARK SMILES COc1cc(CNC(=O)CCCCC=CC(C)C)ccc1O
REMARK SMILES IDX 11 1 12 2 13 3 14 4 15 5 16 6 17 7 18 8 10 9 8 10 9 11 7 12
REMARK SMILES IDX 6 14 5 15 4 16 19 17 3 18 20 19 21 20 2 21 1 22 22 23
REMARK H PARENT 7 13 22 24
REMARK Flexibility Score: inf
ROOT
ATOM      1  C   UNL     1     141.344 136.642 140.890  1.00  0.00     0.010 C 
ENDROOT
BRANCH   1   2
ATOM      2  C   UNL     1     142.738 136.096 140.519  1.00  0.00     0.005 C 
BRANCH   2   3
ATOM      3  C   UNL     1     143.888 136.656 141.375  1.00  0.00     0.027 C 
BRANCH   3   4
ATOM      4  C   UNL     1     144.900 135.606 141.745  1.00  0.00    -0.031 C 
ATOM      5  C   UNL     1     144.537 134.456 142.338  1.00  0.00    -0.028 C 
BRANCH   5   6
ATOM      6  C   UNL     1     145.535 133.394 142.741  1.00  0.00     0.005 C 
ATOM      7  C   UNL     1     144.913 131.994 142.679  1.00  0.00     0.012 C 
ATOM      8  C   UNL     1     146.125 133.680 144.126  1.00  0.00     0.012 C 
ENDBRANCH   5   6
ENDBRANCH   3   4
ENDBRANCH   2   3
ENDBRANCH   1   2
BRANCH   1   9
ATOM      9  C   UNL     1     140.565 135.761 141.880  1.00  0.00     0.100 C 
BRANCH   9  10
ATOM     10  C   UNL     1     139.538 136.548 142.639  1.00  0.00     0.220 C 
ATOM     11  O   UNL     1     138.328 136.199 142.588  1.00  0.00    -0.275 OA
ATOM     12  N   UNL     1     139.925 137.711 143.388  1.00  0.00    -0.352 N 
ATOM     13  H   UNL     1     140.928 138.005 143.391  1.00  0.00     0.163 HD
BRANCH  12  14
ATOM     14  C   UNL     1     138.963 138.518 144.134  1.00  0.00     0.151 C 
BRANCH  14  15
ATOM     15  C   UNL     1     138.768 139.850 143.461  1.00  0.00    -0.025 A 
ATOM     16  C   UNL     1     139.480 140.155 142.291  1.00  0.00     0.056 A 
ATOM     17  C   UNL     1     137.900 140.806 144.010  1.00  0.00     0.009 A 
ATOM     18  C   UNL     1     139.323 141.408 141.663  1.00  0.00     0.160 A 
ATOM     19  C   UNL     1     137.741 142.048 143.393  1.00  0.00     0.050 A 
ATOM     20  C   UNL     1     138.449 142.351 142.223  1.00  0.00     0.157 A 
BRANCH  18  21
ATOM     21  O   UNL     1     140.016 141.749 140.491  1.00  0.00    -0.493 OA
ATOM     22  C   UNL     1     141.434 141.741 140.361  1.00  0.00     0.278 C 
ENDBRANCH  18  21
BRANCH  20  23
ATOM     23  O   UNL     1     138.290 143.591 141.607  1.00  0.00    -0.504 OA
ATOM     24  H   UNL     1     137.665 143.716 140.818  1.00  0.00     0.293 HD
ENDBRANCH  20  23
ENDBRANCH  14  15
ENDBRANCH  12  14
ENDBRANCH   9  10
ENDBRANCH   1   9
TORSDOF 10
ENDMDL
MODEL 4
REMARK VINA RESULT:    -6.559      5.386      6.586
REMARK INTER + INTRA:         -10.734
REMARK INTER:                  -9.855
REMARK INTRA:                  -0.879
REMARK UNBOUND:                -0.533
REMARK SMILES COc1cc(CNC(=O)CCCCC=CC(C)C)ccc1O
REMARK SMILES IDX 11 1 12 2 13 3 14 4 15 5 16 6 17 7 18 8 10 9 8 10 9 11 7 12
REMARK SMILES IDX 6 14 5 15 4 16 19 17 3 18 20 19 21 20 2 21 1 22 22 23
REMARK H PARENT 7 13 22 24
REMARK Flexibility Score: inf
ROOT
ATOM      1  C   UNL     1     144.182 138.738 142.192  1.00  0.00     0.010 C 
ENDROOT
BRANCH   1   2
ATOM      2  C   UNL     1     144.581 137.523 141.331  1.00  0.00     0.005 C 
BRANCH   2   3
ATOM      3  C   UNL     1     143.437 136.525 141.074  1.00  0.00     0.027 C 
BRANCH   3   4
ATOM      4  C   UNL     1     143.732 135.154 141.622  1.00  0.00    -0.031 C 
ATOM      5  C   UNL     1     144.958 134.818 142.057  1.00  0.00    -0.028 C 
BRANCH   5   6
ATOM      6  C   UNL     1     145.287 133.442 142.590  1.00  0.00     0.005 C 
ATOM      7  C   UNL     1     144.038 132.554 142.645  1.00  0.00     0.012 C 
ATOM      8  C   UNL     1     145.974 133.522 143.957  1.00  0.00     0.012 C 
ENDBRANCH   5   6
ENDBRANCH   3   4
ENDBRANCH   2   3
ENDBRANCH   1   2
BRANCH   1   9
ATOM      9  C   UNL     1     144.671 140.088 141.643  1.00  0.00     0.100 C 
BRANCH   9  10
ATOM     10  C   UNL     1     143.532 140.943 141.170  1.00  0.00     0.220 C 
ATOM     11  O   UNL     1     143.596 142.194 141.315  1.00  0.00    -0.275 OA
ATOM     12  N   UNL     1     142.366 140.341 140.590  1.00  0.00    -0.352 N 
ATOM     13  H   UNL     1     142.316 139.299 140.509  1.00  0.00     0.163 HD
BRANCH  12  14
ATOM     14  C   UNL     1     141.226 141.127 140.125  1.00  0.00     0.151 C 
BRANCH  14  15
ATOM     15  C   UNL     1     140.114 141.083 141.138  1.00  0.00    -0.025 A 
ATOM     16  C   UNL     1     139.949 139.949 141.949  1.00  0.00     0.056 A 
ATOM     17  C   UNL     1     139.219 142.155 141.261  1.00  0.00     0.009 A 
ATOM     18  C   UNL     1     138.898 139.886 142.886  1.00  0.00     0.160 A 
ATOM     19  C   UNL     1     138.176 142.098 142.188  1.00  0.00     0.050 A 
ATOM     20  C   UNL     1     138.013 140.968 142.999  1.00  0.00     0.157 A 
BRANCH  18  21
ATOM     21  O   UNL     1     138.701 138.771 143.716  1.00  0.00    -0.493 OA
ATOM     22  C   UNL     1     139.674 137.757 143.947  1.00  0.00     0.278 C 
ENDBRANCH  18  21
BRANCH  20  23
ATOM     23  O   UNL     1     136.972 140.912 143.924  1.00  0.00    -0.504 OA
ATOM     24  H   UNL     1     136.890 140.148 144.585  1.00  0.00     0.293 HD
ENDBRANCH  20  23
ENDBRANCH  14  15
ENDBRANCH  12  14
ENDBRANCH   9  10
ENDBRANCH   1   9
TORSDOF 10
ENDMDL
MODEL 5
REMARK VINA RESULT:    -6.529      1.695      2.423
REMARK INTER + INTRA:         -10.688
REMARK INTER:                 -10.031
REMARK INTRA:                  -0.657
REMARK UNBOUND:                -0.533
REMARK SMILES COc1cc(CNC(=O)CCCCC=CC(C)C)ccc1O
REMARK SMILES IDX 11 1 12 2 13 3 14 4 15 5 16 6 17 7 18 8 10 9 8 10 9 11 7 12
REMARK SMILES IDX 6 14 5 15 4 16 19 17 3 18 20 19 21 20 2 21 1 22 22 23
REMARK H PARENT 7 13 22 24
REMARK Flexibility Score: inf
ROOT
ATOM      1  C   UNL     1     141.151 136.906 140.112  1.00  0.00     0.010 C 
ENDROOT
BRANCH   1   2
ATOM      2  C   UNL     1     142.674 136.767 139.912  1.00  0.00     0.005 C 
BRANCH   2   3
ATOM      3  C   UNL     1     143.484 136.714 141.220  1.00  0.00     0.027 C 
BRANCH   3   4
ATOM      4  C   UNL     1     143.737 135.305 141.687  1.00  0.00    -0.031 C 
ATOM      5  C   UNL     1     144.967 134.886 142.026  1.00  0.00    -0.028 C 
BRANCH   5   6
ATOM      6  C   UNL     1     145.253 133.471 142.475  1.00  0.00     0.005 C 
ATOM      7  C   UNL     1     143.992 132.602 142.412  1.00  0.00     0.012 C 
ATOM      8  C   UNL     1     145.877 133.445 143.874  1.00  0.00     0.012 C 
ENDBRANCH   5   6
ENDBRANCH   3   4
ENDBRANCH   2   3
ENDBRANCH   1   2
BRANCH   1   9
ATOM      9  C   UNL     1     140.719 137.058 141.579  1.00  0.00     0.100 C 
BRANCH   9  10
ATOM     10  C   UNL     1     139.729 136.006 141.982  1.00  0.00     0.220 C 
ATOM     11  O   UNL     1     140.144 134.866 142.325  1.00  0.00    -0.275 OA
ATOM     12  N   UNL     1     138.321 136.282 141.942  1.00  0.00    -0.352 N 
ATOM     13  H   UNL     1     137.995 137.222 141.622  1.00  0.00     0.163 HD
BRANCH  12  14
ATOM     14  C   UNL     1     137.316 135.288 142.311  1.00  0.00     0.151 C 
BRANCH  14  15
ATOM     15  C   UNL     1     136.104 135.420 141.429  1.00  0.00    -0.025 A 
ATOM     16  C   UNL     1     134.867 134.914 141.859  1.00  0.00     0.056 A 
ATOM     17  C   UNL     1     136.203 136.019 140.166  1.00  0.00     0.009 A 
ATOM     18  C   UNL     1     133.729 135.010 141.033  1.00  0.00     0.160 A 
ATOM     19  C   UNL     1     135.079 136.117 139.343  1.00  0.00     0.050 A 
ATOM     20  C   UNL     1     133.844 135.615 139.773  1.00  0.00     0.157 A 
BRANCH  18  21
ATOM     21  O   UNL     1     132.475 134.518 141.427  1.00  0.00    -0.493 OA
ATOM     22  C   UNL     1     131.917 134.683 142.727  1.00  0.00     0.278 C 
ENDBRANCH  18  21
BRANCH  20  23
ATOM     23  O   UNL     1     132.722 135.713 138.952  1.00  0.00    -0.504 OA
ATOM     24  H   UNL     1     132.464 134.968 138.315  1.00  0.00     0.293 HD
ENDBRANCH  20  23
ENDBRANCH  14  15
ENDBRANCH  12  14
ENDBRANCH   9  10
ENDBRANCH   1   9
TORSDOF 10
ENDMDL
MODEL 6
REMARK VINA RESULT:    -6.502      3.805      5.854
REMARK INTER + INTRA:         -10.647
REMARK INTER:                  -9.741
REMARK INTRA:                  -0.906
REMARK UNBOUND:                -0.533
REMARK SMILES COc1cc(CNC(=O)CCCCC=CC(C)C)ccc1O
REMARK SMILES IDX 11 1 12 2 13 3 14 4 15 5 16 6 17 7 18 8 10 9 8 10 9 11 7 12
REMARK SMILES IDX 6 14 5 15 4 16 19 17 3 18 20 19 21 20 2 21 1 22 22 23
REMARK H PARENT 7 13 22 24
REMARK Flexibility Score: inf
ROOT
ATOM      1  C   UNL     1     140.401 135.026 142.417  1.00  0.00     0.010 C 
ENDROOT
BRANCH   1   2
ATOM      2  C   UNL     1     140.936 135.991 141.339  1.00  0.00     0.005 C 
BRANCH   2   3
ATOM      3  C   UNL     1     142.470 136.004 141.204  1.00  0.00     0.027 C 
BRANCH   3   4
ATOM      4  C   UNL     1     143.114 134.786 141.808  1.00  0.00    -0.031 C 
ATOM      5  C   UNL     1     144.450 134.652 141.868  1.00  0.00    -0.028 C 
BRANCH   5   6
ATOM      6  C   UNL     1     145.123 133.429 142.448  1.00  0.00     0.005 C 
ATOM      7  C   UNL     1     144.150 132.248 142.537  1.00  0.00     0.012 C 
ATOM      8  C   UNL     1     145.755 133.733 143.811  1.00  0.00     0.012 C 
ENDBRANCH   5   6
ENDBRANCH   3   4
ENDBRANCH   2   3
ENDBRANCH   1   2
BRANCH   1   9
ATOM      9  C   UNL     1     138.868 134.965 142.503  1.00  0.00     0.100 C 
BRANCH   9  10
ATOM     10  C   UNL     1     138.267 136.322 142.721  1.00  0.00     0.220 C 
ATOM     11  O   UNL     1     138.427 136.899 143.830  1.00  0.00    -0.275 OA
ATOM     12  N   UNL     1     137.486 136.943 141.689  1.00  0.00    -0.352 N 
ATOM     13  H   UNL     1     137.335 136.435 140.788  1.00  0.00     0.163 HD
BRANCH  12  14
ATOM     14  C   UNL     1     136.869 138.256 141.855  1.00  0.00     0.151 C 
BRANCH  14  15
ATOM     15  C   UNL     1     137.876 139.343 141.588  1.00  0.00    -0.025 A 
ATOM     16  C   UNL     1     137.708 140.611 142.167  1.00  0.00     0.056 A 
ATOM     17  C   UNL     1     138.968 139.110 140.741  1.00  0.00     0.009 A 
ATOM     18  C   UNL     1     138.631 141.644 141.907  1.00  0.00     0.160 A 
ATOM     19  C   UNL     1     139.886 140.129 140.480  1.00  0.00     0.050 A 
ATOM     20  C   UNL     1     139.721 141.394 141.060  1.00  0.00     0.157 A 
BRANCH  18  21
ATOM     21  O   UNL     1     138.499 142.924 142.468  1.00  0.00    -0.493 OA
ATOM     22  C   UNL     1     137.688 143.229 143.598  1.00  0.00     0.278 C 
ENDBRANCH  18  21
BRANCH  20  23
ATOM     23  O   UNL     1     140.637 142.411 140.799  1.00  0.00    -0.504 OA
ATOM     24  H   UNL     1     141.635 142.267 140.909  1.00  0.00     0.293 HD
ENDBRANCH  20  23
ENDBRANCH  14  15
ENDBRANCH  12  14
ENDBRANCH   9  10
ENDBRANCH   1   9
TORSDOF 10
ENDMDL
MODEL 7
REMARK VINA RESULT:    -6.429      6.043      7.057
REMARK INTER + INTRA:         -10.534
REMARK INTER:                  -9.844
REMARK INTRA:                  -0.690
REMARK UNBOUND:                -0.533
REMARK SMILES COc1cc(CNC(=O)CCCCC=CC(C)C)ccc1O
REMARK SMILES IDX 11 1 12 2 13 3 14 4 15 5 16 6 17 7 18 8 10 9 8 10 9 11 7 12
REMARK SMILES IDX 6 14 5 15 4 16 19 17 3 18 20 19 21 20 2 21 1 22 22 23
REMARK H PARENT 7 13 22 24
REMARK Flexibility Score: inf
ROOT
ATOM      1  C   UNL     1     144.152 139.477 142.210  1.00  0.00     0.010 C 
ENDROOT
BRANCH   1   2
ATOM      2  C   UNL     1     145.021 138.307 141.705  1.00  0.00     0.005 C 
BRANCH   2   3
ATOM      3  C   UNL     1     144.220 137.112 141.157  1.00  0.00     0.027 C 
BRANCH   3   4
ATOM      4  C   UNL     1     144.901 135.794 141.411  1.00  0.00    -0.031 C 
ATOM      5  C   UNL     1     144.322 134.832 142.149  1.00  0.00    -0.028 C 
BRANCH   5   6
ATOM      6  C   UNL     1     144.994 133.510 142.438  1.00  0.00     0.005 C 
ATOM      7  C   UNL     1     143.965 132.379 142.564  1.00  0.00     0.012 C 
ATOM      8  C   UNL     1     145.881 133.595 143.685  1.00  0.00     0.012 C 
ENDBRANCH   5   6
ENDBRANCH   3   4
ENDBRANCH   2   3
ENDBRANCH   1   2
BRANCH   1   9
ATOM      9  C   UNL     1     144.184 140.722 141.310  1.00  0.00     0.100 C 
BRANCH   9  10
ATOM     10  C   UNL     1     142.846 140.997 140.690  1.00  0.00     0.220 C 
ATOM     11  O   UNL     1     142.597 142.148 140.241  1.00  0.00    -0.275 OA
ATOM     12  N   UNL     1     141.845 139.969 140.640  1.00  0.00    -0.352 N 
ATOM     13  H   UNL     1     142.058 139.030 141.048  1.00  0.00     0.163 HD
BRANCH  12  14
ATOM     14  C   UNL     1     140.523 140.189 140.059  1.00  0.00     0.151 C 
BRANCH  14  15
ATOM     15  C   UNL     1     139.606 140.820 141.072  1.00  0.00    -0.025 A 
ATOM     16  C   UNL     1     139.097 142.109 140.850  1.00  0.00     0.056 A 
ATOM     17  C   UNL     1     139.278 140.143 142.255  1.00  0.00     0.009 A 
ATOM     18  C   UNL     1     138.255 142.720 141.802  1.00  0.00     0.160 A 
ATOM     19  C   UNL     1     138.445 140.743 143.201  1.00  0.00     0.050 A 
ATOM     20  C   UNL     1     137.933 142.028 142.978  1.00  0.00     0.157 A 
BRANCH  18  21
ATOM     21  O   UNL     1     137.724 144.005 141.615  1.00  0.00    -0.493 OA
ATOM     22  C   UNL     1     136.519 144.285 140.909  1.00  0.00     0.278 C 
ENDBRANCH  18  21
BRANCH  20  23
ATOM     23  O   UNL     1     137.102 142.626 143.923  1.00  0.00    -0.504 OA
ATOM     24  H   UNL     1     136.123 142.806 143.731  1.00  0.00     0.293 HD
ENDBRANCH  20  23
ENDBRANCH  14  15
ENDBRANCH  12  14
ENDBRANCH   9  10
ENDBRANCH   1   9
TORSDOF 10
ENDMDL
MODEL 8
REMARK VINA RESULT:    -6.288      1.941      2.735
REMARK INTER + INTRA:         -10.313
REMARK INTER:                  -9.703
REMARK INTRA:                  -0.610
REMARK UNBOUND:                -0.533
REMARK SMILES COc1cc(CNC(=O)CCCCC=CC(C)C)ccc1O
REMARK SMILES IDX 11 1 12 2 13 3 14 4 15 5 16 6 17 7 18 8 10 9 8 10 9 11 7 12
REMARK SMILES IDX 6 14 5 15 4 16 19 17 3 18 20 19 21 20 2 21 1 22 22 23
REMARK H PARENT 7 13 22 24
REMARK Flexibility Score: inf
ROOT
ATOM      1  C   UNL     1     138.252 135.122 142.396  1.00  0.00     0.010 C 
ENDROOT
BRANCH   1   2
ATOM      2  C   UNL     1     139.643 135.775 142.527  1.00  0.00     0.005 C 
BRANCH   2   3
ATOM      3  C   UNL     1     140.144 136.462 141.244  1.00  0.00     0.027 C 
BRANCH   3   4
ATOM      4  C   UNL     1     141.621 136.749 141.280  1.00  0.00    -0.031 C 
ATOM      5  C   UNL     1     142.527 135.766 141.417  1.00  0.00    -0.028 C 
BRANCH   5   6
ATOM      6  C   UNL     1     144.014 136.028 141.480  1.00  0.00     0.005 C 
ATOM      7  C   UNL     1     144.559 136.470 140.116  1.00  0.00     0.012 C 
ATOM      8  C   UNL     1     144.774 134.810 142.016  1.00  0.00     0.012 C 
ENDBRANCH   5   6
ENDBRANCH   3   4
ENDBRANCH   2   3
ENDBRANCH   1   2
BRANCH   1   9
ATOM      9  C   UNL     1     137.087 136.123 142.357  1.00  0.00     0.100 C 
BRANCH   9  10
ATOM     10  C   UNL     1     136.099 135.787 141.279  1.00  0.00     0.220 C 
ATOM     11  O   UNL     1     136.242 136.287 140.131  1.00  0.00    -0.275 OA
ATOM     12  N   UNL     1     134.980 134.933 141.562  1.00  0.00    -0.352 N 
ATOM     13  H   UNL     1     134.859 134.554 142.529  1.00  0.00     0.163 HD
BRANCH  12  14
ATOM     14  C   UNL     1     133.984 134.585 140.551  1.00  0.00     0.151 C 
BRANCH  14  15
ATOM     15  C   UNL     1     132.690 135.303 140.827  1.00  0.00    -0.025 A 
ATOM     16  C   UNL     1     132.478 135.912 142.073  1.00  0.00     0.056 A 
ATOM     17  C   UNL     1     131.678 135.345 139.857  1.00  0.00     0.009 A 
ATOM     18  C   UNL     1     131.262 136.568 142.352  1.00  0.00     0.160 A 
ATOM     19  C   UNL     1     130.471 135.993 140.128  1.00  0.00     0.050 A 
ATOM     20  C   UNL     1     130.261 136.604 141.370  1.00  0.00     0.157 A 
BRANCH  18  21
ATOM     21  O   UNL     1     131.013 137.191 143.585  1.00  0.00    -0.493 OA
ATOM     22  C   UNL     1     131.319 136.620 144.853  1.00  0.00     0.278 C 
ENDBRANCH  18  21
BRANCH  20  23
ATOM     23  O   UNL     1     129.056 137.251 141.639  1.00  0.00    -0.504 OA
ATOM     24  H   UNL     1     128.378 137.436 140.909  1.00  0.00     0.293 HD
ENDBRANCH  20  23
ENDBRANCH  14  15
ENDBRANCH  12  14
ENDBRANCH   9  10
ENDBRANCH   1   9
TORSDOF 10
ENDMDL
MODEL 9
REMARK VINA RESULT:    -6.264      6.244      6.709
REMARK INTER + INTRA:         -10.277
REMARK INTER:                  -9.612
REMARK INTRA:                  -0.665
REMARK UNBOUND:                -0.533
REMARK SMILES COc1cc(CNC(=O)CCCCC=CC(C)C)ccc1O
REMARK SMILES IDX 11 1 12 2 13 3 14 4 15 5 16 6 17 7 18 8 10 9 8 10 9 11 7 12
REMARK SMILES IDX 6 14 5 15 4 16 19 17 3 18 20 19 21 20 2 21 1 22 22 23
REMARK H PARENT 7 13 22 24
REMARK Flexibility Score: inf
ROOT
ATOM      1  C   UNL     1     141.656 136.954 141.571  1.00  0.00     0.010 C 
ENDROOT
BRANCH   1   2
ATOM      2  C   UNL     1     142.681 136.003 140.920  1.00  0.00     0.005 C 
BRANCH   2   3
ATOM      3  C   UNL     1     144.140 136.487 141.006  1.00  0.00     0.027 C 
BRANCH   3   4
ATOM      4  C   UNL     1     145.059 135.449 141.591  1.00  0.00    -0.031 C 
ATOM      5  C   UNL     1     144.587 134.399 142.285  1.00  0.00    -0.028 C 
BRANCH   5   6
ATOM      6  C   UNL     1     145.490 133.356 142.902  1.00  0.00     0.005 C 
ATOM      7  C   UNL     1     144.743 132.034 143.121  1.00  0.00     0.012 C 
ATOM      8  C   UNL     1     146.119 133.861 144.205  1.00  0.00     0.012 C 
ENDBRANCH   5   6
ENDBRANCH   3   4
ENDBRANCH   2   3
ENDBRANCH   1   2
BRANCH   1   9
ATOM      9  C   UNL     1     141.987 138.446 141.406  1.00  0.00     0.100 C 
BRANCH   9  10
ATOM     10  C   UNL     1     140.936 139.168 140.615  1.00  0.00     0.220 C 
ATOM     11  O   UNL     1     140.322 138.555 139.700  1.00  0.00    -0.275 OA
ATOM     12  N   UNL     1     140.658 140.552 140.873  1.00  0.00    -0.352 N 
ATOM     13  H   UNL     1     141.201 141.053 141.612  1.00  0.00     0.163 HD
BRANCH  12  14
ATOM     14  C   UNL     1     139.654 141.303 140.123  1.00  0.00     0.151 C 
BRANCH  14  15
ATOM     15  C   UNL     1     138.695 141.977 141.066  1.00  0.00    -0.025 A 
ATOM     16  C   UNL     1     137.741 142.878 140.569  1.00  0.00     0.056 A 
ATOM     17  C   UNL     1     138.763 141.735 142.446  1.00  0.00     0.009 A 
ATOM     18  C   UNL     1     136.851 143.534 141.445  1.00  0.00     0.160 A 
ATOM     19  C   UNL     1     137.885 142.381 143.317  1.00  0.00     0.050 A 
ATOM     20  C   UNL     1     136.930 143.279 142.821  1.00  0.00     0.157 A 
BRANCH  18  21
ATOM     21  O   UNL     1     135.882 144.440 140.986  1.00  0.00    -0.493 OA
ATOM     22  C   UNL     1     135.192 144.324 139.746  1.00  0.00     0.278 C 
ENDBRANCH  18  21
BRANCH  20  23
ATOM     23  O   UNL     1     136.053 143.923 143.692  1.00  0.00    -0.504 OA
ATOM     24  H   UNL     1     136.383 144.596 144.375  1.00  0.00     0.293 HD
ENDBRANCH  20  23
ENDBRANCH  14  15
ENDBRANCH  12  14
ENDBRANCH   9  10
ENDBRANCH   1   9
TORSDOF 10
ENDMDL
