MODEL 1
REMARK VINA RESULT:    -6.513      0.000      0.000
REMARK INTER + INTRA:         -11.059
REMARK INTER:                  -9.940
REMARK INTRA:                  -1.118
REMARK UNBOUND:                -1.118
REMARK SMILES C[C@@H]1O[C@H](Oc2cc(O)c3c(=O)c(O[C@H]4O[C@H](C)[C@H](O)[C@H](O)[C@H]4O)c(-c4ccc(O)cc4)oc3c2)[C@H](O)[C@@H](O)[C@@H]1O
REMARK SMILES IDX 6 1 7 2 8 3 10 4 34 5 35 6 33 7 25 8 13 9 11 10 12 11 5 12
REMARK SMILES IDX 4 13 1 14 2 15 40 16 3 17 38 18 36 19 41 20 39 22 37 24 9 26
REMARK SMILES IDX 26 28 27 29 32 30 28 31 31 32 29 33 30 34 14 36 15 37 23 38
REMARK SMILES IDX 16 39 21 40 17 41 19 42 18 43 24 44 22 46 20 48
REMARK H PARENT 41 21 39 23 37 25 9 27 30 35 24 45 22 47 20 49
REMARK Flexibility Score: inf
ROOT
ATOM      1  C   UNL     1     -10.274  36.457   7.101  1.00  0.00     0.130 A 
ATOM      2  C   UNL     1      -9.171  36.427   6.232  1.00  0.00     0.093 A 
ATOM      3  C   UNL     1      -8.625  35.218   5.784  1.00  0.00     0.134 A 
ATOM      4  C   UNL     1      -9.194  33.983   6.231  1.00  0.00     0.111 A 
ATOM      5  C   UNL     1     -10.286  34.031   7.137  1.00  0.00     0.146 A 
ATOM      6  C   UNL     1     -10.819  35.256   7.544  1.00  0.00     0.094 A 
ATOM      7  O   UNL     1     -10.818  32.918   7.628  1.00  0.00    -0.452 OA
ATOM      8  C   UNL     1     -10.408  31.702   7.293  1.00  0.00     0.180 A 
ATOM      9  C   UNL     1      -9.396  31.548   6.327  1.00  0.00     0.214 A 
ATOM     10  C   UNL     1      -8.768  32.691   5.816  1.00  0.00     0.239 A 
ATOM     11  O   UNL     1      -7.848  32.530   4.967  1.00  0.00    -0.285 OA
ENDROOT
BRANCH   1  12
ATOM     12  O   UNL     1     -10.880  37.647   7.528  1.00  0.00    -0.462 OA
BRANCH  12  13
ATOM     13  C   UNL     1     -12.220  38.078   7.263  1.00  0.00     0.339 C 
ATOM     14  C   UNL     1     -11.615  37.648  10.269  1.00  0.00     0.042 C 
ATOM     15  C   UNL     1     -12.857  38.216   9.558  1.00  0.00     0.151 C 
ATOM     16  C   UNL     1     -12.916  39.756   9.515  1.00  0.00     0.174 C 
ATOM     17  O   UNL     1     -13.093  37.618   8.284  1.00  0.00    -0.335 OA
ATOM     18  C   UNL     1     -11.999  40.319   8.418  1.00  0.00     0.180 C 
ATOM     19  C   UNL     1     -12.301  39.613   7.094  1.00  0.00     0.214 C 
BRANCH  16  20
ATOM     20  O   UNL     1     -12.559  40.287  10.767  1.00  0.00    -0.388 OA
ATOM     21  H   UNL     1     -12.436  39.525  11.389  1.00  0.00     0.211 HD
ENDBRANCH  16  20
BRANCH  18  22
ATOM     22  O   UNL     1     -12.240  41.692   8.273  1.00  0.00    -0.387 OA
ATOM     23  H   UNL     1     -12.941  41.807   7.582  1.00  0.00     0.211 HD
ENDBRANCH  18  22
BRANCH  19  24
ATOM     24  O   UNL     1     -11.391  40.053   6.120  1.00  0.00    -0.384 OA
ATOM     25  H   UNL     1     -10.627  39.420   6.123  1.00  0.00     0.211 HD
ENDBRANCH  19  24
ENDBRANCH  12  13
ENDBRANCH   1  12
BRANCH   3  26
ATOM     26  O   UNL     1      -7.522  35.319   4.921  1.00  0.00    -0.507 OA
ATOM     27  H   UNL     1      -7.258  34.647   4.227  1.00  0.00     0.293 HD
ENDBRANCH   3  26
BRANCH   8  28
ATOM     28  C   UNL     1     -11.045  30.548   7.963  1.00  0.00     0.021 A 
ATOM     29  C   UNL     1     -11.466  30.627   9.297  1.00  0.00     0.016 A 
ATOM     30  C   UNL     1     -11.256  29.362   7.244  1.00  0.00     0.016 A 
ATOM     31  C   UNL     1     -12.021  29.508   9.931  1.00  0.00     0.047 A 
ATOM     32  C   UNL     1     -11.813  28.239   7.876  1.00  0.00     0.047 A 
ATOM     33  C   UNL     1     -12.178  28.309   9.226  1.00  0.00     0.115 A 
BRANCH  33  34
ATOM     34  O   UNL     1     -12.705  27.177   9.846  1.00  0.00    -0.508 OA
ATOM     35  H   UNL     1     -13.656  27.157  10.223  1.00  0.00     0.293 HD
ENDBRANCH  33  34
ENDBRANCH   8  28
BRANCH   9  36
ATOM     36  O   UNL     1      -9.014  30.285   5.850  1.00  0.00    -0.454 OA
BRANCH  36  37
ATOM     37  C   UNL     1      -7.671  29.800   5.942  1.00  0.00     0.339 C 
ATOM     38  C   UNL     1      -7.147  29.205   4.594  1.00  0.00     0.214 C 
ATOM     39  O   UNL     1      -7.540  28.914   7.039  1.00  0.00    -0.335 OA
ATOM     40  C   UNL     1      -7.420  27.682   4.399  1.00  0.00     0.180 C 
ATOM     41  C   UNL     1      -8.167  27.676   6.764  1.00  0.00     0.151 C 
ATOM     42  C   UNL     1      -7.322  26.918   5.727  1.00  0.00     0.174 C 
ATOM     43  C   UNL     1      -8.314  26.875   8.064  1.00  0.00     0.042 C 
BRANCH  38  44
ATOM     44  O   UNL     1      -7.636  29.939   3.486  1.00  0.00    -0.384 OA
ATOM     45  H   UNL     1      -8.584  29.653   3.344  1.00  0.00     0.211 HD
ENDBRANCH  38  44
BRANCH  40  46
ATOM     46  O   UNL     1      -6.536  27.132   3.437  1.00  0.00    -0.387 OA
ATOM     47  H   UNL     1      -6.178  27.888   2.893  1.00  0.00     0.211 HD
ENDBRANCH  40  46
BRANCH  42  48
ATOM     48  O   UNL     1      -5.977  26.875   6.163  1.00  0.00    -0.388 OA
ATOM     49  H   UNL     1      -5.942  27.345   7.038  1.00  0.00     0.211 HD
ENDBRANCH  42  48
ENDBRANCH  36  37
ENDBRANCH   9  36
TORSDOF 13
ENDMDL
MODEL 2
REMARK VINA RESULT:    -4.318      5.748     11.905
REMARK INTER + INTRA:          -7.708
REMARK INTER:                  -7.570
REMARK INTRA:                  -0.137
REMARK UNBOUND:                -1.118
REMARK SMILES C[C@@H]1O[C@H](Oc2cc(O)c3c(=O)c(O[C@H]4O[C@H](C)[C@H](O)[C@H](O)[C@H]4O)c(-c4ccc(O)cc4)oc3c2)[C@H](O)[C@@H](O)[C@@H]1O
REMARK SMILES IDX 6 1 7 2 8 3 10 4 34 5 35 6 33 7 25 8 13 9 11 10 12 11 5 12
REMARK SMILES IDX 4 13 1 14 2 15 40 16 3 17 38 18 36 19 41 20 39 22 37 24 9 26
REMARK SMILES IDX 26 28 27 29 32 30 28 31 31 32 29 33 30 34 14 36 15 37 23 38
REMARK SMILES IDX 16 39 21 40 17 41 19 42 18 43 24 44 22 46 20 48
REMARK H PARENT 41 21 39 23 37 25 9 27 30 35 24 45 22 47 20 49
REMARK Flexibility Score: inf
ROOT
ATOM      1  C   UNL     1      -2.307  28.630   0.897  1.00  0.00     0.130 A 
ATOM      2  C   UNL     1      -3.574  28.860   0.333  1.00  0.00     0.093 A 
ATOM      3  C   UNL     1      -4.725  28.933   1.127  1.00  0.00     0.134 A 
ATOM      4  C   UNL     1      -4.614  28.755   2.543  1.00  0.00     0.111 A 
ATOM      5  C   UNL     1      -3.332  28.487   3.091  1.00  0.00     0.146 A 
ATOM      6  C   UNL     1      -2.202  28.444   2.271  1.00  0.00     0.094 A 
ATOM      7  O   UNL     1      -3.177  28.259   4.390  1.00  0.00    -0.452 OA
ATOM      8  C   UNL     1      -4.175  28.296   5.263  1.00  0.00     0.180 A 
ATOM      9  C   UNL     1      -5.467  28.649   4.832  1.00  0.00     0.214 A 
ATOM     10  C   UNL     1      -5.693  28.851   3.464  1.00  0.00     0.239 A 
ATOM     11  O   UNL     1      -6.863  29.146   3.096  1.00  0.00    -0.285 OA
ENDROOT
BRANCH   1  12
ATOM     12  O   UNL     1      -1.127  28.603   0.141  1.00  0.00    -0.462 OA
BRANCH  12  13
ATOM     13  C   UNL     1       0.185  28.254   0.598  1.00  0.00     0.339 C 
ATOM     14  C   UNL     1      -0.623  26.875  -2.053  1.00  0.00     0.042 C 
ATOM     15  C   UNL     1       0.710  26.886  -1.285  1.00  0.00     0.151 C 
ATOM     16  C   UNL     1       1.742  27.902  -1.815  1.00  0.00     0.174 C 
ATOM     17  O   UNL     1       0.538  26.961   0.130  1.00  0.00    -0.335 OA
ATOM     18  C   UNL     1       1.422  29.326  -1.332  1.00  0.00     0.180 C 
ATOM     19  C   UNL     1       1.232  29.314   0.187  1.00  0.00     0.214 C 
BRANCH  16  20
ATOM     20  O   UNL     1       1.778  27.863  -3.220  1.00  0.00    -0.388 OA
ATOM     21  H   UNL     1       2.261  28.672  -3.527  1.00  0.00     0.211 HD
ENDBRANCH  16  20
BRANCH  18  22
ATOM     22  O   UNL     1       2.488  30.176  -1.655  1.00  0.00    -0.387 OA
ATOM     23  H   UNL     1       3.311  29.800  -1.251  1.00  0.00     0.211 HD
ENDBRANCH  18  22
BRANCH  19  24
ATOM     24  O   UNL     1       0.836  30.592   0.611  1.00  0.00    -0.384 OA
ATOM     25  H   UNL     1       0.461  31.062  -0.177  1.00  0.00     0.211 HD
ENDBRANCH  19  24
ENDBRANCH  12  13
ENDBRANCH   1  12
BRANCH   3  26
ATOM     26  O   UNL     1      -5.931  29.164   0.447  1.00  0.00    -0.507 OA
ATOM     27  H   UNL     1      -6.251  28.671  -0.364  1.00  0.00     0.293 HD
ENDBRANCH   3  26
BRANCH   8  28
ATOM     28  C   UNL     1      -3.875  27.959   6.671  1.00  0.00     0.021 A 
ATOM     29  C   UNL     1      -4.733  27.143   7.419  1.00  0.00     0.016 A 
ATOM     30  C   UNL     1      -2.697  28.442   7.261  1.00  0.00     0.016 A 
ATOM     31  C   UNL     1      -4.459  26.875   8.767  1.00  0.00     0.047 A 
ATOM     32  C   UNL     1      -2.419  28.175   8.611  1.00  0.00     0.047 A 
ATOM     33  C   UNL     1      -3.312  27.405   9.367  1.00  0.00     0.115 A 
BRANCH  33  34
ATOM     34  O   UNL     1      -3.034  27.172  10.713  1.00  0.00    -0.508 OA
ATOM     35  H   UNL     1      -3.611  26.550  11.287  1.00  0.00     0.293 HD
ENDBRANCH  33  34
ENDBRANCH   8  28
BRANCH   9  36
ATOM     36  O   UNL     1      -6.527  28.823   5.734  1.00  0.00    -0.454 OA
BRANCH  36  37
ATOM     37  C   UNL     1      -7.859  29.127   5.310  1.00  0.00     0.339 C 
ATOM     38  C   UNL     1      -8.297  30.583   5.677  1.00  0.00     0.214 C 
ATOM     39  O   UNL     1      -8.761  28.135   5.767  1.00  0.00    -0.335 OA
ATOM     40  C   UNL     1      -8.973  30.732   7.074  1.00  0.00     0.180 C 
ATOM     41  C   UNL     1      -8.977  28.254   7.160  1.00  0.00     0.151 C 
ATOM     42  C   UNL     1      -9.830  29.507   7.418  1.00  0.00     0.174 C 
ATOM     43  C   UNL     1      -9.665  26.986   7.683  1.00  0.00     0.042 C 
BRANCH  38  44
ATOM     44  O   UNL     1      -7.214  31.488   5.554  1.00  0.00    -0.384 OA
ATOM     45  H   UNL     1      -7.594  32.352   5.221  1.00  0.00     0.211 HD
ENDBRANCH  38  44
BRANCH  40  46
ATOM     46  O   UNL     1      -9.746  31.919   7.133  1.00  0.00    -0.387 OA
ATOM     47  H   UNL     1      -9.112  32.689   7.138  1.00  0.00     0.211 HD
ENDBRANCH  40  46
BRANCH  42  48
ATOM     48  O   UNL     1     -10.976  29.469   6.590  1.00  0.00    -0.388 OA
ATOM     49  H   UNL     1     -10.714  29.863   5.716  1.00  0.00     0.211 HD
ENDBRANCH  42  48
ENDBRANCH  36  37
ENDBRANCH   9  36
TORSDOF 13
ENDMDL
MODEL 3
REMARK VINA RESULT:    -4.011      1.997      3.439
REMARK INTER + INTRA:          -7.240
REMARK INTER:                  -7.481
REMARK INTRA:                   0.241
REMARK UNBOUND:                -1.118
REMARK SMILES C[C@@H]1O[C@H](Oc2cc(O)c3c(=O)c(O[C@H]4O[C@H](C)[C@H](O)[C@H](O)[C@H]4O)c(-c4ccc(O)cc4)oc3c2)[C@H](O)[C@@H](O)[C@@H]1O
REMARK SMILES IDX 6 1 7 2 8 3 10 4 34 5 35 6 33 7 25 8 13 9 11 10 12 11 5 12
REMARK SMILES IDX 4 13 1 14 2 15 40 16 3 17 38 18 36 19 41 20 39 22 37 24 9 26
REMARK SMILES IDX 26 28 27 29 32 30 28 31 31 32 29 33 30 34 14 36 15 37 23 38
REMARK SMILES IDX 16 39 21 40 17 41 19 42 18 43 24 44 22 46 20 48
REMARK H PARENT 41 21 39 23 37 25 9 27 30 35 24 45 22 47 20 49
REMARK Flexibility Score: inf
ROOT
ATOM      1  C   UNL     1      -9.825  34.362   6.885  1.00  0.00     0.130 A 
ATOM      2  C   UNL     1      -8.856  33.920   5.969  1.00  0.00     0.093 A 
ATOM      3  C   UNL     1      -8.529  32.563   5.850  1.00  0.00     0.134 A 
ATOM      4  C   UNL     1      -9.185  31.606   6.688  1.00  0.00     0.111 A 
ATOM      5  C   UNL     1     -10.135  32.075   7.632  1.00  0.00     0.146 A 
ATOM      6  C   UNL     1     -10.453  33.433   7.708  1.00  0.00     0.094 A 
ATOM      7  O   UNL     1     -10.734  31.240   8.473  1.00  0.00    -0.452 OA
ATOM      8  C   UNL     1     -10.526  29.930   8.475  1.00  0.00     0.180 A 
ATOM      9  C   UNL     1      -9.675  29.357   7.511  1.00  0.00     0.214 A 
ATOM     10  C   UNL     1      -8.981  30.200   6.634  1.00  0.00     0.239 A 
ATOM     11  O   UNL     1      -8.207  29.667   5.792  1.00  0.00    -0.285 OA
ENDROOT
BRANCH   1  12
ATOM     12  O   UNL     1     -10.216  35.704   6.996  1.00  0.00    -0.462 OA
BRANCH  12  13
ATOM     13  C   UNL     1      -9.697  36.683   7.904  1.00  0.00     0.339 C 
ATOM     14  C   UNL     1     -10.211  37.770   5.051  1.00  0.00     0.042 C 
ATOM     15  C   UNL     1      -9.786  38.487   6.345  1.00  0.00     0.151 C 
ATOM     16  C   UNL     1     -10.943  39.168   7.103  1.00  0.00     0.174 C 
ATOM     17  O   UNL     1      -8.973  37.676   7.191  1.00  0.00    -0.335 OA
ATOM     18  C   UNL     1     -11.762  38.146   7.908  1.00  0.00     0.180 C 
ATOM     19  C   UNL     1     -10.816  37.307   8.770  1.00  0.00     0.214 C 
BRANCH  16  20
ATOM     20  O   UNL     1     -11.774  39.853   6.199  1.00  0.00    -0.388 OA
ATOM     21  H   UNL     1     -12.620  40.060   6.672  1.00  0.00     0.211 HD
ENDBRANCH  16  20
BRANCH  18  22
ATOM     22  O   UNL     1     -12.661  38.825   8.740  1.00  0.00    -0.387 OA
ATOM     23  H   UNL     1     -12.662  39.780   8.474  1.00  0.00     0.211 HD
ENDBRANCH  18  22
BRANCH  19  24
ATOM     24  O   UNL     1     -11.554  36.306   9.421  1.00  0.00    -0.384 OA
ATOM     25  H   UNL     1     -11.326  36.351  10.385  1.00  0.00     0.211 HD
ENDBRANCH  19  24
ENDBRANCH  12  13
ENDBRANCH   1  12
BRANCH   3  26
ATOM     26  O   UNL     1      -7.543  32.246   4.901  1.00  0.00    -0.507 OA
ATOM     27  H   UNL     1      -6.557  32.387   5.011  1.00  0.00     0.293 HD
ENDBRANCH   3  26
BRANCH   8  28
ATOM     28  C   UNL     1     -11.210  29.122   9.507  1.00  0.00     0.021 A 
ATOM     29  C   UNL     1     -12.512  29.430   9.923  1.00  0.00     0.016 A 
ATOM     30  C   UNL     1     -10.555  28.013  10.062  1.00  0.00     0.016 A 
ATOM     31  C   UNL     1     -13.125  28.685  10.939  1.00  0.00     0.047 A 
ATOM     32  C   UNL     1     -11.167  27.263  11.079  1.00  0.00     0.047 A 
ATOM     33  C   UNL     1     -12.446  27.613  11.529  1.00  0.00     0.115 A 
BRANCH  33  34
ATOM     34  O   UNL     1     -13.028  26.875  12.558  1.00  0.00    -0.508 OA
ATOM     35  H   UNL     1     -12.841  27.076  13.545  1.00  0.00     0.293 HD
ENDBRANCH  33  34
ENDBRANCH   8  28
BRANCH   9  36
ATOM     36  O   UNL     1      -9.519  27.968   7.394  1.00  0.00    -0.454 OA
BRANCH  36  37
ATOM     37  C   UNL     1     -10.341  27.169   6.537  1.00  0.00     0.339 C 
ATOM     38  C   UNL     1      -9.746  27.010   5.099  1.00  0.00     0.214 C 
ATOM     39  O   UNL     1     -11.674  27.648   6.545  1.00  0.00    -0.335 OA
ATOM     40  C   UNL     1     -10.183  28.109   4.083  1.00  0.00     0.180 C 
ATOM     41  C   UNL     1     -11.778  28.862   5.826  1.00  0.00     0.151 C 
ATOM     42  C   UNL     1     -11.630  28.556   4.326  1.00  0.00     0.174 C 
ATOM     43  C   UNL     1     -13.125  29.528   6.135  1.00  0.00     0.042 C 
BRANCH  38  44
ATOM     44  O   UNL     1      -8.334  26.909   5.140  1.00  0.00    -0.384 OA
ATOM     45  H   UNL     1      -8.061  26.340   4.365  1.00  0.00     0.211 HD
ENDBRANCH  38  44
BRANCH  40  46
ATOM     46  O   UNL     1     -10.014  27.655   2.750  1.00  0.00    -0.387 OA
ATOM     47  H   UNL     1      -9.739  28.441   2.200  1.00  0.00     0.211 HD
ENDBRANCH  40  46
BRANCH  42  48
ATOM     48  O   UNL     1     -12.524  27.520   3.971  1.00  0.00    -0.388 OA
ATOM     49  H   UNL     1     -13.329  27.623   4.546  1.00  0.00     0.211 HD
ENDBRANCH  42  48
ENDBRANCH  36  37
ENDBRANCH   9  36
TORSDOF 13
ENDMDL
