MODEL 1
REMARK VINA RESULT:    -4.430      0.000      0.000
REMARK INTER + INTRA:          -6.077
REMARK INTER:                  -5.984
REMARK INTRA:                  -0.093
REMARK UNBOUND:                -0.093
REMARK SMILES [NH3+]CCCC[C@H]([NH3+])C(=O)[O-]
REMARK SMILES IDX 4 1 3 2 2 3 1 4 5 8 6 9 7 10 8 14 9 15 10 16
REMARK H PARENT 1 5 1 6 1 7 7 11 7 12 7 13
REMARK Flexibility Score: inf
ROOT
ATOM      1  C   UNL     1      14.401 -48.763  72.342  1.00  0.00     0.012 C 
ENDROOT
BRANCH   1   2
ATOM      2  C   UNL     1      12.860 -48.754  72.360  1.00  0.00     0.061 C 
BRANCH   2   3
ATOM      3  C   UNL     1      12.247 -47.391  71.984  1.00  0.00     0.258 C 
BRANCH   3   4
ATOM      4  N   UNL     1      11.158 -47.009  72.886  1.00  0.00    -0.358 N 
ATOM      5  H   UNL     1      10.274 -46.928  72.334  1.00  0.00     0.344 HD
ATOM      6  H   UNL     1      11.024 -47.738  73.624  1.00  0.00     0.344 HD
ATOM      7  H   UNL     1      11.355 -46.084  73.330  1.00  0.00     0.344 HD
ENDBRANCH   3   4
ENDBRANCH   2   3
ENDBRANCH   1   2
BRANCH   1   8
ATOM      8  C   UNL     1      15.003 -48.077  71.093  1.00  0.00     0.072 C 
BRANCH   8   9
ATOM      9  C   UNL     1      16.546 -48.138  70.993  1.00  0.00     0.227 C 
BRANCH   9  10
ATOM     10  N   UNL     1      17.106 -49.261  71.756  1.00  0.00    -0.350 N 
ATOM     11  H   UNL     1      16.372 -49.663  72.384  1.00  0.00     0.345 HD
ATOM     12  H   UNL     1      17.415 -50.012  71.097  1.00  0.00     0.345 HD
ATOM     13  H   UNL     1      17.926 -48.960  72.332  1.00  0.00     0.345 HD
ENDBRANCH   9  10
BRANCH   9  14
ATOM     14  C   UNL     1      17.178 -46.825  71.387  1.00  0.00     0.099 C 
ATOM     15  O   UNL     1      17.889 -46.731  72.423  1.00  0.00    -0.544 OA
ATOM     16  O   UNL     1      16.939 -45.692  70.621  1.00  0.00    -0.544 OA
ENDBRANCH   9  14
ENDBRANCH   8   9
ENDBRANCH   1   8
TORSDOF 7
ENDMDL
MODEL 2
REMARK VINA RESULT:    -4.306      2.065      4.435
REMARK INTER + INTRA:          -5.909
REMARK INTER:                  -5.717
REMARK INTRA:                  -0.192
REMARK UNBOUND:                -0.093
REMARK SMILES [NH3+]CCCC[C@H]([NH3+])C(=O)[O-]
REMARK SMILES IDX 4 1 3 2 2 3 1 4 5 8 6 9 7 10 8 14 9 15 10 16
REMARK H PARENT 1 5 1 6 1 7 7 11 7 12 7 13
REMARK Flexibility Score: inf
ROOT
ATOM      1  C   UNL     1      13.486 -49.427  72.779  1.00  0.00     0.012 C 
ENDROOT
BRANCH   1   2
ATOM      2  C   UNL     1      14.949 -49.037  73.067  1.00  0.00     0.061 C 
BRANCH   2   3
ATOM      3  C   UNL     1      15.772 -48.746  71.796  1.00  0.00     0.258 C 
BRANCH   3   4
ATOM      4  N   UNL     1      17.137 -49.266  71.894  1.00  0.00    -0.358 N 
ATOM      5  H   UNL     1      17.384 -49.740  70.995  1.00  0.00     0.344 HD
ATOM      6  H   UNL     1      17.814 -48.485  72.055  1.00  0.00     0.344 HD
ATOM      7  H   UNL     1      17.210 -49.966  72.665  1.00  0.00     0.344 HD
ENDBRANCH   3   4
ENDBRANCH   2   3
ENDBRANCH   1   2
BRANCH   1   8
ATOM      8  C   UNL     1      12.802 -48.513  71.734  1.00  0.00     0.072 C 
BRANCH   8   9
ATOM      9  C   UNL     1      12.438 -47.097  72.243  1.00  0.00     0.227 C 
BRANCH   9  10
ATOM     10  N   UNL     1      11.039 -47.010  72.681  1.00  0.00    -0.350 N 
ATOM     11  H   UNL     1      10.950 -47.372  73.659  1.00  0.00     0.345 HD
ATOM     12  H   UNL     1      10.733 -46.009  72.678  1.00  0.00     0.345 HD
ATOM     13  H   UNL     1      10.407 -47.557  72.052  1.00  0.00     0.345 HD
ENDBRANCH   9  10
BRANCH   9  14
ATOM     14  C   UNL     1      12.770 -46.040  71.219  1.00  0.00     0.099 C 
ATOM     15  O   UNL     1      13.833 -46.099  70.545  1.00  0.00    -0.544 OA
ATOM     16  O   UNL     1      11.912 -44.962  71.043  1.00  0.00    -0.544 OA
ENDBRANCH   9  14
ENDBRANCH   8   9
ENDBRANCH   1   8
TORSDOF 7
ENDMDL
MODEL 3
REMARK VINA RESULT:    -4.249      3.996      5.163
REMARK INTER + INTRA:          -5.833
REMARK INTER:                  -5.605
REMARK INTRA:                  -0.228
REMARK UNBOUND:                -0.093
REMARK SMILES [NH3+]CCCC[C@H]([NH3+])C(=O)[O-]
REMARK SMILES IDX 4 1 3 2 2 3 1 4 5 8 6 9 7 10 8 14 9 15 10 16
REMARK H PARENT 1 5 1 6 1 7 7 11 7 12 7 13
REMARK Flexibility Score: inf
ROOT
ATOM      1  C   UNL     1      18.454 -46.637  70.205  1.00  0.00     0.012 C 
ENDROOT
BRANCH   1   2
ATOM      2  C   UNL     1      17.932 -46.922  71.627  1.00  0.00     0.061 C 
BRANCH   2   3
ATOM      3  C   UNL     1      16.803 -47.971  71.671  1.00  0.00     0.258 C 
BRANCH   3   4
ATOM      4  N   UNL     1      17.313 -49.319  71.933  1.00  0.00    -0.358 N 
ATOM      5  H   UNL     1      18.356 -49.279  71.999  1.00  0.00     0.344 HD
ATOM      6  H   UNL     1      16.936 -49.681  72.838  1.00  0.00     0.344 HD
ATOM      7  H   UNL     1      17.058 -49.966  71.154  1.00  0.00     0.344 HD
ENDBRANCH   3   4
ENDBRANCH   2   3
ENDBRANCH   1   2
BRANCH   1   8
ATOM      8  C   UNL     1      19.678 -47.500  69.817  1.00  0.00     0.072 C 
BRANCH   8   9
ATOM      9  C   UNL     1      19.370 -48.684  68.870  1.00  0.00     0.227 C 
BRANCH   9  10
ATOM     10  N   UNL     1      19.857 -49.962  69.406  1.00  0.00    -0.350 N 
ATOM     11  H   UNL     1      20.857 -49.865  69.700  1.00  0.00     0.345 HD
ATOM     12  H   UNL     1      19.296 -50.224  70.249  1.00  0.00     0.345 HD
ATOM     13  H   UNL     1      19.779 -50.727  68.697  1.00  0.00     0.345 HD
ENDBRANCH   9  10
BRANCH   9  14
ATOM     14  C   UNL     1      19.890 -48.428  67.476  1.00  0.00     0.099 C 
ATOM     15  O   UNL     1      20.832 -47.615  67.274  1.00  0.00    -0.544 OA
ATOM     16  O   UNL     1      19.296 -49.066  66.395  1.00  0.00    -0.544 OA
ENDBRANCH   9  14
ENDBRANCH   8   9
ENDBRANCH   1   8
TORSDOF 7
ENDMDL
MODEL 4
REMARK VINA RESULT:    -4.205      6.928      8.486
REMARK INTER + INTRA:          -5.773
REMARK INTER:                  -5.461
REMARK INTRA:                  -0.312
REMARK UNBOUND:                -0.093
REMARK SMILES [NH3+]CCCC[C@H]([NH3+])C(=O)[O-]
REMARK SMILES IDX 4 1 3 2 2 3 1 4 5 8 6 9 7 10 8 14 9 15 10 16
REMARK H PARENT 1 5 1 6 1 7 7 11 7 12 7 13
REMARK Flexibility Score: inf
ROOT
ATOM      1  C   UNL     1      21.078 -44.954  69.170  1.00  0.00     0.012 C 
ENDROOT
BRANCH   1   2
ATOM      2  C   UNL     1      22.421 -44.725  69.890  1.00  0.00     0.061 C 
BRANCH   2   3
ATOM      3  C   UNL     1      23.469 -43.997  69.025  1.00  0.00     0.258 C 
BRANCH   3   4
ATOM      4  N   UNL     1      24.091 -44.891  68.045  1.00  0.00    -0.358 N 
ATOM      5  H   UNL     1      23.817 -44.582  67.084  1.00  0.00     0.344 HD
ATOM      6  H   UNL     1      25.133 -44.849  68.123  1.00  0.00     0.344 HD
ATOM      7  H   UNL     1      23.761 -45.873  68.181  1.00  0.00     0.344 HD
ENDBRANCH   3   4
ENDBRANCH   2   3
ENDBRANCH   1   2
BRANCH   1   8
ATOM      8  C   UNL     1      20.507 -46.378  69.375  1.00  0.00     0.072 C 
BRANCH   8   9
ATOM      9  C   UNL     1      20.052 -47.092  68.080  1.00  0.00     0.227 C 
BRANCH   9  10
ATOM     10  N   UNL     1      20.143 -48.554  68.194  1.00  0.00    -0.350 N 
ATOM     11  H   UNL     1      19.537 -49.004  67.469  1.00  0.00     0.345 HD
ATOM     12  H   UNL     1      21.130 -48.857  68.024  1.00  0.00     0.345 HD
ATOM     13  H   UNL     1      19.848 -48.882  69.143  1.00  0.00     0.345 HD
ENDBRANCH   9  10
BRANCH   9  14
ATOM     14  C   UNL     1      20.799 -46.578  66.873  1.00  0.00     0.099 C 
ATOM     15  O   UNL     1      22.003 -46.890  66.674  1.00  0.00    -0.544 OA
ATOM     16  O   UNL     1      20.163 -45.716  65.989  1.00  0.00    -0.544 OA
ENDBRANCH   9  14
ENDBRANCH   8   9
ENDBRANCH   1   8
TORSDOF 7
ENDMDL
MODEL 5
REMARK VINA RESULT:    -4.107      3.107      5.292
REMARK INTER + INTRA:          -5.641
REMARK INTER:                  -5.341
REMARK INTRA:                  -0.300
REMARK UNBOUND:                -0.093
REMARK SMILES [NH3+]CCCC[C@H]([NH3+])C(=O)[O-]
REMARK SMILES IDX 4 1 3 2 2 3 1 4 5 8 6 9 7 10 8 14 9 15 10 16
REMARK H PARENT 1 5 1 6 1 7 7 11 7 12 7 13
REMARK Flexibility Score: inf
ROOT
ATOM      1  C   UNL     1      18.519 -46.645  70.179  1.00  0.00     0.012 C 
ENDROOT
BRANCH   1   2
ATOM      2  C   UNL     1      19.793 -47.456  69.871  1.00  0.00     0.061 C 
BRANCH   2   3
ATOM      3  C   UNL     1      19.576 -48.576  68.834  1.00  0.00     0.258 C 
BRANCH   3   4
ATOM      4  N   UNL     1      19.832 -49.904  69.397  1.00  0.00    -0.358 N 
ATOM      5  H   UNL     1      18.924 -50.414  69.488  1.00  0.00     0.344 HD
ATOM      6  H   UNL     1      20.460 -50.452  68.765  1.00  0.00     0.344 HD
ATOM      7  H   UNL     1      20.262 -49.825  70.345  1.00  0.00     0.344 HD
ENDBRANCH   3   4
ENDBRANCH   2   3
ENDBRANCH   1   2
BRANCH   1   8
ATOM      8  C   UNL     1      17.961 -46.896  71.600  1.00  0.00     0.072 C 
BRANCH   8   9
ATOM      9  C   UNL     1      16.775 -47.888  71.671  1.00  0.00     0.227 C 
BRANCH   9  10
ATOM     10  N   UNL     1      17.226 -49.286  71.730  1.00  0.00    -0.350 N 
ATOM     11  H   UNL     1      17.016 -49.685  72.674  1.00  0.00     0.345 HD
ATOM     12  H   UNL     1      16.708 -49.850  71.018  1.00  0.00     0.345 HD
ATOM     13  H   UNL     1      18.252 -49.363  71.542  1.00  0.00     0.345 HD
ENDBRANCH   9  10
BRANCH   9  14
ATOM     14  C   UNL     1      15.799 -47.664  70.542  1.00  0.00     0.099 C 
ATOM     15  O   UNL     1      15.006 -46.685  70.554  1.00  0.00    -0.544 OA
ATOM     16  O   UNL     1      15.744 -48.572  69.492  1.00  0.00    -0.544 OA
ENDBRANCH   9  14
ENDBRANCH   8   9
ENDBRANCH   1   8
TORSDOF 7
ENDMDL
MODEL 6
REMARK VINA RESULT:    -4.081      6.336      7.806
REMARK INTER + INTRA:          -5.605
REMARK INTER:                  -5.502
REMARK INTRA:                  -0.103
REMARK UNBOUND:                -0.093
REMARK SMILES [NH3+]CCCC[C@H]([NH3+])C(=O)[O-]
REMARK SMILES IDX 4 1 3 2 2 3 1 4 5 8 6 9 7 10 8 14 9 15 10 16
REMARK H PARENT 1 5 1 6 1 7 7 11 7 12 7 13
REMARK Flexibility Score: inf
ROOT
ATOM      1  C   UNL     1      20.613 -46.065  69.035  1.00  0.00     0.012 C 
ENDROOT
BRANCH   1   2
ATOM      2  C   UNL     1      19.858 -47.079  69.917  1.00  0.00     0.061 C 
BRANCH   2   3
ATOM      3  C   UNL     1      19.163 -48.197  69.115  1.00  0.00     0.258 C 
BRANCH   3   4
ATOM      4  N   UNL     1      19.674 -49.524  69.465  1.00  0.00    -0.358 N 
ATOM      5  H   UNL     1      19.096 -50.248  68.980  1.00  0.00     0.344 HD
ATOM      6  H   UNL     1      20.667 -49.626  69.152  1.00  0.00     0.344 HD
ATOM      7  H   UNL     1      19.606 -49.685  70.495  1.00  0.00     0.344 HD
ENDBRANCH   3   4
ENDBRANCH   2   3
ENDBRANCH   1   2
BRANCH   1   8
ATOM      8  C   UNL     1      21.641 -45.215  69.820  1.00  0.00     0.072 C 
BRANCH   8   9
ATOM      9  C   UNL     1      22.037 -43.880  69.145  1.00  0.00     0.227 C 
BRANCH   9  10
ATOM     10  N   UNL     1      21.128 -43.524  68.047  1.00  0.00    -0.350 N 
ATOM     11  H   UNL     1      21.132 -42.487  67.906  1.00  0.00     0.345 HD
ATOM     12  H   UNL     1      21.459 -43.972  67.161  1.00  0.00     0.345 HD
ATOM     13  H   UNL     1      20.151 -43.843  68.242  1.00  0.00     0.345 HD
ENDBRANCH   9  10
BRANCH   9  14
ATOM     14  C   UNL     1      23.478 -43.894  68.696  1.00  0.00     0.099 C 
ATOM     15  O   UNL     1      24.262 -42.956  69.001  1.00  0.00    -0.544 OA
ATOM     16  O   UNL     1      23.938 -44.935  67.901  1.00  0.00    -0.544 OA
ENDBRANCH   9  14
ENDBRANCH   8   9
ENDBRANCH   1   8
TORSDOF 7
ENDMDL
MODEL 7
REMARK VINA RESULT:    -4.030      1.965      2.386
REMARK INTER + INTRA:          -5.536
REMARK INTER:                  -5.023
REMARK INTRA:                  -0.513
REMARK UNBOUND:                -0.093
REMARK SMILES [NH3+]CCCC[C@H]([NH3+])C(=O)[O-]
REMARK SMILES IDX 4 1 3 2 2 3 1 4 5 8 6 9 7 10 8 14 9 15 10 16
REMARK H PARENT 1 5 1 6 1 7 7 11 7 12 7 13
REMARK Flexibility Score: inf
ROOT
ATOM      1  C   UNL     1      13.907 -47.436  69.544  1.00  0.00     0.012 C 
ENDROOT
BRANCH   1   2
ATOM      2  C   UNL     1      12.726 -48.263  70.089  1.00  0.00     0.061 C 
BRANCH   2   3
ATOM      3  C   UNL     1      12.362 -47.930  71.550  1.00  0.00     0.258 C 
BRANCH   3   4
ATOM      4  N   UNL     1      12.390 -49.116  72.408  1.00  0.00    -0.358 N 
ATOM      5  H   UNL     1      11.489 -49.174  72.935  1.00  0.00     0.344 HD
ATOM      6  H   UNL     1      12.494 -49.982  71.830  1.00  0.00     0.344 HD
ATOM      7  H   UNL     1      13.171 -49.053  73.099  1.00  0.00     0.344 HD
ENDBRANCH   3   4
ENDBRANCH   2   3
ENDBRANCH   1   2
BRANCH   1   8
ATOM      8  C   UNL     1      14.889 -46.971  70.645  1.00  0.00     0.072 C 
BRANCH   8   9
ATOM      9  C   UNL     1      16.202 -47.785  70.738  1.00  0.00     0.227 C 
BRANCH   9  10
ATOM     10  N   UNL     1      16.341 -48.737  69.628  1.00  0.00    -0.350 N 
ATOM     11  H   UNL     1      16.914 -49.558  69.935  1.00  0.00     0.345 HD
ATOM     12  H   UNL     1      15.397 -49.089  69.347  1.00  0.00     0.345 HD
ATOM     13  H   UNL     1      16.795 -48.291  68.798  1.00  0.00     0.345 HD
ENDBRANCH   9  10
BRANCH   9  14
ATOM     14  C   UNL     1      16.336 -48.466  72.078  1.00  0.00     0.099 C 
ATOM     15  O   UNL     1      15.415 -49.199  72.529  1.00  0.00    -0.544 OA
ATOM     16  O   UNL     1      17.473 -48.250  72.846  1.00  0.00    -0.544 OA
ENDBRANCH   9  14
ENDBRANCH   8   9
ENDBRANCH   1   8
TORSDOF 7
ENDMDL
MODEL 8
REMARK VINA RESULT:    -3.983      5.758      7.721
REMARK INTER + INTRA:          -5.473
REMARK INTER:                  -5.363
REMARK INTRA:                  -0.110
REMARK UNBOUND:                -0.093
REMARK SMILES [NH3+]CCCC[C@H]([NH3+])C(=O)[O-]
REMARK SMILES IDX 4 1 3 2 2 3 1 4 5 8 6 9 7 10 8 14 9 15 10 16
REMARK H PARENT 1 5 1 6 1 7 7 11 7 12 7 13
REMARK Flexibility Score: inf
ROOT
ATOM      1  C   UNL     1      20.292 -45.478  69.076  1.00  0.00     0.012 C 
ENDROOT
BRANCH   1   2
ATOM      2  C   UNL     1      21.764 -45.071  68.869  1.00  0.00     0.061 C 
BRANCH   2   3
ATOM      3  C   UNL     1      22.425 -44.484  70.132  1.00  0.00     0.258 C 
BRANCH   3   4
ATOM      4  N   UNL     1      23.878 -44.671  70.130  1.00  0.00    -0.358 N 
ATOM      5  H   UNL     1      24.308 -43.974  69.480  1.00  0.00     0.344 HD
ATOM      6  H   UNL     1      24.266 -44.516  71.089  1.00  0.00     0.344 HD
ATOM      7  H   UNL     1      24.125 -45.629  69.795  1.00  0.00     0.344 HD
ENDBRANCH   3   4
ENDBRANCH   2   3
ENDBRANCH   1   2
BRANCH   1   8
ATOM      8  C   UNL     1      20.128 -46.832  69.807  1.00  0.00     0.072 C 
BRANCH   8   9
ATOM      9  C   UNL     1      19.280 -47.884  69.053  1.00  0.00     0.227 C 
BRANCH   9  10
ATOM     10  N   UNL     1      18.698 -48.880  69.962  1.00  0.00    -0.350 N 
ATOM     11  H   UNL     1      18.679 -49.817  69.496  1.00  0.00     0.345 HD
ATOM     12  H   UNL     1      19.290 -48.958  70.821  1.00  0.00     0.345 HD
ATOM     13  H   UNL     1      17.726 -48.616  70.246  1.00  0.00     0.345 HD
ENDBRANCH   9  10
BRANCH   9  14
ATOM     14  C   UNL     1      20.067 -48.534  67.942  1.00  0.00     0.099 C 
ATOM     15  O   UNL     1      20.155 -47.994  66.806  1.00  0.00    -0.544 OA
ATOM     16  O   UNL     1      20.670 -49.766  68.158  1.00  0.00    -0.544 OA
ENDBRANCH   9  14
ENDBRANCH   8   9
ENDBRANCH   1   8
TORSDOF 7
ENDMDL
MODEL 9
REMARK VINA RESULT:    -3.967      4.326      5.856
REMARK INTER + INTRA:          -5.451
REMARK INTER:                  -5.356
REMARK INTRA:                  -0.095
REMARK UNBOUND:                -0.093
REMARK SMILES [NH3+]CCCC[C@H]([NH3+])C(=O)[O-]
REMARK SMILES IDX 4 1 3 2 2 3 1 4 5 8 6 9 7 10 8 14 9 15 10 16
REMARK H PARENT 1 5 1 6 1 7 7 11 7 12 7 13
REMARK Flexibility Score: inf
ROOT
ATOM      1  C   UNL     1      19.357 -46.991  70.407  1.00  0.00     0.012 C 
ENDROOT
BRANCH   1   2
ATOM      2  C   UNL     1      18.069 -46.870  71.245  1.00  0.00     0.061 C 
BRANCH   2   3
ATOM      3  C   UNL     1      17.078 -48.031  71.025  1.00  0.00     0.258 C 
BRANCH   3   4
ATOM      4  N   UNL     1      17.464 -49.232  71.769  1.00  0.00    -0.358 N 
ATOM      5  H   UNL     1      16.613 -49.815  71.935  1.00  0.00     0.344 HD
ATOM      6  H   UNL     1      18.152 -49.795  71.218  1.00  0.00     0.344 HD
ATOM      7  H   UNL     1      17.873 -48.976  72.695  1.00  0.00     0.344 HD
ENDBRANCH   3   4
ENDBRANCH   2   3
ENDBRANCH   1   2
BRANCH   1   8
ATOM      8  C   UNL     1      19.398 -46.020  69.203  1.00  0.00     0.072 C 
BRANCH   8   9
ATOM      9  C   UNL     1      20.729 -46.013  68.414  1.00  0.00     0.227 C 
BRANCH   9  10
ATOM     10  N   UNL     1      21.187 -44.650  68.113  1.00  0.00    -0.350 N 
ATOM     11  H   UNL     1      21.076 -44.458  67.090  1.00  0.00     0.345 HD
ATOM     12  H   UNL     1      20.601 -43.961  68.638  1.00  0.00     0.345 HD
ATOM     13  H   UNL     1      22.189 -44.517  68.383  1.00  0.00     0.345 HD
ENDBRANCH   9  10
BRANCH   9  14
ATOM     14  C   UNL     1      20.637 -46.860  67.168  1.00  0.00     0.099 C 
ATOM     15  O   UNL     1      20.615 -48.118  67.237  1.00  0.00    -0.544 OA
ATOM     16  O   UNL     1      20.618 -46.247  65.922  1.00  0.00    -0.544 OA
ENDBRANCH   9  14
ENDBRANCH   8   9
ENDBRANCH   1   8
TORSDOF 7
ENDMDL
