MODEL 1
REMARK VINA RESULT:    -3.414      0.000      0.000
REMARK INTER + INTRA:          -3.991
REMARK INTER:                  -3.913
REMARK INTRA:                  -0.078
REMARK UNBOUND:                -0.078
REMARK SMILES COc1cc(C(=O)[O-])ccc1O
REMARK SMILES IDX 5 1 9 2 4 3 10 4 3 5 11 6 6 7 7 8 8 9 2 10 1 11 12 12
REMARK H PARENT 12 13
REMARK Flexibility Score: inf
ROOT
ATOM      1  C   UNL     1      66.097  47.560  12.902  1.00  0.00     0.001 A 
ATOM      2  C   UNL     1      66.876  47.731  14.058  1.00  0.00     0.014 A 
ATOM      3  C   UNL     1      64.909  48.301  12.762  1.00  0.00     0.060 A 
ATOM      4  C   UNL     1      66.477  48.624  15.054  1.00  0.00     0.051 A 
ATOM      5  C   UNL     1      64.502  49.203  13.765  1.00  0.00     0.161 A 
ATOM      6  C   UNL     1      65.293  49.359  14.911  1.00  0.00     0.157 A 
ENDROOT
BRANCH   1   7
ATOM      7  C   UNL     1      66.526  46.612  11.849  1.00  0.00     0.072 C 
ATOM      8  O   UNL     1      66.356  45.372  11.995  1.00  0.00    -0.545 OA
ATOM      9  O   UNL     1      67.123  47.077  10.682  1.00  0.00    -0.545 OA
ENDBRANCH   1   7
BRANCH   5  10
ATOM     10  O   UNL     1      63.323  49.959  13.660  1.00  0.00    -0.493 OA
ATOM     11  C   UNL     1      62.779  50.439  12.434  1.00  0.00     0.278 C 
ENDBRANCH   5  10
BRANCH   6  12
ATOM     12  O   UNL     1      64.896  50.250  15.907  1.00  0.00    -0.504 OA
ATOM     13  H   UNL     1      63.998  50.719  15.872  1.00  0.00     0.293 HD
ENDBRANCH   6  12
TORSDOF 3
ENDMDL
MODEL 2
REMARK VINA RESULT:    -3.146      2.293      3.765
REMARK INTER + INTRA:          -3.685
REMARK INTER:                  -3.604
REMARK INTRA:                  -0.080
REMARK UNBOUND:                -0.078
REMARK SMILES COc1cc(C(=O)[O-])ccc1O
REMARK SMILES IDX 5 1 9 2 4 3 10 4 3 5 11 6 6 7 7 8 8 9 2 10 1 11 12 12
REMARK H PARENT 12 13
REMARK Flexibility Score: inf
ROOT
ATOM      1  C   UNL     1      64.223  49.091  13.597  1.00  0.00     0.001 A 
ATOM      2  C   UNL     1      65.290  48.270  13.198  1.00  0.00     0.014 A 
ATOM      3  C   UNL     1      64.047  49.369  14.965  1.00  0.00     0.060 A 
ATOM      4  C   UNL     1      66.164  47.737  14.148  1.00  0.00     0.051 A 
ATOM      5  C   UNL     1      64.926  48.832  15.926  1.00  0.00     0.161 A 
ATOM      6  C   UNL     1      65.985  48.014  15.509  1.00  0.00     0.157 A 
ENDROOT
BRANCH   1   7
ATOM      7  C   UNL     1      63.300  49.654  12.586  1.00  0.00     0.072 C 
ATOM      8  O   UNL     1      62.867  50.833  12.698  1.00  0.00    -0.545 OA
ATOM      9  O   UNL     1      62.896  48.890  11.497  1.00  0.00    -0.545 OA
ENDBRANCH   1   7
BRANCH   5  10
ATOM     10  O   UNL     1      64.781  49.087  17.300  1.00  0.00    -0.493 OA
ATOM     11  C   UNL     1      63.563  49.483  17.922  1.00  0.00     0.278 C 
ENDBRANCH   5  10
BRANCH   6  12
ATOM     12  O   UNL     1      66.859  47.481  16.455  1.00  0.00    -0.504 OA
ATOM     13  H   UNL     1      67.842  47.346  16.252  1.00  0.00     0.293 HD
ENDBRANCH   6  12
TORSDOF 3
ENDMDL
MODEL 3
REMARK VINA RESULT:    -3.136      2.758      4.441
REMARK INTER + INTRA:          -3.672
REMARK INTER:                  -3.578
REMARK INTRA:                  -0.094
REMARK UNBOUND:                -0.078
REMARK SMILES COc1cc(C(=O)[O-])ccc1O
REMARK SMILES IDX 5 1 9 2 4 3 10 4 3 5 11 6 6 7 7 8 8 9 2 10 1 11 12 12
REMARK H PARENT 12 13
REMARK Flexibility Score: inf
ROOT
ATOM      1  C   UNL     1      63.322  49.327  14.213  1.00  0.00     0.001 A 
ATOM      2  C   UNL     1      62.152  48.761  14.743  1.00  0.00     0.014 A 
ATOM      3  C   UNL     1      63.238  50.099  13.040  1.00  0.00     0.060 A 
ATOM      4  C   UNL     1      60.921  48.962  14.114  1.00  0.00     0.051 A 
ATOM      5  C   UNL     1      61.998  50.304  12.401  1.00  0.00     0.161 A 
ATOM      6  C   UNL     1      60.842  49.731  12.946  1.00  0.00     0.157 A 
ENDROOT
BRANCH   1   7
ATOM      7  C   UNL     1      64.624  49.111  14.884  1.00  0.00     0.072 C 
ATOM      8  O   UNL     1      65.235  48.016  14.760  1.00  0.00    -0.545 OA
ATOM      9  O   UNL     1      65.190  50.113  15.664  1.00  0.00    -0.545 OA
ENDBRANCH   1   7
BRANCH   5  10
ATOM     10  O   UNL     1      61.876  51.068  11.229  1.00  0.00    -0.493 OA
ATOM     11  C   UNL     1      62.408  50.692   9.962  1.00  0.00     0.278 C 
ENDBRANCH   5  10
BRANCH   6  12
ATOM     12  O   UNL     1      59.612  49.930  12.319  1.00  0.00    -0.504 OA
ATOM     13  H   UNL     1      58.742  49.650  12.757  1.00  0.00     0.293 HD
ENDBRANCH   6  12
TORSDOF 3
ENDMDL
MODEL 4
REMARK VINA RESULT:    -3.107      2.811      5.017
REMARK INTER + INTRA:          -3.640
REMARK INTER:                  -3.538
REMARK INTRA:                  -0.101
REMARK UNBOUND:                -0.078
REMARK SMILES COc1cc(C(=O)[O-])ccc1O
REMARK SMILES IDX 5 1 9 2 4 3 10 4 3 5 11 6 6 7 7 8 8 9 2 10 1 11 12 12
REMARK H PARENT 12 13
REMARK Flexibility Score: inf
ROOT
ATOM      1  C   UNL     1      63.291  49.502  12.613  1.00  0.00     0.001 A 
ATOM      2  C   UNL     1      62.704  50.778  12.598  1.00  0.00     0.014 A 
ATOM      3  C   UNL     1      63.419  48.793  11.404  1.00  0.00     0.060 A 
ATOM      4  C   UNL     1      62.254  51.335  11.399  1.00  0.00     0.051 A 
ATOM      5  C   UNL     1      62.965  49.352  10.193  1.00  0.00     0.161 A 
ATOM      6  C   UNL     1      62.383  50.626  10.198  1.00  0.00     0.157 A 
ENDROOT
BRANCH   1   7
ATOM      7  C   UNL     1      63.766  48.917  13.887  1.00  0.00     0.072 C 
ATOM      8  O   UNL     1      63.701  47.674  14.085  1.00  0.00    -0.545 OA
ATOM      9  O   UNL     1      64.291  49.731  14.885  1.00  0.00    -0.545 OA
ENDBRANCH   1   7
BRANCH   5  10
ATOM     10  O   UNL     1      63.076  48.674   8.968  1.00  0.00    -0.493 OA
ATOM     11  C   UNL     1      64.290  48.514   8.241  1.00  0.00     0.278 C 
ENDBRANCH   5  10
BRANCH   6  12
ATOM     12  O   UNL     1      61.933  51.184   9.002  1.00  0.00    -0.504 OA
ATOM     13  H   UNL     1      60.963  51.119   8.718  1.00  0.00     0.293 HD
ENDBRANCH   6  12
TORSDOF 3
ENDMDL
MODEL 5
REMARK VINA RESULT:    -3.092      2.348      4.094
REMARK INTER + INTRA:          -3.622
REMARK INTER:                  -3.543
REMARK INTRA:                  -0.080
REMARK UNBOUND:                -0.078
REMARK SMILES COc1cc(C(=O)[O-])ccc1O
REMARK SMILES IDX 5 1 9 2 4 3 10 4 3 5 11 6 6 7 7 8 8 9 2 10 1 11 12 12
REMARK H PARENT 12 13
REMARK Flexibility Score: inf
ROOT
ATOM      1  C   UNL     1      64.424  48.998  13.818  1.00  0.00     0.001 A 
ATOM      2  C   UNL     1      64.981  48.000  13.002  1.00  0.00     0.014 A 
ATOM      3  C   UNL     1      63.369  49.783  13.316  1.00  0.00     0.060 A 
ATOM      4  C   UNL     1      64.494  47.790  11.710  1.00  0.00     0.051 A 
ATOM      5  C   UNL     1      62.875  49.574  12.013  1.00  0.00     0.161 A 
ATOM      6  C   UNL     1      63.444  48.573  11.214  1.00  0.00     0.157 A 
ENDROOT
BRANCH   1   7
ATOM      7  C   UNL     1      64.944  49.217  15.187  1.00  0.00     0.072 C 
ATOM      8  O   UNL     1      64.899  50.360  15.715  1.00  0.00    -0.545 OA
ATOM      9  O   UNL     1      65.491  48.162  15.910  1.00  0.00    -0.545 OA
ENDBRANCH   1   7
BRANCH   5  10
ATOM     10  O   UNL     1      61.824  50.337  11.478  1.00  0.00    -0.493 OA
ATOM     11  C   UNL     1      61.101  51.330  12.199  1.00  0.00     0.278 C 
ENDBRANCH   5  10
BRANCH   6  12
ATOM     12  O   UNL     1      62.959  48.361   9.924  1.00  0.00    -0.504 OA
ATOM     13  H   UNL     1      62.140  48.848   9.579  1.00  0.00     0.293 HD
ENDBRANCH   6  12
TORSDOF 3
ENDMDL
MODEL 6
REMARK VINA RESULT:    -3.077      1.581      4.138
REMARK INTER + INTRA:          -3.605
REMARK INTER:                  -3.517
REMARK INTRA:                  -0.089
REMARK UNBOUND:                -0.078
REMARK SMILES COc1cc(C(=O)[O-])ccc1O
REMARK SMILES IDX 5 1 9 2 4 3 10 4 3 5 11 6 6 7 7 8 8 9 2 10 1 11 12 12
REMARK H PARENT 12 13
REMARK Flexibility Score: inf
ROOT
ATOM      1  C   UNL     1      65.064  48.627  13.983  1.00  0.00     0.001 A 
ATOM      2  C   UNL     1      66.448  48.403  14.054  1.00  0.00     0.014 A 
ATOM      3  C   UNL     1      64.369  48.253  12.818  1.00  0.00     0.060 A 
ATOM      4  C   UNL     1      67.125  47.816  12.982  1.00  0.00     0.051 A 
ATOM      5  C   UNL     1      65.048  47.662  11.734  1.00  0.00     0.161 A 
ATOM      6  C   UNL     1      66.429  47.446  11.824  1.00  0.00     0.157 A 
ENDROOT
BRANCH   1   7
ATOM      7  C   UNL     1      64.352  49.249  15.122  1.00  0.00     0.072 C 
ATOM      8  O   UNL     1      63.261  48.771  15.534  1.00  0.00    -0.545 OA
ATOM      9  O   UNL     1      64.877  50.371  15.754  1.00  0.00    -0.545 OA
ENDBRANCH   1   7
BRANCH   5  10
ATOM     10  O   UNL     1      64.387  47.276  10.557  1.00  0.00    -0.493 OA
ATOM     11  C   UNL     1      64.126  48.144   9.457  1.00  0.00     0.278 C 
ENDBRANCH   5  10
BRANCH   6  12
ATOM     12  O   UNL     1      67.107  46.861  10.755  1.00  0.00    -0.504 OA
ATOM     13  H   UNL     1      67.219  45.856  10.684  1.00  0.00     0.293 HD
ENDBRANCH   6  12
TORSDOF 3
ENDMDL
MODEL 7
REMARK VINA RESULT:    -3.035      1.542      3.993
REMARK INTER + INTRA:          -3.557
REMARK INTER:                  -3.481
REMARK INTRA:                  -0.076
REMARK UNBOUND:                -0.078
REMARK SMILES COc1cc(C(=O)[O-])ccc1O
REMARK SMILES IDX 5 1 9 2 4 3 10 4 3 5 11 6 6 7 7 8 8 9 2 10 1 11 12 12
REMARK H PARENT 12 13
REMARK Flexibility Score: inf
ROOT
ATOM      1  C   UNL     1      63.917  49.239  13.488  1.00  0.00     0.001 A 
ATOM      2  C   UNL     1      64.083  49.614  14.831  1.00  0.00     0.014 A 
ATOM      3  C   UNL     1      64.838  48.347  12.908  1.00  0.00     0.060 A 
ATOM      4  C   UNL     1      65.147  49.109  15.580  1.00  0.00     0.051 A 
ATOM      5  C   UNL     1      65.914  47.835  13.661  1.00  0.00     0.161 A 
ATOM      6  C   UNL     1      66.063  48.222  14.999  1.00  0.00     0.157 A 
ENDROOT
BRANCH   1   7
ATOM      7  C   UNL     1      62.786  49.778  12.699  1.00  0.00     0.072 C 
ATOM      8  O   UNL     1      61.861  49.019  12.304  1.00  0.00    -0.545 OA
ATOM      9  O   UNL     1      62.730  51.130  12.381  1.00  0.00    -0.545 OA
ENDBRANCH   1   7
BRANCH   5  10
ATOM     10  O   UNL     1      66.853  46.944  13.116  1.00  0.00    -0.493 OA
ATOM     11  C   UNL     1      66.674  46.231  11.896  1.00  0.00     0.278 C 
ENDBRANCH   5  10
BRANCH   6  12
ATOM     12  O   UNL     1      67.125  47.719  15.749  1.00  0.00    -0.504 OA
ATOM     13  H   UNL     1      68.063  48.089  15.654  1.00  0.00     0.293 HD
ENDBRANCH   6  12
TORSDOF 3
ENDMDL
MODEL 8
REMARK VINA RESULT:    -2.947      3.138      5.114
REMARK INTER + INTRA:          -3.457
REMARK INTER:                  -3.364
REMARK INTRA:                  -0.093
REMARK UNBOUND:                -0.078
REMARK SMILES COc1cc(C(=O)[O-])ccc1O
REMARK SMILES IDX 5 1 9 2 4 3 10 4 3 5 11 6 6 7 7 8 8 9 2 10 1 11 12 12
REMARK H PARENT 12 13
REMARK Flexibility Score: inf
ROOT
ATOM      1  C   UNL     1      61.976  48.675  16.307  1.00  0.00     0.001 A 
ATOM      2  C   UNL     1      62.783  48.998  17.409  1.00  0.00     0.014 A 
ATOM      3  C   UNL     1      62.521  48.755  15.012  1.00  0.00     0.060 A 
ATOM      4  C   UNL     1      64.109  49.395  17.222  1.00  0.00     0.051 A 
ATOM      5  C   UNL     1      63.858  49.156  14.819  1.00  0.00     0.161 A 
ATOM      6  C   UNL     1      64.648  49.474  15.932  1.00  0.00     0.157 A 
ENDROOT
BRANCH   1   7
ATOM      7  C   UNL     1      60.571  48.255  16.511  1.00  0.00     0.072 C 
ATOM      8  O   UNL     1      60.279  47.036  16.645  1.00  0.00    -0.545 OA
ATOM      9  O   UNL     1      59.553  49.200  16.558  1.00  0.00    -0.545 OA
ENDBRANCH   1   7
BRANCH   5  10
ATOM     10  O   UNL     1      64.436  49.248  13.543  1.00  0.00    -0.493 OA
ATOM     11  C   UNL     1      64.669  48.139  12.680  1.00  0.00     0.278 C 
ENDBRANCH   5  10
BRANCH   6  12
ATOM     12  O   UNL     1      65.972  49.871  15.747  1.00  0.00    -0.504 OA
ATOM     13  H   UNL     1      66.618  49.940  16.525  1.00  0.00     0.293 HD
ENDBRANCH   6  12
TORSDOF 3
ENDMDL
MODEL 9
REMARK VINA RESULT:    -2.914      1.755      4.603
REMARK INTER + INTRA:          -3.419
REMARK INTER:                  -3.329
REMARK INTRA:                  -0.089
REMARK UNBOUND:                -0.078
REMARK SMILES COc1cc(C(=O)[O-])ccc1O
REMARK SMILES IDX 5 1 9 2 4 3 10 4 3 5 11 6 6 7 7 8 8 9 2 10 1 11 12 12
REMARK H PARENT 12 13
REMARK Flexibility Score: inf
ROOT
ATOM      1  C   UNL     1      64.470  48.985  13.813  1.00  0.00     0.001 A 
ATOM      2  C   UNL     1      63.374  49.740  13.367  1.00  0.00     0.014 A 
ATOM      3  C   UNL     1      65.011  47.999  12.966  1.00  0.00     0.060 A 
ATOM      4  C   UNL     1      62.828  49.516  12.101  1.00  0.00     0.051 A 
ATOM      5  C   UNL     1      64.463  47.769  11.689  1.00  0.00     0.161 A 
ATOM      6  C   UNL     1      63.369  48.533  11.262  1.00  0.00     0.157 A 
ENDROOT
BRANCH   1   7
ATOM      7  C   UNL     1      65.045  49.228  15.155  1.00  0.00     0.072 C 
ATOM      8  O   UNL     1      64.866  50.330  15.740  1.00  0.00    -0.545 OA
ATOM      9  O   UNL     1      65.792  48.242  15.791  1.00  0.00    -0.545 OA
ENDBRANCH   1   7
BRANCH   5  10
ATOM     10  O   UNL     1      64.976  46.794  10.818  1.00  0.00    -0.493 OA
ATOM     11  C   UNL     1      66.362  46.585  10.567  1.00  0.00     0.278 C 
ENDBRANCH   5  10
BRANCH   6  12
ATOM     12  O   UNL     1      62.823  48.310   9.999  1.00  0.00    -0.504 OA
ATOM     13  H   UNL     1      63.073  47.498   9.448  1.00  0.00     0.293 HD
ENDBRANCH   6  12
TORSDOF 3
ENDMDL
