MODEL 1
REMARK VINA RESULT:    -4.579      0.000      0.000
REMARK INTER + INTRA:         -16.357
REMARK INTER:                 -12.075
REMARK INTRA:                  -4.281
REMARK UNBOUND:                -4.281
REMARK SMILES CCCCCCCCCCCCCCCCCCCCCCCCCCCCCC(=O)[O-]
REMARK SMILES IDX 16 1 17 2 18 3 19 4 20 5 21 6 22 7 23 8 24 9 25 10 26 11
REMARK SMILES IDX 27 12 28 13 29 14 30 15 31 16 32 17 15 18 14 19 13 20 12 21
REMARK SMILES IDX 11 22 10 23 9 24 8 25 7 26 6 27 5 28 4 29 3 30 2 31 1 32
REMARK H PARENT
REMARK Flexibility Score: inf
ROOT
ATOM      1  C   UNL     1      29.892  39.357  45.386  1.00  0.00     0.000 C 
ENDROOT
BRANCH   1   2
ATOM      2  C   UNL     1      31.014  40.013  46.207  1.00  0.00     0.000 C 
BRANCH   2   3
ATOM      3  C   UNL     1      30.583  40.348  47.647  1.00  0.00     0.000 C 
BRANCH   3   4
ATOM      4  C   UNL     1      30.985  39.303  48.708  1.00  0.00     0.000 C 
BRANCH   4   5
ATOM      5  C   UNL     1      32.423  38.761  48.578  1.00  0.00     0.000 C 
BRANCH   5   6
ATOM      6  C   UNL     1      33.321  38.986  49.812  1.00  0.00     0.000 C 
BRANCH   6   7
ATOM      7  C   UNL     1      33.867  37.704  50.466  1.00  0.00     0.000 C 
BRANCH   7   8
ATOM      8  C   UNL     1      34.610  36.792  49.475  1.00  0.00     0.000 C 
BRANCH   8   9
ATOM      9  C   UNL     1      33.979  35.395  49.368  1.00  0.00     0.000 C 
BRANCH   9  10
ATOM     10  C   UNL     1      32.532  35.348  49.889  1.00  0.00     0.000 C 
BRANCH  10  11
ATOM     11  C   UNL     1      32.203  34.012  50.589  1.00  0.00     0.000 C 
BRANCH  11  12
ATOM     12  C   UNL     1      31.618  32.939  49.649  1.00  0.00     0.000 C 
BRANCH  12  13
ATOM     13  C   UNL     1      32.442  31.636  49.592  1.00  0.00     0.006 C 
BRANCH  13  14
ATOM     14  C   UNL     1      33.710  31.782  48.738  1.00  0.00     0.053 C 
BRANCH  14  15
ATOM     15  C   UNL     1      33.744  30.744  47.661  1.00  0.00     0.041 C 
ATOM     16  O   UNL     1      33.544  29.531  47.941  1.00  0.00    -0.550 OA
ATOM     17  O   UNL     1      33.968  31.118  46.342  1.00  0.00    -0.550 OA
ENDBRANCH  14  15
ENDBRANCH  13  14
ENDBRANCH  12  13
ENDBRANCH  11  12
ENDBRANCH  10  11
ENDBRANCH   9  10
ENDBRANCH   8   9
ENDBRANCH   7   8
ENDBRANCH   6   7
ENDBRANCH   5   6
ENDBRANCH   4   5
ENDBRANCH   3   4
ENDBRANCH   2   3
ENDBRANCH   1   2
BRANCH   1  18
ATOM     18  C   UNL     1      29.330  40.285  44.298  1.00  0.00     0.000 C 
BRANCH  18  19
ATOM     19  C   UNL     1      27.926  40.813  44.628  1.00  0.00     0.000 C 
BRANCH  19  20
ATOM     20  C   UNL     1      28.008  42.132  45.407  1.00  0.00     0.000 C 
BRANCH  20  21
ATOM     21  C   UNL     1      26.680  42.509  46.090  1.00  0.00     0.000 C 
BRANCH  21  22
ATOM     22  C   UNL     1      26.817  43.394  47.346  1.00  0.00     0.000 C 
BRANCH  22  23
ATOM     23  C   UNL     1      27.917  42.969  48.335  1.00  0.00     0.000 C 
BRANCH  23  24
ATOM     24  C   UNL     1      27.424  42.908  49.791  1.00  0.00    -0.000 C 
BRANCH  24  25
ATOM     25  C   UNL     1      27.127  41.472  50.261  1.00  0.00    -0.000 C 
BRANCH  25  26
ATOM     26  C   UNL     1      27.353  40.376  49.201  1.00  0.00    -0.000 C 
BRANCH  26  27
ATOM     27  C   UNL     1      26.044  39.769  48.677  1.00  0.00    -0.000 C 
BRANCH  27  28
ATOM     28  C   UNL     1      26.290  38.941  47.408  1.00  0.00    -0.000 C 
BRANCH  28  29
ATOM     29  C   UNL     1      26.636  37.471  47.725  1.00  0.00    -0.000 C 
BRANCH  29  30
ATOM     30  C   UNL     1      27.640  36.839  46.741  1.00  0.00    -0.000 C 
BRANCH  30  31
ATOM     31  C   UNL     1      28.995  36.466  47.374  1.00  0.00    -0.003 C 
ATOM     32  C   UNL     1      28.848  35.919  48.797  1.00  0.00     0.004 C 
ENDBRANCH  30  31
ENDBRANCH  29  30
ENDBRANCH  28  29
ENDBRANCH  27  28
ENDBRANCH  26  27
ENDBRANCH  25  26
ENDBRANCH  24  25
ENDBRANCH  23  24
ENDBRANCH  22  23
ENDBRANCH  21  22
ENDBRANCH  20  21
ENDBRANCH  19  20
ENDBRANCH  18  19
ENDBRANCH   1  18
TORSDOF 28
ENDMDL
MODEL 2
REMARK VINA RESULT:    -4.570      1.200      3.620
REMARK INTER + INTRA:         -16.332
REMARK INTER:                 -11.233
REMARK INTRA:                  -5.099
REMARK UNBOUND:                -4.281
REMARK SMILES CCCCCCCCCCCCCCCCCCCCCCCCCCCCCC(=O)[O-]
REMARK SMILES IDX 16 1 17 2 18 3 19 4 20 5 21 6 22 7 23 8 24 9 25 10 26 11
REMARK SMILES IDX 27 12 28 13 29 14 30 15 31 16 32 17 15 18 14 19 13 20 12 21
REMARK SMILES IDX 11 22 10 23 9 24 8 25 7 26 6 27 5 28 4 29 3 30 2 31 1 32
REMARK H PARENT
REMARK Flexibility Score: inf
ROOT
ATOM      1  C   UNL     1      27.262  42.981  49.754  1.00  0.00     0.000 C 
ENDROOT
BRANCH   1   2
ATOM      2  C   UNL     1      28.772  42.705  49.671  1.00  0.00     0.000 C 
BRANCH   2   3
ATOM      3  C   UNL     1      29.408  43.251  48.379  1.00  0.00     0.000 C 
BRANCH   3   4
ATOM      4  C   UNL     1      30.313  42.255  47.626  1.00  0.00     0.000 C 
BRANCH   4   5
ATOM      5  C   UNL     1      30.361  40.836  48.225  1.00  0.00     0.000 C 
BRANCH   5   6
ATOM      6  C   UNL     1      31.108  39.789  47.373  1.00  0.00     0.000 C 
BRANCH   6   7
ATOM      7  C   UNL     1      32.127  38.926  48.139  1.00  0.00     0.000 C 
BRANCH   7   8
ATOM      8  C   UNL     1      31.670  38.583  49.568  1.00  0.00     0.000 C 
BRANCH   8   9
ATOM      9  C   UNL     1      32.012  37.139  49.969  1.00  0.00     0.000 C 
BRANCH   9  10
ATOM     10  C   UNL     1      33.373  36.672  49.425  1.00  0.00     0.000 C 
BRANCH  10  11
ATOM     11  C   UNL     1      33.599  35.159  49.629  1.00  0.00     0.000 C 
BRANCH  11  12
ATOM     12  C   UNL     1      32.431  34.440  50.336  1.00  0.00     0.000 C 
BRANCH  12  13
ATOM     13  C   UNL     1      31.852  33.251  49.542  1.00  0.00     0.006 C 
BRANCH  13  14
ATOM     14  C   UNL     1      32.572  31.932  49.856  1.00  0.00     0.053 C 
BRANCH  14  15
ATOM     15  C   UNL     1      33.435  31.513  48.709  1.00  0.00     0.041 C 
ATOM     16  O   UNL     1      32.984  30.739  47.823  1.00  0.00    -0.550 OA
ATOM     17  O   UNL     1      34.731  32.003  48.600  1.00  0.00    -0.550 OA
ENDBRANCH  14  15
ENDBRANCH  13  14
ENDBRANCH  12  13
ENDBRANCH  11  12
ENDBRANCH  10  11
ENDBRANCH   9  10
ENDBRANCH   8   9
ENDBRANCH   7   8
ENDBRANCH   6   7
ENDBRANCH   5   6
ENDBRANCH   4   5
ENDBRANCH   3   4
ENDBRANCH   2   3
ENDBRANCH   1   2
BRANCH   1  18
ATOM     18  C   UNL     1      26.511  42.570  48.478  1.00  0.00     0.000 C 
BRANCH  18  19
ATOM     19  C   UNL     1      26.039  43.773  47.647  1.00  0.00     0.000 C 
BRANCH  19  20
ATOM     20  C   UNL     1      25.921  43.400  46.163  1.00  0.00     0.000 C 
BRANCH  20  21
ATOM     21  C   UNL     1      27.202  43.702  45.364  1.00  0.00     0.000 C 
BRANCH  21  22
ATOM     22  C   UNL     1      27.894  42.471  44.744  1.00  0.00     0.000 C 
BRANCH  22  23
ATOM     23  C   UNL     1      27.636  41.136  45.465  1.00  0.00     0.000 C 
BRANCH  23  24
ATOM     24  C   UNL     1      27.825  39.914  44.551  1.00  0.00    -0.000 C 
BRANCH  24  25
ATOM     25  C   UNL     1      29.282  39.416  44.513  1.00  0.00    -0.000 C 
BRANCH  25  26
ATOM     26  C   UNL     1      29.453  37.887  44.596  1.00  0.00    -0.000 C 
BRANCH  26  27
ATOM     27  C   UNL     1      28.468  37.225  45.569  1.00  0.00    -0.000 C 
BRANCH  27  28
ATOM     28  C   UNL     1      29.210  36.554  46.734  1.00  0.00    -0.000 C 
BRANCH  28  29
ATOM     29  C   UNL     1      28.629  36.952  48.106  1.00  0.00    -0.000 C 
BRANCH  29  30
ATOM     30  C   UNL     1      27.240  37.618  48.028  1.00  0.00    -0.000 C 
BRANCH  30  31
ATOM     31  C   UNL     1      27.206  39.069  48.547  1.00  0.00    -0.003 C 
ATOM     32  C   UNL     1      27.543  39.168  50.038  1.00  0.00     0.004 C 
ENDBRANCH  30  31
ENDBRANCH  29  30
ENDBRANCH  28  29
ENDBRANCH  27  28
ENDBRANCH  26  27
ENDBRANCH  25  26
ENDBRANCH  24  25
ENDBRANCH  23  24
ENDBRANCH  22  23
ENDBRANCH  21  22
ENDBRANCH  20  21
ENDBRANCH  19  20
ENDBRANCH  18  19
ENDBRANCH   1  18
TORSDOF 28
ENDMDL
MODEL 3
REMARK VINA RESULT:    -4.472      4.586      6.945
REMARK INTER + INTRA:         -16.074
REMARK INTER:                 -10.315
REMARK INTRA:                  -5.760
REMARK UNBOUND:                -4.281
REMARK SMILES CCCCCCCCCCCCCCCCCCCCCCCCCCCCCC(=O)[O-]
REMARK SMILES IDX 16 1 17 2 18 3 19 4 20 5 21 6 22 7 23 8 24 9 25 10 26 11
REMARK SMILES IDX 27 12 28 13 29 14 30 15 31 16 32 17 15 18 14 19 13 20 12 21
REMARK SMILES IDX 11 22 10 23 9 24 8 25 7 26 6 27 5 28 4 29 3 30 2 31 1 32
REMARK H PARENT
REMARK Flexibility Score: inf
ROOT
ATOM      1  C   UNL     1      27.770  43.097  49.869  1.00  0.00     0.000 C 
ENDROOT
BRANCH   1   2
ATOM      2  C   UNL     1      29.187  42.519  49.712  1.00  0.00     0.000 C 
BRANCH   2   3
ATOM      3  C   UNL     1      29.901  43.025  48.445  1.00  0.00     0.000 C 
BRANCH   3   4
ATOM      4  C   UNL     1      30.337  41.923  47.458  1.00  0.00     0.000 C 
BRANCH   4   5
ATOM      5  C   UNL     1      30.213  40.483  47.992  1.00  0.00     0.000 C 
BRANCH   5   6
ATOM      6  C   UNL     1      31.358  39.532  47.588  1.00  0.00     0.000 C 
BRANCH   6   7
ATOM      7  C   UNL     1      31.857  38.595  48.703  1.00  0.00     0.000 C 
BRANCH   7   8
ATOM      8  C   UNL     1      33.334  38.823  49.064  1.00  0.00     0.000 C 
BRANCH   8   9
ATOM      9  C   UNL     1      33.551  40.090  49.906  1.00  0.00     0.000 C 
BRANCH   9  10
ATOM     10  C   UNL     1      32.581  40.193  51.096  1.00  0.00     0.000 C 
BRANCH  10  11
ATOM     11  C   UNL     1      32.192  41.653  51.412  1.00  0.00     0.000 C 
BRANCH  11  12
ATOM     12  C   UNL     1      32.892  42.697  50.518  1.00  0.00     0.000 C 
BRANCH  12  13
ATOM     13  C   UNL     1      32.621  44.158  50.928  1.00  0.00     0.006 C 
BRANCH  13  14
ATOM     14  C   UNL     1      33.556  45.148  50.217  1.00  0.00     0.053 C 
BRANCH  14  15
ATOM     15  C   UNL     1      34.954  44.618  50.176  1.00  0.00     0.041 C 
ATOM     16  O   UNL     1      35.479  44.295  49.076  1.00  0.00    -0.550 OA
ATOM     17  O   UNL     1      35.690  44.507  51.349  1.00  0.00    -0.550 OA
ENDBRANCH  14  15
ENDBRANCH  13  14
ENDBRANCH  12  13
ENDBRANCH  11  12
ENDBRANCH  10  11
ENDBRANCH   9  10
ENDBRANCH   8   9
ENDBRANCH   7   8
ENDBRANCH   6   7
ENDBRANCH   5   6
ENDBRANCH   4   5
ENDBRANCH   3   4
ENDBRANCH   2   3
ENDBRANCH   1   2
BRANCH   1  18
ATOM     18  C   UNL     1      26.807  42.615  48.773  1.00  0.00     0.000 C 
BRANCH  18  19
ATOM     19  C   UNL     1      26.090  43.769  48.056  1.00  0.00     0.000 C 
BRANCH  19  20
ATOM     20  C   UNL     1      25.844  43.426  46.581  1.00  0.00     0.000 C 
BRANCH  20  21
ATOM     21  C   UNL     1      27.052  43.743  45.681  1.00  0.00     0.000 C 
BRANCH  21  22
ATOM     22  C   UNL     1      27.644  42.534  44.927  1.00  0.00     0.000 C 
BRANCH  22  23
ATOM     23  C   UNL     1      27.357  41.159  45.558  1.00  0.00     0.000 C 
BRANCH  23  24
ATOM     24  C   UNL     1      27.739  39.986  44.640  1.00  0.00    -0.000 C 
BRANCH  24  25
ATOM     25  C   UNL     1      29.261  39.845  44.452  1.00  0.00    -0.000 C 
BRANCH  25  26
ATOM     26  C   UNL     1      29.807  38.410  44.582  1.00  0.00    -0.000 C 
BRANCH  26  27
ATOM     27  C   UNL     1      28.762  37.416  45.108  1.00  0.00    -0.000 C 
BRANCH  27  28
ATOM     28  C   UNL     1      29.266  36.700  46.369  1.00  0.00    -0.000 C 
BRANCH  28  29
ATOM     29  C   UNL     1      28.321  36.896  47.572  1.00  0.00    -0.000 C 
BRANCH  29  30
ATOM     30  C   UNL     1      26.840  37.073  47.181  1.00  0.00    -0.000 C 
BRANCH  30  31
ATOM     31  C   UNL     1      26.128  38.228  47.913  1.00  0.00    -0.003 C 
ATOM     32  C   UNL     1      27.096  39.099  48.717  1.00  0.00     0.004 C 
ENDBRANCH  30  31
ENDBRANCH  29  30
ENDBRANCH  28  29
ENDBRANCH  27  28
ENDBRANCH  26  27
ENDBRANCH  25  26
ENDBRANCH  24  25
ENDBRANCH  23  24
ENDBRANCH  22  23
ENDBRANCH  21  22
ENDBRANCH  20  21
ENDBRANCH  19  20
ENDBRANCH  18  19
ENDBRANCH   1  18
TORSDOF 28
ENDMDL
MODEL 4
REMARK VINA RESULT:    -4.452      2.962      6.244
REMARK INTER + INTRA:         -16.022
REMARK INTER:                 -11.025
REMARK INTRA:                  -4.996
REMARK UNBOUND:                -4.281
REMARK SMILES CCCCCCCCCCCCCCCCCCCCCCCCCCCCCC(=O)[O-]
REMARK SMILES IDX 16 1 17 2 18 3 19 4 20 5 21 6 22 7 23 8 24 9 25 10 26 11
REMARK SMILES IDX 27 12 28 13 29 14 30 15 31 16 32 17 15 18 14 19 13 20 12 21
REMARK SMILES IDX 11 22 10 23 9 24 8 25 7 26 6 27 5 28 4 29 3 30 2 31 1 32
REMARK H PARENT
REMARK Flexibility Score: inf
ROOT
ATOM      1  C   UNL     1      28.024  43.051  46.371  1.00  0.00     0.000 C 
ENDROOT
BRANCH   1   2
ATOM      2  C   UNL     1      26.851  43.288  47.337  1.00  0.00     0.000 C 
BRANCH   2   3
ATOM      3  C   UNL     1      26.861  42.322  48.536  1.00  0.00     0.000 C 
BRANCH   3   4
ATOM      4  C   UNL     1      26.351  40.898  48.232  1.00  0.00     0.000 C 
BRANCH   4   5
ATOM      5  C   UNL     1      26.340  39.938  49.437  1.00  0.00     0.000 C 
BRANCH   5   6
ATOM      6  C   UNL     1      26.340  38.437  49.079  1.00  0.00     0.000 C 
BRANCH   6   7
ATOM      7  C   UNL     1      26.389  38.124  47.572  1.00  0.00     0.000 C 
BRANCH   7   8
ATOM      8  C   UNL     1      26.935  36.718  47.268  1.00  0.00     0.000 C 
BRANCH   8   9
ATOM      9  C   UNL     1      28.344  36.494  47.841  1.00  0.00     0.000 C 
BRANCH   9  10
ATOM     10  C   UNL     1      28.580  35.045  48.304  1.00  0.00     0.000 C 
BRANCH  10  11
ATOM     11  C   UNL     1      29.917  34.879  49.056  1.00  0.00     0.000 C 
BRANCH  11  12
ATOM     12  C   UNL     1      30.842  36.111  48.971  1.00  0.00     0.000 C 
BRANCH  12  13
ATOM     13  C   UNL     1      31.892  36.188  50.098  1.00  0.00     0.006 C 
BRANCH  13  14
ATOM     14  C   UNL     1      32.410  37.616  50.318  1.00  0.00     0.053 C 
BRANCH  14  15
ATOM     15  C   UNL     1      33.563  37.906  49.410  1.00  0.00     0.041 C 
ATOM     16  O   UNL     1      34.478  37.053  49.253  1.00  0.00    -0.550 OA
ATOM     17  O   UNL     1      33.614  39.106  48.712  1.00  0.00    -0.550 OA
ENDBRANCH  14  15
ENDBRANCH  13  14
ENDBRANCH  12  13
ENDBRANCH  11  12
ENDBRANCH  10  11
ENDBRANCH   9  10
ENDBRANCH   8   9
ENDBRANCH   7   8
ENDBRANCH   6   7
ENDBRANCH   5   6
ENDBRANCH   4   5
ENDBRANCH   3   4
ENDBRANCH   2   3
ENDBRANCH   1   2
BRANCH   1  18
ATOM     18  C   UNL     1      27.571  42.899  44.911  1.00  0.00     0.000 C 
BRANCH  18  19
ATOM     19  C   UNL     1      28.156  41.652  44.230  1.00  0.00     0.000 C 
BRANCH  19  20
ATOM     20  C   UNL     1      27.667  40.372  44.921  1.00  0.00     0.000 C 
BRANCH  20  21
ATOM     21  C   UNL     1      28.694  39.226  44.857  1.00  0.00     0.000 C 
BRANCH  21  22
ATOM     22  C   UNL     1      30.158  39.667  44.651  1.00  0.00     0.000 C 
BRANCH  22  23
ATOM     23  C   UNL     1      30.902  40.096  45.929  1.00  0.00     0.000 C 
BRANCH  23  24
ATOM     24  C   UNL     1      30.453  39.315  47.175  1.00  0.00    -0.000 C 
BRANCH  24  25
ATOM     25  C   UNL     1      30.015  40.234  48.331  1.00  0.00    -0.000 C 
BRANCH  25  26
ATOM     26  C   UNL     1      30.670  41.629  48.342  1.00  0.00    -0.000 C 
BRANCH  26  27
ATOM     27  C   UNL     1      30.282  42.464  49.571  1.00  0.00    -0.000 C 
BRANCH  27  28
ATOM     28  C   UNL     1      30.554  43.956  49.331  1.00  0.00    -0.000 C 
BRANCH  28  29
ATOM     29  C   UNL     1      31.749  44.190  48.384  1.00  0.00    -0.000 C 
BRANCH  29  30
ATOM     30  C   UNL     1      31.825  45.622  47.816  1.00  0.00    -0.000 C 
BRANCH  30  31
ATOM     31  C   UNL     1      33.250  46.210  47.777  1.00  0.00    -0.003 C 
ATOM     32  C   UNL     1      34.034  45.769  46.538  1.00  0.00     0.004 C 
ENDBRANCH  30  31
ENDBRANCH  29  30
ENDBRANCH  28  29
ENDBRANCH  27  28
ENDBRANCH  26  27
ENDBRANCH  25  26
ENDBRANCH  24  25
ENDBRANCH  23  24
ENDBRANCH  22  23
ENDBRANCH  21  22
ENDBRANCH  20  21
ENDBRANCH  19  20
ENDBRANCH  18  19
ENDBRANCH   1  18
TORSDOF 28
ENDMDL
MODEL 5
REMARK VINA RESULT:    -4.431      1.305      4.022
REMARK INTER + INTRA:         -15.966
REMARK INTER:                 -11.352
REMARK INTRA:                  -4.614
REMARK UNBOUND:                -4.281
REMARK SMILES CCCCCCCCCCCCCCCCCCCCCCCCCCCCCC(=O)[O-]
REMARK SMILES IDX 16 1 17 2 18 3 19 4 20 5 21 6 22 7 23 8 24 9 25 10 26 11
REMARK SMILES IDX 27 12 28 13 29 14 30 15 31 16 32 17 15 18 14 19 13 20 12 21
REMARK SMILES IDX 11 22 10 23 9 24 8 25 7 26 6 27 5 28 4 29 3 30 2 31 1 32
REMARK H PARENT
REMARK Flexibility Score: inf
ROOT
ATOM      1  C   UNL     1      31.191  38.879  48.325  1.00  0.00     0.000 C 
ENDROOT
BRANCH   1   2
ATOM      2  C   UNL     1      32.699  38.988  48.041  1.00  0.00     0.000 C 
BRANCH   2   3
ATOM      3  C   UNL     1      33.564  38.437  49.190  1.00  0.00     0.000 C 
BRANCH   3   4
ATOM      4  C   UNL     1      34.032  36.978  49.011  1.00  0.00     0.000 C 
BRANCH   4   5
ATOM      5  C   UNL     1      34.740  36.366  50.236  1.00  0.00     0.000 C 
BRANCH   5   6
ATOM      6  C   UNL     1      34.446  37.065  51.580  1.00  0.00     0.000 C 
BRANCH   6   7
ATOM      7  C   UNL     1      33.578  36.257  52.562  1.00  0.00     0.000 C 
BRANCH   7   8
ATOM      8  C   UNL     1      32.643  35.259  51.857  1.00  0.00     0.000 C 
BRANCH   8   9
ATOM      9  C   UNL     1      31.330  35.907  51.388  1.00  0.00     0.000 C 
BRANCH   9  10
ATOM     10  C   UNL     1      30.887  35.426  49.995  1.00  0.00     0.000 C 
BRANCH  10  11
ATOM     11  C   UNL     1      30.092  34.105  50.056  1.00  0.00     0.000 C 
BRANCH  11  12
ATOM     12  C   UNL     1      30.417  33.123  48.912  1.00  0.00     0.000 C 
BRANCH  12  13
ATOM     13  C   UNL     1      31.272  31.914  49.345  1.00  0.00     0.006 C 
BRANCH  13  14
ATOM     14  C   UNL     1      32.736  32.297  49.608  1.00  0.00     0.053 C 
BRANCH  14  15
ATOM     15  C   UNL     1      33.650  31.554  48.687  1.00  0.00     0.041 C 
ATOM     16  O   UNL     1      34.830  31.956  48.502  1.00  0.00    -0.550 OA
ATOM     17  O   UNL     1      33.209  30.398  48.054  1.00  0.00    -0.550 OA
ENDBRANCH  14  15
ENDBRANCH  13  14
ENDBRANCH  12  13
ENDBRANCH  11  12
ENDBRANCH  10  11
ENDBRANCH   9  10
ENDBRANCH   8   9
ENDBRANCH   7   8
ENDBRANCH   6   7
ENDBRANCH   5   6
ENDBRANCH   4   5
ENDBRANCH   3   4
ENDBRANCH   2   3
ENDBRANCH   1   2
BRANCH   1  18
ATOM     18  C   UNL     1      30.341  39.716  47.356  1.00  0.00     0.000 C 
BRANCH  18  19
ATOM     19  C   UNL     1      31.150  40.264  46.171  1.00  0.00     0.000 C 
BRANCH  19  20
ATOM     20  C   UNL     1      30.421  40.005  44.846  1.00  0.00     0.000 C 
BRANCH  20  21
ATOM     21  C   UNL     1      29.202  39.076  45.003  1.00  0.00     0.000 C 
BRANCH  21  22
ATOM     22  C   UNL     1      29.416  37.626  44.522  1.00  0.00     0.000 C 
BRANCH  22  23
ATOM     23  C   UNL     1      28.617  36.555  45.286  1.00  0.00     0.000 C 
BRANCH  23  24
ATOM     24  C   UNL     1      29.177  36.279  46.692  1.00  0.00    -0.000 C 
BRANCH  24  25
ATOM     25  C   UNL     1      28.219  36.719  47.814  1.00  0.00    -0.000 C 
BRANCH  25  26
ATOM     26  C   UNL     1      26.804  37.114  47.349  1.00  0.00    -0.000 C 
BRANCH  26  27
ATOM     27  C   UNL     1      26.110  38.096  48.304  1.00  0.00    -0.000 C 
BRANCH  27  28
ATOM     28  C   UNL     1      26.670  39.516  48.137  1.00  0.00    -0.000 C 
BRANCH  28  29
ATOM     29  C   UNL     1      26.544  40.029  46.688  1.00  0.00    -0.000 C 
BRANCH  29  30
ATOM     30  C   UNL     1      26.770  41.547  46.540  1.00  0.00    -0.000 C 
BRANCH  30  31
ATOM     31  C   UNL     1      27.003  42.283  47.874  1.00  0.00    -0.003 C 
ATOM     32  C   UNL     1      26.102  43.512  48.032  1.00  0.00     0.004 C 
ENDBRANCH  30  31
ENDBRANCH  29  30
ENDBRANCH  28  29
ENDBRANCH  27  28
ENDBRANCH  26  27
ENDBRANCH  25  26
ENDBRANCH  24  25
ENDBRANCH  23  24
ENDBRANCH  22  23
ENDBRANCH  21  22
ENDBRANCH  20  21
ENDBRANCH  19  20
ENDBRANCH  18  19
ENDBRANCH   1  18
TORSDOF 28
ENDMDL
MODEL 6
REMARK VINA RESULT:    -4.350      3.834      6.610
REMARK INTER + INTRA:         -15.753
REMARK INTER:                 -10.131
REMARK INTRA:                  -5.622
REMARK UNBOUND:                -4.281
REMARK SMILES CCCCCCCCCCCCCCCCCCCCCCCCCCCCCC(=O)[O-]
REMARK SMILES IDX 16 1 17 2 18 3 19 4 20 5 21 6 22 7 23 8 24 9 25 10 26 11
REMARK SMILES IDX 27 12 28 13 29 14 30 15 31 16 32 17 15 18 14 19 13 20 12 21
REMARK SMILES IDX 11 22 10 23 9 24 8 25 7 26 6 27 5 28 4 29 3 30 2 31 1 32
REMARK H PARENT
REMARK Flexibility Score: inf
ROOT
ATOM      1  C   UNL     1      27.671  41.511  45.204  1.00  0.00     0.000 C 
ENDROOT
BRANCH   1   2
ATOM      2  C   UNL     1      28.557  40.844  44.139  1.00  0.00     0.000 C 
BRANCH   2   3
ATOM      3  C   UNL     1      29.425  39.708  44.712  1.00  0.00     0.000 C 
BRANCH   3   4
ATOM      4  C   UNL     1      30.782  40.153  45.294  1.00  0.00     0.000 C 
BRANCH   4   5
ATOM      5  C   UNL     1      31.018  39.767  46.767  1.00  0.00     0.000 C 
BRANCH   5   6
ATOM      6  C   UNL     1      29.754  39.342  47.544  1.00  0.00     0.000 C 
BRANCH   6   7
ATOM      7  C   UNL     1      29.860  37.992  48.276  1.00  0.00     0.000 C 
BRANCH   7   8
ATOM      8  C   UNL     1      29.074  36.868  47.580  1.00  0.00     0.000 C 
BRANCH   8   9
ATOM      9  C   UNL     1      27.899  37.397  46.742  1.00  0.00     0.000 C 
BRANCH   9  10
ATOM     10  C   UNL     1      26.597  37.529  47.552  1.00  0.00     0.000 C 
BRANCH  10  11
ATOM     11  C   UNL     1      26.189  39.000  47.773  1.00  0.00     0.000 C 
BRANCH  11  12
ATOM     12  C   UNL     1      26.026  39.390  49.257  1.00  0.00     0.000 C 
BRANCH  12  13
ATOM     13  C   UNL     1      26.937  38.599  50.218  1.00  0.00     0.006 C 
BRANCH  13  14
ATOM     14  C   UNL     1      27.728  39.516  51.162  1.00  0.00     0.053 C 
BRANCH  14  15
ATOM     15  C   UNL     1      26.828  40.108  52.200  1.00  0.00     0.041 C 
ATOM     16  O   UNL     1      26.223  39.363  53.017  1.00  0.00    -0.550 OA
ATOM     17  O   UNL     1      26.680  41.487  52.286  1.00  0.00    -0.550 OA
ENDBRANCH  14  15
ENDBRANCH  13  14
ENDBRANCH  12  13
ENDBRANCH  11  12
ENDBRANCH  10  11
ENDBRANCH   9  10
ENDBRANCH   8   9
ENDBRANCH   7   8
ENDBRANCH   6   7
ENDBRANCH   5   6
ENDBRANCH   4   5
ENDBRANCH   3   4
ENDBRANCH   2   3
ENDBRANCH   1   2
BRANCH   1  18
ATOM     18  C   UNL     1      27.458  43.011  44.946  1.00  0.00     0.000 C 
BRANCH  18  19
ATOM     19  C   UNL     1      26.457  43.650  45.920  1.00  0.00     0.000 C 
BRANCH  19  20
ATOM     20  C   UNL     1      26.161  42.708  47.095  1.00  0.00     0.000 C 
BRANCH  20  21
ATOM     21  C   UNL     1      26.452  43.347  48.465  1.00  0.00     0.000 C 
BRANCH  21  22
ATOM     22  C   UNL     1      27.650  42.745  49.228  1.00  0.00     0.000 C 
BRANCH  22  23
ATOM     23  C   UNL     1      28.977  42.710  48.449  1.00  0.00     0.000 C 
BRANCH  23  24
ATOM     24  C   UNL     1      30.058  43.615  49.064  1.00  0.00    -0.000 C 
BRANCH  24  25
ATOM     25  C   UNL     1      31.411  42.900  49.234  1.00  0.00    -0.000 C 
BRANCH  25  26
ATOM     26  C   UNL     1      31.613  42.195  50.589  1.00  0.00    -0.000 C 
BRANCH  26  27
ATOM     27  C   UNL     1      31.366  40.681  50.521  1.00  0.00    -0.000 C 
BRANCH  27  28
ATOM     28  C   UNL     1      32.639  39.934  50.096  1.00  0.00    -0.000 C 
BRANCH  28  29
ATOM     29  C   UNL     1      32.763  38.555  50.776  1.00  0.00    -0.000 C 
BRANCH  29  30
ATOM     30  C   UNL     1      34.155  37.908  50.629  1.00  0.00    -0.000 C 
BRANCH  30  31
ATOM     31  C   UNL     1      34.198  36.718  49.651  1.00  0.00    -0.003 C 
ATOM     32  C   UNL     1      32.803  36.182  49.316  1.00  0.00     0.004 C 
ENDBRANCH  30  31
ENDBRANCH  29  30
ENDBRANCH  28  29
ENDBRANCH  27  28
ENDBRANCH  26  27
ENDBRANCH  25  26
ENDBRANCH  24  25
ENDBRANCH  23  24
ENDBRANCH  22  23
ENDBRANCH  21  22
ENDBRANCH  20  21
ENDBRANCH  19  20
ENDBRANCH  18  19
ENDBRANCH   1  18
TORSDOF 28
ENDMDL
MODEL 7
REMARK VINA RESULT:    -4.341      1.115      3.860
REMARK INTER + INTRA:         -15.729
REMARK INTER:                 -11.750
REMARK INTRA:                  -3.979
REMARK UNBOUND:                -4.281
REMARK SMILES CCCCCCCCCCCCCCCCCCCCCCCCCCCCCC(=O)[O-]
REMARK SMILES IDX 16 1 17 2 18 3 19 4 20 5 21 6 22 7 23 8 24 9 25 10 26 11
REMARK SMILES IDX 27 12 28 13 29 14 30 15 31 16 32 17 15 18 14 19 13 20 12 21
REMARK SMILES IDX 11 22 10 23 9 24 8 25 7 26 6 27 5 28 4 29 3 30 2 31 1 32
REMARK H PARENT
REMARK Flexibility Score: inf
ROOT
ATOM      1  C   UNL     1      30.591  38.362  49.065  1.00  0.00     0.000 C 
ENDROOT
BRANCH   1   2
ATOM      2  C   UNL     1      31.581  39.229  48.271  1.00  0.00     0.000 C 
BRANCH   2   3
ATOM      3  C   UNL     1      33.005  39.199  48.859  1.00  0.00     0.000 C 
BRANCH   3   4
ATOM      4  C   UNL     1      33.197  40.025  50.146  1.00  0.00     0.000 C 
BRANCH   4   5
ATOM      5  C   UNL     1      33.182  39.209  51.454  1.00  0.00     0.000 C 
BRANCH   5   6
ATOM      6  C   UNL     1      34.445  38.361  51.712  1.00  0.00     0.000 C 
BRANCH   6   7
ATOM      7  C   UNL     1      34.259  36.842  51.545  1.00  0.00     0.000 C 
BRANCH   7   8
ATOM      8  C   UNL     1      34.914  36.293  50.265  1.00  0.00     0.000 C 
BRANCH   8   9
ATOM      9  C   UNL     1      33.889  35.712  49.278  1.00  0.00     0.000 C 
BRANCH   9  10
ATOM     10  C   UNL     1      32.553  35.343  49.947  1.00  0.00     0.000 C 
BRANCH  10  11
ATOM     11  C   UNL     1      32.516  33.872  50.411  1.00  0.00     0.000 C 
BRANCH  11  12
ATOM     12  C   UNL     1      31.820  32.918  49.419  1.00  0.00     0.000 C 
BRANCH  12  13
ATOM     13  C   UNL     1      32.549  31.573  49.223  1.00  0.00     0.006 C 
BRANCH  13  14
ATOM     14  C   UNL     1      32.101  30.845  47.947  1.00  0.00     0.053 C 
BRANCH  14  15
ATOM     15  C   UNL     1      33.285  30.391  47.154  1.00  0.00     0.041 C 
ATOM     16  O   UNL     1      33.801  29.262  47.372  1.00  0.00    -0.550 OA
ATOM     17  O   UNL     1      33.803  31.203  46.152  1.00  0.00    -0.550 OA
ENDBRANCH  14  15
ENDBRANCH  13  14
ENDBRANCH  12  13
ENDBRANCH  11  12
ENDBRANCH  10  11
ENDBRANCH   9  10
ENDBRANCH   8   9
ENDBRANCH   7   8
ENDBRANCH   6   7
ENDBRANCH   5   6
ENDBRANCH   4   5
ENDBRANCH   3   4
ENDBRANCH   2   3
ENDBRANCH   1   2
BRANCH   1  18
ATOM     18  C   UNL     1      29.815  37.379  48.174  1.00  0.00     0.000 C 
BRANCH  18  19
ATOM     19  C   UNL     1      28.297  37.612  48.206  1.00  0.00     0.000 C 
BRANCH  19  20
ATOM     20  C   UNL     1      27.692  37.467  46.803  1.00  0.00     0.000 C 
BRANCH  20  21
ATOM     21  C   UNL     1      28.755  37.241  45.712  1.00  0.00     0.000 C 
BRANCH  21  22
ATOM     22  C   UNL     1      28.872  38.369  44.667  1.00  0.00     0.000 C 
BRANCH  22  23
ATOM     23  C   UNL     1      29.888  39.477  45.005  1.00  0.00     0.000 C 
BRANCH  23  24
ATOM     24  C   UNL     1      29.250  40.673  45.731  1.00  0.00    -0.000 C 
BRANCH  24  25
ATOM     25  C   UNL     1      27.829  40.990  45.227  1.00  0.00    -0.000 C 
BRANCH  25  26
ATOM     26  C   UNL     1      27.613  42.438  44.747  1.00  0.00    -0.000 C 
BRANCH  26  27
ATOM     27  C   UNL     1      27.565  43.452  45.899  1.00  0.00    -0.000 C 
BRANCH  27  28
ATOM     28  C   UNL     1      26.118  43.732  46.328  1.00  0.00    -0.000 C 
BRANCH  28  29
ATOM     29  C   UNL     1      25.766  43.065  47.674  1.00  0.00    -0.000 C 
BRANCH  29  30
ATOM     30  C   UNL     1      26.994  42.707  48.535  1.00  0.00    -0.000 C 
BRANCH  30  31
ATOM     31  C   UNL     1      27.161  41.197  48.798  1.00  0.00    -0.003 C 
ATOM     32  C   UNL     1      26.893  40.823  50.258  1.00  0.00     0.004 C 
ENDBRANCH  30  31
ENDBRANCH  29  30
ENDBRANCH  28  29
ENDBRANCH  27  28
ENDBRANCH  26  27
ENDBRANCH  25  26
ENDBRANCH  24  25
ENDBRANCH  23  24
ENDBRANCH  22  23
ENDBRANCH  21  22
ENDBRANCH  20  21
ENDBRANCH  19  20
ENDBRANCH  18  19
ENDBRANCH   1  18
TORSDOF 28
ENDMDL
MODEL 8
REMARK VINA RESULT:    -4.287      6.651     10.438
REMARK INTER + INTRA:         -15.584
REMARK INTER:                 -11.285
REMARK INTRA:                  -4.300
REMARK UNBOUND:                -4.281
REMARK SMILES CCCCCCCCCCCCCCCCCCCCCCCCCCCCCC(=O)[O-]
REMARK SMILES IDX 16 1 17 2 18 3 19 4 20 5 21 6 22 7 23 8 24 9 25 10 26 11
REMARK SMILES IDX 27 12 28 13 29 14 30 15 31 16 32 17 15 18 14 19 13 20 12 21
REMARK SMILES IDX 11 22 10 23 9 24 8 25 7 26 6 27 5 28 4 29 3 30 2 31 1 32
REMARK H PARENT
REMARK Flexibility Score: inf
ROOT
ATOM      1  C   UNL     1      22.937  34.276  49.119  1.00  0.00     0.000 C 
ENDROOT
BRANCH   1   2
ATOM      2  C   UNL     1      21.982  34.471  50.308  1.00  0.00     0.000 C 
BRANCH   2   3
ATOM      3  C   UNL     1      20.523  34.698  49.871  1.00  0.00     0.000 C 
BRANCH   3   4
ATOM      4  C   UNL     1      20.305  34.788  48.347  1.00  0.00     0.000 C 
BRANCH   4   5
ATOM      5  C   UNL     1      19.000  34.147  47.835  1.00  0.00     0.000 C 
BRANCH   5   6
ATOM      6  C   UNL     1      18.756  34.279  46.318  1.00  0.00     0.000 C 
BRANCH   6   7
ATOM      7  C   UNL     1      19.706  35.242  45.583  1.00  0.00     0.000 C 
BRANCH   7   8
ATOM      8  C   UNL     1      20.437  34.582  44.402  1.00  0.00     0.000 C 
BRANCH   8   9
ATOM      9  C   UNL     1      20.361  33.047  44.441  1.00  0.00     0.000 C 
BRANCH   9  10
ATOM     10  C   UNL     1      21.714  32.387  44.759  1.00  0.00     0.000 C 
BRANCH  10  11
ATOM     11  C   UNL     1      21.976  32.283  46.276  1.00  0.00     0.000 C 
BRANCH  11  12
ATOM     12  C   UNL     1      20.963  31.394  47.028  1.00  0.00     0.000 C 
BRANCH  12  13
ATOM     13  C   UNL     1      21.368  31.071  48.480  1.00  0.00     0.006 C 
BRANCH  13  14
ATOM     14  C   UNL     1      20.287  30.275  49.225  1.00  0.00     0.053 C 
BRANCH  14  15
ATOM     15  C   UNL     1      19.660  31.109  50.298  1.00  0.00     0.041 C 
ATOM     16  O   UNL     1      20.325  31.439  51.316  1.00  0.00    -0.550 OA
ATOM     17  O   UNL     1      18.349  31.547  50.159  1.00  0.00    -0.550 OA
ENDBRANCH  14  15
ENDBRANCH  13  14
ENDBRANCH  12  13
ENDBRANCH  11  12
ENDBRANCH  10  11
ENDBRANCH   9  10
ENDBRANCH   8   9
ENDBRANCH   7   8
ENDBRANCH   6   7
ENDBRANCH   5   6
ENDBRANCH   4   5
ENDBRANCH   3   4
ENDBRANCH   2   3
ENDBRANCH   1   2
BRANCH   1  18
ATOM     18  C   UNL     1      24.412  34.210  49.545  1.00  0.00     0.000 C 
BRANCH  18  19
ATOM     19  C   UNL     1      24.858  35.440  50.351  1.00  0.00     0.000 C 
BRANCH  19  20
ATOM     20  C   UNL     1      26.149  36.033  49.772  1.00  0.00     0.000 C 
BRANCH  20  21
ATOM     21  C   UNL     1      26.423  35.580  48.326  1.00  0.00     0.000 C 
BRANCH  21  22
ATOM     22  C   UNL     1      26.837  36.703  47.353  1.00  0.00     0.000 C 
BRANCH  22  23
ATOM     23  C   UNL     1      28.175  37.393  47.676  1.00  0.00     0.000 C 
BRANCH  23  24
ATOM     24  C   UNL     1      28.010  38.874  48.056  1.00  0.00    -0.000 C 
BRANCH  24  25
ATOM     25  C   UNL     1      26.555  39.364  47.933  1.00  0.00    -0.000 C 
BRANCH  25  26
ATOM     26  C   UNL     1      26.391  40.806  47.415  1.00  0.00    -0.000 C 
BRANCH  26  27
ATOM     27  C   UNL     1      27.537  41.733  47.849  1.00  0.00    -0.000 C 
BRANCH  27  28
ATOM     28  C   UNL     1      28.267  42.315  46.630  1.00  0.00    -0.000 C 
BRANCH  28  29
ATOM     29  C   UNL     1      27.485  42.096  45.319  1.00  0.00    -0.000 C 
BRANCH  29  30
ATOM     30  C   UNL     1      28.276  41.333  44.238  1.00  0.00    -0.000 C 
BRANCH  30  31
ATOM     31  C   UNL     1      28.391  39.817  44.493  1.00  0.00    -0.003 C 
ATOM     32  C   UNL     1      29.824  39.383  44.816  1.00  0.00     0.004 C 
ENDBRANCH  30  31
ENDBRANCH  29  30
ENDBRANCH  28  29
ENDBRANCH  27  28
ENDBRANCH  26  27
ENDBRANCH  25  26
ENDBRANCH  24  25
ENDBRANCH  23  24
ENDBRANCH  22  23
ENDBRANCH  21  22
ENDBRANCH  20  21
ENDBRANCH  19  20
ENDBRANCH  18  19
ENDBRANCH   1  18
TORSDOF 28
ENDMDL
MODEL 9
REMARK VINA RESULT:    -4.284      3.999      8.021
REMARK INTER + INTRA:         -15.577
REMARK INTER:                  -9.807
REMARK INTRA:                  -5.770
REMARK UNBOUND:                -4.281
REMARK SMILES CCCCCCCCCCCCCCCCCCCCCCCCCCCCCC(=O)[O-]
REMARK SMILES IDX 16 1 17 2 18 3 19 4 20 5 21 6 22 7 23 8 24 9 25 10 26 11
REMARK SMILES IDX 27 12 28 13 29 14 30 15 31 16 32 17 15 18 14 19 13 20 12 21
REMARK SMILES IDX 11 22 10 23 9 24 8 25 7 26 6 27 5 28 4 29 3 30 2 31 1 32
REMARK H PARENT
REMARK Flexibility Score: inf
ROOT
ATOM      1  C   UNL     1      25.790  40.103  48.541  1.00  0.00     0.000 C 
ENDROOT
BRANCH   1   2
ATOM      2  C   UNL     1      26.967  41.093  48.528  1.00  0.00     0.000 C 
BRANCH   2   3
ATOM      3  C   UNL     1      26.523  42.544  48.264  1.00  0.00     0.000 C 
BRANCH   3   4
ATOM      4  C   UNL     1      27.348  43.296  47.200  1.00  0.00     0.000 C 
BRANCH   4   5
ATOM      5  C   UNL     1      26.870  43.103  45.747  1.00  0.00     0.000 C 
BRANCH   5   6
ATOM      6  C   UNL     1      27.802  42.254  44.857  1.00  0.00     0.000 C 
BRANCH   6   7
ATOM      7  C   UNL     1      27.606  40.731  44.969  1.00  0.00     0.000 C 
BRANCH   7   8
ATOM      8  C   UNL     1      28.764  39.929  44.352  1.00  0.00     0.000 C 
BRANCH   8   9
ATOM      9  C   UNL     1      29.116  38.673  45.166  1.00  0.00     0.000 C 
BRANCH   9  10
ATOM     10  C   UNL     1      29.675  39.000  46.562  1.00  0.00     0.000 C 
BRANCH  10  11
ATOM     11  C   UNL     1      30.813  40.041  46.509  1.00  0.00     0.000 C 
BRANCH  11  12
ATOM     12  C   UNL     1      30.496  41.356  47.251  1.00  0.00     0.000 C 
BRANCH  12  13
ATOM     13  C   UNL     1      30.567  41.243  48.788  1.00  0.00     0.006 C 
BRANCH  13  14
ATOM     14  C   UNL     1      31.272  42.446  49.431  1.00  0.00     0.053 C 
BRANCH  14  15
ATOM     15  C   UNL     1      30.393  43.656  49.395  1.00  0.00     0.041 C 
ATOM     16  O   UNL     1      30.651  44.607  48.610  1.00  0.00    -0.550 OA
ATOM     17  O   UNL     1      29.268  43.721  50.209  1.00  0.00    -0.550 OA
ENDBRANCH  14  15
ENDBRANCH  13  14
ENDBRANCH  12  13
ENDBRANCH  11  12
ENDBRANCH  10  11
ENDBRANCH   9  10
ENDBRANCH   8   9
ENDBRANCH   7   8
ENDBRANCH   6   7
ENDBRANCH   5   6
ENDBRANCH   4   5
ENDBRANCH   3   4
ENDBRANCH   2   3
ENDBRANCH   1   2
BRANCH   1  18
ATOM     18  C   UNL     1      26.021  38.893  47.623  1.00  0.00     0.000 C 
BRANCH  18  19
ATOM     19  C   UNL     1      26.818  37.770  48.301  1.00  0.00     0.000 C 
BRANCH  19  20
ATOM     20  C   UNL     1      26.846  36.512  47.423  1.00  0.00     0.000 C 
BRANCH  20  21
ATOM     21  C   UNL     1      26.603  35.217  48.220  1.00  0.00     0.000 C 
BRANCH  21  22
ATOM     22  C   UNL     1      27.867  34.572  48.826  1.00  0.00     0.000 C 
BRANCH  22  23
ATOM     23  C   UNL     1      29.177  34.849  48.065  1.00  0.00     0.000 C 
BRANCH  23  24
ATOM     24  C   UNL     1      30.335  35.254  48.993  1.00  0.00    -0.000 C 
BRANCH  24  25
ATOM     25  C   UNL     1      29.881  36.154  50.157  1.00  0.00    -0.000 C 
BRANCH  25  26
ATOM     26  C   UNL     1      30.169  37.657  49.972  1.00  0.00    -0.000 C 
BRANCH  26  27
ATOM     27  C   UNL     1      31.066  38.236  51.075  1.00  0.00    -0.000 C 
BRANCH  27  28
ATOM     28  C   UNL     1      32.418  38.690  50.506  1.00  0.00    -0.000 C 
BRANCH  28  29
ATOM     29  C   UNL     1      32.650  38.178  49.069  1.00  0.00    -0.000 C 
BRANCH  29  30
ATOM     30  C   UNL     1      34.008  37.475  48.868  1.00  0.00    -0.000 C 
BRANCH  30  31
ATOM     31  C   UNL     1      34.365  36.464  49.974  1.00  0.00    -0.003 C 
ATOM     32  C   UNL     1      33.702  35.100  49.759  1.00  0.00     0.004 C 
ENDBRANCH  30  31
ENDBRANCH  29  30
ENDBRANCH  28  29
ENDBRANCH  27  28
ENDBRANCH  26  27
ENDBRANCH  25  26
ENDBRANCH  24  25
ENDBRANCH  23  24
ENDBRANCH  22  23
ENDBRANCH  21  22
ENDBRANCH  20  21
ENDBRANCH  19  20
ENDBRANCH  18  19
ENDBRANCH   1  18
TORSDOF 28
ENDMDL
