MODEL 1
REMARK VINA RESULT:    -5.511      0.000      0.000
REMARK INTER + INTRA:          -6.602
REMARK INTER:                  -6.316
REMARK INTRA:                  -0.285
REMARK UNBOUND:                -0.285
REMARK SMILES O=C1C[C@H](c2ccc(O)cc2)Oc2cc(O)cc(O)c21
REMARK SMILES IDX 3 1 4 2 12 3 13 4 14 5 15 6 17 7 18 8 20 9 2 10 1 11 5 12
REMARK SMILES IDX 6 13 11 14 7 15 10 16 8 17 9 18 19 20 16 22
REMARK H PARENT 9 19 19 21 16 23
REMARK Flexibility Score: inf
ROOT
ATOM      1  C   UNL     1      43.222  19.481  -3.914  1.00  0.00     0.131 C 
ATOM      2  C   UNL     1      42.228  18.527  -3.238  1.00  0.00     0.211 C 
ATOM      3  O   UNL     1      42.920  17.478  -2.555  1.00  0.00    -0.484 OA
ATOM      4  C   UNL     1      44.065  16.863  -3.079  1.00  0.00     0.138 A 
ATOM      5  C   UNL     1      44.519  15.674  -2.502  1.00  0.00     0.093 A 
ATOM      6  C   UNL     1      45.646  15.030  -3.011  1.00  0.00     0.123 A 
ATOM      7  C   UNL     1      46.343  15.591  -4.086  1.00  0.00     0.093 A 
ATOM      8  C   UNL     1      45.929  16.802  -4.654  1.00  0.00     0.133 A 
ATOM      9  C   UNL     1      44.754  17.436  -4.171  1.00  0.00     0.102 A 
ATOM     10  C   UNL     1      44.184  18.681  -4.741  1.00  0.00     0.174 C 
ATOM     11  O   UNL     1      44.444  19.052  -5.916  1.00  0.00    -0.294 OA
ENDROOT
BRANCH   2  12
ATOM     12  C   UNL     1      41.343  19.277  -2.271  1.00  0.00    -0.007 A 
ATOM     13  C   UNL     1      39.954  19.059  -2.257  1.00  0.00     0.011 A 
ATOM     14  C   UNL     1      41.906  20.161  -1.336  1.00  0.00     0.011 A 
ATOM     15  C   UNL     1      39.142  19.734  -1.340  1.00  0.00     0.046 A 
ATOM     16  C   UNL     1      41.092  20.834  -0.419  1.00  0.00     0.046 A 
ATOM     17  C   UNL     1      39.710  20.624  -0.419  1.00  0.00     0.115 A 
BRANCH  17  18
ATOM     18  O   UNL     1      38.911  21.301   0.499  1.00  0.00    -0.508 OA
ATOM     19  H   UNL     1      37.967  21.590   0.268  1.00  0.00     0.293 HD
ENDBRANCH  17  18
ENDBRANCH   2  12
BRANCH   8  20
ATOM     20  O   UNL     1      46.730  17.345  -5.662  1.00  0.00    -0.507 OA
ATOM     21  H   UNL     1      47.219  18.225  -5.581  1.00  0.00     0.293 HD
ENDBRANCH   8  20
BRANCH   6  22
ATOM     22  O   UNL     1      46.072  13.834  -2.435  1.00  0.00    -0.508 OA
ATOM     23  H   UNL     1      47.056  13.602  -2.361  1.00  0.00     0.293 HD
ENDBRANCH   6  22
TORSDOF 4
ENDMDL
MODEL 2
REMARK VINA RESULT:    -5.431      2.185      7.227
REMARK INTER + INTRA:          -6.510
REMARK INTER:                  -6.221
REMARK INTRA:                  -0.290
REMARK UNBOUND:                -0.285
REMARK SMILES O=C1C[C@H](c2ccc(O)cc2)Oc2cc(O)cc(O)c21
REMARK SMILES IDX 3 1 4 2 12 3 13 4 14 5 15 6 17 7 18 8 20 9 2 10 1 11 5 12
REMARK SMILES IDX 6 13 11 14 7 15 10 16 8 17 9 18 19 20 16 22
REMARK H PARENT 9 19 19 21 16 23
REMARK Flexibility Score: inf
ROOT
ATOM      1  C   UNL     1      44.891  15.461  -3.298  1.00  0.00     0.131 C 
ATOM      2  C   UNL     1      45.126  16.568  -4.334  1.00  0.00     0.211 C 
ATOM      3  O   UNL     1      44.676  17.830  -3.833  1.00  0.00    -0.484 OA
ATOM      4  C   UNL     1      43.504  17.969  -3.076  1.00  0.00     0.138 A 
ATOM      5  C   UNL     1      42.984  19.247  -2.862  1.00  0.00     0.093 A 
ATOM      6  C   UNL     1      41.812  19.417  -2.126  1.00  0.00     0.123 A 
ATOM      7  C   UNL     1      41.169  18.303  -1.574  1.00  0.00     0.093 A 
ATOM      8  C   UNL     1      41.694  17.016  -1.743  1.00  0.00     0.133 A 
ATOM      9  C   UNL     1      42.861  16.835  -2.533  1.00  0.00     0.102 A 
ATOM     10  C   UNL     1      43.465  15.514  -2.836  1.00  0.00     0.174 C 
ATOM     11  O   UNL     1      42.797  14.449  -2.769  1.00  0.00    -0.294 OA
ENDROOT
BRANCH   2  12
ATOM     12  C   UNL     1      46.586  16.650  -4.706  1.00  0.00    -0.007 A 
ATOM     13  C   UNL     1      47.538  15.854  -4.045  1.00  0.00     0.011 A 
ATOM     14  C   UNL     1      47.003  17.484  -5.757  1.00  0.00     0.011 A 
ATOM     15  C   UNL     1      48.886  15.912  -4.413  1.00  0.00     0.046 A 
ATOM     16  C   UNL     1      48.352  17.539  -6.124  1.00  0.00     0.046 A 
ATOM     17  C   UNL     1      49.296  16.756  -5.453  1.00  0.00     0.115 A 
BRANCH  17  18
ATOM     18  O   UNL     1      50.635  16.821  -5.829  1.00  0.00    -0.508 OA
ATOM     19  H   UNL     1      51.328  16.198  -5.430  1.00  0.00     0.293 HD
ENDBRANCH  17  18
ENDBRANCH   2  12
BRANCH   8  20
ATOM     20  O   UNL     1      41.048  15.967  -1.085  1.00  0.00    -0.507 OA
ATOM     21  H   UNL     1      41.526  15.258  -0.549  1.00  0.00     0.293 HD
ENDBRANCH   8  20
BRANCH   6  22
ATOM     22  O   UNL     1      41.296  20.698  -1.940  1.00  0.00    -0.508 OA
ATOM     23  H   UNL     1      40.333  20.847  -1.660  1.00  0.00     0.293 HD
ENDBRANCH   6  22
TORSDOF 4
ENDMDL
MODEL 3
REMARK VINA RESULT:    -5.290      2.648      4.395
REMARK INTER + INTRA:          -6.348
REMARK INTER:                  -6.033
REMARK INTRA:                  -0.315
REMARK UNBOUND:                -0.285
REMARK SMILES O=C1C[C@H](c2ccc(O)cc2)Oc2cc(O)cc(O)c21
REMARK SMILES IDX 3 1 4 2 12 3 13 4 14 5 15 6 17 7 18 8 20 9 2 10 1 11 5 12
REMARK SMILES IDX 6 13 11 14 7 15 10 16 8 17 9 18 19 20 16 22
REMARK H PARENT 9 19 19 21 16 23
REMARK Flexibility Score: inf
ROOT
ATOM      1  C   UNL     1      47.000  16.727  -4.325  1.00  0.00     0.131 C 
ATOM      2  C   UNL     1      45.561  16.194  -4.282  1.00  0.00     0.211 C 
ATOM      3  O   UNL     1      45.420  15.205  -3.259  1.00  0.00    -0.484 OA
ATOM      4  C   UNL     1      46.411  14.251  -2.987  1.00  0.00     0.138 A 
ATOM      5  C   UNL     1      46.095  13.158  -2.177  1.00  0.00     0.093 A 
ATOM      6  C   UNL     1      47.054  12.185  -1.901  1.00  0.00     0.123 A 
ATOM      7  C   UNL     1      48.349  12.319  -2.414  1.00  0.00     0.093 A 
ATOM      8  C   UNL     1      48.699  13.426  -3.196  1.00  0.00     0.133 A 
ATOM      9  C   UNL     1      47.712  14.395  -3.519  1.00  0.00     0.102 A 
ATOM     10  C   UNL     1      47.951  15.568  -4.394  1.00  0.00     0.174 C 
ATOM     11  O   UNL     1      48.894  15.593  -5.227  1.00  0.00    -0.294 OA
ENDROOT
BRANCH   2  12
ATOM     12  C   UNL     1      44.582  17.320  -4.053  1.00  0.00    -0.007 A 
ATOM     13  C   UNL     1      43.795  17.357  -2.889  1.00  0.00     0.011 A 
ATOM     14  C   UNL     1      44.488  18.375  -4.976  1.00  0.00     0.011 A 
ATOM     15  C   UNL     1      42.912  18.418  -2.666  1.00  0.00     0.046 A 
ATOM     16  C   UNL     1      43.604  19.435  -4.751  1.00  0.00     0.046 A 
ATOM     17  C   UNL     1      42.813  19.459  -3.598  1.00  0.00     0.115 A 
BRANCH  17  18
ATOM     18  O   UNL     1      41.938  20.520  -3.387  1.00  0.00    -0.508 OA
ATOM     19  H   UNL     1      41.041  20.386  -2.932  1.00  0.00     0.293 HD
ENDBRANCH  17  18
ENDBRANCH   2  12
BRANCH   8  20
ATOM     20  O   UNL     1      50.033  13.535  -3.593  1.00  0.00    -0.507 OA
ATOM     21  H   UNL     1      50.327  13.873  -4.499  1.00  0.00     0.293 HD
ENDBRANCH   8  20
BRANCH   6  22
ATOM     22  O   UNL     1      46.714  11.091  -1.108  1.00  0.00    -0.508 OA
ATOM     23  H   UNL     1      46.776  10.142  -1.460  1.00  0.00     0.293 HD
ENDBRANCH   6  22
TORSDOF 4
ENDMDL
MODEL 4
REMARK VINA RESULT:    -5.229      2.744      7.192
REMARK INTER + INTRA:          -6.278
REMARK INTER:                  -5.967
REMARK INTRA:                  -0.312
REMARK UNBOUND:                -0.285
REMARK SMILES O=C1C[C@H](c2ccc(O)cc2)Oc2cc(O)cc(O)c21
REMARK SMILES IDX 3 1 4 2 12 3 13 4 14 5 15 6 17 7 18 8 20 9 2 10 1 11 5 12
REMARK SMILES IDX 6 13 11 14 7 15 10 16 8 17 9 18 19 20 16 22
REMARK H PARENT 9 19 19 21 16 23
REMARK Flexibility Score: inf
ROOT
ATOM      1  C   UNL     1      45.854  17.157  -5.494  1.00  0.00     0.131 C 
ATOM      2  C   UNL     1      46.436  16.900  -4.097  1.00  0.00     0.211 C 
ATOM      3  O   UNL     1      45.458  16.295  -3.247  1.00  0.00    -0.484 OA
ATOM      4  C   UNL     1      44.107  16.668  -3.263  1.00  0.00     0.138 A 
ATOM      5  C   UNL     1      43.274  16.240  -2.227  1.00  0.00     0.093 A 
ATOM      6  C   UNL     1      41.929  16.607  -2.207  1.00  0.00     0.123 A 
ATOM      7  C   UNL     1      41.404  17.384  -3.246  1.00  0.00     0.093 A 
ATOM      8  C   UNL     1      42.212  17.790  -4.315  1.00  0.00     0.133 A 
ATOM      9  C   UNL     1      43.593  17.459  -4.314  1.00  0.00     0.102 A 
ATOM     10  C   UNL     1      44.555  17.895  -5.356  1.00  0.00     0.174 C 
ATOM     11  O   UNL     1      44.333  18.896  -6.086  1.00  0.00    -0.294 OA
ENDROOT
BRANCH   2  12
ATOM     12  C   UNL     1      47.662  16.023  -4.183  1.00  0.00    -0.007 A 
ATOM     13  C   UNL     1      48.800  16.451  -4.888  1.00  0.00     0.011 A 
ATOM     14  C   UNL     1      47.697  14.790  -3.510  1.00  0.00     0.011 A 
ATOM     15  C   UNL     1      49.943  15.648  -4.940  1.00  0.00     0.046 A 
ATOM     16  C   UNL     1      48.842  13.989  -3.563  1.00  0.00     0.046 A 
ATOM     17  C   UNL     1      49.966  14.413  -4.278  1.00  0.00     0.115 A 
BRANCH  17  18
ATOM     18  O   UNL     1      51.099  13.605  -4.322  1.00  0.00    -0.508 OA
ATOM     19  H   UNL     1      51.055  12.648  -4.652  1.00  0.00     0.293 HD
ENDBRANCH  17  18
ENDBRANCH   2  12
BRANCH   8  20
ATOM     20  O   UNL     1      41.594  18.483  -5.359  1.00  0.00    -0.507 OA
ATOM     21  H   UNL     1      41.640  19.485  -5.476  1.00  0.00     0.293 HD
ENDBRANCH   8  20
BRANCH   6  22
ATOM     22  O   UNL     1      41.118  16.189  -1.154  1.00  0.00    -0.508 OA
ATOM     23  H   UNL     1      40.115  16.088  -1.264  1.00  0.00     0.293 HD
ENDBRANCH   6  22
TORSDOF 4
ENDMDL
MODEL 5
REMARK VINA RESULT:    -5.218      2.069      7.250
REMARK INTER + INTRA:          -6.265
REMARK INTER:                  -5.947
REMARK INTRA:                  -0.318
REMARK UNBOUND:                -0.285
REMARK SMILES O=C1C[C@H](c2ccc(O)cc2)Oc2cc(O)cc(O)c21
REMARK SMILES IDX 3 1 4 2 12 3 13 4 14 5 15 6 17 7 18 8 20 9 2 10 1 11 5 12
REMARK SMILES IDX 6 13 11 14 7 15 10 16 8 17 9 18 19 20 16 22
REMARK H PARENT 9 19 19 21 16 23
REMARK Flexibility Score: inf
ROOT
ATOM      1  C   UNL     1      44.408  16.445  -2.693  1.00  0.00     0.131 C 
ATOM      2  C   UNL     1      44.832  16.784  -4.129  1.00  0.00     0.211 C 
ATOM      3  O   UNL     1      44.543  18.152  -4.430  1.00  0.00    -0.484 OA
ATOM      4  C   UNL     1      43.374  18.792  -3.993  1.00  0.00     0.138 A 
ATOM      5  C   UNL     1      43.028  20.024  -4.551  1.00  0.00     0.093 A 
ATOM      6  C   UNL     1      41.864  20.678  -4.148  1.00  0.00     0.123 A 
ATOM      7  C   UNL     1      41.053  20.109  -3.159  1.00  0.00     0.093 A 
ATOM      8  C   UNL     1      41.401  18.894  -2.559  1.00  0.00     0.133 A 
ATOM      9  C   UNL     1      42.560  18.202  -3.000  1.00  0.00     0.102 A 
ATOM     10  C   UNL     1      42.987  16.878  -2.486  1.00  0.00     0.174 C 
ATOM     11  O   UNL     1      42.176  16.089  -1.932  1.00  0.00    -0.294 OA
ENDROOT
BRANCH   2  12
ATOM     12  C   UNL     1      46.304  16.511  -4.329  1.00  0.00    -0.007 A 
ATOM     13  C   UNL     1      47.068  17.310  -5.197  1.00  0.00     0.011 A 
ATOM     14  C   UNL     1      46.937  15.487  -3.605  1.00  0.00     0.011 A 
ATOM     15  C   UNL     1      48.436  17.071  -5.356  1.00  0.00     0.046 A 
ATOM     16  C   UNL     1      48.307  15.252  -3.765  1.00  0.00     0.046 A 
ATOM     17  C   UNL     1      49.059  16.040  -4.641  1.00  0.00     0.115 A 
BRANCH  17  18
ATOM     18  O   UNL     1      50.421  15.794  -4.791  1.00  0.00    -0.508 OA
ATOM     19  H   UNL     1      50.813  15.505  -5.681  1.00  0.00     0.293 HD
ENDBRANCH  17  18
ENDBRANCH   2  12
BRANCH   8  20
ATOM     20  O   UNL     1      40.592  18.438  -1.515  1.00  0.00    -0.507 OA
ATOM     21  H   UNL     1      40.334  17.471  -1.383  1.00  0.00     0.293 HD
ENDBRANCH   8  20
BRANCH   6  22
ATOM     22  O   UNL     1      41.523  21.897  -4.731  1.00  0.00    -0.508 OA
ATOM     23  H   UNL     1      41.015  22.607  -4.217  1.00  0.00     0.293 HD
ENDBRANCH   6  22
TORSDOF 4
ENDMDL
MODEL 6
REMARK VINA RESULT:    -5.212      2.180      3.676
REMARK INTER + INTRA:          -6.259
REMARK INTER:                  -5.951
REMARK INTRA:                  -0.308
REMARK UNBOUND:                -0.285
REMARK SMILES O=C1C[C@H](c2ccc(O)cc2)Oc2cc(O)cc(O)c21
REMARK SMILES IDX 3 1 4 2 12 3 13 4 14 5 15 6 17 7 18 8 20 9 2 10 1 11 5 12
REMARK SMILES IDX 6 13 11 14 7 15 10 16 8 17 9 18 19 20 16 22
REMARK H PARENT 9 19 19 21 16 23
REMARK Flexibility Score: inf
ROOT
ATOM      1  C   UNL     1      45.961  17.341  -4.416  1.00  0.00     0.131 C 
ATOM      2  C   UNL     1      44.958  16.267  -3.975  1.00  0.00     0.211 C 
ATOM      3  O   UNL     1      45.597  15.288  -3.151  1.00  0.00    -0.484 OA
ATOM      4  C   UNL     1      46.893  14.817  -3.403  1.00  0.00     0.138 A 
ATOM      5  C   UNL     1      47.341  13.676  -2.735  1.00  0.00     0.093 A 
ATOM      6  C   UNL     1      48.620  13.174  -2.976  1.00  0.00     0.123 A 
ATOM      7  C   UNL     1      49.469  13.834  -3.870  1.00  0.00     0.093 A 
ATOM      8  C   UNL     1      49.055  15.003  -4.522  1.00  0.00     0.133 A 
ATOM      9  C   UNL     1      47.737  15.489  -4.316  1.00  0.00     0.102 A 
ATOM     10  C   UNL     1      47.169  16.674  -5.004  1.00  0.00     0.174 C 
ATOM     11  O   UNL     1      47.639  17.097  -6.092  1.00  0.00    -0.294 OA
ENDROOT
BRANCH   2  12
ATOM     12  C   UNL     1      43.800  16.890  -3.234  1.00  0.00    -0.007 A 
ATOM     13  C   UNL     1      43.483  18.247  -3.414  1.00  0.00     0.011 A 
ATOM     14  C   UNL     1      42.990  16.104  -2.396  1.00  0.00     0.011 A 
ATOM     15  C   UNL     1      42.391  18.813  -2.749  1.00  0.00     0.046 A 
ATOM     16  C   UNL     1      41.898  16.672  -1.732  1.00  0.00     0.046 A 
ATOM     17  C   UNL     1      41.597  18.026  -1.904  1.00  0.00     0.115 A 
BRANCH  17  18
ATOM     18  O   UNL     1      40.507  18.578  -1.237  1.00  0.00    -0.508 OA
ATOM     19  H   UNL     1      40.428  19.578  -1.086  1.00  0.00     0.293 HD
ENDBRANCH  17  18
ENDBRANCH   2  12
BRANCH   8  20
ATOM     20  O   UNL     1      49.992  15.655  -5.327  1.00  0.00    -0.507 OA
ATOM     21  H   UNL     1      49.866  16.585  -5.698  1.00  0.00     0.293 HD
ENDBRANCH   8  20
BRANCH   6  22
ATOM     22  O   UNL     1      49.041  12.022  -2.315  1.00  0.00    -0.508 OA
ATOM     23  H   UNL     1      49.022  11.115  -2.767  1.00  0.00     0.293 HD
ENDBRANCH   6  22
TORSDOF 4
ENDMDL
MODEL 7
REMARK VINA RESULT:    -4.980      3.667      9.107
REMARK INTER + INTRA:          -5.993
REMARK INTER:                  -5.688
REMARK INTRA:                  -0.305
REMARK UNBOUND:                -0.285
REMARK SMILES O=C1C[C@H](c2ccc(O)cc2)Oc2cc(O)cc(O)c21
REMARK SMILES IDX 3 1 4 2 12 3 13 4 14 5 15 6 17 7 18 8 20 9 2 10 1 11 5 12
REMARK SMILES IDX 6 13 11 14 7 15 10 16 8 17 9 18 19 20 16 22
REMARK H PARENT 9 19 19 21 16 23
REMARK Flexibility Score: inf
ROOT
ATOM      1  C   UNL     1      48.251  14.707  -3.467  1.00  0.00     0.131 C 
ATOM      2  C   UNL     1      48.537  14.885  -4.964  1.00  0.00     0.211 C 
ATOM      3  O   UNL     1      48.015  16.131  -5.433  1.00  0.00    -0.484 OA
ATOM      4  C   UNL     1      46.784  16.644  -5.003  1.00  0.00     0.138 A 
ATOM      5  C   UNL     1      46.213  17.711  -5.701  1.00  0.00     0.093 A 
ATOM      6  C   UNL     1      44.983  18.234  -5.306  1.00  0.00     0.123 A 
ATOM      7  C   UNL     1      44.329  17.707  -4.188  1.00  0.00     0.093 A 
ATOM      8  C   UNL     1      44.901  16.663  -3.449  1.00  0.00     0.133 A 
ATOM      9  C   UNL     1      46.131  16.096  -3.876  1.00  0.00     0.102 A 
ATOM     10  C   UNL     1      46.792  14.946  -3.214  1.00  0.00     0.174 C 
ATOM     11  O   UNL     1      46.150  14.137  -2.493  1.00  0.00    -0.294 OA
ENDROOT
BRANCH   2  12
ATOM     12  C   UNL     1      50.020  14.810  -5.237  1.00  0.00    -0.007 A 
ATOM     13  C   UNL     1      50.810  15.973  -5.220  1.00  0.00     0.011 A 
ATOM     14  C   UNL     1      50.638  13.567  -5.455  1.00  0.00     0.011 A 
ATOM     15  C   UNL     1      52.188  15.894  -5.444  1.00  0.00     0.046 A 
ATOM     16  C   UNL     1      52.016  13.491  -5.677  1.00  0.00     0.046 A 
ATOM     17  C   UNL     1      52.794  14.653  -5.674  1.00  0.00     0.115 A 
BRANCH  17  18
ATOM     18  O   UNL     1      54.166  14.563  -5.897  1.00  0.00    -0.508 OA
ATOM     19  H   UNL     1      54.585  13.728  -6.290  1.00  0.00     0.293 HD
ENDBRANCH  17  18
ENDBRANCH   2  12
BRANCH   8  20
ATOM     20  O   UNL     1      44.233  16.255  -2.292  1.00  0.00    -0.507 OA
ATOM     21  H   UNL     1      43.617  15.456  -2.249  1.00  0.00     0.293 HD
ENDBRANCH   8  20
BRANCH   6  22
ATOM     22  O   UNL     1      44.419  19.284  -6.029  1.00  0.00    -0.508 OA
ATOM     23  H   UNL     1      43.421  19.337  -6.196  1.00  0.00     0.293 HD
ENDBRANCH   6  22
TORSDOF 4
ENDMDL
MODEL 8
REMARK VINA RESULT:    -4.929      3.177      5.993
REMARK INTER + INTRA:          -5.934
REMARK INTER:                  -5.630
REMARK INTRA:                  -0.304
REMARK UNBOUND:                -0.285
REMARK SMILES O=C1C[C@H](c2ccc(O)cc2)Oc2cc(O)cc(O)c21
REMARK SMILES IDX 3 1 4 2 12 3 13 4 14 5 15 6 17 7 18 8 20 9 2 10 1 11 5 12
REMARK SMILES IDX 6 13 11 14 7 15 10 16 8 17 9 18 19 20 16 22
REMARK H PARENT 9 19 19 21 16 23
REMARK Flexibility Score: inf
ROOT
ATOM      1  C   UNL     1      46.415  14.244  -4.176  1.00  0.00     0.131 C 
ATOM      2  C   UNL     1      46.735  15.630  -3.600  1.00  0.00     0.211 C 
ATOM      3  O   UNL     1      47.924  16.160  -4.192  1.00  0.00    -0.484 OA
ATOM      4  C   UNL     1      49.044  15.368  -4.479  1.00  0.00     0.138 A 
ATOM      5  C   UNL     1      50.253  15.993  -4.792  1.00  0.00     0.093 A 
ATOM      6  C   UNL     1      51.389  15.232  -5.067  1.00  0.00     0.123 A 
ATOM      7  C   UNL     1      51.310  13.836  -5.057  1.00  0.00     0.093 A 
ATOM      8  C   UNL     1      50.099  13.188  -4.785  1.00  0.00     0.133 A 
ATOM      9  C   UNL     1      48.952  13.959  -4.457  1.00  0.00     0.102 A 
ATOM     10  C   UNL     1      47.638  13.380  -4.084  1.00  0.00     0.174 C 
ATOM     11  O   UNL     1      47.532  12.206  -3.642  1.00  0.00    -0.294 OA
ENDROOT
BRANCH   2  12
ATOM     12  C   UNL     1      45.580  16.578  -3.819  1.00  0.00    -0.007 A 
ATOM     13  C   UNL     1      44.541  16.669  -2.877  1.00  0.00     0.011 A 
ATOM     14  C   UNL     1      45.562  17.423  -4.942  1.00  0.00     0.011 A 
ATOM     15  C   UNL     1      43.489  17.569  -3.070  1.00  0.00     0.046 A 
ATOM     16  C   UNL     1      44.509  18.324  -5.131  1.00  0.00     0.046 A 
ATOM     17  C   UNL     1      43.471  18.399  -4.199  1.00  0.00     0.115 A 
BRANCH  17  18
ATOM     18  O   UNL     1      42.429  19.300  -4.400  1.00  0.00    -0.508 OA
ATOM     19  H   UNL     1      41.459  19.020  -4.305  1.00  0.00     0.293 HD
ENDBRANCH  17  18
ENDBRANCH   2  12
BRANCH   8  20
ATOM     20  O   UNL     1      50.079  11.795  -4.886  1.00  0.00    -0.507 OA
ATOM     21  H   UNL     1      49.958  11.295  -5.755  1.00  0.00     0.293 HD
ENDBRANCH   8  20
BRANCH   6  22
ATOM     22  O   UNL     1      52.592  15.874  -5.356  1.00  0.00    -0.508 OA
ATOM     23  H   UNL     1      53.348  15.394  -5.832  1.00  0.00     0.293 HD
ENDBRANCH   6  22
TORSDOF 4
ENDMDL
MODEL 9
REMARK VINA RESULT:    -4.872      2.922      5.178
REMARK INTER + INTRA:          -5.869
REMARK INTER:                  -5.575
REMARK INTRA:                  -0.295
REMARK UNBOUND:                -0.285
REMARK SMILES O=C1C[C@H](c2ccc(O)cc2)Oc2cc(O)cc(O)c21
REMARK SMILES IDX 3 1 4 2 12 3 13 4 14 5 15 6 17 7 18 8 20 9 2 10 1 11 5 12
REMARK SMILES IDX 6 13 11 14 7 15 10 16 8 17 9 18 19 20 16 22
REMARK H PARENT 9 19 19 21 16 23
REMARK Flexibility Score: inf
ROOT
ATOM      1  C   UNL     1      45.343  13.832  -2.565  1.00  0.00     0.131 C 
ATOM      2  C   UNL     1      45.362  15.367  -2.541  1.00  0.00     0.211 C 
ATOM      3  O   UNL     1      46.305  15.875  -3.488  1.00  0.00    -0.484 OA
ATOM      4  C   UNL     1      47.552  15.273  -3.711  1.00  0.00     0.138 A 
ATOM      5  C   UNL     1      48.521  15.971  -4.434  1.00  0.00     0.093 A 
ATOM      6  C   UNL     1      49.775  15.406  -4.659  1.00  0.00     0.123 A 
ATOM      7  C   UNL     1      50.055  14.120  -4.183  1.00  0.00     0.093 A 
ATOM      8  C   UNL     1      49.085  13.386  -3.490  1.00  0.00     0.133 A 
ATOM      9  C   UNL     1      47.823  13.978  -3.217  1.00  0.00     0.102 A 
ATOM     10  C   UNL     1      46.748  13.322  -2.433  1.00  0.00     0.174 C 
ATOM     11  O   UNL     1      46.992  12.390  -1.623  1.00  0.00    -0.294 OA
ENDROOT
BRANCH   2  12
ATOM     12  C   UNL     1      43.988  15.922  -2.831  1.00  0.00    -0.007 A 
ATOM     13  C   UNL     1      42.896  15.059  -3.032  1.00  0.00     0.011 A 
ATOM     14  C   UNL     1      43.775  17.311  -2.847  1.00  0.00     0.011 A 
ATOM     15  C   UNL     1      41.620  15.578  -3.270  1.00  0.00     0.046 A 
ATOM     16  C   UNL     1      42.497  17.827  -3.084  1.00  0.00     0.046 A 
ATOM     17  C   UNL     1      41.418  16.964  -3.298  1.00  0.00     0.115 A 
BRANCH  17  18
ATOM     18  O   UNL     1      40.151  17.492  -3.534  1.00  0.00    -0.508 OA
ATOM     19  H   UNL     1      39.604  17.217  -4.342  1.00  0.00     0.293 HD
ENDBRANCH  17  18
ENDBRANCH   2  12
BRANCH   8  20
ATOM     20  O   UNL     1      49.408  12.076  -3.129  1.00  0.00    -0.507 OA
ATOM     21  H   UNL     1      49.640  11.791  -2.188  1.00  0.00     0.293 HD
ENDBRANCH   8  20
BRANCH   6  22
ATOM     22  O   UNL     1      50.737  16.126  -5.365  1.00  0.00    -0.508 OA
ATOM     23  H   UNL     1      50.519  17.014  -5.803  1.00  0.00     0.293 HD
ENDBRANCH   6  22
TORSDOF 4
ENDMDL
