MODEL 1
REMARK VINA RESULT:    -3.533      0.000      0.000
REMARK INTER + INTRA:          -9.304
REMARK INTER:                  -6.838
REMARK INTRA:                  -2.466
REMARK UNBOUND:                -2.466
REMARK SMILES CCCCCCCCCCCCCCCCCC(=O)[O-]
REMARK SMILES IDX 10 1 11 2 12 3 13 4 14 5 15 6 16 7 17 8 18 9 19 10 20 11
REMARK SMILES IDX 9 12 8 13 7 14 6 15 5 16 4 17 3 18 2 19 1 20
REMARK H PARENT
REMARK Flexibility Score: inf
ROOT
ATOM      1  C   UNL     1     -21.927 -17.686   1.836  1.00  0.00     0.000 C 
ENDROOT
BRANCH   1   2
ATOM      2  C   UNL     1     -20.621 -17.570   1.033  1.00  0.00     0.000 C 
BRANCH   2   3
ATOM      3  C   UNL     1     -19.638 -16.551   1.637  1.00  0.00     0.000 C 
BRANCH   3   4
ATOM      4  C   UNL     1     -18.174 -17.025   1.710  1.00  0.00     0.000 C 
BRANCH   4   5
ATOM      5  C   UNL     1     -18.015 -18.346   2.483  1.00  0.00     0.000 C 
BRANCH   5   6
ATOM      6  C   UNL     1     -17.252 -19.413   1.679  1.00  0.00     0.000 C 
BRANCH   6   7
ATOM      7  C   UNL     1     -16.611 -20.485   2.573  1.00  0.00     0.006 C 
BRANCH   7   8
ATOM      8  C   UNL     1     -15.675 -19.852   3.607  1.00  0.00     0.053 C 
BRANCH   8   9
ATOM      9  C   UNL     1     -15.992 -20.354   4.980  1.00  0.00     0.041 C 
ATOM     10  O   UNL     1     -15.087 -20.423   5.853  1.00  0.00    -0.550 OA
ATOM     11  O   UNL     1     -17.274 -20.803   5.277  1.00  0.00    -0.550 OA
ENDBRANCH   8   9
ENDBRANCH   7   8
ENDBRANCH   6   7
ENDBRANCH   5   6
ENDBRANCH   4   5
ENDBRANCH   3   4
ENDBRANCH   2   3
ENDBRANCH   1   2
BRANCH   1  12
ATOM     12  C   UNL     1     -23.143 -17.718   0.898  1.00  0.00     0.000 C 
BRANCH  12  13
ATOM     13  C   UNL     1     -22.752 -17.868  -0.584  1.00  0.00    -0.000 C 
BRANCH  13  14
ATOM     14  C   UNL     1     -23.123 -19.222  -1.223  1.00  0.00    -0.000 C 
BRANCH  14  15
ATOM     15  C   UNL     1     -21.927 -20.128  -1.587  1.00  0.00    -0.000 C 
BRANCH  15  16
ATOM     16  C   UNL     1     -21.599 -21.216  -0.546  1.00  0.00    -0.000 C 
BRANCH  16  17
ATOM     17  C   UNL     1     -22.701 -21.457   0.503  1.00  0.00    -0.000 C 
BRANCH  17  18
ATOM     18  C   UNL     1     -22.184 -21.445   1.958  1.00  0.00    -0.000 C 
BRANCH  18  19
ATOM     19  C   UNL     1     -20.687 -21.110   2.048  1.00  0.00    -0.003 C 
ATOM     20  C   UNL     1     -20.070 -21.688   3.318  1.00  0.00     0.004 C 
ENDBRANCH  18  19
ENDBRANCH  17  18
ENDBRANCH  16  17
ENDBRANCH  15  16
ENDBRANCH  14  15
ENDBRANCH  13  14
ENDBRANCH  12  13
ENDBRANCH   1  12
TORSDOF 16
ENDMDL
MODEL 2
REMARK VINA RESULT:    -3.470      3.890      6.387
REMARK INTER + INTRA:          -9.183
REMARK INTER:                  -7.343
REMARK INTRA:                  -1.839
REMARK UNBOUND:                -2.466
REMARK SMILES CCCCCCCCCCCCCCCCCC(=O)[O-]
REMARK SMILES IDX 10 1 11 2 12 3 13 4 14 5 15 6 16 7 17 8 18 9 19 10 20 11
REMARK SMILES IDX 9 12 8 13 7 14 6 15 5 16 4 17 3 18 2 19 1 20
REMARK H PARENT
REMARK Flexibility Score: inf
ROOT
ATOM      1  C   UNL     1     -15.863 -19.696   3.488  1.00  0.00     0.000 C 
ENDROOT
BRANCH   1   2
ATOM      2  C   UNL     1     -16.362 -20.184   2.118  1.00  0.00     0.000 C 
BRANCH   2   3
ATOM      3  C   UNL     1     -17.424 -19.254   1.505  1.00  0.00     0.000 C 
BRANCH   3   4
ATOM      4  C   UNL     1     -17.723 -17.981   2.319  1.00  0.00     0.000 C 
BRANCH   4   5
ATOM      5  C   UNL     1     -18.503 -16.929   1.512  1.00  0.00     0.000 C 
BRANCH   5   6
ATOM      6  C   UNL     1     -17.640 -15.711   1.139  1.00  0.00     0.000 C 
BRANCH   6   7
ATOM      7  C   UNL     1     -18.100 -15.032  -0.160  1.00  0.00     0.006 C 
BRANCH   7   8
ATOM      8  C   UNL     1     -16.973 -14.194  -0.771  1.00  0.00     0.053 C 
BRANCH   8   9
ATOM      9  C   UNL     1     -17.245 -13.923  -2.217  1.00  0.00     0.041 C 
ATOM     10  O   UNL     1     -17.194 -14.860  -3.057  1.00  0.00    -0.550 OA
ATOM     11  O   UNL     1     -17.495 -12.625  -2.646  1.00  0.00    -0.550 OA
ENDBRANCH   8   9
ENDBRANCH   7   8
ENDBRANCH   6   7
ENDBRANCH   5   6
ENDBRANCH   4   5
ENDBRANCH   3   4
ENDBRANCH   2   3
ENDBRANCH   1   2
BRANCH   1  12
ATOM     12  C   UNL     1     -16.241 -20.694   4.593  1.00  0.00     0.000 C 
BRANCH  12  13
ATOM     13  C   UNL     1     -17.740 -20.653   4.949  1.00  0.00    -0.000 C 
BRANCH  13  14
ATOM     14  C   UNL     1     -18.555 -21.878   4.483  1.00  0.00    -0.000 C 
BRANCH  14  15
ATOM     15  C   UNL     1     -19.589 -21.595   3.372  1.00  0.00    -0.000 C 
BRANCH  15  16
ATOM     16  C   UNL     1     -20.370 -20.277   3.534  1.00  0.00    -0.000 C 
BRANCH  16  17
ATOM     17  C   UNL     1     -21.612 -20.148   2.632  1.00  0.00    -0.000 C 
BRANCH  17  18
ATOM     18  C   UNL     1     -21.464 -20.858   1.269  1.00  0.00    -0.000 C 
BRANCH  18  19
ATOM     19  C   UNL     1     -21.085 -19.888   0.140  1.00  0.00    -0.003 C 
ATOM     20  C   UNL     1     -21.484 -20.447  -1.223  1.00  0.00     0.004 C 
ENDBRANCH  18  19
ENDBRANCH  17  18
ENDBRANCH  16  17
ENDBRANCH  15  16
ENDBRANCH  14  15
ENDBRANCH  13  14
ENDBRANCH  12  13
ENDBRANCH   1  12
TORSDOF 16
ENDMDL
MODEL 3
REMARK VINA RESULT:    -3.434      3.871      7.141
REMARK INTER + INTRA:          -9.112
REMARK INTER:                  -7.783
REMARK INTRA:                  -1.329
REMARK UNBOUND:                -2.466
REMARK SMILES CCCCCCCCCCCCCCCCCC(=O)[O-]
REMARK SMILES IDX 10 1 11 2 12 3 13 4 14 5 15 6 16 7 17 8 18 9 19 10 20 11
REMARK SMILES IDX 9 12 8 13 7 14 6 15 5 16 4 17 3 18 2 19 1 20
REMARK H PARENT
REMARK Flexibility Score: inf
ROOT
ATOM      1  C   UNL     1     -17.718 -18.250   2.566  1.00  0.00     0.000 C 
ENDROOT
BRANCH   1   2
ATOM      2  C   UNL     1     -17.016 -19.367   1.779  1.00  0.00     0.000 C 
BRANCH   2   3
ATOM      3  C   UNL     1     -16.710 -20.605   2.642  1.00  0.00     0.000 C 
BRANCH   3   4
ATOM      4  C   UNL     1     -17.657 -20.813   3.839  1.00  0.00     0.000 C 
BRANCH   4   5
ATOM      5  C   UNL     1     -18.796 -21.801   3.532  1.00  0.00     0.000 C 
BRANCH   5   6
ATOM      6  C   UNL     1     -20.172 -21.117   3.469  1.00  0.00     0.000 C 
BRANCH   6   7
ATOM      7  C   UNL     1     -20.585 -20.743   2.037  1.00  0.00     0.006 C 
BRANCH   7   8
ATOM      8  C   UNL     1     -21.807 -21.549   1.589  1.00  0.00     0.053 C 
BRANCH   8   9
ATOM      9  C   UNL     1     -21.936 -21.524   0.099  1.00  0.00     0.041 C 
ATOM     10  O   UNL     1     -21.521 -20.531  -0.555  1.00  0.00    -0.550 OA
ATOM     11  O   UNL     1     -22.569 -22.570  -0.562  1.00  0.00    -0.550 OA
ENDBRANCH   8   9
ENDBRANCH   7   8
ENDBRANCH   6   7
ENDBRANCH   5   6
ENDBRANCH   4   5
ENDBRANCH   3   4
ENDBRANCH   2   3
ENDBRANCH   1   2
BRANCH   1  12
ATOM     12  C   UNL     1     -18.514 -17.335   1.624  1.00  0.00     0.000 C 
BRANCH  12  13
ATOM     13  C   UNL     1     -17.901 -15.927   1.497  1.00  0.00    -0.000 C 
BRANCH  13  14
ATOM     14  C   UNL     1     -18.186 -15.208   0.162  1.00  0.00    -0.000 C 
BRANCH  14  15
ATOM     15  C   UNL     1     -16.947 -14.620  -0.547  1.00  0.00    -0.000 C 
BRANCH  15  16
ATOM     16  C   UNL     1     -17.119 -14.382  -2.059  1.00  0.00    -0.000 C 
BRANCH  16  17
ATOM     17  C   UNL     1     -17.089 -12.903  -2.487  1.00  0.00    -0.000 C 
BRANCH  17  18
ATOM     18  C   UNL     1     -18.466 -12.356  -2.922  1.00  0.00    -0.000 C 
BRANCH  18  19
ATOM     19  C   UNL     1     -19.486 -13.474  -3.186  1.00  0.00    -0.003 C 
ATOM     20  C   UNL     1     -20.661 -13.389  -2.216  1.00  0.00     0.004 C 
ENDBRANCH  18  19
ENDBRANCH  17  18
ENDBRANCH  16  17
ENDBRANCH  15  16
ENDBRANCH  14  15
ENDBRANCH  13  14
ENDBRANCH  12  13
ENDBRANCH   1  12
TORSDOF 16
ENDMDL
MODEL 4
REMARK VINA RESULT:    -3.404      5.533      7.461
REMARK INTER + INTRA:          -9.055
REMARK INTER:                  -7.663
REMARK INTRA:                  -1.391
REMARK UNBOUND:                -2.466
REMARK SMILES CCCCCCCCCCCCCCCCCC(=O)[O-]
REMARK SMILES IDX 10 1 11 2 12 3 13 4 14 5 15 6 16 7 17 8 18 9 19 10 20 11
REMARK SMILES IDX 9 12 8 13 7 14 6 15 5 16 4 17 3 18 2 19 1 20
REMARK H PARENT
REMARK Flexibility Score: inf
ROOT
ATOM      1  C   UNL     1     -16.958 -14.796  -1.321  1.00  0.00     0.000 C 
ENDROOT
BRANCH   1   2
ATOM      2  C   UNL     1     -17.210 -14.243  -2.732  1.00  0.00     0.000 C 
BRANCH   2   3
ATOM      3  C   UNL     1     -18.375 -13.237  -2.779  1.00  0.00     0.000 C 
BRANCH   3   4
ATOM      4  C   UNL     1     -17.954 -11.755  -2.760  1.00  0.00     0.000 C 
BRANCH   4   5
ATOM      5  C   UNL     1     -16.470 -11.562  -2.404  1.00  0.00     0.000 C 
BRANCH   5   6
ATOM      6  C   UNL     1     -16.271 -10.971  -0.998  1.00  0.00     0.000 C 
BRANCH   6   7
ATOM      7  C   UNL     1     -15.169 -11.688  -0.203  1.00  0.00     0.006 C 
BRANCH   7   8
ATOM      8  C   UNL     1     -13.928 -10.801  -0.061  1.00  0.00     0.053 C 
BRANCH   8   9
ATOM      9  C   UNL     1     -12.794 -11.576   0.530  1.00  0.00     0.041 C 
ATOM     10  O   UNL     1     -11.648 -11.060   0.608  1.00  0.00    -0.550 OA
ATOM     11  O   UNL     1     -12.987 -12.891   0.937  1.00  0.00    -0.550 OA
ENDBRANCH   8   9
ENDBRANCH   7   8
ENDBRANCH   6   7
ENDBRANCH   5   6
ENDBRANCH   4   5
ENDBRANCH   3   4
ENDBRANCH   2   3
ENDBRANCH   1   2
BRANCH   1  12
ATOM     12  C   UNL     1     -18.135 -14.471  -0.388  1.00  0.00     0.000 C 
BRANCH  12  13
ATOM     13  C   UNL     1     -18.462 -15.619   0.585  1.00  0.00    -0.000 C 
BRANCH  13  14
ATOM     14  C   UNL     1     -17.554 -15.699   1.830  1.00  0.00    -0.000 C 
BRANCH  14  15
ATOM     15  C   UNL     1     -17.849 -16.874   2.786  1.00  0.00    -0.000 C 
BRANCH  15  16
ATOM     16  C   UNL     1     -19.030 -17.771   2.366  1.00  0.00    -0.000 C 
BRANCH  16  17
ATOM     17  C   UNL     1     -18.631 -19.180   1.891  1.00  0.00    -0.000 C 
BRANCH  17  18
ATOM     18  C   UNL     1     -17.114 -19.353   1.664  1.00  0.00    -0.000 C 
BRANCH  18  19
ATOM     19  C   UNL     1     -16.517 -20.484   2.515  1.00  0.00    -0.003 C 
ATOM     20  C   UNL     1     -15.694 -19.927   3.673  1.00  0.00     0.004 C 
ENDBRANCH  18  19
ENDBRANCH  17  18
ENDBRANCH  16  17
ENDBRANCH  15  16
ENDBRANCH  14  15
ENDBRANCH  13  14
ENDBRANCH  12  13
ENDBRANCH   1  12
TORSDOF 16
ENDMDL
MODEL 5
REMARK VINA RESULT:    -3.393      4.935      6.987
REMARK INTER + INTRA:          -9.034
REMARK INTER:                  -7.053
REMARK INTRA:                  -1.981
REMARK UNBOUND:                -2.466
REMARK SMILES CCCCCCCCCCCCCCCCCC(=O)[O-]
REMARK SMILES IDX 10 1 11 2 12 3 13 4 14 5 15 6 16 7 17 8 18 9 19 10 20 11
REMARK SMILES IDX 9 12 8 13 7 14 6 15 5 16 4 17 3 18 2 19 1 20
REMARK H PARENT
REMARK Flexibility Score: inf
ROOT
ATOM      1  C   UNL     1     -17.975 -16.637   3.055  1.00  0.00     0.000 C 
ENDROOT
BRANCH   1   2
ATOM      2  C   UNL     1     -18.920 -16.642   1.844  1.00  0.00     0.000 C 
BRANCH   2   3
ATOM      3  C   UNL     1     -18.422 -15.748   0.694  1.00  0.00     0.000 C 
BRANCH   3   4
ATOM      4  C   UNL     1     -17.247 -14.820   1.054  1.00  0.00     0.000 C 
BRANCH   4   5
ATOM      5  C   UNL     1     -16.518 -14.275  -0.186  1.00  0.00     0.000 C 
BRANCH   5   6
ATOM      6  C   UNL     1     -17.154 -14.750  -1.503  1.00  0.00     0.000 C 
BRANCH   6   7
ATOM      7  C   UNL     1     -17.349 -13.610  -2.515  1.00  0.00     0.006 C 
BRANCH   7   8
ATOM      8  C   UNL     1     -18.461 -13.944  -3.513  1.00  0.00     0.053 C 
BRANCH   8   9
ATOM      9  C   UNL     1     -19.376 -12.774  -3.689  1.00  0.00     0.041 C 
ATOM     10  O   UNL     1     -18.916 -11.602  -3.671  1.00  0.00    -0.550 OA
ATOM     11  O   UNL     1     -20.746 -12.975  -3.813  1.00  0.00    -0.550 OA
ENDBRANCH   8   9
ENDBRANCH   7   8
ENDBRANCH   6   7
ENDBRANCH   5   6
ENDBRANCH   4   5
ENDBRANCH   3   4
ENDBRANCH   2   3
ENDBRANCH   1   2
BRANCH   1  12
ATOM     12  C   UNL     1     -17.406 -18.041   3.310  1.00  0.00     0.000 C 
BRANCH  12  13
ATOM     13  C   UNL     1     -17.276 -18.876   2.022  1.00  0.00    -0.000 C 
BRANCH  13  14
ATOM     14  C   UNL     1     -16.917 -20.361   2.241  1.00  0.00    -0.000 C 
BRANCH  14  15
ATOM     15  C   UNL     1     -17.524 -21.006   3.505  1.00  0.00    -0.000 C 
BRANCH  15  16
ATOM     16  C   UNL     1     -18.966 -21.521   3.341  1.00  0.00    -0.000 C 
BRANCH  16  17
ATOM     17  C   UNL     1     -20.048 -20.619   3.963  1.00  0.00    -0.000 C 
BRANCH  17  18
ATOM     18  C   UNL     1     -20.784 -19.734   2.935  1.00  0.00    -0.000 C 
BRANCH  18  19
ATOM     19  C   UNL     1     -21.022 -20.457   1.600  1.00  0.00    -0.003 C 
ATOM     20  C   UNL     1     -20.708 -19.545   0.417  1.00  0.00     0.004 C 
ENDBRANCH  18  19
ENDBRANCH  17  18
ENDBRANCH  16  17
ENDBRANCH  15  16
ENDBRANCH  14  15
ENDBRANCH  13  14
ENDBRANCH  12  13
ENDBRANCH   1  12
TORSDOF 16
ENDMDL
MODEL 6
REMARK VINA RESULT:    -3.392      6.433      8.304
REMARK INTER + INTRA:          -9.030
REMARK INTER:                  -6.799
REMARK INTRA:                  -2.232
REMARK UNBOUND:                -2.466
REMARK SMILES CCCCCCCCCCCCCCCCCC(=O)[O-]
REMARK SMILES IDX 10 1 11 2 12 3 13 4 14 5 15 6 16 7 17 8 18 9 19 10 20 11
REMARK SMILES IDX 9 12 8 13 7 14 6 15 5 16 4 17 3 18 2 19 1 20
REMARK H PARENT
REMARK Flexibility Score: inf
ROOT
ATOM      1  C   UNL     1     -15.393 -11.527  -0.364  1.00  0.00     0.000 C 
ENDROOT
BRANCH   1   2
ATOM      2  C   UNL     1     -14.055 -10.824  -0.086  1.00  0.00     0.000 C 
BRANCH   2   3
ATOM      3  C   UNL     1     -13.248 -11.499   1.038  1.00  0.00     0.000 C 
BRANCH   3   4
ATOM      4  C   UNL     1     -12.193 -12.515   0.561  1.00  0.00     0.000 C 
BRANCH   4   5
ATOM      5  C   UNL     1     -12.335 -13.885   1.247  1.00  0.00     0.000 C 
BRANCH   5   6
ATOM      6  C   UNL     1     -12.803 -13.770   2.707  1.00  0.00     0.000 C 
BRANCH   6   7
ATOM      7  C   UNL     1     -11.697 -14.116   3.715  1.00  0.00     0.006 C 
BRANCH   7   8
ATOM      8  C   UNL     1     -11.577 -15.631   3.903  1.00  0.00     0.053 C 
BRANCH   8   9
ATOM      9  C   UNL     1     -12.218 -16.054   5.186  1.00  0.00     0.041 C 
ATOM     10  O   UNL     1     -11.991 -15.414   6.248  1.00  0.00    -0.550 OA
ATOM     11  O   UNL     1     -13.016 -17.191   5.224  1.00  0.00    -0.550 OA
ENDBRANCH   8   9
ENDBRANCH   7   8
ENDBRANCH   6   7
ENDBRANCH   5   6
ENDBRANCH   4   5
ENDBRANCH   3   4
ENDBRANCH   2   3
ENDBRANCH   1   2
BRANCH   1  12
ATOM     12  C   UNL     1     -16.194 -11.709   0.935  1.00  0.00     0.000 C 
BRANCH  12  13
ATOM     13  C   UNL     1     -16.597 -13.174   1.189  1.00  0.00    -0.000 C 
BRANCH  13  14
ATOM     14  C   UNL     1     -16.149 -14.173   0.101  1.00  0.00    -0.000 C 
BRANCH  14  15
ATOM     15  C   UNL     1     -17.283 -14.746  -0.775  1.00  0.00    -0.000 C 
BRANCH  15  16
ATOM     16  C   UNL     1     -17.009 -14.716  -2.290  1.00  0.00    -0.000 C 
BRANCH  16  17
ATOM     17  C   UNL     1     -18.042 -13.929  -3.117  1.00  0.00    -0.000 C 
BRANCH  17  18
ATOM     18  C   UNL     1     -18.098 -12.425  -2.769  1.00  0.00    -0.000 C 
BRANCH  18  19
ATOM     19  C   UNL     1     -19.488 -11.985  -2.285  1.00  0.00    -0.003 C 
ATOM     20  C   UNL     1     -19.475 -11.669  -0.791  1.00  0.00     0.004 C 
ENDBRANCH  18  19
ENDBRANCH  17  18
ENDBRANCH  16  17
ENDBRANCH  15  16
ENDBRANCH  14  15
ENDBRANCH  13  14
ENDBRANCH  12  13
ENDBRANCH   1  12
TORSDOF 16
ENDMDL
MODEL 7
REMARK VINA RESULT:    -3.381      1.598      3.806
REMARK INTER + INTRA:          -9.010
REMARK INTER:                  -6.312
REMARK INTRA:                  -2.698
REMARK UNBOUND:                -2.466
REMARK SMILES CCCCCCCCCCCCCCCCCC(=O)[O-]
REMARK SMILES IDX 10 1 11 2 12 3 13 4 14 5 15 6 16 7 17 8 18 9 19 10 20 11
REMARK SMILES IDX 9 12 8 13 7 14 6 15 5 16 4 17 3 18 2 19 1 20
REMARK H PARENT
REMARK Flexibility Score: inf
ROOT
ATOM      1  C   UNL     1     -17.607 -17.494   3.294  1.00  0.00     0.000 C 
ENDROOT
BRANCH   1   2
ATOM      2  C   UNL     1     -17.977 -18.241   2.003  1.00  0.00     0.000 C 
BRANCH   2   3
ATOM      3  C   UNL     1     -17.101 -19.483   1.759  1.00  0.00     0.000 C 
BRANCH   3   4
ATOM      4  C   UNL     1     -16.847 -20.355   3.004  1.00  0.00     0.000 C 
BRANCH   4   5
ATOM      5  C   UNL     1     -17.981 -21.362   3.265  1.00  0.00     0.000 C 
BRANCH   5   6
ATOM      6  C   UNL     1     -18.521 -21.284   4.703  1.00  0.00     0.000 C 
BRANCH   6   7
ATOM      7  C   UNL     1     -17.623 -20.453   5.632  1.00  0.00     0.006 C 
BRANCH   7   8
ATOM      8  C   UNL     1     -16.780 -21.357   6.536  1.00  0.00     0.053 C 
BRANCH   8   9
ATOM      9  C   UNL     1     -15.332 -20.997   6.436  1.00  0.00     0.041 C 
ATOM     10  O   UNL     1     -14.990 -19.813   6.177  1.00  0.00    -0.550 OA
ATOM     11  O   UNL     1     -14.360 -21.982   6.567  1.00  0.00    -0.550 OA
ENDBRANCH   8   9
ENDBRANCH   7   8
ENDBRANCH   6   7
ENDBRANCH   5   6
ENDBRANCH   4   5
ENDBRANCH   3   4
ENDBRANCH   2   3
ENDBRANCH   1   2
BRANCH   1  12
ATOM     12  C   UNL     1     -18.837 -17.328   4.200  1.00  0.00     0.000 C 
BRANCH  12  13
ATOM     13  C   UNL     1     -20.167 -17.444   3.430  1.00  0.00    -0.000 C 
BRANCH  13  14
ATOM     14  C   UNL     1     -21.149 -18.500   3.980  1.00  0.00    -0.000 C 
BRANCH  14  15
ATOM     15  C   UNL     1     -22.123 -19.096   2.941  1.00  0.00    -0.000 C 
BRANCH  15  16
ATOM     16  C   UNL     1     -21.944 -20.603   2.676  1.00  0.00    -0.000 C 
BRANCH  16  17
ATOM     17  C   UNL     1     -21.011 -20.944   1.499  1.00  0.00    -0.000 C 
BRANCH  17  18
ATOM     18  C   UNL     1     -20.917 -19.826   0.438  1.00  0.00    -0.000 C 
BRANCH  18  19
ATOM     19  C   UNL     1     -21.409 -20.283  -0.943  1.00  0.00    -0.003 C 
ATOM     20  C   UNL     1     -22.794 -19.719  -1.248  1.00  0.00     0.004 C 
ENDBRANCH  18  19
ENDBRANCH  17  18
ENDBRANCH  16  17
ENDBRANCH  15  16
ENDBRANCH  14  15
ENDBRANCH  13  14
ENDBRANCH  12  13
ENDBRANCH   1  12
TORSDOF 16
ENDMDL
MODEL 8
REMARK VINA RESULT:    -3.369      4.869      6.474
REMARK INTER + INTRA:          -8.986
REMARK INTER:                  -7.330
REMARK INTRA:                  -1.655
REMARK UNBOUND:                -2.466
REMARK SMILES CCCCCCCCCCCCCCCCCC(=O)[O-]
REMARK SMILES IDX 10 1 11 2 12 3 13 4 14 5 15 6 16 7 17 8 18 9 19 10 20 11
REMARK SMILES IDX 9 12 8 13 7 14 6 15 5 16 4 17 3 18 2 19 1 20
REMARK H PARENT
REMARK Flexibility Score: inf
ROOT
ATOM      1  C   UNL     1     -19.295 -17.347   2.318  1.00  0.00     0.000 C 
ENDROOT
BRANCH   1   2
ATOM      2  C   UNL     1     -17.958 -16.885   1.717  1.00  0.00     0.000 C 
BRANCH   2   3
ATOM      3  C   UNL     1     -18.102 -15.633   0.832  1.00  0.00     0.000 C 
BRANCH   3   4
ATOM      4  C   UNL     1     -16.934 -14.633   0.926  1.00  0.00     0.000 C 
BRANCH   4   5
ATOM      5  C   UNL     1     -16.607 -13.972  -0.424  1.00  0.00     0.000 C 
BRANCH   5   6
ATOM      6  C   UNL     1     -17.020 -14.842  -1.624  1.00  0.00     0.000 C 
BRANCH   6   7
ATOM      7  C   UNL     1     -17.312 -14.016  -2.885  1.00  0.00     0.006 C 
BRANCH   7   8
ATOM      8  C   UNL     1     -18.576 -13.171  -2.709  1.00  0.00     0.053 C 
BRANCH   8   9
ATOM      9  C   UNL     1     -18.222 -11.731  -2.514  1.00  0.00     0.041 C 
ATOM     10  O   UNL     1     -19.116 -10.894  -2.217  1.00  0.00    -0.550 OA
ATOM     11  O   UNL     1     -16.917 -11.301  -2.721  1.00  0.00    -0.550 OA
ENDBRANCH   8   9
ENDBRANCH   7   8
ENDBRANCH   6   7
ENDBRANCH   5   6
ENDBRANCH   4   5
ENDBRANCH   3   4
ENDBRANCH   2   3
ENDBRANCH   1   2
BRANCH   1  12
ATOM     12  C   UNL     1     -20.462 -17.013   1.377  1.00  0.00     0.000 C 
BRANCH  12  13
ATOM     13  C   UNL     1     -21.034 -18.255   0.668  1.00  0.00    -0.000 C 
BRANCH  13  14
ATOM     14  C   UNL     1     -20.316 -19.581   0.994  1.00  0.00    -0.000 C 
BRANCH  14  15
ATOM     15  C   UNL     1     -21.201 -20.668   1.641  1.00  0.00    -0.000 C 
BRANCH  15  16
ATOM     16  C   UNL     1     -20.485 -21.554   2.678  1.00  0.00    -0.000 C 
BRANCH  16  17
ATOM     17  C   UNL     1     -19.420 -20.828   3.521  1.00  0.00    -0.000 C 
BRANCH  17  18
ATOM     18  C   UNL     1     -17.984 -21.341   3.280  1.00  0.00    -0.000 C 
BRANCH  18  19
ATOM     19  C   UNL     1     -16.962 -20.200   3.166  1.00  0.00    -0.003 C 
ATOM     20  C   UNL     1     -16.349 -20.147   1.769  1.00  0.00     0.004 C 
ENDBRANCH  18  19
ENDBRANCH  17  18
ENDBRANCH  16  17
ENDBRANCH  15  16
ENDBRANCH  14  15
ENDBRANCH  13  14
ENDBRANCH  12  13
ENDBRANCH   1  12
TORSDOF 16
ENDMDL
MODEL 9
REMARK VINA RESULT:    -3.312      1.854      3.658
REMARK INTER + INTRA:          -8.876
REMARK INTER:                  -6.166
REMARK INTRA:                  -2.710
REMARK UNBOUND:                -2.466
REMARK SMILES CCCCCCCCCCCCCCCCCC(=O)[O-]
REMARK SMILES IDX 10 1 11 2 12 3 13 4 14 5 15 6 16 7 17 8 18 9 19 10 20 11
REMARK SMILES IDX 9 12 8 13 7 14 6 15 5 16 4 17 3 18 2 19 1 20
REMARK H PARENT
REMARK Flexibility Score: inf
ROOT
ATOM      1  C   UNL     1     -20.163 -18.408   2.721  1.00  0.00     0.000 C 
ENDROOT
BRANCH   1   2
ATOM      2  C   UNL     1     -19.201 -18.468   1.524  1.00  0.00     0.000 C 
BRANCH   2   3
ATOM      3  C   UNL     1     -17.722 -18.384   1.941  1.00  0.00     0.000 C 
BRANCH   3   4
ATOM      4  C   UNL     1     -16.887 -19.642   1.635  1.00  0.00     0.000 C 
BRANCH   4   5
ATOM      5  C   UNL     1     -16.113 -20.156   2.861  1.00  0.00     0.000 C 
BRANCH   5   6
ATOM      6  C   UNL     1     -17.034 -20.474   4.051  1.00  0.00     0.000 C 
BRANCH   6   7
ATOM      7  C   UNL     1     -18.027 -21.607   3.748  1.00  0.00     0.006 C 
BRANCH   7   8
ATOM      8  C   UNL     1     -19.062 -21.745   4.868  1.00  0.00     0.053 C 
BRANCH   8   9
ATOM      9  C   UNL     1     -19.763 -23.063   4.776  1.00  0.00     0.041 C 
ATOM     10  O   UNL     1     -21.002 -23.107   4.556  1.00  0.00    -0.550 OA
ATOM     11  O   UNL     1     -19.058 -24.241   4.994  1.00  0.00    -0.550 OA
ENDBRANCH   8   9
ENDBRANCH   7   8
ENDBRANCH   6   7
ENDBRANCH   5   6
ENDBRANCH   4   5
ENDBRANCH   3   4
ENDBRANCH   2   3
ENDBRANCH   1   2
BRANCH   1  12
ATOM     12  C   UNL     1     -21.067 -19.649   2.757  1.00  0.00     0.000 C 
BRANCH  12  13
ATOM     13  C   UNL     1     -20.741 -20.660   1.641  1.00  0.00    -0.000 C 
BRANCH  13  14
ATOM     14  C   UNL     1     -21.968 -21.278   0.940  1.00  0.00    -0.000 C 
BRANCH  14  15
ATOM     15  C   UNL     1     -21.863 -21.386  -0.597  1.00  0.00    -0.000 C 
BRANCH  15  16
ATOM     16  C   UNL     1     -21.886 -20.040  -1.344  1.00  0.00    -0.000 C 
BRANCH  16  17
ATOM     17  C   UNL     1     -23.247 -19.320  -1.335  1.00  0.00    -0.000 C 
BRANCH  17  18
ATOM     18  C   UNL     1     -23.146 -17.806  -1.052  1.00  0.00    -0.000 C 
BRANCH  18  19
ATOM     19  C   UNL     1     -23.040 -17.493   0.448  1.00  0.00    -0.003 C 
ATOM     20  C   UNL     1     -24.135 -18.206   1.237  1.00  0.00     0.004 C 
ENDBRANCH  18  19
ENDBRANCH  17  18
ENDBRANCH  16  17
ENDBRANCH  15  16
ENDBRANCH  14  15
ENDBRANCH  13  14
ENDBRANCH  12  13
ENDBRANCH   1  12
TORSDOF 16
ENDMDL
