MODEL 1
REMARK VINA RESULT:    -3.203      0.000      0.000
REMARK INTER + INTRA:          -4.219
REMARK INTER:                  -4.701
REMARK INTRA:                   0.482
REMARK UNBOUND:                 0.482
REMARK SMILES C=C1CC=CC(C)(C)CC=C(C)CCC1
REMARK SMILES IDX 2 1 1 2 15 3 14 4 13 5 11 6 12 7 10 8 3 10 4 11 5 12 6 13
REMARK SMILES IDX 7 14 8 15 9 16
REMARK H PARENT
REMARK Flexibility Score: 60.00
ROOT
ATOM      1  C   UNL     1      29.547  11.362  27.926  1.00  0.00    -0.074 C 
ATOM      2  C   UNL     1      30.312  12.416  28.255  1.00  0.00     0.008 C 
ENDROOT
BRANCH   1   3
ATOM      3  C   UNL     1      29.056  10.435  29.024  1.00  0.00     0.031 C 
BRANCH   3   4
ATOM      4  C   UNL     1      29.968   9.212  29.211  1.00  0.00     0.009 C 
BRANCH   4   5
ATOM      5  C   UNL     1      29.489   7.960  28.449  1.00  0.00     0.030 C 
BRANCH   5   6
ATOM      6  C   UNL     1      30.560   7.379  27.532  1.00  0.00    -0.077 C 
ATOM      7  C   UNL     1      31.805   6.809  28.169  1.00  0.00     0.039 C 
ATOM      8  C   UNL     1      30.503   7.373  26.175  1.00  0.00    -0.027 CG0
ATOM      9  G   UNL     1      29.447   8.014  25.294  1.00  0.00     0.000 G0
ENDBRANCH   5   6
ENDBRANCH   4   5
ENDBRANCH   3   4
ENDBRANCH   1   3
BRANCH   1  10
ATOM     10  C   UNL     1      29.281  11.074  26.462  1.00  0.00     0.057 C 
BRANCH  10  11
ATOM     11  C   UNL     1      30.556  10.966  25.665  1.00  0.00    -0.026 C 
ATOM     12  C   UNL     1      30.844  10.075  24.690  1.00  0.00    -0.024 C 
BRANCH  12  13
ATOM     13  C   UNL     1      29.983   8.922  24.158  1.00  0.00    -0.014 C 
ATOM     14  C   UNL     1      28.778   9.544  23.405  1.00  0.00     0.016 C 
ATOM     15  C   UNL     1      30.778   8.099  23.119  1.00  0.00     0.016 C 
BRANCH  13  16
ATOM     16  C   UNL     1      29.437   7.989  25.286  1.00  0.00     0.038 CG0
ATOM     17  G   UNL     1      30.527   7.402  26.164  1.00  0.00     0.000 G0
ENDBRANCH  13  16
ENDBRANCH  12  13
ENDBRANCH  10  11
ENDBRANCH   1  10
TORSDOF 0
ENDMDL
MODEL 2
REMARK VINA RESULT:    -2.858      1.516      2.298
REMARK INTER + INTRA:          -3.713
REMARK INTER:                  -4.272
REMARK INTRA:                   0.560
REMARK UNBOUND:                 0.482
REMARK SMILES C=C1CC=CC(C)(C)CC=C(C)CCC1
REMARK SMILES IDX 2 1 1 2 15 3 14 4 13 5 11 6 12 7 10 8 3 10 4 11 5 12 6 13
REMARK SMILES IDX 7 14 8 15 9 16
REMARK H PARENT
REMARK Flexibility Score: 60.00
ROOT
ATOM      1  C   UNL     1      29.335  11.352  25.722  1.00  0.00    -0.074 C 
ATOM      2  C   UNL     1      30.004  12.100  26.615  1.00  0.00     0.008 C 
ENDROOT
BRANCH   1   3
ATOM      3  C   UNL     1      28.384  10.280  26.224  1.00  0.00     0.031 C 
BRANCH   3   4
ATOM      4  C   UNL     1      28.988   9.447  27.365  1.00  0.00     0.009 C 
BRANCH   4   5
ATOM      5  C   UNL     1      30.122   8.507  26.912  1.00  0.00     0.030 C 
BRANCH   5   6
ATOM      6  C   UNL     1      29.644   7.420  25.954  1.00  0.00    -0.077 C 
ATOM      7  C   UNL     1      28.959   6.209  26.541  1.00  0.00     0.039 C 
ATOM      8  C   UNL     1      29.826   7.434  24.609  1.00  0.00    -0.027 CG0
ATOM      9  G   UNL     1      30.610   8.447  23.795  1.00  0.00     0.000 G0
ENDBRANCH   5   6
ENDBRANCH   4   5
ENDBRANCH   3   4
ENDBRANCH   1   3
BRANCH   1  10
ATOM     10  C   UNL     1      29.626  11.531  24.246  1.00  0.00     0.057 C 
BRANCH  10  11
ATOM     11  C   UNL     1      28.578  10.882  23.378  1.00  0.00    -0.026 C 
ATOM     12  C   UNL     1      28.705   9.760  22.636  1.00  0.00    -0.024 C 
BRANCH  12  13
ATOM     13  C   UNL     1      29.939   8.870  22.444  1.00  0.00    -0.014 C 
ATOM     14  C   UNL     1      29.483   7.587  21.702  1.00  0.00     0.016 C 
ATOM     15  C   UNL     1      30.965   9.572  21.525  1.00  0.00     0.016 C 
BRANCH  13  16
ATOM     16  C   UNL     1      30.615   8.453  23.790  1.00  0.00     0.038 CG0
ATOM     17  G   UNL     1      29.804   7.446  24.586  1.00  0.00     0.000 G0
ENDBRANCH  13  16
ENDBRANCH  12  13
ENDBRANCH  10  11
ENDBRANCH   1  10
TORSDOF 0
ENDMDL
MODEL 3
REMARK VINA RESULT:    -2.847      1.688      4.265
REMARK INTER + INTRA:          -3.697
REMARK INTER:                  -4.277
REMARK INTRA:                   0.580
REMARK UNBOUND:                 0.482
REMARK SMILES C=C1CC=CC(C)(C)CC=C(C)CCC1
REMARK SMILES IDX 2 1 1 2 15 3 14 4 13 5 11 6 12 7 10 8 3 10 4 11 5 12 6 13
REMARK SMILES IDX 7 14 8 15 9 16
REMARK H PARENT
REMARK Flexibility Score: 60.00
ROOT
ATOM      1  C   UNL     1      30.063   7.776  27.056  1.00  0.00    -0.074 C 
ATOM      2  C   UNL     1      31.249   7.222  27.361  1.00  0.00     0.008 C 
ENDROOT
BRANCH   1   3
ATOM      3  C   UNL     1      29.134   7.049  26.100  1.00  0.00     0.031 C 
BRANCH   3   4
ATOM      4  C   UNL     1      29.771   6.825  24.719  1.00  0.00     0.009 C 
BRANCH   4   5
ATOM      5  C   UNL     1      30.600   8.025  24.218  1.00  0.00     0.030 C 
BRANCH   5   6
ATOM      6  C   UNL     1      29.786   8.991  23.363  1.00  0.00    -0.077 C 
ATOM      7  C   UNL     1      29.098   8.444  22.135  1.00  0.00     0.039 C 
ATOM      8  C   UNL     1      29.667  10.323  23.595  1.00  0.00    -0.027 CG0
ATOM      9  G   UNL     1      30.375  11.141  24.659  1.00  0.00     0.000 G0
ENDBRANCH   5   6
ENDBRANCH   4   5
ENDBRANCH   3   4
ENDBRANCH   1   3
BRANCH   1  10
ATOM     10  C   UNL     1      29.733   9.153  27.595  1.00  0.00     0.057 C 
BRANCH  10  11
ATOM     11  C   UNL     1      28.462   9.704  27.002  1.00  0.00    -0.026 C 
ATOM     12  C   UNL     1      28.328  10.791  26.210  1.00  0.00    -0.024 C 
BRANCH  12  13
ATOM     13  C   UNL     1      29.407  11.771  25.731  1.00  0.00    -0.014 C 
ATOM     14  C   UNL     1      28.688  12.989  25.096  1.00  0.00     0.016 C 
ATOM     15  C   UNL     1      30.210  12.309  26.937  1.00  0.00     0.016 C 
BRANCH  13  16
ATOM     16  C   UNL     1      30.373  11.153  24.670  1.00  0.00     0.038 CG0
ATOM     17  G   UNL     1      29.660  10.337  23.607  1.00  0.00     0.000 G0
ENDBRANCH  13  16
ENDBRANCH  12  13
ENDBRANCH  10  11
ENDBRANCH   1  10
TORSDOF 0
ENDMDL
MODEL 4
REMARK VINA RESULT:    -2.843      1.986      4.203
REMARK INTER + INTRA:          -3.690
REMARK INTER:                  -4.950
REMARK INTRA:                   1.260
REMARK UNBOUND:                 0.482
REMARK SMILES C=C1CC=CC(C)(C)CC=C(C)CCC1
REMARK SMILES IDX 2 1 1 2 15 3 14 4 13 5 11 6 12 7 10 8 3 10 4 11 5 12 6 13
REMARK SMILES IDX 7 14 8 15 9 16
REMARK H PARENT
REMARK Flexibility Score: 60.00
ROOT
ATOM      1  C   UNL     1      30.882   7.963  31.530  1.00  0.00    -0.074 C 
ATOM      2  C   UNL     1      31.645   7.355  32.453  1.00  0.00     0.008 C 
ENDROOT
BRANCH   1   3
ATOM      3  C   UNL     1      30.468   9.407  31.751  1.00  0.00     0.031 C 
BRANCH   3   4
ATOM      4  C   UNL     1      30.541  10.243  30.463  1.00  0.00     0.009 C 
BRANCH   4   5
ATOM      5  C   UNL     1      29.162  10.568  29.857  1.00  0.00     0.030 C 
BRANCH   5   6
ATOM      6  C   UNL     1      29.195  10.682  28.335  1.00  0.00    -0.077 C 
ATOM      7  C   UNL     1      29.024  12.051  27.723  1.00  0.00     0.039 C 
ATOM      8  C   UNL     1      29.324   9.635  27.481  1.00  0.00    -0.027 CG0
ATOM      9  G   UNL     1      29.357   8.158  27.829  1.00  0.00     0.000 G0
ENDBRANCH   5   6
ENDBRANCH   4   5
ENDBRANCH   3   4
ENDBRANCH   1   3
BRANCH   1  10
ATOM     10  C   UNL     1      30.375   7.160  30.349  1.00  0.00     0.057 C 
BRANCH  10  11
ATOM     11  C   UNL     1      31.494   6.719  29.441  1.00  0.00    -0.026 C 
ATOM     12  C   UNL     1      31.544   6.809  28.093  1.00  0.00    -0.024 C 
BRANCH  12  13
ATOM     13  C   UNL     1      30.480   7.344  27.126  1.00  0.00    -0.014 C 
ATOM     14  C   UNL     1      31.192   8.273  26.110  1.00  0.00     0.016 C 
ATOM     15  C   UNL     1      29.868   6.181  26.311  1.00  0.00     0.016 C 
BRANCH  13  16
ATOM     16  C   UNL     1      29.351   8.156  27.839  1.00  0.00     0.038 CG0
ATOM     17  G   UNL     1      29.346   9.630  27.474  1.00  0.00     0.000 G0
ENDBRANCH  13  16
ENDBRANCH  12  13
ENDBRANCH  10  11
ENDBRANCH   1  10
TORSDOF 0
ENDMDL
MODEL 5
REMARK VINA RESULT:    -2.798      1.554      3.547
REMARK INTER + INTRA:          -3.625
REMARK INTER:                  -4.230
REMARK INTRA:                   0.605
REMARK UNBOUND:                 0.482
REMARK SMILES C=C1CC=CC(C)(C)CC=C(C)CCC1
REMARK SMILES IDX 2 1 1 2 15 3 14 4 13 5 11 6 12 7 10 8 3 10 4 11 5 12 6 13
REMARK SMILES IDX 7 14 8 15 9 16
REMARK H PARENT
REMARK Flexibility Score: 60.00
ROOT
ATOM      1  C   UNL     1      30.253   7.041  27.820  1.00  0.00    -0.074 C 
ATOM      2  C   UNL     1      31.112   6.009  27.784  1.00  0.00     0.008 C 
ENDROOT
BRANCH   1   3
ATOM      3  C   UNL     1      29.717   7.508  29.163  1.00  0.00     0.031 C 
BRANCH   3   4
ATOM      4  C   UNL     1      30.165   8.937  29.509  1.00  0.00     0.009 C 
BRANCH   4   5
ATOM      5  C   UNL     1      29.129  10.017  29.140  1.00  0.00     0.030 C 
BRANCH   5   6
ATOM      6  C   UNL     1      29.750  11.215  28.428  1.00  0.00    -0.077 C 
ATOM      7  C   UNL     1      30.550  12.193  29.254  1.00  0.00     0.039 C 
ATOM      8  C   UNL     1      29.602  11.498  27.108  1.00  0.00    -0.027 CG0
ATOM      9  G   UNL     1      28.731  10.769  26.101  1.00  0.00     0.000 G0
ENDBRANCH   5   6
ENDBRANCH   4   5
ENDBRANCH   3   4
ENDBRANCH   1   3
BRANCH   1  10
ATOM     10  C   UNL     1      29.768   7.642  26.516  1.00  0.00     0.057 C 
BRANCH  10  11
ATOM     11  C   UNL     1      30.864   8.376  25.787  1.00  0.00    -0.026 C 
ATOM     12  C   UNL     1      30.756   9.522  25.078  1.00  0.00    -0.024 C 
BRANCH  12  13
ATOM     13  C   UNL     1      29.504  10.360  24.792  1.00  0.00    -0.014 C 
ATOM     14  C   UNL     1      29.957  11.646  24.054  1.00  0.00     0.016 C 
ATOM     15  C   UNL     1      28.564   9.602  23.826  1.00  0.00     0.016 C 
BRANCH  13  16
ATOM     16  C   UNL     1      28.730  10.774  26.085  1.00  0.00     0.038 CG0
ATOM     17  G   UNL     1      29.595  11.502  27.098  1.00  0.00     0.000 G0
ENDBRANCH  13  16
ENDBRANCH  12  13
ENDBRANCH  10  11
ENDBRANCH   1  10
TORSDOF 0
ENDMDL
MODEL 6
REMARK VINA RESULT:    -2.760      1.721      3.858
REMARK INTER + INTRA:          -3.568
REMARK INTER:                  -4.370
REMARK INTRA:                   0.802
REMARK UNBOUND:                 0.482
REMARK SMILES C=C1CC=CC(C)(C)CC=C(C)CCC1
REMARK SMILES IDX 2 1 1 2 15 3 14 4 13 5 11 6 12 7 10 8 3 10 4 11 5 12 6 13
REMARK SMILES IDX 7 14 8 15 9 16
REMARK H PARENT
REMARK Flexibility Score: 60.00
ROOT
ATOM      1  C   UNL     1      29.789   9.169  29.280  1.00  0.00    -0.074 C 
ATOM      2  C   UNL     1      30.397   9.252  30.475  1.00  0.00     0.008 C 
ENDROOT
BRANCH   1   3
ATOM      3  C   UNL     1      29.961   7.908  28.451  1.00  0.00     0.031 C 
BRANCH   3   4
ATOM      4  C   UNL     1      30.543   8.197  27.058  1.00  0.00     0.009 C 
BRANCH   4   5
ATOM      5  C   UNL     1      29.471   8.405  25.970  1.00  0.00     0.030 C 
BRANCH   5   6
ATOM      6  C   UNL     1      29.841   9.501  24.975  1.00  0.00    -0.077 C 
ATOM      7  C   UNL     1      30.928   9.207  23.970  1.00  0.00     0.039 C 
ATOM      8  C   UNL     1      29.297  10.744  24.951  1.00  0.00    -0.027 CG0
ATOM      9  G   UNL     1      28.308  11.338  25.938  1.00  0.00     0.000 G0
ENDBRANCH   5   6
ENDBRANCH   4   5
ENDBRANCH   3   4
ENDBRANCH   1   3
BRANCH   1  10
ATOM     10  C   UNL     1      29.034  10.373  28.753  1.00  0.00     0.057 C 
BRANCH  10  11
ATOM     11  C   UNL     1      29.931  11.570  28.571  1.00  0.00    -0.026 C 
ATOM     12  C   UNL     1      29.810  12.557  27.656  1.00  0.00    -0.024 C 
BRANCH  12  13
ATOM     13  C   UNL     1      28.765  12.713  26.543  1.00  0.00    -0.014 C 
ATOM     14  C   UNL     1      27.528  13.420  27.155  1.00  0.00     0.016 C 
ATOM     15  C   UNL     1      29.303  13.643  25.433  1.00  0.00     0.016 C 
BRANCH  13  16
ATOM     16  C   UNL     1      28.307  11.349  25.932  1.00  0.00     0.038 CG0
ATOM     17  G   UNL     1      29.306  10.762  24.952  1.00  0.00     0.000 G0
ENDBRANCH  13  16
ENDBRANCH  12  13
ENDBRANCH  10  11
ENDBRANCH   1  10
TORSDOF 0
ENDMDL
MODEL 7
REMARK VINA RESULT:    -2.659      6.565      8.902
REMARK INTER + INTRA:          -3.421
REMARK INTER:                  -4.089
REMARK INTRA:                   0.668
REMARK UNBOUND:                 0.482
REMARK SMILES C=C1CC=CC(C)(C)CC=C(C)CCC1
REMARK SMILES IDX 2 1 1 2 15 3 14 4 13 5 11 6 12 7 10 8 3 10 4 11 5 12 6 13
REMARK SMILES IDX 7 14 8 15 9 16
REMARK H PARENT
REMARK Flexibility Score: 60.00
ROOT
ATOM      1  C   UNL     1      30.713  11.066  32.017  1.00  0.00    -0.074 C 
ATOM      2  C   UNL     1      31.418  11.909  31.244  1.00  0.00     0.008 C 
ENDROOT
BRANCH   1   3
ATOM      3  C   UNL     1      29.218  10.928  31.786  1.00  0.00     0.031 C 
BRANCH   3   4
ATOM      4  C   UNL     1      28.390  11.530  32.932  1.00  0.00     0.009 C 
BRANCH   4   5
ATOM      5  C   UNL     1      27.777  10.474  33.874  1.00  0.00     0.030 C 
BRANCH   5   6
ATOM      6  C   UNL     1      28.306  10.577  35.302  1.00  0.00    -0.077 C 
ATOM      7  C   UNL     1      28.189  11.907  36.007  1.00  0.00     0.039 C 
ATOM      8  C   UNL     1      28.917   9.571  35.979  1.00  0.00    -0.027 CG0
ATOM      9  G   UNL     1      29.294   8.199  35.450  1.00  0.00     0.000 G0
ENDBRANCH   5   6
ENDBRANCH   4   5
ENDBRANCH   3   4
ENDBRANCH   1   3
BRANCH   1  10
ATOM     10  C   UNL     1      31.412  10.356  33.159  1.00  0.00     0.057 C 
BRANCH  10  11
ATOM     11  C   UNL     1      31.519   8.871  32.924  1.00  0.00    -0.026 C 
ATOM     12  C   UNL     1      31.264   7.878  33.804  1.00  0.00    -0.024 C 
BRANCH  12  13
ATOM     13  C   UNL     1      30.838   7.983  35.274  1.00  0.00    -0.014 C 
ATOM     14  C   UNL     1      31.245   6.663  35.977  1.00  0.00     0.016 C 
ATOM     15  C   UNL     1      31.619   9.118  35.975  1.00  0.00     0.016 C 
BRANCH  13  16
ATOM     16  C   UNL     1      29.300   8.192  35.456  1.00  0.00     0.038 CG0
ATOM     17  G   UNL     1      28.934   9.576  35.961  1.00  0.00     0.000 G0
ENDBRANCH  13  16
ENDBRANCH  12  13
ENDBRANCH  10  11
ENDBRANCH   1  10
TORSDOF 0
ENDMDL
MODEL 8
REMARK VINA RESULT:    -2.646      2.400      5.631
REMARK INTER + INTRA:          -3.401
REMARK INTER:                  -4.019
REMARK INTRA:                   0.618
REMARK UNBOUND:                 0.482
REMARK SMILES C=C1CC=CC(C)(C)CC=C(C)CCC1
REMARK SMILES IDX 2 1 1 2 15 3 14 4 13 5 11 6 12 7 10 8 3 10 4 11 5 12 6 13
REMARK SMILES IDX 7 14 8 15 9 16
REMARK H PARENT
REMARK Flexibility Score: 60.00
ROOT
ATOM      1  C   UNL     1      30.615   8.595  23.740  1.00  0.00    -0.074 C 
ATOM      2  C   UNL     1      30.174   7.442  23.211  1.00  0.00     0.008 C 
ENDROOT
BRANCH   1   3
ATOM      3  C   UNL     1      31.507   9.496  22.903  1.00  0.00     0.031 C 
BRANCH   3   4
ATOM      4  C   UNL     1      30.770  10.747  22.398  1.00  0.00     0.009 C 
BRANCH   4   5
ATOM      5  C   UNL     1      31.099  12.024  23.195  1.00  0.00     0.030 C 
BRANCH   5   6
ATOM      6  C   UNL     1      29.852  12.774  23.654  1.00  0.00    -0.077 C 
ATOM      7  C   UNL     1      29.156  13.668  22.657  1.00  0.00     0.039 C 
ATOM      8  C   UNL     1      29.340  12.735  24.911  1.00  0.00    -0.027 CG0
ATOM      9  G   UNL     1      29.931  12.045  26.127  1.00  0.00     0.000 G0
ENDBRANCH   5   6
ENDBRANCH   4   5
ENDBRANCH   3   4
ENDBRANCH   1   3
BRANCH   1  10
ATOM     10  C   UNL     1      30.293   8.914  25.186  1.00  0.00     0.057 C 
BRANCH  10  11
ATOM     11  C   UNL     1      28.816   9.115  25.407  1.00  0.00    -0.026 C 
ATOM     12  C   UNL     1      28.217  10.089  26.128  1.00  0.00    -0.024 C 
BRANCH  12  13
ATOM     13  C   UNL     1      28.863  11.220  26.938  1.00  0.00    -0.014 C 
ATOM     14  C   UNL     1      27.733  12.178  27.393  1.00  0.00     0.016 C 
ATOM     15  C   UNL     1      29.509  10.653  28.223  1.00  0.00     0.016 C 
BRANCH  13  16
ATOM     16  C   UNL     1      29.913  12.040  26.121  1.00  0.00     0.038 CG0
ATOM     17  G   UNL     1      29.322  12.744  24.913  1.00  0.00     0.000 G0
ENDBRANCH  13  16
ENDBRANCH  12  13
ENDBRANCH  10  11
ENDBRANCH   1  10
TORSDOF 0
ENDMDL
MODEL 9
REMARK VINA RESULT:    -2.589      2.284      5.153
REMARK INTER + INTRA:          -3.317
REMARK INTER:                  -3.848
REMARK INTRA:                   0.530
REMARK UNBOUND:                 0.482
REMARK SMILES C=C1CC=CC(C)(C)CC=C(C)CCC1
REMARK SMILES IDX 2 1 1 2 15 3 14 4 13 5 11 6 12 7 10 8 3 10 4 11 5 12 6 13
REMARK SMILES IDX 7 14 8 15 9 16
REMARK H PARENT
REMARK Flexibility Score: 60.00
ROOT
ATOM      1  C   UNL     1      29.602   8.291  26.406  1.00  0.00    -0.074 C 
ATOM      2  C   UNL     1      29.118   7.222  27.060  1.00  0.00     0.008 C 
ENDROOT
BRANCH   1   3
ATOM      3  C   UNL     1      30.248   8.093  25.046  1.00  0.00     0.031 C 
BRANCH   3   4
ATOM      4  C   UNL     1      29.402   8.677  23.904  1.00  0.00     0.009 C 
BRANCH   4   5
ATOM      5  C   UNL     1      30.027   9.922  23.243  1.00  0.00     0.030 C 
BRANCH   5   6
ATOM      6  C   UNL     1      29.026  11.056  23.050  1.00  0.00    -0.077 C 
ATOM      7  C   UNL     1      28.153  11.029  21.819  1.00  0.00     0.039 C 
ATOM      8  C   UNL     1      28.887  12.120  23.882  1.00  0.00    -0.027 CG0
ATOM      9  G   UNL     1      29.737  12.463  25.091  1.00  0.00     0.000 G0
ENDBRANCH   5   6
ENDBRANCH   4   5
ENDBRANCH   3   4
ENDBRANCH   1   3
BRANCH   1  10
ATOM     10  C   UNL     1      29.580   9.644  27.089  1.00  0.00     0.057 C 
BRANCH  10  11
ATOM     11  C   UNL     1      28.219  10.288  27.028  1.00  0.00    -0.026 C 
ATOM     12  C   UNL     1      27.929  11.572  26.723  1.00  0.00    -0.024 C 
BRANCH  12  13
ATOM     13  C   UNL     1      28.890  12.722  26.395  1.00  0.00    -0.014 C 
ATOM     14  C   UNL     1      28.041  14.005  26.202  1.00  0.00     0.016 C 
ATOM     15  C   UNL     1      29.831  12.989  27.593  1.00  0.00     0.016 C 
BRANCH  13  16
ATOM     16  C   UNL     1      29.725  12.477  25.097  1.00  0.00     0.038 CG0
ATOM     17  G   UNL     1      28.874  12.121  23.891  1.00  0.00     0.000 G0
ENDBRANCH  13  16
ENDBRANCH  12  13
ENDBRANCH  10  11
ENDBRANCH   1  10
TORSDOF 0
ENDMDL
