MODEL 1
REMARK VINA RESULT:    -1.935      0.000      0.000
REMARK INTER + INTRA:          -1.935
REMARK INTER:                  -1.935
REMARK INTRA:                   0.000
REMARK UNBOUND:                 0.000
REMARK SMILES CC(=O)[O-]
REMARK SMILES IDX 1 1 2 2 3 3 4 4
REMARK H PARENT
REMARK Flexibility Score: inf
ROOT
ATOM      1  C   UNL     1      -7.742  -5.291   4.364  1.00  0.00     0.063 C 
ATOM      2  C   UNL     1      -8.644  -6.041   3.444  1.00  0.00     0.038 C 
ATOM      3  O   UNL     1      -9.874  -6.124   3.695  1.00  0.00    -0.550 OA
ATOM      4  O   UNL     1      -8.138  -6.602   2.279  1.00  0.00    -0.550 OA
ENDROOT
TORSDOF 0
ENDMDL
MODEL 2
REMARK VINA RESULT:    -1.933      1.600      1.772
REMARK INTER + INTRA:          -1.933
REMARK INTER:                  -1.933
REMARK INTRA:                   0.000
REMARK UNBOUND:                 0.000
REMARK SMILES CC(=O)[O-]
REMARK SMILES IDX 1 1 2 2 3 3 4 4
REMARK H PARENT
REMARK Flexibility Score: inf
ROOT
ATOM      1  C   UNL     1      -9.679  -6.448   3.805  1.00  0.00     0.063 C 
ATOM      2  C   UNL     1      -8.318  -6.473   3.197  1.00  0.00     0.038 C 
ATOM      3  O   UNL     1      -7.330  -6.036   3.843  1.00  0.00    -0.550 OA
ATOM      4  O   UNL     1      -8.128  -7.028   1.939  1.00  0.00    -0.550 OA
ENDROOT
TORSDOF 0
ENDMDL
MODEL 3
REMARK VINA RESULT:    -1.908      1.627      1.989
REMARK INTER + INTRA:          -1.908
REMARK INTER:                  -1.908
REMARK INTRA:                   0.000
REMARK UNBOUND:                 0.000
REMARK SMILES CC(=O)[O-]
REMARK SMILES IDX 1 1 2 2 3 3 4 4
REMARK H PARENT
REMARK Flexibility Score: inf
ROOT
ATOM      1  C   UNL     1      -9.539  -6.371   3.836  1.00  0.00     0.063 C 
ATOM      2  C   UNL     1      -8.205  -6.594   3.208  1.00  0.00     0.038 C 
ATOM      3  O   UNL     1      -8.126  -6.937   1.999  1.00  0.00    -0.550 OA
ATOM      4  O   UNL     1      -7.046  -6.372   3.938  1.00  0.00    -0.550 OA
ENDROOT
TORSDOF 0
ENDMDL
MODEL 4
REMARK VINA RESULT:    -1.908      0.110      1.620
REMARK INTER + INTRA:          -1.908
REMARK INTER:                  -1.908
REMARK INTRA:                   0.000
REMARK UNBOUND:                 0.000
REMARK SMILES CC(=O)[O-]
REMARK SMILES IDX 1 1 2 2 3 3 4 4
REMARK H PARENT
REMARK Flexibility Score: inf
ROOT
ATOM      1  C   UNL     1      -7.791  -5.259   4.331  1.00  0.00     0.063 C 
ATOM      2  C   UNL     1      -8.663  -6.029   3.398  1.00  0.00     0.038 C 
ATOM      3  O   UNL     1      -8.179  -6.532   2.351  1.00  0.00    -0.550 OA
ATOM      4  O   UNL     1      -9.999  -6.240   3.710  1.00  0.00    -0.550 OA
ENDROOT
TORSDOF 0
ENDMDL
MODEL 5
REMARK VINA RESULT:    -1.875      2.268      2.572
REMARK INTER + INTRA:          -1.875
REMARK INTER:                  -1.875
REMARK INTRA:                   0.000
REMARK UNBOUND:                 0.000
REMARK SMILES CC(=O)[O-]
REMARK SMILES IDX 1 1 2 2 3 3 4 4
REMARK H PARENT
REMARK Flexibility Score: inf
ROOT
ATOM      1  C   UNL     1      -9.546  -8.149   2.808  1.00  0.00     0.063 C 
ATOM      2  C   UNL     1      -8.256  -7.535   2.382  1.00  0.00     0.038 C 
ATOM      3  O   UNL     1      -7.524  -6.955   3.225  1.00  0.00    -0.550 OA
ATOM      4  O   UNL     1      -7.833  -7.650   1.064  1.00  0.00    -0.550 OA
ENDROOT
TORSDOF 0
ENDMDL
MODEL 6
REMARK VINA RESULT:    -1.797     15.781     16.387
REMARK INTER + INTRA:          -1.797
REMARK INTER:                  -1.797
REMARK INTRA:                   0.000
REMARK UNBOUND:                 0.000
REMARK SMILES CC(=O)[O-]
REMARK SMILES IDX 1 1 2 2 3 3 4 4
REMARK H PARENT
REMARK Flexibility Score: inf
ROOT
ATOM      1  C   UNL     1       6.547  -4.518   3.754  1.00  0.00     0.063 C 
ATOM      2  C   UNL     1       7.590  -4.563   4.819  1.00  0.00     0.038 C 
ATOM      3  O   UNL     1       7.254  -4.605   6.031  1.00  0.00    -0.550 OA
ATOM      4  O   UNL     1       8.934  -4.614   4.474  1.00  0.00    -0.550 OA
ENDROOT
TORSDOF 0
ENDMDL
MODEL 7
REMARK VINA RESULT:    -1.753     11.059     11.448
REMARK INTER + INTRA:          -1.753
REMARK INTER:                  -1.753
REMARK INTRA:                   0.000
REMARK UNBOUND:                 0.000
REMARK SMILES CC(=O)[O-]
REMARK SMILES IDX 1 1 2 2 3 3 4 4
REMARK H PARENT
REMARK Flexibility Score: inf
ROOT
ATOM      1  C   UNL     1       0.140  -0.738   7.992  1.00  0.00     0.063 C 
ATOM      2  C   UNL     1      -0.542   0.583   7.884  1.00  0.00     0.038 C 
ATOM      3  O   UNL     1      -1.799   0.645   7.872  1.00  0.00    -0.550 OA
ATOM      4  O   UNL     1       0.207   1.752   7.852  1.00  0.00    -0.550 OA
ENDROOT
TORSDOF 0
ENDMDL
MODEL 8
REMARK VINA RESULT:    -1.729     11.674     11.969
REMARK INTER + INTRA:          -1.729
REMARK INTER:                  -1.729
REMARK INTRA:                   0.000
REMARK UNBOUND:                 0.000
REMARK SMILES CC(=O)[O-]
REMARK SMILES IDX 1 1 2 2 3 3 4 4
REMARK H PARENT
REMARK Flexibility Score: inf
ROOT
ATOM      1  C   UNL     1      -6.223   6.294   4.974  1.00  0.00     0.063 C 
ATOM      2  C   UNL     1      -7.588   5.698   4.921  1.00  0.00     0.038 C 
ATOM      3  O   UNL     1      -8.110   5.413   3.812  1.00  0.00    -0.550 OA
ATOM      4  O   UNL     1      -8.266   5.406   6.097  1.00  0.00    -0.550 OA
ENDROOT
TORSDOF 0
ENDMDL
MODEL 9
REMARK VINA RESULT:    -1.722      1.993      2.699
REMARK INTER + INTRA:          -1.722
REMARK INTER:                  -1.722
REMARK INTRA:                   0.000
REMARK UNBOUND:                 0.000
REMARK SMILES CC(=O)[O-]
REMARK SMILES IDX 1 1 2 2 3 3 4 4
REMARK H PARENT
REMARK Flexibility Score: inf
ROOT
ATOM      1  C   UNL     1      -8.683  -5.755   3.410  1.00  0.00     0.063 C 
ATOM      2  C   UNL     1      -7.587  -5.827   4.419  1.00  0.00     0.038 C 
ATOM      3  O   UNL     1      -6.526  -6.451   4.155  1.00  0.00    -0.550 OA
ATOM      4  O   UNL     1      -7.711  -5.160   5.630  1.00  0.00    -0.550 OA
ENDROOT
TORSDOF 0
ENDMDL
