MODEL 1
REMARK VINA RESULT:     0.326      0.000      0.000
REMARK INTER + INTRA:           0.162
REMARK INTER:                   0.411
REMARK INTRA:                  -0.249
REMARK UNBOUND:                -0.249
REMARK SMILES CC(C)=CCCC(C)=CCO
REMARK SMILES IDX 7 1 9 2 8 3 6 4 5 5 4 6 1 7 2 8 3 9 10 10 11 11
REMARK H PARENT 11 12
REMARK Flexibility Score: inf
ROOT
ATOM      1  C   UNL     1     -22.260 -11.651 -52.471  1.00  0.00    -0.075 C 
ATOM      2  C   UNL     1     -21.075 -11.636 -53.122  1.00  0.00    -0.000 C 
ATOM      3  C   UNL     1     -22.306 -11.142 -51.054  1.00  0.00     0.039 C 
ENDROOT
BRANCH   1   4
ATOM      4  C   UNL     1     -23.549 -12.110 -53.124  1.00  0.00     0.034 C 
BRANCH   4   5
ATOM      5  C   UNL     1     -24.761 -11.440 -52.465  1.00  0.00     0.032 C 
BRANCH   5   6
ATOM      6  C   UNL     1     -26.050 -11.971 -53.038  1.00  0.00    -0.028 C 
ATOM      7  C   UNL     1     -28.400 -11.925 -53.750  1.00  0.00     0.039 C 
ATOM      8  C   UNL     1     -27.196 -11.262 -53.134  1.00  0.00    -0.080 C 
ATOM      9  C   UNL     1     -27.306  -9.842 -52.628  1.00  0.00     0.039 C 
ENDBRANCH   5   6
ENDBRANCH   4   5
ENDBRANCH   1   4
BRANCH   2  10
ATOM     10  C   UNL     1     -20.875 -12.100 -54.538  1.00  0.00     0.183 C 
BRANCH  10  11
ATOM     11  O   UNL     1     -20.940 -11.006 -55.410  1.00  0.00    -0.392 OA
ATOM     12  H   UNL     1     -20.266 -11.179 -56.119  1.00  0.00     0.210 HD
ENDBRANCH  10  11
ENDBRANCH   2  10
TORSDOF 5
ENDMDL
MODEL 2
REMARK VINA RESULT:     0.893     17.311     18.275
REMARK INTER + INTRA:           0.878
REMARK INTER:                   0.819
REMARK INTRA:                   0.059
REMARK UNBOUND:                -0.249
REMARK SMILES CC(C)=CCCC(C)=CCO
REMARK SMILES IDX 7 1 9 2 8 3 6 4 5 5 4 6 1 7 2 8 3 9 10 10 11 11
REMARK H PARENT 11 12
REMARK Flexibility Score: inf
ROOT
ATOM      1  C   UNL     1     -21.662   7.057 -57.252  1.00  0.00    -0.075 C 
ATOM      2  C   UNL     1     -20.988   5.951 -57.642  1.00  0.00    -0.000 C 
ATOM      3  C   UNL     1     -20.912   8.125 -56.499  1.00  0.00     0.039 C 
ENDROOT
BRANCH   1   4
ATOM      4  C   UNL     1     -23.123   7.288 -57.586  1.00  0.00     0.034 C 
BRANCH   4   5
ATOM      5  C   UNL     1     -24.009   6.245 -56.896  1.00  0.00     0.032 C 
BRANCH   5   6
ATOM      6  C   UNL     1     -25.418   6.757 -56.733  1.00  0.00    -0.028 C 
ATOM      7  C   UNL     1     -27.873   6.667 -56.716  1.00  0.00     0.039 C 
ATOM      8  C   UNL     1     -26.531   6.019 -56.939  1.00  0.00    -0.080 C 
ATOM      9  C   UNL     1     -26.467   4.582 -57.401  1.00  0.00     0.039 C 
ENDBRANCH   5   6
ENDBRANCH   4   5
ENDBRANCH   1   4
BRANCH   2  10
ATOM     10  C   UNL     1     -21.596   4.808 -58.407  1.00  0.00     0.183 C 
BRANCH  10  11
ATOM     11  O   UNL     1     -21.268   4.919 -59.764  1.00  0.00    -0.392 OA
ATOM     12  H   UNL     1     -20.368   4.513 -59.864  1.00  0.00     0.210 HD
ENDBRANCH  10  11
ENDBRANCH   2  10
TORSDOF 5
ENDMDL
MODEL 3
REMARK VINA RESULT:     1.130      2.404      3.049
REMARK INTER + INTRA:           1.178
REMARK INTER:                   1.431
REMARK INTRA:                  -0.252
REMARK UNBOUND:                -0.249
REMARK SMILES CC(C)=CCCC(C)=CCO
REMARK SMILES IDX 7 1 9 2 8 3 6 4 5 5 4 6 1 7 2 8 3 9 10 10 11 11
REMARK H PARENT 11 12
REMARK Flexibility Score: inf
ROOT
ATOM      1  C   UNL     1     -21.701 -11.547 -51.712  1.00  0.00    -0.075 C 
ATOM      2  C   UNL     1     -21.063 -11.074 -50.618  1.00  0.00    -0.000 C 
ATOM      3  C   UNL     1     -20.875 -11.933 -52.912  1.00  0.00     0.039 C 
ENDROOT
BRANCH   1   4
ATOM      4  C   UNL     1     -23.202 -11.754 -51.762  1.00  0.00     0.034 C 
BRANCH   4   5
ATOM      5  C   UNL     1     -23.788 -11.167 -53.052  1.00  0.00     0.032 C 
BRANCH   5   6
ATOM      6  C   UNL     1     -25.108 -11.815 -53.388  1.00  0.00    -0.028 C 
ATOM      7  C   UNL     1     -27.545 -12.124 -53.384  1.00  0.00     0.039 C 
ATOM      8  C   UNL     1     -26.309 -11.383 -52.945  1.00  0.00    -0.080 C 
ATOM      9  C   UNL     1     -26.443 -10.198 -52.015  1.00  0.00     0.039 C 
ENDBRANCH   5   6
ENDBRANCH   4   5
ENDBRANCH   1   4
BRANCH   2  10
ATOM     10  C   UNL     1     -21.748 -10.659 -49.346  1.00  0.00     0.183 C 
BRANCH  10  11
ATOM     11  O   UNL     1     -20.956 -11.005 -48.245  1.00  0.00    -0.392 OA
ATOM     12  H   UNL     1     -20.624 -11.924 -48.423  1.00  0.00     0.210 HD
ENDBRANCH  10  11
ENDBRANCH   2  10
TORSDOF 5
ENDMDL
MODEL 4
REMARK VINA RESULT:     1.444     20.722     23.211
REMARK INTER + INTRA:           1.575
REMARK INTER:                   1.143
REMARK INTRA:                   0.433
REMARK UNBOUND:                -0.249
REMARK SMILES CC(C)=CCCC(C)=CCO
REMARK SMILES IDX 7 1 9 2 8 3 6 4 5 5 4 6 1 7 2 8 3 9 10 10 11 11
REMARK H PARENT 11 12
REMARK Flexibility Score: inf
ROOT
ATOM      1  C   UNL     1     -38.560   7.162 -52.418  1.00  0.00    -0.075 C 
ATOM      2  C   UNL     1     -39.778   6.815 -52.892  1.00  0.00    -0.000 C 
ATOM      3  C   UNL     1     -38.490   8.125 -51.261  1.00  0.00     0.039 C 
ENDROOT
BRANCH   1   4
ATOM      4  C   UNL     1     -37.270   6.585 -52.966  1.00  0.00     0.034 C 
BRANCH   4   5
ATOM      5  C   UNL     1     -37.080   6.979 -54.435  1.00  0.00     0.032 C 
BRANCH   5   6
ATOM      6  C   UNL     1     -35.733   7.621 -54.653  1.00  0.00    -0.028 C 
ATOM      7  C   UNL     1     -33.282   7.782 -54.700  1.00  0.00     0.039 C 
ATOM      8  C   UNL     1     -34.548   7.017 -54.415  1.00  0.00    -0.080 C 
ATOM      9  C   UNL     1     -34.460   5.614 -53.859  1.00  0.00     0.039 C 
ENDBRANCH   5   6
ENDBRANCH   4   5
ENDBRANCH   1   4
BRANCH   2  10
ATOM     10  C   UNL     1     -40.007   5.860 -54.031  1.00  0.00     0.183 C 
BRANCH  10  11
ATOM     11  O   UNL     1     -40.382   6.570 -55.178  1.00  0.00    -0.392 OA
ATOM     12  H   UNL     1     -39.587   6.570 -55.774  1.00  0.00     0.210 HD
ENDBRANCH  10  11
ENDBRANCH   2  10
TORSDOF 5
ENDMDL
MODEL 5
REMARK VINA RESULT:     2.705     21.369     23.067
REMARK INTER + INTRA:           3.168
REMARK INTER:                   3.626
REMARK INTRA:                  -0.458
REMARK UNBOUND:                -0.249
REMARK SMILES CC(C)=CCCC(C)=CCO
REMARK SMILES IDX 7 1 9 2 8 3 6 4 5 5 4 6 1 7 2 8 3 9 10 10 11 11
REMARK H PARENT 11 12
REMARK Flexibility Score: inf
ROOT
ATOM      1  C   UNL     1     -39.623   5.722 -53.850  1.00  0.00    -0.075 C 
ATOM      2  C   UNL     1     -40.362   4.589 -53.850  1.00  0.00    -0.000 C 
ATOM      3  C   UNL     1     -39.726   6.644 -55.037  1.00  0.00     0.039 C 
ENDROOT
BRANCH   1   4
ATOM      4  C   UNL     1     -38.739   6.126 -52.686  1.00  0.00     0.034 C 
BRANCH   4   5
ATOM      5  C   UNL     1     -37.888   7.348 -53.050  1.00  0.00     0.032 C 
BRANCH   5   6
ATOM      6  C   UNL     1     -36.442   6.962 -53.239  1.00  0.00    -0.028 C 
ATOM      7  C   UNL     1     -34.249   6.870 -54.342  1.00  0.00     0.039 C 
ATOM      8  C   UNL     1     -35.688   7.316 -54.302  1.00  0.00    -0.080 C 
ATOM      9  C   UNL     1     -36.247   8.123 -55.451  1.00  0.00     0.039 C 
ENDBRANCH   5   6
ENDBRANCH   4   5
ENDBRANCH   1   4
BRANCH   2  10
ATOM     10  C   UNL     1     -40.372   3.579 -52.735  1.00  0.00     0.183 C 
BRANCH  10  11
ATOM     11  O   UNL     1     -40.734   2.323 -53.236  1.00  0.00    -0.392 OA
ATOM     12  H   UNL     1     -40.770   1.714 -52.452  1.00  0.00     0.210 HD
ENDBRANCH  10  11
ENDBRANCH   2  10
TORSDOF 5
ENDMDL
MODEL 6
REMARK VINA RESULT:     3.000     21.171     23.547
REMARK INTER + INTRA:           3.540
REMARK INTER:                   3.714
REMARK INTRA:                  -0.174
REMARK UNBOUND:                -0.249
REMARK SMILES CC(C)=CCCC(C)=CCO
REMARK SMILES IDX 7 1 9 2 8 3 6 4 5 5 4 6 1 7 2 8 3 9 10 10 11 11
REMARK H PARENT 11 12
REMARK Flexibility Score: inf
ROOT
ATOM      1  C   UNL     1     -39.936   5.919 -54.218  1.00  0.00    -0.075 C 
ATOM      2  C   UNL     1     -40.000   6.306 -55.513  1.00  0.00    -0.000 C 
ATOM      3  C   UNL     1     -40.473   4.561 -53.849  1.00  0.00     0.039 C 
ENDROOT
BRANCH   1   4
ATOM      4  C   UNL     1     -39.301   6.771 -53.137  1.00  0.00     0.034 C 
BRANCH   4   5
ATOM      5  C   UNL     1     -37.826   6.398 -52.947  1.00  0.00     0.032 C 
BRANCH   5   6
ATOM      6  C   UNL     1     -36.940   7.223 -53.846  1.00  0.00    -0.028 C 
ATOM      7  C   UNL     1     -34.888   7.863 -55.034  1.00  0.00     0.039 C 
ATOM      8  C   UNL     1     -35.640   6.956 -54.095  1.00  0.00    -0.080 C 
ATOM      9  C   UNL     1     -34.920   5.794 -53.449  1.00  0.00     0.039 C 
ENDBRANCH   5   6
ENDBRANCH   4   5
ENDBRANCH   1   4
BRANCH   2  10
ATOM     10  C   UNL     1     -39.496   7.624 -56.033  1.00  0.00     0.183 C 
BRANCH  10  11
ATOM     11  O   UNL     1     -40.330   8.078 -57.062  1.00  0.00    -0.392 OA
ATOM     12  H   UNL     1     -40.238   9.066 -57.076  1.00  0.00     0.210 HD
ENDBRANCH  10  11
ENDBRANCH   2  10
TORSDOF 5
ENDMDL
MODEL 7
REMARK VINA RESULT:     3.023     21.424     23.188
REMARK INTER + INTRA:           3.569
REMARK INTER:                   2.374
REMARK INTRA:                   1.196
REMARK UNBOUND:                -0.249
REMARK SMILES CC(C)=CCCC(C)=CCO
REMARK SMILES IDX 7 1 9 2 8 3 6 4 5 5 4 6 1 7 2 8 3 9 10 10 11 11
REMARK H PARENT 11 12
REMARK Flexibility Score: inf
ROOT
ATOM      1  C   UNL     1     -38.931   6.254 -53.611  1.00  0.00    -0.075 C 
ATOM      2  C   UNL     1     -38.946   6.915 -52.431  1.00  0.00    -0.000 C 
ATOM      3  C   UNL     1     -40.176   5.522 -54.038  1.00  0.00     0.039 C 
ENDROOT
BRANCH   1   4
ATOM      4  C   UNL     1     -37.734   6.263 -54.541  1.00  0.00     0.034 C 
BRANCH   4   5
ATOM      5  C   UNL     1     -37.346   7.699 -54.914  1.00  0.00     0.032 C 
BRANCH   5   6
ATOM      6  C   UNL     1     -35.855   7.823 -55.104  1.00  0.00    -0.028 C 
ATOM      7  C   UNL     1     -33.478   7.315 -54.753  1.00  0.00     0.039 C 
ATOM      8  C   UNL     1     -34.934   7.091 -54.440  1.00  0.00    -0.080 C 
ATOM      9  C   UNL     1     -35.321   6.078 -53.387  1.00  0.00     0.039 C 
ENDBRANCH   5   6
ENDBRANCH   4   5
ENDBRANCH   1   4
BRANCH   2  10
ATOM     10  C   UNL     1     -37.786   7.697 -51.878  1.00  0.00     0.183 C 
BRANCH  10  11
ATOM     11  O   UNL     1     -38.075   8.113 -50.572  1.00  0.00    -0.392 OA
ATOM     12  H   UNL     1     -37.748   9.048 -50.503  1.00  0.00     0.210 HD
ENDBRANCH  10  11
ENDBRANCH   2  10
TORSDOF 5
ENDMDL
