MODEL 1
REMARK VINA RESULT:    -3.796      0.000      0.000
REMARK INTER + INTRA:          -6.613
REMARK INTER:                  -5.793
REMARK INTRA:                  -0.820
REMARK UNBOUND:                -0.820
REMARK SMILES CCCCCCCCCCC(=O)[O-]
REMARK SMILES IDX 7 1 8 2 9 3 10 4 11 5 12 6 13 7 6 8 5 9 4 10 3 11 2 12 1 13
REMARK H PARENT
REMARK Flexibility Score: inf
ROOT
ATOM      1  C   UNL     1      -9.413  15.933 -12.584  1.00  0.00     0.000 C 
ENDROOT
BRANCH   1   2
ATOM      2  C   UNL     1      -9.244  17.363 -13.119  1.00  0.00     0.000 C 
BRANCH   2   3
ATOM      3  C   UNL     1      -8.396  17.420 -14.402  1.00  0.00     0.006 C 
BRANCH   3   4
ATOM      4  C   UNL     1      -7.150  18.300 -14.232  1.00  0.00     0.053 C 
BRANCH   4   5
ATOM      5  C   UNL     1      -7.508  19.693 -13.815  1.00  0.00     0.041 C 
ATOM      6  O   UNL     1      -8.212  20.419 -14.566  1.00  0.00    -0.550 OA
ATOM      7  O   UNL     1      -7.093  20.178 -12.581  1.00  0.00    -0.550 OA
ENDBRANCH   4   5
ENDBRANCH   3   4
ENDBRANCH   2   3
ENDBRANCH   1   2
BRANCH   1   8
ATOM      8  C   UNL     1      -8.105  15.350 -12.031  1.00  0.00     0.000 C 
BRANCH   8   9
ATOM      9  C   UNL     1      -7.892  13.913 -12.529  1.00  0.00    -0.000 C 
BRANCH   9  10
ATOM     10  C   UNL     1      -7.377  13.854 -13.976  1.00  0.00    -0.000 C 
BRANCH  10  11
ATOM     11  C   UNL     1      -8.067  12.757 -14.805  1.00  0.00    -0.000 C 
BRANCH  11  12
ATOM     12  C   UNL     1      -9.317  13.270 -15.537  1.00  0.00    -0.003 C 
ATOM     13  C   UNL     1     -10.308  12.154 -15.871  1.00  0.00     0.004 C 
ENDBRANCH  11  12
ENDBRANCH  10  11
ENDBRANCH   9  10
ENDBRANCH   8   9
ENDBRANCH   1   8
TORSDOF 9
ENDMDL
MODEL 2
REMARK VINA RESULT:    -3.687      2.143      3.034
REMARK INTER + INTRA:          -6.447
REMARK INTER:                  -5.566
REMARK INTRA:                  -0.881
REMARK UNBOUND:                -0.820
REMARK SMILES CCCCCCCCCCC(=O)[O-]
REMARK SMILES IDX 7 1 8 2 9 3 10 4 11 5 12 6 13 7 6 8 5 9 4 10 3 11 2 12 1 13
REMARK H PARENT
REMARK Flexibility Score: inf
ROOT
ATOM      1  C   UNL     1      -6.099  17.645 -14.644  1.00  0.00     0.000 C 
ENDROOT
BRANCH   1   2
ATOM      2  C   UNL     1      -6.927  18.939 -14.629  1.00  0.00     0.000 C 
BRANCH   2   3
ATOM      3  C   UNL     1      -8.428  18.679 -14.413  1.00  0.00     0.006 C 
BRANCH   3   4
ATOM      4  C   UNL     1      -8.770  18.462 -12.933  1.00  0.00     0.053 C 
BRANCH   4   5
ATOM      5  C   UNL     1      -9.109  17.031 -12.647  1.00  0.00     0.041 C 
ATOM      6  O   UNL     1     -10.242  16.574 -12.950  1.00  0.00    -0.550 OA
ATOM      7  O   UNL     1      -8.159  16.193 -12.076  1.00  0.00    -0.550 OA
ENDBRANCH   4   5
ENDBRANCH   3   4
ENDBRANCH   2   3
ENDBRANCH   1   2
BRANCH   1   8
ATOM      8  C   UNL     1      -6.505  16.695 -15.780  1.00  0.00     0.000 C 
BRANCH   8   9
ATOM      9  C   UNL     1      -6.881  15.311 -15.228  1.00  0.00    -0.000 C 
BRANCH   9  10
ATOM     10  C   UNL     1      -8.342  14.930 -15.518  1.00  0.00    -0.000 C 
BRANCH  10  11
ATOM     11  C   UNL     1      -8.844  13.786 -14.622  1.00  0.00    -0.000 C 
BRANCH  11  12
ATOM     12  C   UNL     1      -8.957  12.453 -15.378  1.00  0.00    -0.003 C 
ATOM     13  C   UNL     1     -10.372  12.181 -15.893  1.00  0.00     0.004 C 
ENDBRANCH  11  12
ENDBRANCH  10  11
ENDBRANCH   9  10
ENDBRANCH   8   9
ENDBRANCH   1   8
TORSDOF 9
ENDMDL
MODEL 3
REMARK VINA RESULT:    -3.444      2.781      5.491
REMARK INTER + INTRA:          -6.075
REMARK INTER:                  -5.292
REMARK INTRA:                  -0.783
REMARK UNBOUND:                -0.820
REMARK SMILES CCCCCCCCCCC(=O)[O-]
REMARK SMILES IDX 7 1 8 2 9 3 10 4 11 5 12 6 13 7 6 8 5 9 4 10 3 11 2 12 1 13
REMARK H PARENT
REMARK Flexibility Score: inf
ROOT
ATOM      1  C   UNL     1      -8.081  15.154 -12.153  1.00  0.00     0.000 C 
ENDROOT
BRANCH   1   2
ATOM      2  C   UNL     1      -7.815  13.806 -12.841  1.00  0.00     0.000 C 
BRANCH   2   3
ATOM      3  C   UNL     1      -7.028  13.955 -14.154  1.00  0.00     0.006 C 
BRANCH   3   4
ATOM      4  C   UNL     1      -7.666  13.164 -15.304  1.00  0.00     0.053 C 
BRANCH   4   5
ATOM      5  C   UNL     1      -9.047  13.655 -15.615  1.00  0.00     0.041 C 
ATOM      6  O   UNL     1      -9.215  14.794 -16.125  1.00  0.00    -0.550 OA
ATOM      7  O   UNL     1     -10.145  12.839 -15.375  1.00  0.00    -0.550 OA
ENDBRANCH   4   5
ENDBRANCH   3   4
ENDBRANCH   2   3
ENDBRANCH   1   2
BRANCH   1   8
ATOM      8  C   UNL     1      -9.318  15.870 -12.715  1.00  0.00     0.000 C 
BRANCH   8   9
ATOM      9  C   UNL     1      -9.059  17.377 -12.859  1.00  0.00    -0.000 C 
BRANCH   9  10
ATOM     10  C   UNL     1      -8.558  17.765 -14.259  1.00  0.00    -0.000 C 
BRANCH  10  11
ATOM     11  C   UNL     1      -7.024  17.814 -14.345  1.00  0.00    -0.000 C 
BRANCH  11  12
ATOM     12  C   UNL     1      -6.488  19.249 -14.479  1.00  0.00    -0.003 C 
ATOM     13  C   UNL     1      -7.165  20.227 -13.518  1.00  0.00     0.004 C 
ENDBRANCH  11  12
ENDBRANCH  10  11
ENDBRANCH   9  10
ENDBRANCH   8   9
ENDBRANCH   1   8
TORSDOF 9
ENDMDL
MODEL 4
REMARK VINA RESULT:    -3.394      1.527      2.036
REMARK INTER + INTRA:          -5.999
REMARK INTER:                  -5.311
REMARK INTRA:                  -0.689
REMARK UNBOUND:                -0.820
REMARK SMILES CCCCCCCCCCC(=O)[O-]
REMARK SMILES IDX 7 1 8 2 9 3 10 4 11 5 12 6 13 7 6 8 5 9 4 10 3 11 2 12 1 13
REMARK H PARENT
REMARK Flexibility Score: inf
ROOT
ATOM      1  C   UNL     1      -7.533  16.302 -15.934  1.00  0.00     0.000 C 
ENDROOT
BRANCH   1   2
ATOM      2  C   UNL     1      -7.211  17.801 -16.039  1.00  0.00     0.000 C 
BRANCH   2   3
ATOM      3  C   UNL     1      -8.430  18.691 -15.738  1.00  0.00     0.006 C 
BRANCH   3   4
ATOM      4  C   UNL     1      -8.059  19.911 -14.886  1.00  0.00     0.053 C 
BRANCH   4   5
ATOM      5  C   UNL     1      -7.955  19.562 -13.433  1.00  0.00     0.041 C 
ATOM      6  O   UNL     1      -8.651  18.629 -12.953  1.00  0.00    -0.550 OA
ATOM      7  O   UNL     1      -7.062  20.245 -12.617  1.00  0.00    -0.550 OA
ENDBRANCH   4   5
ENDBRANCH   3   4
ENDBRANCH   2   3
ENDBRANCH   1   2
BRANCH   1   8
ATOM      8  C   UNL     1      -7.304  15.745 -14.521  1.00  0.00     0.000 C 
BRANCH   8   9
ATOM      9  C   UNL     1      -8.544  14.987 -14.024  1.00  0.00    -0.000 C 
BRANCH   9  10
ATOM     10  C   UNL     1      -8.301  13.476 -13.879  1.00  0.00    -0.000 C 
BRANCH  10  11
ATOM     11  C   UNL     1      -8.240  12.754 -15.236  1.00  0.00    -0.000 C 
BRANCH  11  12
ATOM     12  C   UNL     1      -9.458  13.061 -16.121  1.00  0.00    -0.003 C 
ATOM     13  C   UNL     1     -10.569  12.018 -15.983  1.00  0.00     0.004 C 
ENDBRANCH  11  12
ENDBRANCH  10  11
ENDBRANCH   9  10
ENDBRANCH   8   9
ENDBRANCH   1   8
TORSDOF 9
ENDMDL
MODEL 5
REMARK VINA RESULT:    -3.358      1.156      2.913
REMARK INTER + INTRA:          -5.945
REMARK INTER:                  -4.807
REMARK INTRA:                  -1.138
REMARK UNBOUND:                -0.820
REMARK SMILES CCCCCCCCCCC(=O)[O-]
REMARK SMILES IDX 7 1 8 2 9 3 10 4 11 5 12 6 13 7 6 8 5 9 4 10 3 11 2 12 1 13
REMARK H PARENT
REMARK Flexibility Score: inf
ROOT
ATOM      1  C   UNL     1      -7.509  15.485 -15.981  1.00  0.00     0.000 C 
ENDROOT
BRANCH   1   2
ATOM      2  C   UNL     1      -8.141  16.885 -16.028  1.00  0.00     0.000 C 
BRANCH   2   3
ATOM      3  C   UNL     1      -7.096  18.010 -15.939  1.00  0.00     0.006 C 
BRANCH   3   4
ATOM      4  C   UNL     1      -6.727  18.343 -14.487  1.00  0.00     0.053 C 
BRANCH   4   5
ATOM      5  C   UNL     1      -7.510  19.511 -13.970  1.00  0.00     0.041 C 
ATOM      6  O   UNL     1      -8.394  20.050 -14.688  1.00  0.00    -0.550 OA
ATOM      7  O   UNL     1      -7.286  19.983 -12.683  1.00  0.00    -0.550 OA
ENDBRANCH   4   5
ENDBRANCH   3   4
ENDBRANCH   2   3
ENDBRANCH   1   2
BRANCH   1   8
ATOM      8  C   UNL     1      -8.552  14.361 -16.071  1.00  0.00     0.000 C 
BRANCH   8   9
ATOM      9  C   UNL     1      -8.569  13.526 -14.782  1.00  0.00    -0.000 C 
BRANCH   9  10
ATOM     10  C   UNL     1      -7.507  13.975 -13.766  1.00  0.00    -0.000 C 
BRANCH  10  11
ATOM     11  C   UNL     1      -8.120  14.424 -12.429  1.00  0.00    -0.000 C 
BRANCH  11  12
ATOM     12  C   UNL     1      -8.221  15.953 -12.310  1.00  0.00    -0.003 C 
ATOM     13  C   UNL     1      -9.611  16.484 -12.663  1.00  0.00     0.004 C 
ENDBRANCH  11  12
ENDBRANCH  10  11
ENDBRANCH   9  10
ENDBRANCH   8   9
ENDBRANCH   1   8
TORSDOF 9
ENDMDL
MODEL 6
REMARK VINA RESULT:    -3.312      2.094      5.507
REMARK INTER + INTRA:          -5.875
REMARK INTER:                  -5.104
REMARK INTRA:                  -0.771
REMARK UNBOUND:                -0.820
REMARK SMILES CCCCCCCCCCC(=O)[O-]
REMARK SMILES IDX 7 1 8 2 9 3 10 4 11 5 12 6 13 7 6 8 5 9 4 10 3 11 2 12 1 13
REMARK H PARENT
REMARK Flexibility Score: inf
ROOT
ATOM      1  C   UNL     1      -6.457  15.563 -14.775  1.00  0.00     0.000 C 
ENDROOT
BRANCH   1   2
ATOM      2  C   UNL     1      -7.908  15.077 -14.914  1.00  0.00     0.000 C 
BRANCH   2   3
ATOM      3  C   UNL     1      -8.438  14.418 -13.628  1.00  0.00     0.006 C 
BRANCH   3   4
ATOM      4  C   UNL     1      -8.260  15.320 -12.400  1.00  0.00     0.053 C 
BRANCH   4   5
ATOM      5  C   UNL     1      -9.128  16.538 -12.477  1.00  0.00     0.041 C 
ATOM      6  O   UNL     1      -8.697  17.651 -12.074  1.00  0.00    -0.550 OA
ATOM      7  O   UNL     1     -10.401  16.451 -13.025  1.00  0.00    -0.550 OA
ENDBRANCH   4   5
ENDBRANCH   3   4
ENDBRANCH   2   3
ENDBRANCH   1   2
BRANCH   1   8
ATOM      8  C   UNL     1      -6.139  16.748 -15.699  1.00  0.00     0.000 C 
BRANCH   8   9
ATOM      9  C   UNL     1      -6.349  18.084 -14.970  1.00  0.00    -0.000 C 
BRANCH   9  10
ATOM     10  C   UNL     1      -7.704  18.734 -15.295  1.00  0.00    -0.000 C 
BRANCH  10  11
ATOM     11  C   UNL     1      -7.923  20.054 -14.537  1.00  0.00    -0.000 C 
BRANCH  11  12
ATOM     12  C   UNL     1      -6.604  20.772 -14.212  1.00  0.00    -0.003 C 
ATOM     13  C   UNL     1      -6.443  21.071 -12.720  1.00  0.00     0.004 C 
ENDBRANCH  11  12
ENDBRANCH  10  11
ENDBRANCH   9  10
ENDBRANCH   8   9
ENDBRANCH   1   8
TORSDOF 9
ENDMDL
MODEL 7
REMARK VINA RESULT:    -3.303      2.387      5.239
REMARK INTER + INTRA:          -5.861
REMARK INTER:                  -4.996
REMARK INTRA:                  -0.865
REMARK UNBOUND:                -0.820
REMARK SMILES CCCCCCCCCCC(=O)[O-]
REMARK SMILES IDX 7 1 8 2 9 3 10 4 11 5 12 6 13 7 6 8 5 9 4 10 3 11 2 12 1 13
REMARK H PARENT
REMARK Flexibility Score: inf
ROOT
ATOM      1  C   UNL     1      -6.652  14.861 -15.671  1.00  0.00     0.000 C 
ENDROOT
BRANCH   1   2
ATOM      2  C   UNL     1      -6.603  13.587 -14.815  1.00  0.00     0.000 C 
BRANCH   2   3
ATOM      3  C   UNL     1      -7.487  13.682 -13.559  1.00  0.00     0.006 C 
BRANCH   3   4
ATOM      4  C   UNL     1      -8.768  14.488 -13.813  1.00  0.00     0.053 C 
BRANCH   4   5
ATOM      5  C   UNL     1      -8.927  15.603 -12.825  1.00  0.00     0.041 C 
ATOM      6  O   UNL     1     -10.001  16.259 -12.776  1.00  0.00    -0.550 OA
ATOM      7  O   UNL     1      -7.901  15.894 -11.935  1.00  0.00    -0.550 OA
ENDBRANCH   4   5
ENDBRANCH   3   4
ENDBRANCH   2   3
ENDBRANCH   1   2
BRANCH   1   8
ATOM      8  C   UNL     1      -5.877  16.028 -15.041  1.00  0.00     0.000 C 
BRANCH   8   9
ATOM      9  C   UNL     1      -6.243  17.358 -15.718  1.00  0.00    -0.000 C 
BRANCH   9  10
ATOM     10  C   UNL     1      -7.759  17.608 -15.760  1.00  0.00    -0.000 C 
BRANCH  10  11
ATOM     11  C   UNL     1      -8.139  19.015 -15.269  1.00  0.00    -0.000 C 
BRANCH  11  12
ATOM     12  C   UNL     1      -8.111  19.132 -13.737  1.00  0.00    -0.003 C 
ATOM     13  C   UNL     1      -7.520  20.457 -13.253  1.00  0.00     0.004 C 
ENDBRANCH  11  12
ENDBRANCH  10  11
ENDBRANCH   9  10
ENDBRANCH   8   9
ENDBRANCH   1   8
TORSDOF 9
ENDMDL
MODEL 8
REMARK VINA RESULT:    -3.299      3.341      6.000
REMARK INTER + INTRA:          -5.854
REMARK INTER:                  -5.123
REMARK INTRA:                  -0.731
REMARK UNBOUND:                -0.820
REMARK SMILES CCCCCCCCCCC(=O)[O-]
REMARK SMILES IDX 7 1 8 2 9 3 10 4 11 5 12 6 13 7 6 8 5 9 4 10 3 11 2 12 1 13
REMARK H PARENT
REMARK Flexibility Score: inf
ROOT
ATOM      1  C   UNL     1      -9.253  16.376 -12.973  1.00  0.00     0.000 C 
ENDROOT
BRANCH   1   2
ATOM      2  C   UNL     1      -8.361  15.298 -12.340  1.00  0.00     0.000 C 
BRANCH   2   3
ATOM      3  C   UNL     1      -7.877  14.254 -13.362  1.00  0.00     0.006 C 
BRANCH   3   4
ATOM      4  C   UNL     1      -8.512  14.459 -14.743  1.00  0.00     0.053 C 
BRANCH   4   5
ATOM      5  C   UNL     1      -8.960  13.163 -15.346  1.00  0.00     0.041 C 
ATOM      6  O   UNL     1      -8.112  12.331 -15.764  1.00  0.00    -0.550 OA
ATOM      7  O   UNL     1     -10.314  12.859 -15.412  1.00  0.00    -0.550 OA
ENDBRANCH   4   5
ENDBRANCH   3   4
ENDBRANCH   2   3
ENDBRANCH   1   2
BRANCH   1   8
ATOM      8  C   UNL     1      -8.996  17.774 -12.390  1.00  0.00     0.000 C 
BRANCH   8   9
ATOM      9  C   UNL     1      -8.516  18.743 -13.483  1.00  0.00    -0.000 C 
BRANCH   9  10
ATOM     10  C   UNL     1      -7.581  18.074 -14.503  1.00  0.00    -0.000 C 
BRANCH  10  11
ATOM     11  C   UNL     1      -6.142  18.613 -14.427  1.00  0.00    -0.000 C 
BRANCH  11  12
ATOM     12  C   UNL     1      -6.069  20.009 -13.789  1.00  0.00    -0.003 C 
ATOM     13  C   UNL     1      -5.900  21.125 -14.822  1.00  0.00     0.004 C 
ENDBRANCH  11  12
ENDBRANCH  10  11
ENDBRANCH   9  10
ENDBRANCH   8   9
ENDBRANCH   1   8
TORSDOF 9
ENDMDL
MODEL 9
REMARK VINA RESULT:    -3.240      2.934      5.440
REMARK INTER + INTRA:          -5.765
REMARK INTER:                  -4.970
REMARK INTRA:                  -0.795
REMARK UNBOUND:                -0.820
REMARK SMILES CCCCCCCCCCC(=O)[O-]
REMARK SMILES IDX 7 1 8 2 9 3 10 4 11 5 12 6 13 7 6 8 5 9 4 10 3 11 2 12 1 13
REMARK H PARENT
REMARK Flexibility Score: inf
ROOT
ATOM      1  C   UNL     1      -8.109  15.773 -15.641  1.00  0.00     0.000 C 
ENDROOT
BRANCH   1   2
ATOM      2  C   UNL     1      -6.944  14.773 -15.580  1.00  0.00     0.000 C 
BRANCH   2   3
ATOM      3  C   UNL     1      -7.420  13.310 -15.548  1.00  0.00     0.006 C 
BRANCH   3   4
ATOM      4  C   UNL     1      -8.010  12.924 -14.185  1.00  0.00     0.053 C 
BRANCH   4   5
ATOM      5  C   UNL     1      -7.077  13.257 -13.062  1.00  0.00     0.041 C 
ATOM      6  O   UNL     1      -5.909  12.785 -13.047  1.00  0.00    -0.550 OA
ATOM      7  O   UNL     1      -7.485  14.117 -12.050  1.00  0.00    -0.550 OA
ENDBRANCH   4   5
ENDBRANCH   3   4
ENDBRANCH   2   3
ENDBRANCH   1   2
BRANCH   1   8
ATOM      8  C   UNL     1      -7.636  17.220 -15.843  1.00  0.00     0.000 C 
BRANCH   8   9
ATOM      9  C   UNL     1      -6.753  17.676 -14.671  1.00  0.00    -0.000 C 
BRANCH   9  10
ATOM     10  C   UNL     1      -7.308  18.917 -13.954  1.00  0.00    -0.000 C 
BRANCH  10  11
ATOM     11  C   UNL     1      -8.769  18.739 -13.510  1.00  0.00    -0.000 C 
BRANCH  11  12
ATOM     12  C   UNL     1      -8.918  17.721 -12.369  1.00  0.00    -0.003 C 
ATOM     13  C   UNL     1      -9.857  16.566 -12.722  1.00  0.00     0.004 C 
ENDBRANCH  11  12
ENDBRANCH  10  11
ENDBRANCH   9  10
ENDBRANCH   8   9
ENDBRANCH   1   8
TORSDOF 9
ENDMDL
