MODEL 1
REMARK VINA RESULT:     0.020      0.000      0.000
REMARK INTER + INTRA:           0.498
REMARK INTER:                   0.028
REMARK INTRA:                   0.470
REMARK UNBOUND:                 0.470
REMARK SMILES CC1=CCC(=C(C)C)CCC(C)=CCC1
REMARK SMILES IDX 5 1 6 2 7 3 8 4 9 5 10 6 11 7 12 8 13 9 4 11 3 12 2 13 1 14
REMARK SMILES IDX 15 15 14 16
REMARK H PARENT
REMARK Flexibility Score: 60.00
ROOT
ATOM      1  C   UNL     1     138.073 134.995 123.523  1.00  0.00    -0.067 C 
ATOM      2  C   UNL     1     139.319 135.076 124.089  1.00  0.00    -0.077 C 
ATOM      3  C   UNL     1     140.552 135.348 123.253  1.00  0.00     0.039 C 
ATOM      4  C   UNL     1     139.522 134.882 125.575  1.00  0.00     0.039 C 
ENDROOT
BRANCH   1   5
ATOM      5  C   UNL     1     136.808 134.882 124.375  1.00  0.00     0.035 C 
BRANCH   5   6
ATOM      6  C   UNL     1     135.849 136.081 124.234  1.00  0.00     0.035 C 
BRANCH   6   7
ATOM      7  C   UNL     1     136.382 137.321 124.928  1.00  0.00    -0.077 C 
ATOM      8  C   UNL     1     136.871 137.193 126.349  1.00  0.00     0.039 C 
ATOM      9  C   UNL     1     136.484 138.529 124.329  1.00  0.00    -0.028 CG0
ATOM     10  G   UNL     1     135.918 138.890 122.978  1.00  0.00     0.000 G0
ENDBRANCH   6   7
ENDBRANCH   5   6
ENDBRANCH   1   5
BRANCH   1  11
ATOM     11  C   UNL     1     137.860 135.165 122.023  1.00  0.00     0.058 C 
BRANCH  11  12
ATOM     12  C   UNL     1     138.220 136.501 121.397  1.00  0.00    -0.024 C 
ATOM     13  C   UNL     1     137.527 137.669 121.412  1.00  0.00    -0.077 C 
ATOM     14  C   UNL     1     138.211 138.888 120.841  1.00  0.00     0.039 C 
BRANCH  13  15
ATOM     15  C   UNL     1     136.098 137.827 121.892  1.00  0.00     0.034 C 
BRANCH  15  16
ATOM     16  C   UNL     1     135.922 138.898 122.976  1.00  0.00     0.032 CG0
ATOM     17  G   UNL     1     136.486 138.534 124.327  1.00  0.00     0.000 G0
ENDBRANCH  15  16
ENDBRANCH  13  15
ENDBRANCH  11  12
ENDBRANCH   1  11
TORSDOF 0
ENDMDL
MODEL 2
REMARK VINA RESULT:     1.574     13.965     15.782
REMARK INTER + INTRA:           2.688
REMARK INTER:                   2.019
REMARK INTRA:                   0.669
REMARK UNBOUND:                 0.470
REMARK SMILES CC1=CCC(=C(C)C)CCC(C)=CCC1
REMARK SMILES IDX 5 1 6 2 7 3 8 4 9 5 10 6 11 7 12 8 13 9 4 11 3 12 2 13 1 14
REMARK SMILES IDX 15 15 14 16
REMARK H PARENT
REMARK Flexibility Score: 60.00
ROOT
ATOM      1  C   UNL     1     137.021 150.698 123.626  1.00  0.00    -0.067 C 
ATOM      2  C   UNL     1     137.771 149.885 124.437  1.00  0.00    -0.077 C 
ATOM      3  C   UNL     1     139.280 150.002 124.498  1.00  0.00     0.039 C 
ATOM      4  C   UNL     1     137.126 148.822 125.298  1.00  0.00     0.039 C 
ENDROOT
BRANCH   1   5
ATOM      5  C   UNL     1     135.493 150.698 123.679  1.00  0.00     0.035 C 
BRANCH   5   6
ATOM      6  C   UNL     1     134.875 152.086 123.938  1.00  0.00     0.035 C 
BRANCH   6   7
ATOM      7  C   UNL     1     135.311 152.663 125.272  1.00  0.00    -0.077 C 
ATOM      8  C   UNL     1     135.259 151.774 126.490  1.00  0.00     0.039 C 
ATOM      9  C   UNL     1     135.786 153.920 125.425  1.00  0.00    -0.028 CG0
ATOM     10  G   UNL     1     135.776 154.997 124.369  1.00  0.00     0.000 G0
ENDBRANCH   6   7
ENDBRANCH   5   6
ENDBRANCH   1   5
BRANCH   1  11
ATOM     11  C   UNL     1     137.663 151.756 122.735  1.00  0.00     0.058 C 
BRANCH  11  12
ATOM     12  C   UNL     1     138.474 152.854 123.402  1.00  0.00    -0.024 C 
ATOM     13  C   UNL     1     138.105 154.123 123.713  1.00  0.00    -0.077 C 
ATOM     14  C   UNL     1     139.076 154.947 124.525  1.00  0.00     0.039 C 
BRANCH  13  15
ATOM     15  C   UNL     1     136.829 154.797 123.250  1.00  0.00     0.034 C 
BRANCH  15  16
ATOM     16  C   UNL     1     135.786 154.982 124.359  1.00  0.00     0.032 CG0
ATOM     17  G   UNL     1     135.800 153.916 125.427  1.00  0.00     0.000 G0
ENDBRANCH  15  16
ENDBRANCH  13  15
ENDBRANCH  11  12
ENDBRANCH   1  11
TORSDOF 0
ENDMDL
MODEL 3
REMARK VINA RESULT:     1.893     14.051     16.253
REMARK INTER + INTRA:           3.138
REMARK INTER:                   3.148
REMARK INTRA:                  -0.010
REMARK UNBOUND:                 0.470
REMARK SMILES CC1=CCC(=C(C)C)CCC(C)=CCC1
REMARK SMILES IDX 5 1 6 2 7 3 8 4 9 5 10 6 11 7 12 8 13 9 4 11 3 12 2 13 1 14
REMARK SMILES IDX 15 15 14 16
REMARK H PARENT
REMARK Flexibility Score: 60.00
ROOT
ATOM      1  C   UNL     1     136.050 150.983 124.040  1.00  0.00    -0.067 C 
ATOM      2  C   UNL     1     136.591 150.124 124.961  1.00  0.00    -0.077 C 
ATOM      3  C   UNL     1     136.043 150.025 126.369  1.00  0.00     0.039 C 
ATOM      4  C   UNL     1     137.773 149.244 124.617  1.00  0.00     0.039 C 
ENDROOT
BRANCH   1   5
ATOM      5  C   UNL     1     136.490 150.973 122.575  1.00  0.00     0.035 C 
BRANCH   5   6
ATOM      6  C   UNL     1     136.034 152.210 121.776  1.00  0.00     0.035 C 
BRANCH   6   7
ATOM      7  C   UNL     1     137.171 153.189 121.544  1.00  0.00    -0.077 C 
ATOM      8  C   UNL     1     138.179 152.875 120.466  1.00  0.00     0.039 C 
ATOM      9  C   UNL     1     137.309 154.351 122.221  1.00  0.00    -0.028 CG0
ATOM     10  G   UNL     1     136.499 154.769 123.424  1.00  0.00     0.000 G0
ENDBRANCH   6   7
ENDBRANCH   5   6
ENDBRANCH   1   5
BRANCH   1  11
ATOM     11  C   UNL     1     134.875 151.892 124.382  1.00  0.00     0.058 C 
BRANCH  11  12
ATOM     12  C   UNL     1     135.021 152.831 125.568  1.00  0.00    -0.024 C 
ATOM     13  C   UNL     1     135.840 153.904 125.714  1.00  0.00    -0.077 C 
ATOM     14  C   UNL     1     135.653 154.755 126.947  1.00  0.00     0.039 C 
BRANCH  13  15
ATOM     15  C   UNL     1     136.971 154.272 124.773  1.00  0.00     0.034 C 
BRANCH  15  16
ATOM     16  C   UNL     1     136.499 154.815 123.419  1.00  0.00     0.032 CG0
ATOM     17  G   UNL     1     137.298 154.340 122.231  1.00  0.00     0.000 G0
ENDBRANCH  15  16
ENDBRANCH  13  15
ENDBRANCH  11  12
ENDBRANCH   1  11
TORSDOF 0
ENDMDL
MODEL 4
REMARK VINA RESULT:     2.650     13.812     16.023
REMARK INTER + INTRA:           4.205
REMARK INTER:                   1.839
REMARK INTRA:                   2.366
REMARK UNBOUND:                 0.470
REMARK SMILES CC1=CCC(=C(C)C)CCC(C)=CCC1
REMARK SMILES IDX 5 1 6 2 7 3 8 4 9 5 10 6 11 7 12 8 13 9 4 11 3 12 2 13 1 14
REMARK SMILES IDX 15 15 14 16
REMARK H PARENT
REMARK Flexibility Score: 60.00
ROOT
ATOM      1  C   UNL     1     136.973 153.740 124.146  1.00  0.00    -0.067 C 
ATOM      2  C   UNL     1     136.156 153.924 125.231  1.00  0.00    -0.077 C 
ATOM      3  C   UNL     1     134.878 154.731 125.133  1.00  0.00     0.039 C 
ATOM      4  C   UNL     1     136.501 153.339 126.584  1.00  0.00     0.039 C 
ENDROOT
BRANCH   1   5
ATOM      5  C   UNL     1     138.176 152.797 124.195  1.00  0.00     0.035 C 
BRANCH   5   6
ATOM      6  C   UNL     1     137.924 151.427 123.535  1.00  0.00     0.035 C 
BRANCH   6   7
ATOM      7  C   UNL     1     136.556 150.869 123.886  1.00  0.00    -0.077 C 
ATOM      8  C   UNL     1     136.442 149.941 125.069  1.00  0.00     0.039 C 
ATOM      9  C   UNL     1     135.423 151.192 123.222  1.00  0.00    -0.028 CG0
ATOM     10  G   UNL     1     135.352 151.978 121.937  1.00  0.00     0.000 G0
ENDBRANCH   6   7
ENDBRANCH   5   6
ENDBRANCH   1   5
BRANCH   1  11
ATOM     11  C   UNL     1     136.648 154.345 122.785  1.00  0.00     0.058 C 
BRANCH  11  12
ATOM     12  C   UNL     1     137.526 153.961 121.605  1.00  0.00    -0.024 C 
ATOM     13  C   UNL     1     137.410 152.906 120.758  1.00  0.00    -0.077 C 
ATOM     14  C   UNL     1     138.339 152.867 119.569  1.00  0.00     0.039 C 
BRANCH  13  15
ATOM     15  C   UNL     1     136.470 151.733 120.953  1.00  0.00     0.034 C 
BRANCH  15  16
ATOM     16  C   UNL     1     135.336 152.005 121.950  1.00  0.00     0.032 CG0
ATOM     17  G   UNL     1     135.402 151.199 123.223  1.00  0.00     0.000 G0
ENDBRANCH  15  16
ENDBRANCH  13  15
ENDBRANCH  11  12
ENDBRANCH   1  11
TORSDOF 0
ENDMDL
MODEL 5
REMARK VINA RESULT:     2.725      1.739      2.975
REMARK INTER + INTRA:           4.310
REMARK INTER:                   1.606
REMARK INTRA:                   2.704
REMARK UNBOUND:                 0.470
REMARK SMILES CC1=CCC(=C(C)C)CCC(C)=CCC1
REMARK SMILES IDX 5 1 6 2 7 3 8 4 9 5 10 6 11 7 12 8 13 9 4 11 3 12 2 13 1 14
REMARK SMILES IDX 15 15 14 16
REMARK H PARENT
REMARK Flexibility Score: 60.00
ROOT
ATOM      1  C   UNL     1     137.653 135.379 123.821  1.00  0.00    -0.067 C 
ATOM      2  C   UNL     1     137.645 135.255 125.186  1.00  0.00    -0.077 C 
ATOM      3  C   UNL     1     138.923 135.325 125.995  1.00  0.00     0.039 C 
ATOM      4  C   UNL     1     136.358 135.027 125.948  1.00  0.00     0.039 C 
ENDROOT
BRANCH   1   5
ATOM      5  C   UNL     1     136.357 135.472 123.014  1.00  0.00     0.035 C 
BRANCH   5   6
ATOM      6  C   UNL     1     136.192 136.797 122.245  1.00  0.00     0.035 C 
BRANCH   6   7
ATOM      7  C   UNL     1     136.195 137.998 123.173  1.00  0.00    -0.077 C 
ATOM      8  C   UNL     1     134.876 138.495 123.709  1.00  0.00     0.039 C 
ATOM      9  C   UNL     1     137.322 138.624 123.582  1.00  0.00    -0.028 CG0
ATOM     10  G   UNL     1     138.710 138.374 123.048  1.00  0.00     0.000 G0
ENDBRANCH   6   7
ENDBRANCH   5   6
ENDBRANCH   1   5
BRANCH   1  11
ATOM     11  C   UNL     1     138.946 135.585 123.041  1.00  0.00     0.058 C 
BRANCH  11  12
ATOM     12  C   UNL     1     140.195 135.968 123.817  1.00  0.00    -0.024 C 
ATOM     13  C   UNL     1     140.545 137.173 124.336  1.00  0.00    -0.077 C 
ATOM     14  C   UNL     1     141.778 137.221 125.206  1.00  0.00     0.039 C 
BRANCH  13  15
ATOM     15  C   UNL     1     139.834 138.482 124.053  1.00  0.00     0.034 C 
BRANCH  15  16
ATOM     16  C   UNL     1     138.687 138.360 123.043  1.00  0.00     0.032 CG0
ATOM     17  G   UNL     1     137.312 138.620 123.608  1.00  0.00     0.000 G0
ENDBRANCH  15  16
ENDBRANCH  13  15
ENDBRANCH  11  12
ENDBRANCH   1  11
TORSDOF 0
ENDMDL
