MODEL 1
REMARK VINA RESULT:    -6.286      0.000      0.000
REMARK INTER + INTRA:          -7.036
REMARK INTER:                  -7.021
REMARK INTRA:                  -0.014
REMARK UNBOUND:                -0.014
REMARK SMILES COc1cc2ccc(=O)oc2c(O)c1O
REMARK SMILES IDX 3 1 14 2 12 3 11 4 5 5 4 6 6 7 7 8 8 9 9 10 10 11 2 12 1 13
REMARK SMILES IDX 15 14 13 16
REMARK H PARENT 15 15 13 17
REMARK Flexibility Score: inf
ROOT
ATOM      1  C   UNL     1      71.927   0.749  -0.160  1.00  0.00     0.165 A 
ATOM      2  C   UNL     1      71.318   2.013  -0.280  1.00  0.00     0.204 A 
ATOM      3  C   UNL     1      70.540   2.324  -1.405  1.00  0.00     0.205 A 
ATOM      4  C   UNL     1      70.362   1.371  -2.420  1.00  0.00     0.184 A 
ATOM      5  C   UNL     1      70.970   0.102  -2.304  1.00  0.00     0.025 A 
ATOM      6  C   UNL     1      71.747  -0.204  -1.180  1.00  0.00     0.062 A 
ATOM      7  C   UNL     1      70.776  -0.828  -3.331  1.00  0.00     0.020 A 
ATOM      8  C   UNL     1      69.996  -0.481  -4.433  1.00  0.00     0.094 A 
ATOM      9  C   UNL     1      69.424   0.793  -4.481  1.00  0.00     0.336 A 
ATOM     10  O   UNL     1      68.716   1.127  -5.466  1.00  0.00    -0.246 OA
ATOM     11  O   UNL     1      69.625   1.659  -3.490  1.00  0.00    -0.419 OA
ENDROOT
BRANCH   1  12
ATOM     12  O   UNL     1      72.699   0.477   0.982  1.00  0.00    -0.493 OA
ATOM     13  C   UNL     1      72.168   0.064   2.237  1.00  0.00     0.278 C 
ENDBRANCH   1  12
BRANCH   2  14
ATOM     14  O   UNL     1      71.478   2.979   0.715  1.00  0.00    -0.502 OA
ATOM     15  H   UNL     1      70.763   3.665   0.925  1.00  0.00     0.293 HD
ENDBRANCH   2  14
BRANCH   3  16
ATOM     16  O   UNL     1      69.950   3.585  -1.496  1.00  0.00    -0.502 OA
ATOM     17  H   UNL     1      70.496   4.439  -1.482  1.00  0.00     0.293 HD
ENDBRANCH   3  16
TORSDOF 3
ENDMDL
MODEL 2
REMARK VINA RESULT:    -5.610     15.339     16.765
REMARK INTER + INTRA:          -6.280
REMARK INTER:                  -6.251
REMARK INTRA:                  -0.030
REMARK UNBOUND:                -0.014
REMARK SMILES COc1cc2ccc(=O)oc2c(O)c1O
REMARK SMILES IDX 3 1 14 2 12 3 11 4 5 5 4 6 6 7 7 8 8 9 9 10 10 11 2 12 1 13
REMARK SMILES IDX 15 14 13 16
REMARK H PARENT 15 15 13 17
REMARK Flexibility Score: inf
ROOT
ATOM      1  C   UNL     1      85.576   1.922   7.546  1.00  0.00     0.165 A 
ATOM      2  C   UNL     1      84.529   1.124   8.045  1.00  0.00     0.204 A 
ATOM      3  C   UNL     1      83.282   1.692   8.342  1.00  0.00     0.205 A 
ATOM      4  C   UNL     1      83.070   3.066   8.142  1.00  0.00     0.184 A 
ATOM      5  C   UNL     1      84.117   3.870   7.641  1.00  0.00     0.025 A 
ATOM      6  C   UNL     1      85.361   3.299   7.346  1.00  0.00     0.062 A 
ATOM      7  C   UNL     1      83.878   5.235   7.452  1.00  0.00     0.020 A 
ATOM      8  C   UNL     1      82.625   5.761   7.760  1.00  0.00     0.094 A 
ATOM      9  C   UNL     1      81.635   4.907   8.251  1.00  0.00     0.336 A 
ATOM     10  O   UNL     1      80.496   5.361   8.535  1.00  0.00    -0.246 OA
ATOM     11  O   UNL     1      81.889   3.611   8.423  1.00  0.00    -0.419 OA
ENDROOT
BRANCH   1  12
ATOM     12  O   UNL     1      86.810   1.315   7.260  1.00  0.00    -0.493 OA
ATOM     13  C   UNL     1      87.125   0.660   6.035  1.00  0.00     0.278 C 
ENDBRANCH   1  12
BRANCH   2  14
ATOM     14  O   UNL     1      84.712  -0.244   8.253  1.00  0.00    -0.502 OA
ATOM     15  H   UNL     1      85.301  -0.606   8.993  1.00  0.00     0.293 HD
ENDBRANCH   2  14
BRANCH   3  16
ATOM     16  O   UNL     1      82.263   0.876   8.836  1.00  0.00    -0.502 OA
ATOM     17  H   UNL     1      82.010   0.864   9.817  1.00  0.00     0.293 HD
ENDBRANCH   3  16
TORSDOF 3
ENDMDL
MODEL 3
REMARK VINA RESULT:    -5.602     14.545     15.104
REMARK INTER + INTRA:          -6.271
REMARK INTER:                  -6.208
REMARK INTRA:                  -0.063
REMARK UNBOUND:                -0.014
REMARK SMILES COc1cc2ccc(=O)oc2c(O)c1O
REMARK SMILES IDX 3 1 14 2 12 3 11 4 5 5 4 6 6 7 7 8 8 9 9 10 10 11 2 12 1 13
REMARK SMILES IDX 15 14 13 16
REMARK H PARENT 15 15 13 17
REMARK Flexibility Score: inf
ROOT
ATOM      1  C   UNL     1      84.595   1.251  -7.161  1.00  0.00     0.165 A 
ATOM      2  C   UNL     1      83.711   1.450  -8.238  1.00  0.00     0.204 A 
ATOM      3  C   UNL     1      83.237   0.358  -8.980  1.00  0.00     0.205 A 
ATOM      4  C   UNL     1      83.642  -0.945  -8.649  1.00  0.00     0.184 A 
ATOM      5  C   UNL     1      84.528  -1.150  -7.569  1.00  0.00     0.025 A 
ATOM      6  C   UNL     1      85.000  -0.057  -6.832  1.00  0.00     0.062 A 
ATOM      7  C   UNL     1      84.916  -2.458  -7.262  1.00  0.00     0.020 A 
ATOM      8  C   UNL     1      84.422  -3.516  -8.023  1.00  0.00     0.094 A 
ATOM      9  C   UNL     1      83.548  -3.240  -9.078  1.00  0.00     0.336 A 
ATOM     10  O   UNL     1      83.090  -4.180  -9.778  1.00  0.00    -0.246 OA
ATOM     11  O   UNL     1      83.196  -1.985  -9.349  1.00  0.00    -0.419 OA
ENDROOT
BRANCH   1  12
ATOM     12  O   UNL     1      85.048   2.370  -6.443  1.00  0.00    -0.493 OA
ATOM     13  C   UNL     1      86.254   3.075  -6.720  1.00  0.00     0.278 C 
ENDBRANCH   1  12
BRANCH   2  14
ATOM     14  O   UNL     1      83.291   2.735  -8.588  1.00  0.00    -0.502 OA
ATOM     15  H   UNL     1      83.317   3.509  -7.936  1.00  0.00     0.293 HD
ENDBRANCH   2  14
BRANCH   3  16
ATOM     16  O   UNL     1      82.362   0.586 -10.042  1.00  0.00    -0.502 OA
ATOM     17  H   UNL     1      81.781  -0.147 -10.431  1.00  0.00     0.293 HD
ENDBRANCH   3  16
TORSDOF 3
ENDMDL
MODEL 4
REMARK VINA RESULT:    -5.436      1.805      5.500
REMARK INTER + INTRA:          -6.086
REMARK INTER:                  -6.157
REMARK INTRA:                   0.071
REMARK UNBOUND:                -0.014
REMARK SMILES COc1cc2ccc(=O)oc2c(O)c1O
REMARK SMILES IDX 3 1 14 2 12 3 11 4 5 5 4 6 6 7 7 8 8 9 9 10 10 11 2 12 1 13
REMARK SMILES IDX 15 14 13 16
REMARK H PARENT 15 15 13 17
REMARK Flexibility Score: inf
ROOT
ATOM      1  C   UNL     1      69.246   0.347  -4.392  1.00  0.00     0.165 A 
ATOM      2  C   UNL     1      69.918  -0.870  -4.165  1.00  0.00     0.204 A 
ATOM      3  C   UNL     1      70.892  -0.967  -3.160  1.00  0.00     0.205 A 
ATOM      4  C   UNL     1      71.202   0.152  -2.372  1.00  0.00     0.184 A 
ATOM      5  C   UNL     1      70.530   1.373  -2.595  1.00  0.00     0.025 A 
ATOM      6  C   UNL     1      69.559   1.467  -3.599  1.00  0.00     0.062 A 
ATOM      7  C   UNL     1      70.859   2.472  -1.794  1.00  0.00     0.020 A 
ATOM      8  C   UNL     1      71.833   2.335  -0.807  1.00  0.00     0.094 A 
ATOM      9  C   UNL     1      72.457   1.096  -0.641  1.00  0.00     0.336 A 
ATOM     10  O   UNL     1      73.338   0.949   0.245  1.00  0.00    -0.246 OA
ATOM     11  O   UNL     1      72.125   0.066  -1.417  1.00  0.00    -0.419 OA
ENDROOT
BRANCH   1  12
ATOM     12  O   UNL     1      68.277   0.403  -5.407  1.00  0.00    -0.493 OA
ATOM     13  C   UNL     1      66.991  -0.204  -5.333  1.00  0.00     0.278 C 
ENDBRANCH   1  12
BRANCH   2  14
ATOM     14  O   UNL     1      69.629  -1.998  -4.934  1.00  0.00    -0.502 OA
ATOM     15  H   UNL     1      69.485  -2.912  -4.522  1.00  0.00     0.293 HD
ENDBRANCH   2  14
BRANCH   3  16
ATOM     16  O   UNL     1      71.542  -2.186  -2.960  1.00  0.00    -0.502 OA
ATOM     17  H   UNL     1      71.152  -3.065  -3.280  1.00  0.00     0.293 HD
ENDBRANCH   3  16
TORSDOF 3
ENDMDL
MODEL 5
REMARK VINA RESULT:    -5.433     15.046     15.580
REMARK INTER + INTRA:          -6.083
REMARK INTER:                  -6.023
REMARK INTRA:                  -0.060
REMARK UNBOUND:                -0.014
REMARK SMILES COc1cc2ccc(=O)oc2c(O)c1O
REMARK SMILES IDX 3 1 14 2 12 3 11 4 5 5 4 6 6 7 7 8 8 9 9 10 10 11 2 12 1 13
REMARK SMILES IDX 15 14 13 16
REMARK H PARENT 15 15 13 17
REMARK Flexibility Score: inf
ROOT
ATOM      1  C   UNL     1      86.157   2.854  -7.364  1.00  0.00     0.165 A 
ATOM      2  C   UNL     1      84.900   3.109  -7.945  1.00  0.00     0.204 A 
ATOM      3  C   UNL     1      83.987   2.064  -8.151  1.00  0.00     0.205 A 
ATOM      4  C   UNL     1      84.323   0.754  -7.775  1.00  0.00     0.184 A 
ATOM      5  C   UNL     1      85.582   0.493  -7.192  1.00  0.00     0.025 A 
ATOM      6  C   UNL     1      86.491   1.539  -6.988  1.00  0.00     0.062 A 
ATOM      7  C   UNL     1      85.890  -0.821  -6.827  1.00  0.00     0.020 A 
ATOM      8  C   UNL     1      84.956  -1.832  -7.049  1.00  0.00     0.094 A 
ATOM      9  C   UNL     1      83.729  -1.502  -7.631  1.00  0.00     0.336 A 
ATOM     10  O   UNL     1      82.871  -2.398  -7.839  1.00  0.00    -0.246 OA
ATOM     11  O   UNL     1      83.461  -0.242  -7.968  1.00  0.00    -0.419 OA
ENDROOT
BRANCH   1  12
ATOM     12  O   UNL     1      87.043   3.927  -7.175  1.00  0.00    -0.493 OA
ATOM     13  C   UNL     1      87.125   4.709  -5.987  1.00  0.00     0.278 C 
ENDBRANCH   1  12
BRANCH   2  14
ATOM     14  O   UNL     1      84.540   4.402  -8.327  1.00  0.00    -0.502 OA
ATOM     15  H   UNL     1      85.078   4.939  -8.997  1.00  0.00     0.293 HD
ENDBRANCH   2  14
BRANCH   3  16
ATOM     16  O   UNL     1      82.750   2.347  -8.730  1.00  0.00    -0.502 OA
ATOM     17  H   UNL     1      82.626   2.418  -9.734  1.00  0.00     0.293 HD
ENDBRANCH   3  16
TORSDOF 3
ENDMDL
MODEL 6
REMARK VINA RESULT:    -5.393      1.747      5.228
REMARK INTER + INTRA:          -6.037
REMARK INTER:                  -5.975
REMARK INTRA:                  -0.062
REMARK UNBOUND:                -0.014
REMARK SMILES COc1cc2ccc(=O)oc2c(O)c1O
REMARK SMILES IDX 3 1 14 2 12 3 11 4 5 5 4 6 6 7 7 8 8 9 9 10 10 11 2 12 1 13
REMARK SMILES IDX 15 14 13 16
REMARK H PARENT 15 15 13 17
REMARK Flexibility Score: inf
ROOT
ATOM      1  C   UNL     1      70.931   1.830  -2.043  1.00  0.00     0.165 A 
ATOM      2  C   UNL     1      72.321   2.018  -1.913  1.00  0.00     0.204 A 
ATOM      3  C   UNL     1      72.994   1.566  -0.768  1.00  0.00     0.205 A 
ATOM      4  C   UNL     1      72.283   0.921   0.256  1.00  0.00     0.184 A 
ATOM      5  C   UNL     1      70.891   0.730   0.129  1.00  0.00     0.025 A 
ATOM      6  C   UNL     1      70.221   1.183  -1.015  1.00  0.00     0.062 A 
ATOM      7  C   UNL     1      70.207   0.084   1.165  1.00  0.00     0.020 A 
ATOM      8  C   UNL     1      70.913  -0.350   2.286  1.00  0.00     0.094 A 
ATOM      9  C   UNL     1      72.291  -0.128   2.345  1.00  0.00     0.336 A 
ATOM     10  O   UNL     1      72.948  -0.512   3.347  1.00  0.00    -0.246 OA
ATOM     11  O   UNL     1      72.917   0.489   1.345  1.00  0.00    -0.419 OA
ENDROOT
BRANCH   1  12
ATOM     12  O   UNL     1      70.294   2.298  -3.205  1.00  0.00    -0.493 OA
ATOM     13  C   UNL     1      69.575   1.475  -4.119  1.00  0.00     0.278 C 
ENDBRANCH   1  12
BRANCH   2  14
ATOM     14  O   UNL     1      73.052   2.656  -2.916  1.00  0.00    -0.502 OA
ATOM     15  H   UNL     1      73.341   3.624  -2.844  1.00  0.00     0.293 HD
ENDBRANCH   2  14
BRANCH   3  16
ATOM     16  O   UNL     1      74.371   1.767  -0.666  1.00  0.00    -0.502 OA
ATOM     17  H   UNL     1      75.032   1.303  -1.279  1.00  0.00     0.293 HD
ENDBRANCH   3  16
TORSDOF 3
ENDMDL
MODEL 7
REMARK VINA RESULT:    -5.348     14.772     15.568
REMARK INTER + INTRA:          -5.988
REMARK INTER:                  -5.920
REMARK INTRA:                  -0.067
REMARK UNBOUND:                -0.014
REMARK SMILES COc1cc2ccc(=O)oc2c(O)c1O
REMARK SMILES IDX 3 1 14 2 12 3 11 4 5 5 4 6 6 7 7 8 8 9 9 10 10 11 2 12 1 13
REMARK SMILES IDX 15 14 13 16
REMARK H PARENT 15 15 13 17
REMARK Flexibility Score: inf
ROOT
ATOM      1  C   UNL     1      83.882  -1.155  -8.020  1.00  0.00     0.165 A 
ATOM      2  C   UNL     1      82.945  -0.240  -8.536  1.00  0.00     0.204 A 
ATOM      3  C   UNL     1      83.211   1.137  -8.516  1.00  0.00     0.205 A 
ATOM      4  C   UNL     1      84.419   1.612  -7.981  1.00  0.00     0.184 A 
ATOM      5  C   UNL     1      85.362   0.698  -7.463  1.00  0.00     0.025 A 
ATOM      6  C   UNL     1      85.093  -0.676  -7.484  1.00  0.00     0.062 A 
ATOM      7  C   UNL     1      86.557   1.198  -6.935  1.00  0.00     0.020 A 
ATOM      8  C   UNL     1      86.783   2.573  -6.934  1.00  0.00     0.094 A 
ATOM      9  C   UNL     1      85.806   3.420  -7.463  1.00  0.00     0.336 A 
ATOM     10  O   UNL     1      85.990   4.665  -7.472  1.00  0.00    -0.246 OA
ATOM     11  O   UNL     1      84.677   2.918  -7.959  1.00  0.00    -0.419 OA
ENDROOT
BRANCH   1  12
ATOM     12  O   UNL     1      83.579  -2.526  -8.059  1.00  0.00    -0.493 OA
ATOM     13  C   UNL     1      84.007  -3.421  -9.081  1.00  0.00     0.278 C 
ENDBRANCH   1  12
BRANCH   2  14
ATOM     14  O   UNL     1      81.736  -0.684  -9.075  1.00  0.00    -0.502 OA
ATOM     15  H   UNL     1      81.622  -0.876 -10.063  1.00  0.00     0.293 HD
ENDBRANCH   2  14
BRANCH   3  16
ATOM     16  O   UNL     1      82.263   2.020  -9.034  1.00  0.00    -0.502 OA
ATOM     17  H   UNL     1      81.274   1.931  -8.830  1.00  0.00     0.293 HD
ENDBRANCH   3  16
TORSDOF 3
ENDMDL
MODEL 8
REMARK VINA RESULT:    -5.171     15.901     17.197
REMARK INTER + INTRA:          -5.789
REMARK INTER:                  -5.726
REMARK INTRA:                  -0.063
REMARK UNBOUND:                -0.014
REMARK SMILES COc1cc2ccc(=O)oc2c(O)c1O
REMARK SMILES IDX 3 1 14 2 12 3 11 4 5 5 4 6 6 7 7 8 8 9 9 10 10 11 2 12 1 13
REMARK SMILES IDX 15 14 13 16
REMARK H PARENT 15 15 13 17
REMARK Flexibility Score: inf
ROOT
ATOM      1  C   UNL     1      83.812   4.180   7.887  1.00  0.00     0.165 A 
ATOM      2  C   UNL     1      82.915   3.164   8.267  1.00  0.00     0.204 A 
ATOM      3  C   UNL     1      83.302   1.817   8.211  1.00  0.00     0.205 A 
ATOM      4  C   UNL     1      84.593   1.475   7.776  1.00  0.00     0.184 A 
ATOM      5  C   UNL     1      85.495   2.491   7.395  1.00  0.00     0.025 A 
ATOM      6  C   UNL     1      85.105   3.834   7.451  1.00  0.00     0.062 A 
ATOM      7  C   UNL     1      86.775   2.122   6.965  1.00  0.00     0.020 A 
ATOM      8  C   UNL     1      87.121   0.772   6.924  1.00  0.00     0.094 A 
ATOM      9  C   UNL     1      86.177  -0.181   7.316  1.00  0.00     0.336 A 
ATOM     10  O   UNL     1      86.469  -1.404   7.287  1.00  0.00    -0.246 OA
ATOM     11  O   UNL     1      84.967   0.198   7.720  1.00  0.00    -0.419 OA
ENDROOT
BRANCH   1  12
ATOM     12  O   UNL     1      83.385   5.517   7.957  1.00  0.00    -0.493 OA
ATOM     13  C   UNL     1      83.292   6.396   6.840  1.00  0.00     0.278 C 
ENDBRANCH   1  12
BRANCH   2  14
ATOM     14  O   UNL     1      81.626   3.476   8.703  1.00  0.00    -0.502 OA
ATOM     15  H   UNL     1      81.243   4.411   8.636  1.00  0.00     0.293 HD
ENDBRANCH   2  14
BRANCH   3  16
ATOM     16  O   UNL     1      82.392   0.831   8.592  1.00  0.00    -0.502 OA
ATOM     17  H   UNL     1      81.770   0.947   9.385  1.00  0.00     0.293 HD
ENDBRANCH   3  16
TORSDOF 3
ENDMDL
MODEL 9
REMARK VINA RESULT:    -5.091     14.198     15.176
REMARK INTER + INTRA:          -5.701
REMARK INTER:                  -5.631
REMARK INTRA:                  -0.069
REMARK UNBOUND:                -0.014
REMARK SMILES COc1cc2ccc(=O)oc2c(O)c1O
REMARK SMILES IDX 3 1 14 2 12 3 11 4 5 5 4 6 6 7 7 8 8 9 9 10 10 11 2 12 1 13
REMARK SMILES IDX 15 14 13 16
REMARK H PARENT 15 15 13 17
REMARK Flexibility Score: inf
ROOT
ATOM      1  C   UNL     1      84.268   0.312  -8.241  1.00  0.00     0.165 A 
ATOM      2  C   UNL     1      82.939  -0.130  -8.099  1.00  0.00     0.204 A 
ATOM      3  C   UNL     1      82.662  -1.379  -7.524  1.00  0.00     0.205 A 
ATOM      4  C   UNL     1      83.714  -2.198  -7.084  1.00  0.00     0.184 A 
ATOM      5  C   UNL     1      85.049  -1.759  -7.224  1.00  0.00     0.025 A 
ATOM      6  C   UNL     1      85.321  -0.512  -7.799  1.00  0.00     0.062 A 
ATOM      7  C   UNL     1      86.077  -2.596  -6.778  1.00  0.00     0.020 A 
ATOM      8  C   UNL     1      85.761  -3.830  -6.212  1.00  0.00     0.094 A 
ATOM      9  C   UNL     1      84.418  -4.200  -6.104  1.00  0.00     0.336 A 
ATOM     10  O   UNL     1      84.110  -5.309  -5.597  1.00  0.00    -0.246 OA
ATOM     11  O   UNL     1      83.459  -3.385  -6.538  1.00  0.00    -0.419 OA
ENDROOT
BRANCH   1  12
ATOM     12  O   UNL     1      84.503   1.569  -8.822  1.00  0.00    -0.493 OA
ATOM     13  C   UNL     1      84.801   2.755  -8.091  1.00  0.00     0.278 C 
ENDBRANCH   1  12
BRANCH   2  14
ATOM     14  O   UNL     1      81.874   0.665  -8.527  1.00  0.00    -0.502 OA
ATOM     15  H   UNL     1      82.000   1.624  -8.826  1.00  0.00     0.293 HD
ENDBRANCH   2  14
BRANCH   3  16
ATOM     16  O   UNL     1      81.335  -1.790  -7.397  1.00  0.00    -0.502 OA
ATOM     17  H   UNL     1      80.559  -1.212  -7.699  1.00  0.00     0.293 HD
ENDBRANCH   3  16
TORSDOF 3
ENDMDL
