MODEL 1
REMARK VINA RESULT:    -3.479      0.000      0.000
REMARK INTER + INTRA:          -6.226
REMARK INTER:                  -5.004
REMARK INTRA:                  -1.223
REMARK UNBOUND:                -1.223
REMARK SMILES O=C(CO)[C@H](O)[C@@H](O)[C@H](O)CO
REMARK SMILES IDX 7 1 9 2 11 3 12 4 10 6 5 8 2 9 1 10 3 11 4 12 6 14 8 16
REMARK H PARENT 12 5 10 7 4 13 6 15 8 17
REMARK Flexibility Score: inf
ROOT
ATOM      1  C   UNL     1      70.635  33.551  57.989  1.00  0.00     0.181 C 
ENDROOT
BRANCH   1   2
ATOM      2  C   UNL     1      70.473  35.086  57.837  1.00  0.00     0.171 C 
BRANCH   2   3
ATOM      3  C   UNL     1      69.029  35.548  58.116  1.00  0.00     0.190 C 
BRANCH   3   4
ATOM      4  O   UNL     1      68.729  35.465  59.484  1.00  0.00    -0.394 OA
ATOM      5  H   UNL     1      68.814  34.508  59.736  1.00  0.00     0.210 HD
ENDBRANCH   3   4
ENDBRANCH   2   3
BRANCH   2   6
ATOM      6  O   UNL     1      71.374  35.783  58.663  1.00  0.00    -0.388 OA
ATOM      7  H   UNL     1      70.985  35.814  59.577  1.00  0.00     0.211 HD
ENDBRANCH   2   6
ENDBRANCH   1   2
BRANCH   1   8
ATOM      8  C   UNL     1      71.502  33.183  59.224  1.00  0.00     0.214 C 
BRANCH   8   9
ATOM      9  C   UNL     1      71.697  31.683  59.337  1.00  0.00     0.189 C 
ATOM     10  O   UNL     1      71.684  31.008  58.317  1.00  0.00    -0.294 OA
BRANCH   9  11
ATOM     11  C   UNL     1      71.911  31.010  60.669  1.00  0.00     0.234 C 
BRANCH  11  12
ATOM     12  O   UNL     1      72.899  31.674  61.407  1.00  0.00    -0.388 OA
ATOM     13  H   UNL     1      73.401  30.970  61.893  1.00  0.00     0.211 HD
ENDBRANCH  11  12
ENDBRANCH   9  11
ENDBRANCH   8   9
BRANCH   8  14
ATOM     14  O   UNL     1      70.983  33.730  60.413  1.00  0.00    -0.382 OA
ATOM     15  H   UNL     1      70.054  34.029  60.236  1.00  0.00     0.211 HD
ENDBRANCH   8  14
ENDBRANCH   1   8
BRANCH   1  16
ATOM     16  O   UNL     1      69.370  32.940  58.069  1.00  0.00    -0.387 OA
ATOM     17  H   UNL     1      68.839  33.456  58.730  1.00  0.00     0.211 HD
ENDBRANCH   1  16
TORSDOF 10
ENDMDL
MODEL 2
REMARK VINA RESULT:    -3.430     21.049     22.102
REMARK INTER + INTRA:          -6.157
REMARK INTER:                  -4.962
REMARK INTRA:                  -1.195
REMARK UNBOUND:                -1.223
REMARK SMILES O=C(CO)[C@H](O)[C@@H](O)[C@H](O)CO
REMARK SMILES IDX 7 1 9 2 11 3 12 4 10 6 5 8 2 9 1 10 3 11 4 12 6 14 8 16
REMARK H PARENT 12 5 10 7 4 13 6 15 8 17
REMARK Flexibility Score: inf
ROOT
ATOM      1  C   UNL     1      55.584  19.358  53.194  1.00  0.00     0.181 C 
ENDROOT
BRANCH   1   2
ATOM      2  C   UNL     1      54.070  19.666  53.323  1.00  0.00     0.171 C 
BRANCH   2   3
ATOM      3  C   UNL     1      53.758  21.158  53.095  1.00  0.00     0.190 C 
BRANCH   3   4
ATOM      4  O   UNL     1      53.912  21.503  51.743  1.00  0.00    -0.394 OA
ATOM      5  H   UNL     1      54.638  22.179  51.704  1.00  0.00     0.210 HD
ENDBRANCH   3   4
ENDBRANCH   2   3
BRANCH   2   6
ATOM      6  O   UNL     1      53.306  18.872  52.448  1.00  0.00    -0.388 OA
ATOM      7  H   UNL     1      52.694  18.317  53.000  1.00  0.00     0.211 HD
ENDBRANCH   2   6
ENDBRANCH   1   2
BRANCH   1   8
ATOM      8  C   UNL     1      55.891  18.494  51.941  1.00  0.00     0.214 C 
BRANCH   8   9
ATOM      9  C   UNL     1      57.370  18.172  51.838  1.00  0.00     0.189 C 
ATOM     10  O   UNL     1      58.013  18.021  52.867  1.00  0.00    -0.294 OA
BRANCH   9  11
ATOM     11  C   UNL     1      58.059  18.031  50.504  1.00  0.00     0.234 C 
BRANCH  11  12
ATOM     12  O   UNL     1      57.454  17.025  49.739  1.00  0.00    -0.388 OA
ATOM     13  H   UNL     1      57.036  16.399  50.386  1.00  0.00     0.211 HD
ENDBRANCH  11  12
ENDBRANCH   9  11
ENDBRANCH   8   9
BRANCH   8  14
ATOM     14  O   UNL     1      55.406  19.089  50.760  1.00  0.00    -0.382 OA
ATOM     15  H   UNL     1      55.022  18.374  50.190  1.00  0.00     0.211 HD
ENDBRANCH   8  14
ENDBRANCH   1   8
BRANCH   1  16
ATOM     16  O   UNL     1      56.318  20.558  53.164  1.00  0.00    -0.387 OA
ATOM     17  H   UNL     1      57.257  20.330  53.389  1.00  0.00     0.211 HD
ENDBRANCH   1  16
TORSDOF 10
ENDMDL
MODEL 3
REMARK VINA RESULT:    -3.411     17.822     18.873
REMARK INTER + INTRA:          -6.130
REMARK INTER:                  -5.206
REMARK INTRA:                  -0.924
REMARK UNBOUND:                -1.223
REMARK SMILES O=C(CO)[C@H](O)[C@@H](O)[C@H](O)CO
REMARK SMILES IDX 7 1 9 2 11 3 12 4 10 6 5 8 2 9 1 10 3 11 4 12 6 14 8 16
REMARK H PARENT 12 5 10 7 4 13 6 15 8 17
REMARK Flexibility Score: inf
ROOT
ATOM      1  C   UNL     1      55.360  23.758  63.682  1.00  0.00     0.181 C 
ENDROOT
BRANCH   1   2
ATOM      2  C   UNL     1      54.126  23.070  64.320  1.00  0.00     0.171 C 
BRANCH   2   3
ATOM      3  C   UNL     1      54.449  21.652  64.828  1.00  0.00     0.190 C 
BRANCH   3   4
ATOM      4  O   UNL     1      54.984  21.691  66.125  1.00  0.00    -0.394 OA
ATOM      5  H   UNL     1      55.934  21.964  66.031  1.00  0.00     0.210 HD
ENDBRANCH   3   4
ENDBRANCH   2   3
BRANCH   2   6
ATOM      6  O   UNL     1      53.584  23.847  65.360  1.00  0.00    -0.388 OA
ATOM      7  H   UNL     1      54.328  24.107  65.963  1.00  0.00     0.211 HD
ENDBRANCH   2   6
ENDBRANCH   1   2
BRANCH   1   8
ATOM      8  C   UNL     1      55.098  25.262  63.395  1.00  0.00     0.214 C 
BRANCH   8   9
ATOM      9  C   UNL     1      56.117  25.828  62.424  1.00  0.00     0.189 C 
ATOM     10  O   UNL     1      57.066  25.131  62.094  1.00  0.00    -0.294 OA
BRANCH   9  11
ATOM     11  C   UNL     1      55.984  27.218  61.857  1.00  0.00     0.234 C 
BRANCH  11  12
ATOM     12  O   UNL     1      56.357  28.178  62.808  1.00  0.00    -0.388 OA
ATOM     13  H   UNL     1      57.121  27.789  63.307  1.00  0.00     0.211 HD
ENDBRANCH  11  12
ENDBRANCH   9  11
ENDBRANCH   8   9
BRANCH   8  14
ATOM     14  O   UNL     1      55.034  26.020  64.580  1.00  0.00    -0.382 OA
ATOM     15  H   UNL     1      55.839  26.597  64.621  1.00  0.00     0.211 HD
ENDBRANCH   8  14
ENDBRANCH   1   8
BRANCH   1  16
ATOM     16  O   UNL     1      56.483  23.599  64.514  1.00  0.00    -0.387 OA
ATOM     17  H   UNL     1      56.685  22.627  64.548  1.00  0.00     0.211 HD
ENDBRANCH   1  16
TORSDOF 10
ENDMDL
MODEL 4
REMARK VINA RESULT:    -3.366     21.347     22.312
REMARK INTER + INTRA:          -6.065
REMARK INTER:                  -4.867
REMARK INTRA:                  -1.198
REMARK UNBOUND:                -1.223
REMARK SMILES O=C(CO)[C@H](O)[C@@H](O)[C@H](O)CO
REMARK SMILES IDX 7 1 9 2 11 3 12 4 10 6 5 8 2 9 1 10 3 11 4 12 6 14 8 16
REMARK H PARENT 12 5 10 7 4 13 6 15 8 17
REMARK Flexibility Score: inf
ROOT
ATOM      1  C   UNL     1      58.221  18.114  51.828  1.00  0.00     0.181 C 
ENDROOT
BRANCH   1   2
ATOM      2  C   UNL     1      59.068  18.004  50.534  1.00  0.00     0.171 C 
BRANCH   2   3
ATOM      3  C   UNL     1      59.398  16.542  50.177  1.00  0.00     0.190 C 
BRANCH   3   4
ATOM      4  O   UNL     1      58.269  15.880  49.671  1.00  0.00    -0.394 OA
ATOM      5  H   UNL     1      58.236  14.994  50.118  1.00  0.00     0.210 HD
ENDBRANCH   3   4
ENDBRANCH   2   3
BRANCH   2   6
ATOM      6  O   UNL     1      58.434  18.637  49.449  1.00  0.00    -0.388 OA
ATOM      7  H   UNL     1      57.797  17.988  49.050  1.00  0.00     0.211 HD
ENDBRANCH   2   6
ENDBRANCH   1   2
BRANCH   1   8
ATOM      8  C   UNL     1      56.744  18.485  51.521  1.00  0.00     0.214 C 
BRANCH   8   9
ATOM      9  C   UNL     1      55.986  18.838  52.786  1.00  0.00     0.189 C 
ATOM     10  O   UNL     1      56.474  18.542  53.868  1.00  0.00    -0.294 OA
BRANCH   9  11
ATOM     11  C   UNL     1      54.655  19.545  52.741  1.00  0.00     0.234 C 
BRANCH  11  12
ATOM     12  O   UNL     1      54.360  19.963  51.437  1.00  0.00    -0.388 OA
ATOM     13  H   UNL     1      54.306  19.138  50.889  1.00  0.00     0.211 HD
ENDBRANCH  11  12
ENDBRANCH   9  11
ENDBRANCH   8   9
BRANCH   8  14
ATOM     14  O   UNL     1      56.090  17.476  50.789  1.00  0.00    -0.382 OA
ATOM     15  H   UNL     1      55.393  17.076  51.370  1.00  0.00     0.211 HD
ENDBRANCH   8  14
ENDBRANCH   1   8
BRANCH   1  16
ATOM     16  O   UNL     1      58.292  16.910  52.552  1.00  0.00    -0.387 OA
ATOM     17  H   UNL     1      58.496  17.149  53.494  1.00  0.00     0.211 HD
ENDBRANCH   1  16
TORSDOF 10
ENDMDL
MODEL 5
REMARK VINA RESULT:    -3.316     12.084     13.091
REMARK INTER + INTRA:          -5.992
REMARK INTER:                  -5.054
REMARK INTRA:                  -0.938
REMARK UNBOUND:                -1.223
REMARK SMILES O=C(CO)[C@H](O)[C@@H](O)[C@H](O)CO
REMARK SMILES IDX 7 1 9 2 11 3 12 4 10 6 5 8 2 9 1 10 3 11 4 12 6 14 8 16
REMARK H PARENT 12 5 10 7 4 13 6 15 8 17
REMARK Flexibility Score: inf
ROOT
ATOM      1  C   UNL     1      66.414  33.957  47.623  1.00  0.00     0.181 C 
ENDROOT
BRANCH   1   2
ATOM      2  C   UNL     1      67.163  35.167  47.006  1.00  0.00     0.171 C 
BRANCH   2   3
ATOM      3  C   UNL     1      68.623  34.827  46.651  1.00  0.00     0.190 C 
BRANCH   3   4
ATOM      4  O   UNL     1      69.147  33.871  47.534  1.00  0.00    -0.394 OA
ATOM      5  H   UNL     1      68.619  33.040  47.399  1.00  0.00     0.210 HD
ENDBRANCH   3   4
ENDBRANCH   2   3
BRANCH   2   6
ATOM      6  O   UNL     1      66.492  35.666  45.875  1.00  0.00    -0.388 OA
ATOM      7  H   UNL     1      67.161  35.776  45.150  1.00  0.00     0.211 HD
ENDBRANCH   2   6
ENDBRANCH   1   2
BRANCH   1   8
ATOM      8  C   UNL     1      64.923  34.287  47.906  1.00  0.00     0.214 C 
BRANCH   8   9
ATOM      9  C   UNL     1      64.313  33.301  48.885  1.00  0.00     0.189 C 
ATOM     10  O   UNL     1      64.944  32.295  49.178  1.00  0.00    -0.294 OA
BRANCH   9  11
ATOM     11  C   UNL     1      62.959  33.535  49.506  1.00  0.00     0.234 C 
BRANCH  11  12
ATOM     12  O   UNL     1      61.939  33.263  48.585  1.00  0.00    -0.388 OA
ATOM     13  H   UNL     1      61.750  34.120  48.121  1.00  0.00     0.211 HD
ENDBRANCH  11  12
ENDBRANCH   9  11
ENDBRANCH   8   9
BRANCH   8  14
ATOM     14  O   UNL     1      64.168  34.373  46.720  1.00  0.00    -0.382 OA
ATOM     15  H   UNL     1      64.660  34.954  46.084  1.00  0.00     0.211 HD
ENDBRANCH   8  14
ENDBRANCH   1   8
BRANCH   1  16
ATOM     16  O   UNL     1      66.524  32.841  46.774  1.00  0.00    -0.387 OA
ATOM     17  H   UNL     1      67.284  32.296  47.107  1.00  0.00     0.211 HD
ENDBRANCH   1  16
TORSDOF 10
ENDMDL
MODEL 6
REMARK VINA RESULT:    -3.303     11.558     12.890
REMARK INTER + INTRA:          -5.974
REMARK INTER:                  -4.999
REMARK INTRA:                  -0.975
REMARK UNBOUND:                -1.223
REMARK SMILES O=C(CO)[C@H](O)[C@@H](O)[C@H](O)CO
REMARK SMILES IDX 7 1 9 2 11 3 12 4 10 6 5 8 2 9 1 10 3 11 4 12 6 14 8 16
REMARK H PARENT 12 5 10 7 4 13 6 15 8 17
REMARK Flexibility Score: inf
ROOT
ATOM      1  C   UNL     1      64.645  33.789  48.618  1.00  0.00     0.181 C 
ENDROOT
BRANCH   1   2
ATOM      2  C   UNL     1      64.085  32.630  49.481  1.00  0.00     0.171 C 
BRANCH   2   3
ATOM      3  C   UNL     1      62.694  32.955  50.059  1.00  0.00     0.190 C 
BRANCH   3   4
ATOM      4  O   UNL     1      61.758  33.160  49.034  1.00  0.00    -0.394 OA
ATOM      5  H   UNL     1      61.902  34.084  48.699  1.00  0.00     0.210 HD
ENDBRANCH   3   4
ENDBRANCH   2   3
BRANCH   2   6
ATOM      6  O   UNL     1      64.040  31.424  48.758  1.00  0.00    -0.388 OA
ATOM      7  H   UNL     1      63.502  31.582  47.938  1.00  0.00     0.211 HD
ENDBRANCH   2   6
ENDBRANCH   1   2
BRANCH   1   8
ATOM      8  C   UNL     1      66.163  33.616  48.335  1.00  0.00     0.214 C 
BRANCH   8   9
ATOM      9  C   UNL     1      66.848  34.955  48.142  1.00  0.00     0.189 C 
ATOM     10  O   UNL     1      67.075  35.648  49.124  1.00  0.00    -0.294 OA
BRANCH   9  11
ATOM     11  C   UNL     1      67.256  35.446  46.777  1.00  0.00     0.234 C 
BRANCH  11  12
ATOM     12  O   UNL     1      66.188  35.351  45.875  1.00  0.00    -0.388 OA
ATOM     13  H   UNL     1      65.421  35.810  46.307  1.00  0.00     0.211 HD
ENDBRANCH  11  12
ENDBRANCH   9  11
ENDBRANCH   8   9
BRANCH   8  14
ATOM     14  O   UNL     1      66.400  32.750  47.250  1.00  0.00    -0.382 OA
ATOM     15  H   UNL     1      67.289  32.971  46.868  1.00  0.00     0.211 HD
ENDBRANCH   8  14
ENDBRANCH   1   8
BRANCH   1  16
ATOM     16  O   UNL     1      63.923  33.885  47.414  1.00  0.00    -0.387 OA
ATOM     17  H   UNL     1      63.814  34.851  47.216  1.00  0.00     0.211 HD
ENDBRANCH   1  16
TORSDOF 10
ENDMDL
MODEL 7
REMARK VINA RESULT:    -3.290     13.002     14.363
REMARK INTER + INTRA:          -5.955
REMARK INTER:                  -5.037
REMARK INTRA:                  -0.918
REMARK UNBOUND:                -1.223
REMARK SMILES O=C(CO)[C@H](O)[C@@H](O)[C@H](O)CO
REMARK SMILES IDX 7 1 9 2 11 3 12 4 10 6 5 8 2 9 1 10 3 11 4 12 6 14 8 16
REMARK H PARENT 12 5 10 7 4 13 6 15 8 17
REMARK Flexibility Score: inf
ROOT
ATOM      1  C   UNL     1      62.750  28.024  50.101  1.00  0.00     0.181 C 
ENDROOT
BRANCH   1   2
ATOM      2  C   UNL     1      62.594  29.508  50.520  1.00  0.00     0.171 C 
BRANCH   2   3
ATOM      3  C   UNL     1      63.845  30.343  50.180  1.00  0.00     0.190 C 
BRANCH   3   4
ATOM      4  O   UNL     1      63.841  30.729  48.831  1.00  0.00    -0.394 OA
ATOM      5  H   UNL     1      64.017  29.908  48.301  1.00  0.00     0.210 HD
ENDBRANCH   3   4
ENDBRANCH   2   3
BRANCH   2   6
ATOM      6  O   UNL     1      61.451  30.090  49.942  1.00  0.00    -0.388 OA
ATOM      7  H   UNL     1      60.795  29.364  49.773  1.00  0.00     0.211 HD
ENDBRANCH   2   6
ENDBRANCH   1   2
BRANCH   1   8
ATOM      8  C   UNL     1      61.381  27.291  50.057  1.00  0.00     0.214 C 
BRANCH   8   9
ATOM      9  C   UNL     1      61.549  25.792  50.210  1.00  0.00     0.189 C 
ATOM     10  O   UNL     1      62.679  25.328  50.265  1.00  0.00    -0.294 OA
BRANCH   9  11
ATOM     11  C   UNL     1      60.361  24.867  50.301  1.00  0.00     0.234 C 
BRANCH  11  12
ATOM     12  O   UNL     1      59.371  25.241  49.383  1.00  0.00    -0.388 OA
ATOM     13  H   UNL     1      59.687  26.083  48.964  1.00  0.00     0.211 HD
ENDBRANCH  11  12
ENDBRANCH   9  11
ENDBRANCH   8   9
BRANCH   8  14
ATOM     14  O   UNL     1      60.648  27.616  48.899  1.00  0.00    -0.382 OA
ATOM     15  H   UNL     1      60.193  26.793  48.582  1.00  0.00     0.211 HD
ENDBRANCH   8  14
ENDBRANCH   1   8
BRANCH   1  16
ATOM     16  O   UNL     1      63.399  27.941  48.856  1.00  0.00    -0.387 OA
ATOM     17  H   UNL     1      63.959  28.756  48.765  1.00  0.00     0.211 HD
ENDBRANCH   1  16
TORSDOF 10
ENDMDL
MODEL 8
REMARK VINA RESULT:    -3.289     16.080     17.299
REMARK INTER + INTRA:          -5.953
REMARK INTER:                  -5.272
REMARK INTRA:                  -0.681
REMARK UNBOUND:                -1.223
REMARK SMILES O=C(CO)[C@H](O)[C@@H](O)[C@H](O)CO
REMARK SMILES IDX 7 1 9 2 11 3 12 4 10 6 5 8 2 9 1 10 3 11 4 12 6 14 8 16
REMARK H PARENT 12 5 10 7 4 13 6 15 8 17
REMARK Flexibility Score: inf
ROOT
ATOM      1  C   UNL     1      56.180  25.969  62.086  1.00  0.00     0.181 C 
ENDROOT
BRANCH   1   2
ATOM      2  C   UNL     1      55.287  25.239  63.123  1.00  0.00     0.171 C 
BRANCH   2   3
ATOM      3  C   UNL     1      55.843  23.850  63.493  1.00  0.00     0.190 C 
BRANCH   3   4
ATOM      4  O   UNL     1      55.890  23.681  64.886  1.00  0.00    -0.394 OA
ATOM      5  H   UNL     1      55.589  22.753  65.069  1.00  0.00     0.210 HD
ENDBRANCH   3   4
ENDBRANCH   2   3
BRANCH   2   6
ATOM      6  O   UNL     1      55.106  26.015  64.283  1.00  0.00    -0.388 OA
ATOM      7  H   UNL     1      55.909  26.589  64.392  1.00  0.00     0.211 HD
ENDBRANCH   2   6
ENDBRANCH   1   2
BRANCH   1   8
ATOM      8  C   UNL     1      55.747  27.449  61.894  1.00  0.00     0.214 C 
BRANCH   8   9
ATOM      9  C   UNL     1      55.884  27.883  60.447  1.00  0.00     0.189 C 
ATOM     10  O   UNL     1      56.740  27.355  59.751  1.00  0.00    -0.294 OA
BRANCH   9  11
ATOM     11  C   UNL     1      54.991  28.941  59.849  1.00  0.00     0.234 C 
BRANCH  11  12
ATOM     12  O   UNL     1      54.342  29.667  60.856  1.00  0.00    -0.388 OA
ATOM     13  H   UNL     1      55.045  30.202  61.307  1.00  0.00     0.211 HD
ENDBRANCH  11  12
ENDBRANCH   9  11
ENDBRANCH   8   9
BRANCH   8  14
ATOM     14  O   UNL     1      56.437  28.315  62.763  1.00  0.00    -0.382 OA
ATOM     15  H   UNL     1      55.846  28.512  63.535  1.00  0.00     0.211 HD
ENDBRANCH   8  14
ENDBRANCH   1   8
BRANCH   1  16
ATOM     16  O   UNL     1      57.530  25.892  62.475  1.00  0.00    -0.387 OA
ATOM     17  H   UNL     1      57.543  25.622  63.430  1.00  0.00     0.211 HD
ENDBRANCH   1  16
TORSDOF 10
ENDMDL
MODEL 9
REMARK VINA RESULT:    -3.280     12.623     13.356
REMARK INTER + INTRA:          -5.941
REMARK INTER:                  -4.780
REMARK INTRA:                  -1.161
REMARK UNBOUND:                -1.223
REMARK SMILES O=C(CO)[C@H](O)[C@@H](O)[C@H](O)CO
REMARK SMILES IDX 7 1 9 2 11 3 12 4 10 6 5 8 2 9 1 10 3 11 4 12 6 14 8 16
REMARK H PARENT 12 5 10 7 4 13 6 15 8 17
REMARK Flexibility Score: inf
ROOT
ATOM      1  C   UNL     1      58.805  26.553  61.124  1.00  0.00     0.181 C 
ENDROOT
BRANCH   1   2
ATOM      2  C   UNL     1      57.375  27.008  60.736  1.00  0.00     0.171 C 
BRANCH   2   3
ATOM      3  C   UNL     1      56.459  27.160  61.966  1.00  0.00     0.190 C 
BRANCH   3   4
ATOM      4  O   UNL     1      56.686  28.385  62.614  1.00  0.00    -0.394 OA
ATOM      5  H   UNL     1      57.169  28.963  61.967  1.00  0.00     0.210 HD
ENDBRANCH   3   4
ENDBRANCH   2   3
BRANCH   2   6
ATOM      6  O   UNL     1      57.397  28.205  59.997  1.00  0.00    -0.388 OA
ATOM      7  H   UNL     1      58.318  28.325  59.644  1.00  0.00     0.211 HD
ENDBRANCH   2   6
ENDBRANCH   1   2
BRANCH   1   8
ATOM      8  C   UNL     1      59.857  27.661  60.846  1.00  0.00     0.214 C 
BRANCH   8   9
ATOM      9  C   UNL     1      61.259  27.193  61.185  1.00  0.00     0.189 C 
ATOM     10  O   UNL     1      61.461  25.996  61.335  1.00  0.00    -0.294 OA
BRANCH   9  11
ATOM     11  C   UNL     1      62.404  28.162  61.335  1.00  0.00     0.234 C 
BRANCH  11  12
ATOM     12  O   UNL     1      62.172  29.042  62.401  1.00  0.00    -0.388 OA
ATOM     13  H   UNL     1      63.031  29.114  62.891  1.00  0.00     0.211 HD
ENDBRANCH  11  12
ENDBRANCH   9  11
ENDBRANCH   8   9
BRANCH   8  14
ATOM     14  O   UNL     1      59.539  28.865  61.505  1.00  0.00    -0.382 OA
ATOM     15  H   UNL     1      58.609  28.796  61.841  1.00  0.00     0.211 HD
ENDBRANCH   8  14
ENDBRANCH   1   8
BRANCH   1  16
ATOM     16  O   UNL     1      58.836  26.165  62.476  1.00  0.00    -0.387 OA
ATOM     17  H   UNL     1      57.944  25.786  62.691  1.00  0.00     0.211 HD
ENDBRANCH   1  16
TORSDOF 10
ENDMDL
