MODEL 1
REMARK VINA RESULT:    -5.811      0.000      0.000
REMARK INTER + INTRA:          -6.954
REMARK INTER:                  -6.830
REMARK INTRA:                  -0.123
REMARK UNBOUND:                -0.123
REMARK SMILES O=C([O-])C=Cc1ccc(O)c(O)c1
REMARK SMILES IDX 6 1 13 2 7 3 11 4 8 5 9 6 5 7 4 8 2 9 1 10 3 11 12 12 10 14
REMARK H PARENT 12 13 10 15
REMARK Flexibility Score: inf
ROOT
ATOM      1  C   UNL     1       8.162  28.145  -0.977  1.00  0.00    -0.022 A 
ATOM      2  C   UNL     1       8.543  27.597  -2.218  1.00  0.00     0.058 A 
ATOM      3  C   UNL     1       9.150  28.373  -0.006  1.00  0.00     0.012 A 
ATOM      4  C   UNL     1       9.879  27.263  -2.472  1.00  0.00     0.157 A 
ATOM      5  C   UNL     1      10.483  28.040  -0.254  1.00  0.00     0.051 A 
ATOM      6  C   UNL     1      10.854  27.481  -1.484  1.00  0.00     0.157 A 
ENDROOT
BRANCH   1   7
ATOM      7  C   UNL     1       6.761  28.526  -0.668  1.00  0.00     0.010 C 
ATOM      8  C   UNL     1       5.706  27.730  -0.895  1.00  0.00     0.025 C 
BRANCH   8   9
ATOM      9  C   UNL     1       4.330  28.136  -0.563  1.00  0.00     0.064 C 
ATOM     10  O   UNL     1       4.101  29.181   0.105  1.00  0.00    -0.545 OA
ATOM     11  O   UNL     1       3.265  27.357  -0.997  1.00  0.00    -0.545 OA
ENDBRANCH   8   9
ENDBRANCH   1   7
BRANCH   4  12
ATOM     12  O   UNL     1      10.218  26.720  -3.711  1.00  0.00    -0.504 OA
ATOM     13  H   UNL     1      11.092  26.230  -3.862  1.00  0.00     0.293 HD
ENDBRANCH   4  12
BRANCH   6  14
ATOM     14  O   UNL     1      12.186  27.147  -1.729  1.00  0.00    -0.504 OA
ATOM     15  H   UNL     1      12.663  27.451  -2.569  1.00  0.00     0.293 HD
ENDBRANCH   6  14
TORSDOF 4
ENDMDL
MODEL 2
REMARK VINA RESULT:    -5.785     10.684     12.864
REMARK INTER + INTRA:          -6.923
REMARK INTER:                  -6.800
REMARK INTRA:                  -0.123
REMARK UNBOUND:                -0.123
REMARK SMILES O=C([O-])C=Cc1ccc(O)c(O)c1
REMARK SMILES IDX 6 1 13 2 7 3 11 4 8 5 9 6 5 7 4 8 2 9 1 10 3 11 12 12 10 14
REMARK H PARENT 12 13 10 15
REMARK Flexibility Score: inf
ROOT
ATOM      1  C   UNL     1       2.920  36.604   5.083  1.00  0.00    -0.022 A 
ATOM      2  C   UNL     1       2.635  37.123   6.361  1.00  0.00     0.058 A 
ATOM      3  C   UNL     1       3.614  37.408   4.165  1.00  0.00     0.012 A 
ATOM      4  C   UNL     1       3.016  38.426   6.705  1.00  0.00     0.157 A 
ATOM      5  C   UNL     1       3.994  38.709   4.503  1.00  0.00     0.051 A 
ATOM      6  C   UNL     1       3.695  39.226   5.770  1.00  0.00     0.157 A 
ENDROOT
BRANCH   1   7
ATOM      7  C   UNL     1       2.547  35.225   4.679  1.00  0.00     0.010 C 
ATOM      8  C   UNL     1       1.425  34.610   5.080  1.00  0.00     0.025 C 
BRANCH   8   9
ATOM      9  C   UNL     1       1.081  33.244   4.648  1.00  0.00     0.064 C 
ATOM     10  O   UNL     1       1.957  32.339   4.590  1.00  0.00    -0.545 OA
ATOM     11  O   UNL     1      -0.230  32.948   4.303  1.00  0.00    -0.545 OA
ENDBRANCH   8   9
ENDBRANCH   1   7
BRANCH   4  12
ATOM     12  O   UNL     1       2.714  38.907   7.978  1.00  0.00    -0.504 OA
ATOM     13  H   UNL     1       2.951  39.848   8.268  1.00  0.00     0.293 HD
ENDBRANCH   4  12
BRANCH   6  14
ATOM     14  O   UNL     1       4.073  40.525   6.104  1.00  0.00    -0.504 OA
ATOM     15  H   UNL     1       5.036  40.832   6.033  1.00  0.00     0.293 HD
ENDBRANCH   6  14
TORSDOF 4
ENDMDL
MODEL 3
REMARK VINA RESULT:    -5.778     10.289     12.631
REMARK INTER + INTRA:          -6.915
REMARK INTER:                  -6.772
REMARK INTRA:                  -0.143
REMARK UNBOUND:                -0.123
REMARK SMILES O=C([O-])C=Cc1ccc(O)c(O)c1
REMARK SMILES IDX 6 1 13 2 7 3 11 4 8 5 9 6 5 7 4 8 2 9 1 10 3 11 12 12 10 14
REMARK H PARENT 12 13 10 15
REMARK Flexibility Score: inf
ROOT
ATOM      1  C   UNL     1       3.804  37.257   4.240  1.00  0.00    -0.022 A 
ATOM      2  C   UNL     1       4.124  38.583   4.591  1.00  0.00     0.058 A 
ATOM      3  C   UNL     1       3.046  36.484   5.134  1.00  0.00     0.012 A 
ATOM      4  C   UNL     1       3.715  39.115   5.821  1.00  0.00     0.157 A 
ATOM      5  C   UNL     1       2.638  37.009   6.362  1.00  0.00     0.051 A 
ATOM      6  C   UNL     1       2.972  38.324   6.713  1.00  0.00     0.157 A 
ENDROOT
BRANCH   1   7
ATOM      7  C   UNL     1       4.205  36.655   2.944  1.00  0.00     0.010 C 
ATOM      8  C   UNL     1       4.598  35.381   2.805  1.00  0.00     0.025 C 
BRANCH   8   9
ATOM      9  C   UNL     1       4.978  34.813   1.500  1.00  0.00     0.064 C 
ATOM     10  O   UNL     1       4.139  34.712   0.564  1.00  0.00    -0.545 OA
ATOM     11  O   UNL     1       6.282  34.385   1.295  1.00  0.00    -0.545 OA
ENDBRANCH   8   9
ENDBRANCH   1   7
BRANCH   4  12
ATOM     12  O   UNL     1       4.053  40.431   6.136  1.00  0.00    -0.504 OA
ATOM     13  H   UNL     1       4.949  40.831   5.885  1.00  0.00     0.293 HD
ENDBRANCH   4  12
BRANCH   6  14
ATOM     14  O   UNL     1       2.565  38.846   7.940  1.00  0.00    -0.504 OA
ATOM     15  H   UNL     1       3.159  38.802   8.759  1.00  0.00     0.293 HD
ENDBRANCH   6  14
TORSDOF 4
ENDMDL
MODEL 4
REMARK VINA RESULT:    -5.758      2.419      3.511
REMARK INTER + INTRA:          -6.891
REMARK INTER:                  -6.743
REMARK INTRA:                  -0.148
REMARK UNBOUND:                -0.123
REMARK SMILES O=C([O-])C=Cc1ccc(O)c(O)c1
REMARK SMILES IDX 6 1 13 2 7 3 11 4 8 5 9 6 5 7 4 8 2 9 1 10 3 11 12 12 10 14
REMARK H PARENT 12 13 10 15
REMARK Flexibility Score: inf
ROOT
ATOM      1  C   UNL     1       9.071  28.561  -0.089  1.00  0.00    -0.022 A 
ATOM      2  C   UNL     1      10.387  28.158  -0.390  1.00  0.00     0.058 A 
ATOM      3  C   UNL     1       8.045  28.257  -0.998  1.00  0.00     0.012 A 
ATOM      4  C   UNL     1      10.673  27.488  -1.586  1.00  0.00     0.157 A 
ATOM      5  C   UNL     1       8.327  27.590  -2.193  1.00  0.00     0.051 A 
ATOM      6  C   UNL     1       9.640  27.206  -2.495  1.00  0.00     0.157 A 
ENDROOT
BRANCH   1   7
ATOM      7  C   UNL     1       8.718  29.262   1.171  1.00  0.00     0.010 C 
ATOM      8  C   UNL     1       7.589  29.964   1.341  1.00  0.00     0.025 C 
BRANCH   8   9
ATOM      9  C   UNL     1       7.266  30.637   2.611  1.00  0.00     0.064 C 
ATOM     10  O   UNL     1       6.393  30.171   3.392  1.00  0.00    -0.545 OA
ATOM     11  O   UNL     1       7.935  31.804   2.954  1.00  0.00    -0.545 OA
ENDBRANCH   8   9
ENDBRANCH   1   7
BRANCH   4  12
ATOM     12  O   UNL     1      11.989  27.108  -1.852  1.00  0.00    -0.504 OA
ATOM     13  H   UNL     1      12.211  26.293  -2.410  1.00  0.00     0.293 HD
ENDBRANCH   4  12
BRANCH   6  14
ATOM     14  O   UNL     1       9.919  26.543  -3.689  1.00  0.00    -0.504 OA
ATOM     15  H   UNL     1       9.330  25.792  -4.029  1.00  0.00     0.293 HD
ENDBRANCH   6  14
TORSDOF 4
ENDMDL
MODEL 5
REMARK VINA RESULT:    -5.560      1.450      1.929
REMARK INTER + INTRA:          -6.658
REMARK INTER:                  -6.511
REMARK INTRA:                  -0.147
REMARK UNBOUND:                -0.123
REMARK SMILES O=C([O-])C=Cc1ccc(O)c(O)c1
REMARK SMILES IDX 6 1 13 2 7 3 11 4 8 5 9 6 5 7 4 8 2 9 1 10 3 11 12 12 10 14
REMARK H PARENT 12 13 10 15
REMARK Flexibility Score: inf
ROOT
ATOM      1  C   UNL     1       8.561  28.305  -0.625  1.00  0.00    -0.022 A 
ATOM      2  C   UNL     1       8.768  27.719  -1.889  1.00  0.00     0.058 A 
ATOM      3  C   UNL     1       9.667  28.516   0.213  1.00  0.00     0.012 A 
ATOM      4  C   UNL     1      10.052  27.330  -2.295  1.00  0.00     0.157 A 
ATOM      5  C   UNL     1      10.948  28.128  -0.187  1.00  0.00     0.051 A 
ATOM      6  C   UNL     1      11.147  27.531  -1.439  1.00  0.00     0.157 A 
ENDROOT
BRANCH   1   7
ATOM      7  C   UNL     1       7.222  28.744  -0.158  1.00  0.00     0.010 C 
ATOM      8  C   UNL     1       7.019  29.826   0.607  1.00  0.00     0.025 C 
BRANCH   8   9
ATOM      9  C   UNL     1       5.674  30.240   1.042  1.00  0.00     0.064 C 
ATOM     10  O   UNL     1       4.750  29.396   1.195  1.00  0.00    -0.545 OA
ATOM     11  O   UNL     1       5.420  31.581   1.291  1.00  0.00    -0.545 OA
ENDBRANCH   8   9
ENDBRANCH   1   7
BRANCH   4  12
ATOM     12  O   UNL     1      10.218  26.749  -3.552  1.00  0.00    -0.504 OA
ATOM     13  H   UNL     1      11.024  26.946  -4.133  1.00  0.00     0.293 HD
ENDBRANCH   4  12
BRANCH   6  14
ATOM     14  O   UNL     1      12.426  27.143  -1.835  1.00  0.00    -0.504 OA
ATOM     15  H   UNL     1      12.845  27.492  -2.688  1.00  0.00     0.293 HD
ENDBRANCH   6  14
TORSDOF 4
ENDMDL
MODEL 6
REMARK VINA RESULT:    -5.538      9.764     12.072
REMARK INTER + INTRA:          -6.632
REMARK INTER:                  -6.492
REMARK INTRA:                  -0.140
REMARK UNBOUND:                -0.123
REMARK SMILES O=C([O-])C=Cc1ccc(O)c(O)c1
REMARK SMILES IDX 6 1 13 2 7 3 11 4 8 5 9 6 5 7 4 8 2 9 1 10 3 11 12 12 10 14
REMARK H PARENT 12 13 10 15
REMARK Flexibility Score: inf
ROOT
ATOM      1  C   UNL     1       4.091  36.964   3.574  1.00  0.00    -0.022 A 
ATOM      2  C   UNL     1       3.181  36.839   4.642  1.00  0.00     0.058 A 
ATOM      3  C   UNL     1       4.857  38.136   3.470  1.00  0.00     0.012 A 
ATOM      4  C   UNL     1       3.023  37.875   5.571  1.00  0.00     0.157 A 
ATOM      5  C   UNL     1       4.701  39.172   4.394  1.00  0.00     0.051 A 
ATOM      6  C   UNL     1       3.783  39.050   5.445  1.00  0.00     0.157 A 
ENDROOT
BRANCH   1   7
ATOM      7  C   UNL     1       4.301  35.888   2.573  1.00  0.00     0.010 C 
ATOM      8  C   UNL     1       5.500  35.363   2.284  1.00  0.00     0.025 C 
BRANCH   8   9
ATOM      9  C   UNL     1       5.669  34.287   1.293  1.00  0.00     0.064 C 
ATOM     10  O   UNL     1       6.780  33.710   1.139  1.00  0.00    -0.545 OA
ATOM     11  O   UNL     1       4.585  33.898   0.517  1.00  0.00    -0.545 OA
ENDBRANCH   8   9
ENDBRANCH   1   7
BRANCH   4  12
ATOM     12  O   UNL     1       2.110  37.717   6.614  1.00  0.00    -0.504 OA
ATOM     13  H   UNL     1       1.829  36.804   6.949  1.00  0.00     0.293 HD
ENDBRANCH   4  12
BRANCH   6  14
ATOM     14  O   UNL     1       3.629  40.086   6.365  1.00  0.00    -0.504 OA
ATOM     15  H   UNL     1       3.308  39.913   7.310  1.00  0.00     0.293 HD
ENDBRANCH   6  14
TORSDOF 4
ENDMDL
MODEL 7
REMARK VINA RESULT:    -5.457      0.990      2.009
REMARK INTER + INTRA:          -6.537
REMARK INTER:                  -6.390
REMARK INTRA:                  -0.147
REMARK UNBOUND:                -0.123
REMARK SMILES O=C([O-])C=Cc1ccc(O)c(O)c1
REMARK SMILES IDX 6 1 13 2 7 3 11 4 8 5 9 6 5 7 4 8 2 9 1 10 3 11 12 12 10 14
REMARK H PARENT 12 13 10 15
REMARK Flexibility Score: inf
ROOT
ATOM      1  C   UNL     1       8.207  28.080  -1.000  1.00  0.00    -0.022 A 
ATOM      2  C   UNL     1       9.188  28.360  -0.029  1.00  0.00     0.058 A 
ATOM      3  C   UNL     1       8.599  27.472  -2.204  1.00  0.00     0.012 A 
ATOM      4  C   UNL     1      10.535  28.060  -0.267  1.00  0.00     0.157 A 
ATOM      5  C   UNL     1       9.942  27.174  -2.446  1.00  0.00     0.051 A 
ATOM      6  C   UNL     1      10.916  27.468  -1.483  1.00  0.00     0.157 A 
ENDROOT
BRANCH   1   7
ATOM      7  C   UNL     1       6.766  28.368  -0.787  1.00  0.00     0.010 C 
ATOM      8  C   UNL     1       5.775  27.658  -1.345  1.00  0.00     0.025 C 
BRANCH   8   9
ATOM      9  C   UNL     1       4.355  27.965  -1.101  1.00  0.00     0.064 C 
ATOM     10  O   UNL     1       3.843  27.816   0.041  1.00  0.00    -0.545 OA
ATOM     11  O   UNL     1       3.568  28.430  -2.146  1.00  0.00    -0.545 OA
ENDBRANCH   8   9
ENDBRANCH   1   7
BRANCH   4  12
ATOM     12  O   UNL     1      11.479  28.355   0.716  1.00  0.00    -0.504 OA
ATOM     13  H   UNL     1      11.212  28.670   1.641  1.00  0.00     0.293 HD
ENDBRANCH   4  12
BRANCH   6  14
ATOM     14  O   UNL     1      12.256  27.171  -1.728  1.00  0.00    -0.504 OA
ATOM     15  H   UNL     1      12.832  26.709  -1.035  1.00  0.00     0.293 HD
ENDBRANCH   6  14
TORSDOF 4
ENDMDL
MODEL 8
REMARK VINA RESULT:    -5.316      5.687      7.187
REMARK INTER + INTRA:          -6.371
REMARK INTER:                  -6.227
REMARK INTRA:                  -0.144
REMARK UNBOUND:                -0.123
REMARK SMILES O=C([O-])C=Cc1ccc(O)c(O)c1
REMARK SMILES IDX 6 1 13 2 7 3 11 4 8 5 9 6 5 7 4 8 2 9 1 10 3 11 12 12 10 14
REMARK H PARENT 12 13 10 15
REMARK Flexibility Score: inf
ROOT
ATOM      1  C   UNL     1       1.844  28.951   0.904  1.00  0.00    -0.022 A 
ATOM      2  C   UNL     1       2.414  28.847  -0.381  1.00  0.00     0.058 A 
ATOM      3  C   UNL     1       1.921  27.849   1.770  1.00  0.00     0.012 A 
ATOM      4  C   UNL     1       3.025  27.658  -0.797  1.00  0.00     0.157 A 
ATOM      5  C   UNL     1       2.527  26.660   1.358  1.00  0.00     0.051 A 
ATOM      6  C   UNL     1       3.079  26.557   0.074  1.00  0.00     0.157 A 
ENDROOT
BRANCH   1   7
ATOM      7  C   UNL     1       1.198  30.195   1.393  1.00  0.00     0.010 C 
ATOM      8  C   UNL     1       0.143  30.210   2.220  1.00  0.00     0.025 C 
BRANCH   8   9
ATOM      9  C   UNL     1      -0.465  31.464   2.696  1.00  0.00     0.064 C 
ATOM     10  O   UNL     1      -0.494  31.751   3.923  1.00  0.00    -0.545 OA
ATOM     11  O   UNL     1      -1.013  32.348   1.776  1.00  0.00    -0.545 OA
ENDBRANCH   8   9
ENDBRANCH   1   7
BRANCH   4  12
ATOM     12  O   UNL     1       3.575  27.591  -2.077  1.00  0.00    -0.504 OA
ATOM     13  H   UNL     1       3.074  27.182  -2.857  1.00  0.00     0.293 HD
ENDBRANCH   4  12
BRANCH   6  14
ATOM     14  O   UNL     1       3.682  25.368  -0.336  1.00  0.00    -0.504 OA
ATOM     15  H   UNL     1       4.109  25.278  -1.250  1.00  0.00     0.293 HD
ENDBRANCH   6  14
TORSDOF 4
ENDMDL
MODEL 9
REMARK VINA RESULT:    -5.282     10.988     12.530
REMARK INTER + INTRA:          -6.332
REMARK INTER:                  -6.189
REMARK INTRA:                  -0.142
REMARK UNBOUND:                -0.123
REMARK SMILES O=C([O-])C=Cc1ccc(O)c(O)c1
REMARK SMILES IDX 6 1 13 2 7 3 11 4 8 5 9 6 5 7 4 8 2 9 1 10 3 11 12 12 10 14
REMARK H PARENT 12 13 10 15
REMARK Flexibility Score: inf
ROOT
ATOM      1  C   UNL     1       2.930  36.455   5.132  1.00  0.00    -0.022 A 
ATOM      2  C   UNL     1       3.463  37.293   4.132  1.00  0.00     0.058 A 
ATOM      3  C   UNL     1       2.719  36.983   6.416  1.00  0.00     0.012 A 
ATOM      4  C   UNL     1       3.799  38.623   4.419  1.00  0.00     0.157 A 
ATOM      5  C   UNL     1       3.055  38.307   6.706  1.00  0.00     0.051 A 
ATOM      6  C   UNL     1       3.599  39.132   5.712  1.00  0.00     0.157 A 
ENDROOT
BRANCH   1   7
ATOM      7  C   UNL     1       2.548  35.045   4.872  1.00  0.00     0.010 C 
ATOM      8  C   UNL     1       1.447  34.468   5.375  1.00  0.00     0.025 C 
BRANCH   8   9
ATOM      9  C   UNL     1       1.092  33.068   5.086  1.00  0.00     0.064 C 
ATOM     10  O   UNL     1       0.356  32.771   4.106  1.00  0.00    -0.545 OA
ATOM     11  O   UNL     1       1.579  32.058   5.904  1.00  0.00    -0.545 OA
ENDBRANCH   8   9
ENDBRANCH   1   7
BRANCH   4  12
ATOM     12  O   UNL     1       4.327  39.421   3.404  1.00  0.00    -0.504 OA
ATOM     13  H   UNL     1       4.039  40.383   3.272  1.00  0.00     0.293 HD
ENDBRANCH   4  12
BRANCH   6  14
ATOM     14  O   UNL     1       3.935  40.453   6.004  1.00  0.00    -0.504 OA
ATOM     15  H   UNL     1       4.786  40.686   6.501  1.00  0.00     0.293 HD
ENDBRANCH   6  14
TORSDOF 4
ENDMDL
