MODEL 1
REMARK VINA RESULT:     1.697      0.000      0.000
REMARK INTER + INTRA:           3.218
REMARK INTER:                   2.392
REMARK INTRA:                   0.826
REMARK UNBOUND:                 0.826
REMARK SMILES C=C(CC[C@@H](C(=O)[O-])[C@H]1[C@H](O)C[C@]2(C)C3=C(CC[C@]12C)[C@@]1(C)CC[C@H](O)C(C)(C)[C@H]1CC3)C(C)C
REMARK SMILES IDX 4 1 5 2 6 3 7 4 8 5 9 6 10 7 19 8 12 9 13 10 18 11 20 12
REMARK SMILES IDX 14 13 15 14 17 15 16 16 32 17 21 18 31 19 30 20 23 21 22 22
REMARK SMILES IDX 27 23 24 24 25 25 28 26 29 27 11 28 26 30 3 32 2 33 1 34
REMARK SMILES IDX 33 35 34 36 35 37
REMARK H PARENT 11 29 26 31
REMARK Flexibility Score: inf
ROOT
ATOM      1  C   UNL     1       2.387  40.592  12.471  1.00  0.00     0.014 C 
ENDROOT
BRANCH   1   2
ATOM      2  C   UNL     1       3.441  41.669  12.850  1.00  0.00     0.042 C 
BRANCH   2   3
ATOM      3  C   UNL     1       4.738  41.349  12.149  1.00  0.00     0.045 C 
ATOM      4  O   UNL     1       5.067  41.950  11.092  1.00  0.00    -0.550 OA
ATOM      5  O   UNL     1       5.561  40.346  12.647  1.00  0.00    -0.550 OA
ENDBRANCH   2   3
BRANCH   2   6
ATOM      6  C   UNL     1       2.975  43.152  12.609  1.00  0.00     0.033 C 
ATOM      7  C   UNL     1       4.161  44.139  12.634  1.00  0.00     0.119 C 
ATOM      8  C   UNL     1       2.180  43.478  11.268  1.00  0.00    -0.017 C 
ATOM      9  C   UNL     1       3.838  45.225  11.622  1.00  0.00     0.043 C 
ATOM     10  C   UNL     1       3.068  44.525  10.493  1.00  0.00    -0.003 C 
ATOM     11  C   UNL     1       0.846  44.155  11.675  1.00  0.00     0.012 C 
ATOM     12  C   UNL     1       1.841  42.233  10.386  1.00  0.00     0.013 C 
ATOM     13  C   UNL     1       4.099  43.815   9.560  1.00  0.00     0.017 C 
ATOM     14  C   UNL     1       2.292  45.593   9.670  1.00  0.00    -0.064 C 
ATOM     15  C   UNL     1       0.101  44.708  10.471  1.00  0.00     0.032 C 
ATOM     16  C   UNL     1       0.927  45.716   9.683  1.00  0.00    -0.064 C 
ATOM     17  C   UNL     1       3.129  46.533   8.834  1.00  0.00     0.032 C 
ATOM     18  C   UNL     1       0.162  46.860   8.931  1.00  0.00    -0.008 C 
ATOM     19  C   UNL     1       2.481  47.888   8.655  1.00  0.00     0.009 C 
ATOM     20  C   UNL     1       1.102  47.722   7.977  1.00  0.00     0.007 C 
ATOM     21  C   UNL     1      -0.474  47.780  10.019  1.00  0.00     0.014 C 
ATOM     22  C   UNL     1      -0.946  46.169   8.089  1.00  0.00     0.016 C 
ATOM     23  C   UNL     1       0.500  49.118   7.475  1.00  0.00    -0.006 C 
ATOM     24  C   UNL     1      -1.120  49.055   9.478  1.00  0.00     0.033 C 
ATOM     25  C   UNL     1      -0.117  49.896   8.676  1.00  0.00     0.120 C 
ATOM     26  C   UNL     1       1.606  50.019   6.849  1.00  0.00     0.014 C 
ATOM     27  C   UNL     1      -0.549  48.904   6.336  1.00  0.00     0.014 C 
BRANCH   7  28
ATOM     28  O   UNL     1       4.329  44.695  13.913  1.00  0.00    -0.393 OA
ATOM     29  H   UNL     1       4.887  44.058  14.431  1.00  0.00     0.210 HD
ENDBRANCH   7  28
BRANCH  25  30
ATOM     30  O   UNL     1      -0.692  51.115   8.271  1.00  0.00    -0.393 OA
ATOM     31  H   UNL     1      -0.972  51.028   7.323  1.00  0.00     0.210 HD
ENDBRANCH  25  30
ENDBRANCH   2   6
ENDBRANCH   1   2
BRANCH   1  32
ATOM     32  C   UNL     1       1.867  39.748  13.650  1.00  0.00     0.031 C 
BRANCH  32  33
ATOM     33  C   UNL     1       0.357  39.684  13.630  1.00  0.00    -0.075 C 
ATOM     34  C   UNL     1      -0.254  38.749  12.881  1.00  0.00     0.008 C 
BRANCH  33  35
ATOM     35  C   UNL     1      -0.446  40.664  14.475  1.00  0.00     0.008 C 
ATOM     36  C   UNL     1      -1.009  41.808  13.622  1.00  0.00     0.012 C 
ATOM     37  C   UNL     1       0.385  41.202  15.644  1.00  0.00     0.012 C 
ENDBRANCH  33  35
ENDBRANCH  32  33
ENDBRANCH   1  32
TORSDOF 8
ENDMDL
MODEL 2
REMARK VINA RESULT:     1.748      2.292      8.744
REMARK INTER + INTRA:           3.290
REMARK INTER:                   3.090
REMARK INTRA:                   0.199
REMARK UNBOUND:                 0.826
REMARK SMILES C=C(CC[C@@H](C(=O)[O-])[C@H]1[C@H](O)C[C@]2(C)C3=C(CC[C@]12C)[C@@]1(C)CC[C@H](O)C(C)(C)[C@H]1CC3)C(C)C
REMARK SMILES IDX 4 1 5 2 6 3 7 4 8 5 9 6 10 7 19 8 12 9 13 10 18 11 20 12
REMARK SMILES IDX 14 13 15 14 17 15 16 16 32 17 21 18 31 19 30 20 23 21 22 22
REMARK SMILES IDX 27 23 24 24 25 25 28 26 29 27 11 28 26 30 3 32 2 33 1 34
REMARK SMILES IDX 33 35 34 36 35 37
REMARK H PARENT 11 29 26 31
REMARK Flexibility Score: inf
ROOT
ATOM      1  C   UNL     1       1.836  48.088   7.246  1.00  0.00     0.014 C 
ENDROOT
BRANCH   1   2
ATOM      2  C   UNL     1       0.643  47.929   8.229  1.00  0.00     0.042 C 
BRANCH   2   3
ATOM      3  C   UNL     1      -0.585  48.552   7.611  1.00  0.00     0.045 C 
ATOM      4  O   UNL     1      -1.125  48.044   6.593  1.00  0.00    -0.550 OA
ATOM      5  O   UNL     1      -1.101  49.729   8.141  1.00  0.00    -0.550 OA
ENDBRANCH   2   3
BRANCH   2   6
ATOM      6  C   UNL     1       0.390  46.455   8.716  1.00  0.00     0.033 C 
ATOM      7  C   UNL     1       0.584  45.431   7.578  1.00  0.00     0.119 C 
ATOM      8  C   UNL     1       1.262  45.909   9.932  1.00  0.00    -0.017 C 
ATOM      9  C   UNL     1       1.167  44.183   8.218  1.00  0.00     0.043 C 
ATOM     10  C   UNL     1       2.067  44.682   9.358  1.00  0.00    -0.003 C 
ATOM     11  C   UNL     1       0.277  45.400  11.015  1.00  0.00     0.012 C 
ATOM     12  C   UNL     1       2.203  46.967  10.593  1.00  0.00     0.013 C 
ATOM     13  C   UNL     1       3.432  45.133   8.746  1.00  0.00     0.017 C 
ATOM     14  C   UNL     1       2.321  43.513  10.353  1.00  0.00    -0.064 C 
ATOM     15  C   UNL     1       0.995  44.657  12.130  1.00  0.00     0.032 C 
ATOM     16  C   UNL     1       1.798  43.468  11.619  1.00  0.00    -0.064 C 
ATOM     17  C   UNL     1       3.186  42.381   9.850  1.00  0.00     0.032 C 
ATOM     18  C   UNL     1       1.975  42.239  12.576  1.00  0.00    -0.008 C 
ATOM     19  C   UNL     1       2.839  41.054  10.489  1.00  0.00     0.009 C 
ATOM     20  C   UNL     1       3.000  41.154  12.023  1.00  0.00     0.007 C 
ATOM     21  C   UNL     1       0.566  41.592  12.758  1.00  0.00     0.014 C 
ATOM     22  C   UNL     1       2.491  42.805  13.929  1.00  0.00     0.016 C 
ATOM     23  C   UNL     1       2.955  39.719  12.733  1.00  0.00    -0.006 C 
ATOM     24  C   UNL     1       0.566  40.270  13.526  1.00  0.00     0.033 C 
ATOM     25  C   UNL     1       1.480  39.233  12.859  1.00  0.00     0.120 C 
ATOM     26  C   UNL     1       3.733  38.653  11.905  1.00  0.00     0.014 C 
ATOM     27  C   UNL     1       3.664  39.756  14.125  1.00  0.00     0.014 C 
BRANCH   7  28
ATOM     28  O   UNL     1      -0.637  45.135   6.950  1.00  0.00    -0.393 OA
ATOM     29  H   UNL     1      -0.989  45.992   6.593  1.00  0.00     0.210 HD
ENDBRANCH   7  28
BRANCH  25  30
ATOM     30  O   UNL     1       1.393  37.990  13.513  1.00  0.00    -0.393 OA
ATOM     31  H   UNL     1       0.475  37.894  13.879  1.00  0.00     0.210 HD
ENDBRANCH  25  30
ENDBRANCH   2   6
ENDBRANCH   1   2
BRANCH   1  32
ATOM     32  C   UNL     1       3.197  47.619   7.794  1.00  0.00     0.031 C 
BRANCH  32  33
ATOM     33  C   UNL     1       4.217  48.731   7.697  1.00  0.00    -0.075 C 
ATOM     34  C   UNL     1       3.840  49.933   7.224  1.00  0.00     0.008 C 
BRANCH  33  35
ATOM     35  C   UNL     1       5.647  48.479   8.156  1.00  0.00     0.008 C 
ATOM     36  C   UNL     1       5.684  47.598   9.411  1.00  0.00     0.012 C 
ATOM     37  C   UNL     1       6.398  49.795   8.382  1.00  0.00     0.012 C 
ENDBRANCH  33  35
ENDBRANCH  32  33
ENDBRANCH   1  32
TORSDOF 8
ENDMDL
MODEL 3
REMARK VINA RESULT:     2.326      1.666      3.048
REMARK INTER + INTRA:           4.105
REMARK INTER:                   4.938
REMARK INTRA:                  -0.834
REMARK UNBOUND:                 0.826
REMARK SMILES C=C(CC[C@@H](C(=O)[O-])[C@H]1[C@H](O)C[C@]2(C)C3=C(CC[C@]12C)[C@@]1(C)CC[C@H](O)C(C)(C)[C@H]1CC3)C(C)C
REMARK SMILES IDX 4 1 5 2 6 3 7 4 8 5 9 6 10 7 19 8 12 9 13 10 18 11 20 12
REMARK SMILES IDX 14 13 15 14 17 15 16 16 32 17 21 18 31 19 30 20 23 21 22 22
REMARK SMILES IDX 27 23 24 24 25 25 28 26 29 27 11 28 26 30 3 32 2 33 1 34
REMARK SMILES IDX 33 35 34 36 35 37
REMARK H PARENT 11 29 26 31
REMARK Flexibility Score: inf
ROOT
ATOM      1  C   UNL     1       1.736  40.482  13.238  1.00  0.00     0.014 C 
ENDROOT
BRANCH   1   2
ATOM      2  C   UNL     1       3.151  41.054  12.946  1.00  0.00     0.042 C 
BRANCH   2   3
ATOM      3  C   UNL     1       4.131  39.910  12.863  1.00  0.00     0.045 C 
ATOM      4  O   UNL     1       3.733  38.715  12.875  1.00  0.00    -0.550 OA
ATOM      5  O   UNL     1       5.495  40.173  12.819  1.00  0.00    -0.550 OA
ENDBRANCH   2   3
BRANCH   2   6
ATOM      6  C   UNL     1       3.225  42.005  11.695  1.00  0.00     0.033 C 
ATOM      7  C   UNL     1       2.240  41.577  10.587  1.00  0.00     0.119 C 
ATOM      8  C   UNL     1       2.963  43.559  11.921  1.00  0.00    -0.017 C 
ATOM      9  C   UNL     1       1.754  42.856   9.929  1.00  0.00     0.043 C 
ATOM     10  C   UNL     1       1.697  43.906  11.048  1.00  0.00    -0.003 C 
ATOM     11  C   UNL     1       4.187  44.322  11.353  1.00  0.00     0.012 C 
ATOM     12  C   UNL     1       2.778  43.985  13.413  1.00  0.00     0.013 C 
ATOM     13  C   UNL     1       0.376  43.694  11.854  1.00  0.00     0.017 C 
ATOM     14  C   UNL     1       1.680  45.325  10.413  1.00  0.00    -0.064 C 
ATOM     15  C   UNL     1       3.952  45.823  11.315  1.00  0.00     0.032 C 
ATOM     16  C   UNL     1       2.729  46.204  10.492  1.00  0.00    -0.064 C 
ATOM     17  C   UNL     1       0.424  45.711   9.667  1.00  0.00     0.032 C 
ATOM     18  C   UNL     1       2.742  47.591   9.762  1.00  0.00    -0.008 C 
ATOM     19  C   UNL     1       0.690  46.689   8.544  1.00  0.00     0.009 C 
ATOM     20  C   UNL     1       1.340  47.972   9.111  1.00  0.00     0.007 C 
ATOM     21  C   UNL     1       3.837  47.517   8.653  1.00  0.00     0.014 C 
ATOM     22  C   UNL     1       3.126  48.649  10.833  1.00  0.00     0.016 C 
ATOM     23  C   UNL     1       1.362  49.164   8.043  1.00  0.00    -0.006 C 
ATOM     24  C   UNL     1       3.880  48.724   7.716  1.00  0.00     0.033 C 
ATOM     25  C   UNL     1       2.526  48.950   7.029  1.00  0.00     0.120 C 
ATOM     26  C   UNL     1       0.035  49.221   7.229  1.00  0.00     0.014 C 
ATOM     27  C   UNL     1       1.471  50.554   8.750  1.00  0.00     0.014 C 
BRANCH   7  28
ATOM     28  O   UNL     1       2.868  40.748   9.644  1.00  0.00    -0.393 OA
ATOM     29  H   UNL     1       2.758  41.186   8.760  1.00  0.00     0.210 HD
ENDBRANCH   7  28
BRANCH  25  30
ATOM     30  O   UNL     1       2.605  49.999   6.093  1.00  0.00    -0.393 OA
ATOM     31  H   UNL     1       3.553  50.283   6.022  1.00  0.00     0.210 HD
ENDBRANCH  25  30
ENDBRANCH   2   6
ENDBRANCH   1   2
BRANCH   1  32
ATOM     32  C   UNL     1       0.776  41.453  13.950  1.00  0.00     0.031 C 
BRANCH  32  33
ATOM     33  C   UNL     1      -0.469  40.726  14.406  1.00  0.00    -0.075 C 
ATOM     34  C   UNL     1      -1.009  39.781  13.614  1.00  0.00     0.008 C 
BRANCH  33  35
ATOM     35  C   UNL     1      -1.078  41.057  15.762  1.00  0.00     0.008 C 
ATOM     36  C   UNL     1      -0.334  42.213  16.441  1.00  0.00     0.012 C 
ATOM     37  C   UNL     1      -1.125  39.821  16.667  1.00  0.00     0.012 C 
ENDBRANCH  33  35
ENDBRANCH  32  33
ENDBRANCH   1  32
TORSDOF 8
ENDMDL
MODEL 4
REMARK VINA RESULT:     2.824      1.788      3.442
REMARK INTER + INTRA:           4.806
REMARK INTER:                   5.480
REMARK INTRA:                  -0.674
REMARK UNBOUND:                 0.826
REMARK SMILES C=C(CC[C@@H](C(=O)[O-])[C@H]1[C@H](O)C[C@]2(C)C3=C(CC[C@]12C)[C@@]1(C)CC[C@H](O)C(C)(C)[C@H]1CC3)C(C)C
REMARK SMILES IDX 4 1 5 2 6 3 7 4 8 5 9 6 10 7 19 8 12 9 13 10 18 11 20 12
REMARK SMILES IDX 14 13 15 14 17 15 16 16 32 17 21 18 31 19 30 20 23 21 22 22
REMARK SMILES IDX 27 23 24 24 25 25 28 26 29 27 11 28 26 30 3 32 2 33 1 34
REMARK SMILES IDX 33 35 34 36 35 37
REMARK H PARENT 11 29 26 31
REMARK Flexibility Score: inf
ROOT
ATOM      1  C   UNL     1       2.330  40.114  12.973  1.00  0.00     0.014 C 
ENDROOT
BRANCH   1   2
ATOM      2  C   UNL     1       3.531  41.094  12.864  1.00  0.00     0.042 C 
BRANCH   2   3
ATOM      3  C   UNL     1       4.814  40.301  12.931  1.00  0.00     0.045 C 
ATOM      4  O   UNL     1       5.634  40.317  11.975  1.00  0.00    -0.550 OA
ATOM      5  O   UNL     1       5.075  39.505  14.039  1.00  0.00    -0.550 OA
ENDBRANCH   2   3
BRANCH   2   6
ATOM      6  C   UNL     1       3.479  42.054  11.619  1.00  0.00     0.033 C 
ATOM      7  C   UNL     1       2.424  41.603  10.587  1.00  0.00     0.119 C 
ATOM      8  C   UNL     1       3.188  43.598  11.878  1.00  0.00    -0.017 C 
ATOM      9  C   UNL     1       1.850  42.870   9.979  1.00  0.00     0.043 C 
ATOM     10  C   UNL     1       1.848  43.910  11.108  1.00  0.00    -0.003 C 
ATOM     11  C   UNL     1       4.341  44.401  11.223  1.00  0.00     0.012 C 
ATOM     12  C   UNL     1       3.107  44.008  13.383  1.00  0.00     0.013 C 
ATOM     13  C   UNL     1       0.601  43.653  12.013  1.00  0.00     0.017 C 
ATOM     14  C   UNL     1       1.739  45.333  10.489  1.00  0.00    -0.064 C 
ATOM     15  C   UNL     1       4.058  45.895  11.216  1.00  0.00     0.032 C 
ATOM     16  C   UNL     1       2.764  46.243  10.494  1.00  0.00    -0.064 C 
ATOM     17  C   UNL     1       0.417  45.684   9.846  1.00  0.00     0.032 C 
ATOM     18  C   UNL     1       2.678  47.635   9.776  1.00  0.00    -0.008 C 
ATOM     19  C   UNL     1       0.565  46.677   8.714  1.00  0.00     0.009 C 
ATOM     20  C   UNL     1       1.218  47.976   9.239  1.00  0.00     0.007 C 
ATOM     21  C   UNL     1       3.686  47.601   8.585  1.00  0.00     0.014 C 
ATOM     22  C   UNL     1       3.112  48.697  10.824  1.00  0.00     0.016 C 
ATOM     23  C   UNL     1       1.122  49.175   8.183  1.00  0.00    -0.006 C 
ATOM     24  C   UNL     1       3.619  48.815   7.658  1.00  0.00     0.033 C 
ATOM     25  C   UNL     1       2.209  49.003   7.080  1.00  0.00     0.120 C 
ATOM     26  C   UNL     1      -0.266  49.195   7.476  1.00  0.00     0.014 C 
ATOM     27  C   UNL     1       1.243  50.563   8.891  1.00  0.00     0.014 C 
BRANCH   7  28
ATOM     28  O   UNL     1       3.002  40.799   9.591  1.00  0.00    -0.393 OA
ATOM     29  H   UNL     1       3.571  40.132  10.057  1.00  0.00     0.210 HD
ENDBRANCH   7  28
BRANCH  25  30
ATOM     30  O   UNL     1       2.183  50.059   6.150  1.00  0.00    -0.393 OA
ATOM     31  H   UNL     1       2.876  49.885   5.461  1.00  0.00     0.210 HD
ENDBRANCH  25  30
ENDBRANCH   2   6
ENDBRANCH   1   2
BRANCH   1  32
ATOM     32  C   UNL     1       2.650  38.650  12.618  1.00  0.00     0.031 C 
BRANCH  32  33
ATOM     33  C   UNL     1       1.374  37.863  12.420  1.00  0.00    -0.075 C 
ATOM     34  C   UNL     1       0.244  38.277  13.020  1.00  0.00     0.008 C 
BRANCH  33  35
ATOM     35  C   UNL     1       1.384  36.630  11.526  1.00  0.00     0.008 C 
ATOM     36  C   UNL     1       0.335  35.606  11.975  1.00  0.00     0.012 C 
ATOM     37  C   UNL     1       2.780  36.001  11.462  1.00  0.00     0.012 C 
ENDBRANCH  33  35
ENDBRANCH  32  33
ENDBRANCH   1  32
TORSDOF 8
ENDMDL
MODEL 5
REMARK VINA RESULT:     4.023      2.266      8.901
REMARK INTER + INTRA:           6.495
REMARK INTER:                   5.078
REMARK INTRA:                   1.418
REMARK UNBOUND:                 0.826
REMARK SMILES C=C(CC[C@@H](C(=O)[O-])[C@H]1[C@H](O)C[C@]2(C)C3=C(CC[C@]12C)[C@@]1(C)CC[C@H](O)C(C)(C)[C@H]1CC3)C(C)C
REMARK SMILES IDX 4 1 5 2 6 3 7 4 8 5 9 6 10 7 19 8 12 9 13 10 18 11 20 12
REMARK SMILES IDX 14 13 15 14 17 15 16 16 32 17 21 18 31 19 30 20 23 21 22 22
REMARK SMILES IDX 27 23 24 24 25 25 28 26 29 27 11 28 26 30 3 32 2 33 1 34
REMARK SMILES IDX 33 35 34 36 35 37
REMARK H PARENT 11 29 26 31
REMARK Flexibility Score: inf
ROOT
ATOM      1  C   UNL     1       1.203  48.308   8.619  1.00  0.00     0.014 C 
ENDROOT
BRANCH   1   2
ATOM      2  C   UNL     1      -0.180  47.598   8.611  1.00  0.00     0.042 C 
BRANCH   2   3
ATOM      3  C   UNL     1      -0.850  47.852   7.282  1.00  0.00     0.045 C 
ATOM      4  O   UNL     1      -1.125  46.900   6.505  1.00  0.00    -0.550 OA
ATOM      5  O   UNL     1      -1.125  49.156   6.887  1.00  0.00    -0.550 OA
ENDBRANCH   2   3
BRANCH   2   6
ATOM      6  C   UNL     1      -0.132  46.071   8.980  1.00  0.00     0.033 C 
ATOM      7  C   UNL     1       0.338  45.205   7.792  1.00  0.00     0.119 C 
ATOM      8  C   UNL     1       0.772  45.628  10.213  1.00  0.00    -0.017 C 
ATOM      9  C   UNL     1       1.143  44.062   8.386  1.00  0.00     0.043 C 
ATOM     10  C   UNL     1       1.853  44.648   9.615  1.00  0.00    -0.003 C 
ATOM     11  C   UNL     1      -0.134  44.836  11.191  1.00  0.00     0.012 C 
ATOM     12  C   UNL     1       1.426  46.805  11.006  1.00  0.00     0.013 C 
ATOM     13  C   UNL     1       3.117  45.425   9.129  1.00  0.00     0.017 C 
ATOM     14  C   UNL     1       2.301  43.484  10.545  1.00  0.00    -0.064 C 
ATOM     15  C   UNL     1       0.669  44.176  12.300  1.00  0.00     0.032 C 
ATOM     16  C   UNL     1       1.735  43.229  11.767  1.00  0.00    -0.064 C 
ATOM     17  C   UNL     1       3.416  42.605  10.028  1.00  0.00     0.032 C 
ATOM     18  C   UNL     1       2.124  41.993  12.650  1.00  0.00    -0.008 C 
ATOM     19  C   UNL     1       3.331  41.188  10.552  1.00  0.00     0.009 C 
ATOM     20  C   UNL     1       3.387  41.197  12.096  1.00  0.00     0.007 C 
ATOM     21  C   UNL     1       0.881  41.050  12.693  1.00  0.00     0.014 C 
ATOM     22  C   UNL     1       2.434  42.546  14.069  1.00  0.00     0.016 C 
ATOM     23  C   UNL     1       3.616  39.734  12.705  1.00  0.00    -0.006 C 
ATOM     24  C   UNL     1       1.126  39.702  13.369  1.00  0.00     0.033 C 
ATOM     25  C   UNL     1       2.277  38.938  12.698  1.00  0.00     0.120 C 
ATOM     26  C   UNL     1       4.648  38.926  11.863  1.00  0.00     0.014 C 
ATOM     27  C   UNL     1       4.227  39.809  14.141  1.00  0.00     0.014 C 
BRANCH   7  28
ATOM     28  O   UNL     1      -0.756  44.708   7.065  1.00  0.00    -0.393 OA
ATOM     29  H   UNL     1      -0.802  45.235   6.224  1.00  0.00     0.210 HD
ENDBRANCH   7  28
BRANCH  25  30
ATOM     30  O   UNL     1       2.427  37.656  13.261  1.00  0.00    -0.393 OA
ATOM     31  H   UNL     1       1.926  37.631  14.117  1.00  0.00     0.210 HD
ENDBRANCH  25  30
ENDBRANCH   2   6
ENDBRANCH   1   2
BRANCH   1  32
ATOM     32  C   UNL     1       2.021  48.154   7.323  1.00  0.00     0.031 C 
BRANCH  32  33
ATOM     33  C   UNL     1       3.329  48.904   7.431  1.00  0.00    -0.075 C 
ATOM     34  C   UNL     1       4.395  48.293   7.980  1.00  0.00     0.008 C 
BRANCH  33  35
ATOM     35  C   UNL     1       3.426  50.326   6.897  1.00  0.00     0.008 C 
ATOM     36  C   UNL     1       4.513  51.125   7.627  1.00  0.00     0.012 C 
ATOM     37  C   UNL     1       2.072  51.040   6.968  1.00  0.00     0.012 C 
ENDBRANCH  33  35
ENDBRANCH  32  33
ENDBRANCH   1  32
TORSDOF 8
ENDMDL
