MODEL 1
REMARK VINA RESULT:    -4.286      0.000      0.000
REMARK INTER + INTRA:          -6.687
REMARK INTER:                  -5.789
REMARK INTRA:                  -0.898
REMARK UNBOUND:                -0.898
REMARK SMILES C[C@H](O)[C@@H](O)[C@H](O)[C@H](O)C=O
REMARK SMILES IDX 4 1 2 2 1 3 3 4 6 6 8 7 10 8 11 9 9 10 7 12 5 14
REMARK H PARENT 3 5 9 11 7 13 5 15
REMARK Flexibility Score: inf
ROOT
ATOM      1  C   UNL     1      42.631  40.735  16.115  1.00  0.00     0.174 C 
ENDROOT
BRANCH   1   2
ATOM      2  C   UNL     1      43.272  40.646  14.703  1.00  0.00     0.142 C 
ATOM      3  C   UNL     1      44.374  39.587  14.599  1.00  0.00     0.041 C 
BRANCH   2   4
ATOM      4  O   UNL     1      43.773  41.890  14.288  1.00  0.00    -0.391 OA
ATOM      5  H   UNL     1      43.919  41.831  13.307  1.00  0.00     0.211 HD
ENDBRANCH   2   4
ENDBRANCH   1   2
BRANCH   1   6
ATOM      6  C   UNL     1      41.131  41.165  16.163  1.00  0.00     0.181 C 
BRANCH   6   7
ATOM      7  C   UNL     1      40.878  42.489  16.939  1.00  0.00     0.209 C 
BRANCH   7   8
ATOM      8  C   UNL     1      40.836  43.672  16.006  1.00  0.00     0.258 C 
ATOM      9  O   UNL     1      41.798  43.944  15.305  1.00  0.00    -0.300 OA
ENDBRANCH   7   8
BRANCH   7  10
ATOM     10  O   UNL     1      39.654  42.421  17.623  1.00  0.00    -0.383 OA
ATOM     11  H   UNL     1      39.054  41.842  17.084  1.00  0.00     0.211 HD
ENDBRANCH   7  10
ENDBRANCH   6   7
BRANCH   6  12
ATOM     12  O   UNL     1      40.645  41.276  14.845  1.00  0.00    -0.387 OA
ATOM     13  H   UNL     1      39.868  41.893  14.864  1.00  0.00     0.211 HD
ENDBRANCH   6  12
ENDBRANCH   1   6
BRANCH   1  14
ATOM     14  O   UNL     1      43.392  41.639  16.879  1.00  0.00    -0.388 OA
ATOM     15  H   UNL     1      43.846  41.118  17.591  1.00  0.00     0.211 HD
ENDBRANCH   1  14
TORSDOF 8
ENDMDL
MODEL 2
REMARK VINA RESULT:    -4.126      1.931      3.699
REMARK INTER + INTRA:          -6.471
REMARK INTER:                  -5.545
REMARK INTRA:                  -0.926
REMARK UNBOUND:                -0.898
REMARK SMILES C[C@H](O)[C@@H](O)[C@H](O)[C@H](O)C=O
REMARK SMILES IDX 4 1 2 2 1 3 3 4 6 6 8 7 10 8 11 9 9 10 7 12 5 14
REMARK H PARENT 3 5 9 11 7 13 5 15
REMARK Flexibility Score: inf
ROOT
ATOM      1  C   UNL     1      42.413  42.829  17.987  1.00  0.00     0.174 C 
ENDROOT
BRANCH   1   2
ATOM      2  C   UNL     1      41.747  41.916  19.052  1.00  0.00     0.142 C 
ATOM      3  C   UNL     1      42.574  41.770  20.334  1.00  0.00     0.041 C 
BRANCH   2   4
ATOM      4  O   UNL     1      41.458  40.645  18.530  1.00  0.00    -0.391 OA
ATOM      5  H   UNL     1      42.137  40.020  18.896  1.00  0.00     0.211 HD
ENDBRANCH   2   4
ENDBRANCH   1   2
BRANCH   1   6
ATOM      6  C   UNL     1      41.541  43.182  16.741  1.00  0.00     0.181 C 
BRANCH   6   7
ATOM      7  C   UNL     1      41.942  42.413  15.451  1.00  0.00     0.209 C 
BRANCH   7   8
ATOM      8  C   UNL     1      40.936  41.341  15.117  1.00  0.00     0.258 C 
ATOM      9  O   UNL     1      40.847  40.335  15.803  1.00  0.00    -0.300 OA
ENDBRANCH   7   8
BRANCH   7  10
ATOM     10  O   UNL     1      42.023  43.298  14.366  1.00  0.00    -0.383 OA
ATOM     11  H   UNL     1      42.800  43.011  13.817  1.00  0.00     0.211 HD
ENDBRANCH   7  10
ENDBRANCH   6   7
BRANCH   6  12
ATOM     12  O   UNL     1      40.187  42.941  17.049  1.00  0.00    -0.387 OA
ATOM     13  H   UNL     1      39.671  43.745  16.778  1.00  0.00     0.211 HD
ENDBRANCH   6  12
ENDBRANCH   1   6
BRANCH   1  14
ATOM     14  O   UNL     1      43.595  42.199  17.556  1.00  0.00    -0.388 OA
ATOM     15  H   UNL     1      44.246  42.913  17.328  1.00  0.00     0.211 HD
ENDBRANCH   1  14
TORSDOF 8
ENDMDL
MODEL 3
REMARK VINA RESULT:    -4.108      2.477      3.425
REMARK INTER + INTRA:          -6.447
REMARK INTER:                  -5.717
REMARK INTRA:                  -0.729
REMARK UNBOUND:                -0.898
REMARK SMILES C[C@H](O)[C@@H](O)[C@H](O)[C@H](O)C=O
REMARK SMILES IDX 4 1 2 2 1 3 3 4 6 6 8 7 10 8 11 9 9 10 7 12 5 14
REMARK H PARENT 3 5 9 11 7 13 5 15
REMARK Flexibility Score: inf
ROOT
ATOM      1  C   UNL     1      41.728  40.644  17.038  1.00  0.00     0.174 C 
ENDROOT
BRANCH   1   2
ATOM      2  C   UNL     1      40.724  40.811  15.864  1.00  0.00     0.142 C 
ATOM      3  C   UNL     1      41.029  39.905  14.667  1.00  0.00     0.041 C 
BRANCH   2   4
ATOM      4  O   UNL     1      40.649  42.146  15.439  1.00  0.00    -0.391 OA
ATOM      5  H   UNL     1      39.778  42.253  14.973  1.00  0.00     0.211 HD
ENDBRANCH   2   4
ENDBRANCH   1   2
BRANCH   1   6
ATOM      6  C   UNL     1      41.173  40.943  18.466  1.00  0.00     0.181 C 
BRANCH   6   7
ATOM      7  C   UNL     1      42.198  40.692  19.607  1.00  0.00     0.209 C 
BRANCH   7   8
ATOM      8  C   UNL     1      42.682  41.988  20.204  1.00  0.00     0.258 C 
ATOM      9  O   UNL     1      43.373  42.753  19.551  1.00  0.00    -0.300 OA
ENDBRANCH   7   8
BRANCH   7  10
ATOM     10  O   UNL     1      41.609  39.928  20.627  1.00  0.00    -0.383 OA
ATOM     11  H   UNL     1      42.231  39.178  20.821  1.00  0.00     0.211 HD
ENDBRANCH   7  10
ENDBRANCH   6   7
BRANCH   6  12
ATOM     12  O   UNL     1      40.716  42.275  18.509  1.00  0.00    -0.387 OA
ATOM     13  H   UNL     1      41.053  42.733  17.694  1.00  0.00     0.211 HD
ENDBRANCH   6  12
ENDBRANCH   1   6
BRANCH   1  14
ATOM     14  O   UNL     1      42.827  41.487  16.788  1.00  0.00    -0.388 OA
ATOM     15  H   UNL     1      42.773  42.244  17.428  1.00  0.00     0.211 HD
ENDBRANCH   1  14
TORSDOF 8
ENDMDL
MODEL 4
REMARK VINA RESULT:    -3.998      2.035      3.732
REMARK INTER + INTRA:          -6.299
REMARK INTER:                  -5.740
REMARK INTRA:                  -0.558
REMARK UNBOUND:                -0.898
REMARK SMILES C[C@H](O)[C@@H](O)[C@H](O)[C@H](O)C=O
REMARK SMILES IDX 4 1 2 2 1 3 3 4 6 6 8 7 10 8 11 9 9 10 7 12 5 14
REMARK H PARENT 3 5 9 11 7 13 5 15
REMARK Flexibility Score: inf
ROOT
ATOM      1  C   UNL     1      41.695  41.339  17.790  1.00  0.00     0.174 C 
ENDROOT
BRANCH   1   2
ATOM      2  C   UNL     1      41.933  41.529  19.313  1.00  0.00     0.142 C 
ATOM      3  C   UNL     1      41.884  40.219  20.106  1.00  0.00     0.041 C 
BRANCH   2   4
ATOM      4  O   UNL     1      41.026  42.448  19.863  1.00  0.00    -0.391 OA
ATOM      5  H   UNL     1      40.441  41.941  20.485  1.00  0.00     0.211 HD
ENDBRANCH   2   4
ENDBRANCH   1   2
BRANCH   1   6
ATOM      6  C   UNL     1      41.192  42.594  17.010  1.00  0.00     0.181 C 
BRANCH   6   7
ATOM      7  C   UNL     1      41.406  42.510  15.472  1.00  0.00     0.209 C 
BRANCH   7   8
ATOM      8  C   UNL     1      42.849  42.236  15.134  1.00  0.00     0.258 C 
ATOM      9  O   UNL     1      43.186  41.157  14.673  1.00  0.00    -0.300 OA
ENDBRANCH   7   8
BRANCH   7  10
ATOM     10  O   UNL     1      40.621  41.481  14.931  1.00  0.00    -0.383 OA
ATOM     11  H   UNL     1      41.030  40.624  15.220  1.00  0.00     0.211 HD
ENDBRANCH   7  10
ENDBRANCH   6   7
BRANCH   6  12
ATOM     12  O   UNL     1      39.828  42.794  17.299  1.00  0.00    -0.387 OA
ATOM     13  H   UNL     1      39.307  42.161  16.738  1.00  0.00     0.211 HD
ENDBRANCH   6  12
ENDBRANCH   1   6
BRANCH   1  14
ATOM     14  O   UNL     1      40.767  40.294  17.624  1.00  0.00    -0.388 OA
ATOM     15  H   UNL     1      40.896  39.660  18.377  1.00  0.00     0.211 HD
ENDBRANCH   1  14
TORSDOF 8
ENDMDL
MODEL 5
REMARK VINA RESULT:    -3.997      1.565      2.303
REMARK INTER + INTRA:          -6.296
REMARK INTER:                  -6.005
REMARK INTRA:                  -0.291
REMARK UNBOUND:                -0.898
REMARK SMILES C[C@H](O)[C@@H](O)[C@H](O)[C@H](O)C=O
REMARK SMILES IDX 4 1 2 2 1 3 3 4 6 6 8 7 10 8 11 9 9 10 7 12 5 14
REMARK H PARENT 3 5 9 11 7 13 5 15
REMARK Flexibility Score: inf
ROOT
ATOM      1  C   UNL     1      42.775  40.844  15.935  1.00  0.00     0.174 C 
ENDROOT
BRANCH   1   2
ATOM      2  C   UNL     1      43.347  40.165  14.661  1.00  0.00     0.142 C 
ATOM      3  C   UNL     1      43.562  38.656  14.817  1.00  0.00     0.041 C 
BRANCH   2   4
ATOM      4  O   UNL     1      44.544  40.772  14.250  1.00  0.00    -0.391 OA
ATOM      5  H   UNL     1      45.269  40.107  14.389  1.00  0.00     0.211 HD
ENDBRANCH   2   4
ENDBRANCH   1   2
BRANCH   1   6
ATOM      6  C   UNL     1      41.222  40.806  16.096  1.00  0.00     0.181 C 
BRANCH   6   7
ATOM      7  C   UNL     1      40.726  41.183  17.521  1.00  0.00     0.209 C 
BRANCH   7   8
ATOM      8  C   UNL     1      41.671  40.678  18.581  1.00  0.00     0.258 C 
ATOM      9  O   UNL     1      41.281  39.911  19.447  1.00  0.00    -0.300 OA
ENDBRANCH   7   8
BRANCH   7  10
ATOM     10  O   UNL     1      40.625  42.577  17.644  1.00  0.00    -0.383 OA
ATOM     11  H   UNL     1      39.755  42.839  17.242  1.00  0.00     0.211 HD
ENDBRANCH   7  10
ENDBRANCH   6   7
BRANCH   6  12
ATOM     12  O   UNL     1      40.644  41.664  15.139  1.00  0.00    -0.387 OA
ATOM     13  H   UNL     1      41.175  42.502  15.129  1.00  0.00     0.211 HD
ENDBRANCH   6  12
ENDBRANCH   1   6
BRANCH   1  14
ATOM     14  O   UNL     1      43.204  42.184  15.940  1.00  0.00    -0.388 OA
ATOM     15  H   UNL     1      43.825  42.295  16.706  1.00  0.00     0.211 HD
ENDBRANCH   1  14
TORSDOF 8
ENDMDL
MODEL 6
REMARK VINA RESULT:    -3.982      1.887      3.288
REMARK INTER + INTRA:          -6.276
REMARK INTER:                  -5.299
REMARK INTRA:                  -0.977
REMARK UNBOUND:                -0.898
REMARK SMILES C[C@H](O)[C@@H](O)[C@H](O)[C@H](O)C=O
REMARK SMILES IDX 4 1 2 2 1 3 3 4 6 6 8 7 10 8 11 9 9 10 7 12 5 14
REMARK H PARENT 3 5 9 11 7 13 5 15
REMARK Flexibility Score: inf
ROOT
ATOM      1  C   UNL     1      41.407  41.558  18.135  1.00  0.00     0.174 C 
ENDROOT
BRANCH   1   2
ATOM      2  C   UNL     1      42.789  41.663  18.836  1.00  0.00     0.142 C 
ATOM      3  C   UNL     1      42.703  42.161  20.282  1.00  0.00     0.041 C 
BRANCH   2   4
ATOM      4  O   UNL     1      43.673  42.475  18.108  1.00  0.00    -0.391 OA
ATOM      5  H   UNL     1      43.547  43.405  18.434  1.00  0.00     0.211 HD
ENDBRANCH   2   4
ENDBRANCH   1   2
BRANCH   1   6
ATOM      6  C   UNL     1      41.389  40.829  16.754  1.00  0.00     0.181 C 
BRANCH   6   7
ATOM      7  C   UNL     1      40.966  41.737  15.566  1.00  0.00     0.209 C 
BRANCH   7   8
ATOM      8  C   UNL     1      42.165  42.363  14.900  1.00  0.00     0.258 C 
ATOM      9  O   UNL     1      42.852  43.177  15.495  1.00  0.00    -0.300 OA
ENDBRANCH   7   8
BRANCH   7  10
ATOM     10  O   UNL     1      40.269  40.986  14.607  1.00  0.00    -0.383 OA
ATOM     11  H   UNL     1      40.803  41.018  13.771  1.00  0.00     0.211 HD
ENDBRANCH   7  10
ENDBRANCH   6   7
BRANCH   6  12
ATOM     12  O   UNL     1      42.663  40.277  16.513  1.00  0.00    -0.387 OA
ATOM     13  H   UNL     1      42.923  39.761  17.321  1.00  0.00     0.211 HD
ENDBRANCH   6  12
ENDBRANCH   1   6
BRANCH   1  14
ATOM     14  O   UNL     1      40.906  42.863  17.971  1.00  0.00    -0.388 OA
ATOM     15  H   UNL     1      40.772  43.010  16.998  1.00  0.00     0.211 HD
ENDBRANCH   1  14
TORSDOF 8
ENDMDL
MODEL 7
REMARK VINA RESULT:    -3.949      2.311      3.876
REMARK INTER + INTRA:          -6.231
REMARK INTER:                  -5.820
REMARK INTRA:                  -0.411
REMARK UNBOUND:                -0.898
REMARK SMILES C[C@H](O)[C@@H](O)[C@H](O)[C@H](O)C=O
REMARK SMILES IDX 4 1 2 2 1 3 3 4 6 6 8 7 10 8 11 9 9 10 7 12 5 14
REMARK H PARENT 3 5 9 11 7 13 5 15
REMARK Flexibility Score: inf
ROOT
ATOM      1  C   UNL     1      42.576  42.493  18.853  1.00  0.00     0.174 C 
ENDROOT
BRANCH   1   2
ATOM      2  C   UNL     1      42.277  41.659  20.129  1.00  0.00     0.142 C 
ATOM      3  C   UNL     1      41.832  40.224  19.829  1.00  0.00     0.041 C 
BRANCH   2   4
ATOM      4  O   UNL     1      41.322  42.289  20.942  1.00  0.00    -0.391 OA
ATOM      5  H   UNL     1      41.289  41.782  21.796  1.00  0.00     0.211 HD
ENDBRANCH   2   4
ENDBRANCH   1   2
BRANCH   1   6
ATOM      6  C   UNL     1      42.305  41.785  17.488  1.00  0.00     0.181 C 
BRANCH   6   7
ATOM      7  C   UNL     1      41.156  42.426  16.661  1.00  0.00     0.209 C 
BRANCH   7   8
ATOM      8  C   UNL     1      40.918  41.672  15.378  1.00  0.00     0.258 C 
ATOM      9  O   UNL     1      41.154  40.477  15.306  1.00  0.00    -0.300 OA
ENDBRANCH   7   8
BRANCH   7  10
ATOM     10  O   UNL     1      39.966  42.423  17.405  1.00  0.00    -0.383 OA
ATOM     11  H   UNL     1      39.578  43.335  17.331  1.00  0.00     0.211 HD
ENDBRANCH   7  10
ENDBRANCH   6   7
BRANCH   6  12
ATOM     12  O   UNL     1      43.497  41.776  16.736  1.00  0.00    -0.387 OA
ATOM     13  H   UNL     1      43.549  42.638  16.246  1.00  0.00     0.211 HD
ENDBRANCH   6  12
ENDBRANCH   1   6
BRANCH   1  14
ATOM     14  O   UNL     1      43.925  42.892  18.904  1.00  0.00    -0.388 OA
ATOM     15  H   UNL     1      43.959  43.768  19.369  1.00  0.00     0.211 HD
ENDBRANCH   1  14
TORSDOF 8
ENDMDL
MODEL 8
REMARK VINA RESULT:    -3.941      1.983      3.646
REMARK INTER + INTRA:          -6.221
REMARK INTER:                  -5.282
REMARK INTRA:                  -0.939
REMARK UNBOUND:                -0.898
REMARK SMILES C[C@H](O)[C@@H](O)[C@H](O)[C@H](O)C=O
REMARK SMILES IDX 4 1 2 2 1 3 3 4 6 6 8 7 10 8 11 9 9 10 7 12 5 14
REMARK H PARENT 3 5 9 11 7 13 5 15
REMARK Flexibility Score: inf
ROOT
ATOM      1  C   UNL     1      42.100  40.892  17.425  1.00  0.00     0.174 C 
ENDROOT
BRANCH   1   2
ATOM      2  C   UNL     1      41.963  41.298  18.918  1.00  0.00     0.142 C 
ATOM      3  C   UNL     1      41.674  40.116  19.848  1.00  0.00     0.041 C 
BRANCH   2   4
ATOM      4  O   UNL     1      40.981  42.286  19.092  1.00  0.00    -0.391 OA
ATOM      5  H   UNL     1      41.290  42.874  19.831  1.00  0.00     0.211 HD
ENDBRANCH   2   4
ENDBRANCH   1   2
BRANCH   1   6
ATOM      6  C   UNL     1      42.932  41.858  16.523  1.00  0.00     0.181 C 
BRANCH   6   7
ATOM      7  C   UNL     1      42.123  42.481  15.350  1.00  0.00     0.209 C 
BRANCH   7   8
ATOM      8  C   UNL     1      41.491  43.788  15.754  1.00  0.00     0.258 C 
ATOM      9  O   UNL     1      40.616  43.820  16.604  1.00  0.00    -0.300 OA
ENDBRANCH   7   8
BRANCH   7  10
ATOM     10  O   UNL     1      42.966  42.716  14.253  1.00  0.00    -0.383 OA
ATOM     11  H   UNL     1      43.528  41.904  14.143  1.00  0.00     0.211 HD
ENDBRANCH   7  10
ENDBRANCH   6   7
BRANCH   6  12
ATOM     12  O   UNL     1      43.480  42.876  17.328  1.00  0.00    -0.387 OA
ATOM     13  H   UNL     1      43.678  43.650  16.739  1.00  0.00     0.211 HD
ENDBRANCH   6  12
ENDBRANCH   1   6
BRANCH   1  14
ATOM     14  O   UNL     1      40.804  40.768  16.891  1.00  0.00    -0.388 OA
ATOM     15  H   UNL     1      40.661  41.534  16.276  1.00  0.00     0.211 HD
ENDBRANCH   1  14
TORSDOF 8
ENDMDL
MODEL 9
REMARK VINA RESULT:    -3.893      1.633      2.928
REMARK INTER + INTRA:          -6.157
REMARK INTER:                  -5.601
REMARK INTRA:                  -0.555
REMARK UNBOUND:                -0.898
REMARK SMILES C[C@H](O)[C@@H](O)[C@H](O)[C@H](O)C=O
REMARK SMILES IDX 4 1 2 2 1 3 3 4 6 6 8 7 10 8 11 9 9 10 7 12 5 14
REMARK H PARENT 3 5 9 11 7 13 5 15
REMARK Flexibility Score: inf
ROOT
ATOM      1  C   UNL     1      42.300  41.967  15.512  1.00  0.00     0.174 C 
ENDROOT
BRANCH   1   2
ATOM      2  C   UNL     1      41.756  40.529  15.289  1.00  0.00     0.142 C 
ATOM      3  C   UNL     1      42.776  39.583  14.648  1.00  0.00     0.041 C 
BRANCH   2   4
ATOM      4  O   UNL     1      40.577  40.538  14.528  1.00  0.00    -0.391 OA
ATOM      5  H   UNL     1      39.939  39.921  14.975  1.00  0.00     0.211 HD
ENDBRANCH   2   4
ENDBRANCH   1   2
BRANCH   1   6
ATOM      6  C   UNL     1      42.366  42.457  16.992  1.00  0.00     0.181 C 
BRANCH   6   7
ATOM      7  C   UNL     1      41.239  41.885  17.898  1.00  0.00     0.209 C 
BRANCH   7   8
ATOM      8  C   UNL     1      41.531  42.129  19.356  1.00  0.00     0.258 C 
ATOM      9  O   UNL     1      42.172  41.318  20.005  1.00  0.00    -0.300 OA
ENDBRANCH   7   8
BRANCH   7  10
ATOM     10  O   UNL     1      40.013  42.493  17.584  1.00  0.00    -0.383 OA
ATOM     11  H   UNL     1      40.212  43.435  17.341  1.00  0.00     0.211 HD
ENDBRANCH   7  10
ENDBRANCH   6   7
BRANCH   6  12
ATOM     12  O   UNL     1      43.628  42.129  17.525  1.00  0.00    -0.387 OA
ATOM     13  H   UNL     1      43.820  41.185  17.282  1.00  0.00     0.211 HD
ENDBRANCH   6  12
ENDBRANCH   1   6
BRANCH   1  14
ATOM     14  O   UNL     1      41.494  42.852  14.771  1.00  0.00    -0.388 OA
ATOM     15  H   UNL     1      42.082  43.578  14.435  1.00  0.00     0.211 HD
ENDBRANCH   1  14
TORSDOF 8
ENDMDL
