MODEL 1
REMARK VINA RESULT:    -5.165      0.000      0.000
REMARK INTER + INTRA:          -5.719
REMARK INTER:                  -5.618
REMARK INTRA:                  -0.101
REMARK UNBOUND:                -0.101
REMARK SMILES CC1=CC[C@@](O)(C(C)C)CC1
REMARK SMILES IDX 1 1 2 2 3 3 4 4 5 5 10 6 11 7 7 8 8 9 9 10 6 11
REMARK H PARENT 6 12
REMARK Flexibility Score: inf
ROOT
ATOM      1  C   UNL     1       3.848  47.982  47.266  1.00  0.00     0.039 C 
ATOM      2  C   UNL     1       3.039  46.982  48.046  1.00  0.00    -0.077 C 
ATOM      3  C   UNL     1       2.396  45.999  47.382  1.00  0.00    -0.025 C 
ATOM      4  C   UNL     1       1.609  44.920  48.082  1.00  0.00     0.062 C 
ATOM      5  C   UNL     1       1.063  45.384  49.454  1.00  0.00     0.071 C 
ATOM      6  C   UNL     1       2.261  45.970  50.253  1.00  0.00     0.040 C 
ATOM      7  C   UNL     1       2.867  47.187  49.538  1.00  0.00     0.033 C 
ENDROOT
BRANCH   5   8
ATOM      8  C   UNL     1       0.360  44.185  50.196  1.00  0.00     0.015 C 
ATOM      9  C   UNL     1      -1.023  43.844  49.609  1.00  0.00     0.010 C 
ATOM     10  C   UNL     1       0.221  44.378  51.721  1.00  0.00     0.010 C 
ENDBRANCH   5   8
BRANCH   5  11
ATOM     11  O   UNL     1       0.105  46.389  49.190  1.00  0.00    -0.389 OA
ATOM     12  H   UNL     1       0.333  47.196  49.723  1.00  0.00     0.211 HD
ENDBRANCH   5  11
TORSDOF 2
ENDMDL
MODEL 2
REMARK VINA RESULT:    -4.940      1.059      2.113
REMARK INTER + INTRA:          -5.474
REMARK INTER:                  -5.367
REMARK INTRA:                  -0.107
REMARK UNBOUND:                -0.101
REMARK SMILES CC1=CC[C@@](O)(C(C)C)CC1
REMARK SMILES IDX 1 1 2 2 3 3 4 4 5 5 10 6 11 7 7 8 8 9 9 10 6 11
REMARK H PARENT 6 12
REMARK Flexibility Score: inf
ROOT
ATOM      1  C   UNL     1       4.012  47.748  47.532  1.00  0.00     0.039 C 
ATOM      2  C   UNL     1       2.890  47.023  48.224  1.00  0.00    -0.077 C 
ATOM      3  C   UNL     1       2.550  47.387  49.478  1.00  0.00    -0.025 C 
ATOM      4  C   UNL     1       1.404  46.757  50.228  1.00  0.00     0.062 C 
ATOM      5  C   UNL     1       1.117  45.310  49.760  1.00  0.00     0.071 C 
ATOM      6  C   UNL     1       0.969  45.346  48.213  1.00  0.00     0.040 C 
ATOM      7  C   UNL     1       2.265  45.823  47.540  1.00  0.00     0.033 C 
ENDROOT
BRANCH   5   8
ATOM      8  C   UNL     1      -0.164  44.745  50.484  1.00  0.00     0.015 C 
ATOM      9  C   UNL     1       0.174  43.864  51.701  1.00  0.00     0.010 C 
ATOM     10  C   UNL     1      -1.125  43.970  49.558  1.00  0.00     0.010 C 
ENDBRANCH   5   8
BRANCH   5  11
ATOM     11  O   UNL     1       2.237  44.533  50.133  1.00  0.00    -0.389 OA
ATOM     12  H   UNL     1       2.053  43.581  49.915  1.00  0.00     0.211 HD
ENDBRANCH   5  11
TORSDOF 2
ENDMDL
MODEL 3
REMARK VINA RESULT:    -4.789      1.562      4.259
REMARK INTER + INTRA:          -5.310
REMARK INTER:                  -5.165
REMARK INTRA:                  -0.144
REMARK UNBOUND:                -0.101
REMARK SMILES CC1=CC[C@@](O)(C(C)C)CC1
REMARK SMILES IDX 1 1 2 2 3 3 4 4 5 5 10 6 11 7 7 8 8 9 9 10 6 11
REMARK H PARENT 6 12
REMARK Flexibility Score: inf
ROOT
ATOM      1  C   UNL     1       0.021  43.261  51.727  1.00  0.00     0.039 C 
ATOM      2  C   UNL     1       0.503  44.401  50.871  1.00  0.00    -0.077 C 
ATOM      3  C   UNL     1       1.424  44.158  49.915  1.00  0.00    -0.025 C 
ATOM      4  C   UNL     1       1.924  45.224  48.974  1.00  0.00     0.062 C 
ATOM      5  C   UNL     1       1.830  46.642  49.586  1.00  0.00     0.071 C 
ATOM      6  C   UNL     1       0.375  46.828  50.101  1.00  0.00     0.040 C 
ATOM      7  C   UNL     1       0.037  45.806  51.196  1.00  0.00     0.033 C 
ENDROOT
BRANCH   5   8
ATOM      8  C   UNL     1       2.245  47.727  48.520  1.00  0.00     0.015 C 
ATOM      9  C   UNL     1       1.087  48.121  47.583  1.00  0.00     0.010 C 
ATOM     10  C   UNL     1       3.469  47.338  47.664  1.00  0.00     0.010 C 
ENDBRANCH   5   8
BRANCH   5  11
ATOM     11  O   UNL     1       2.745  46.681  50.662  1.00  0.00    -0.389 OA
ATOM     12  H   UNL     1       3.583  47.117  50.353  1.00  0.00     0.211 HD
ENDBRANCH   5  11
TORSDOF 2
ENDMDL
MODEL 4
REMARK VINA RESULT:    -4.236     23.769     24.926
REMARK INTER + INTRA:          -4.708
REMARK INTER:                  -4.555
REMARK INTRA:                  -0.153
REMARK UNBOUND:                -0.101
REMARK SMILES CC1=CC[C@@](O)(C(C)C)CC1
REMARK SMILES IDX 1 1 2 2 3 3 4 4 5 5 10 6 11 7 7 8 8 9 9 10 6 11
REMARK H PARENT 6 12
REMARK Flexibility Score: inf
ROOT
ATOM      1  C   UNL     1      10.899  28.606  37.920  1.00  0.00     0.039 C 
ATOM      2  C   UNL     1      12.373  28.574  37.619  1.00  0.00    -0.077 C 
ATOM      3  C   UNL     1      13.239  29.054  38.536  1.00  0.00    -0.025 C 
ATOM      4  C   UNL     1      14.734  29.012  38.347  1.00  0.00     0.062 C 
ATOM      5  C   UNL     1      15.141  29.013  36.854  1.00  0.00     0.071 C 
ATOM      6  C   UNL     1      14.342  27.877  36.157  1.00  0.00     0.040 C 
ATOM      7  C   UNL     1      12.828  28.123  36.245  1.00  0.00     0.033 C 
ENDROOT
BRANCH   5   8
ATOM      8  C   UNL     1      16.701  28.841  36.712  1.00  0.00     0.015 C 
ATOM      9  C   UNL     1      17.103  28.020  35.472  1.00  0.00     0.010 C 
ATOM     10  C   UNL     1      17.388  28.238  37.955  1.00  0.00     0.010 C 
ENDBRANCH   5   8
BRANCH   5  11
ATOM     11  O   UNL     1      14.767  30.273  36.334  1.00  0.00    -0.389 OA
ATOM     12  H   UNL     1      13.777  30.354  36.373  1.00  0.00     0.211 HD
ENDBRANCH   5  11
TORSDOF 2
ENDMDL
MODEL 5
REMARK VINA RESULT:    -3.837     24.395     25.281
REMARK INTER + INTRA:          -4.275
REMARK INTER:                  -4.160
REMARK INTRA:                  -0.115
REMARK UNBOUND:                -0.101
REMARK SMILES CC1=CC[C@@](O)(C(C)C)CC1
REMARK SMILES IDX 1 1 2 2 3 3 4 4 5 5 10 6 11 7 7 8 8 9 9 10 6 11
REMARK H PARENT 6 12
REMARK Flexibility Score: inf
ROOT
ATOM      1  C   UNL     1      18.859  28.158  36.018  1.00  0.00     0.039 C 
ATOM      2  C   UNL     1      17.417  28.153  36.448  1.00  0.00    -0.077 C 
ATOM      3  C   UNL     1      16.458  27.954  35.520  1.00  0.00    -0.025 C 
ATOM      4  C   UNL     1      14.992  27.876  35.865  1.00  0.00     0.062 C 
ATOM      5  C   UNL     1      14.645  28.667  37.148  1.00  0.00     0.071 C 
ATOM      6  C   UNL     1      15.624  28.196  38.260  1.00  0.00     0.040 C 
ATOM      7  C   UNL     1      17.082  28.500  37.885  1.00  0.00     0.033 C 
ENDROOT
BRANCH   5   8
ATOM      8  C   UNL     1      13.132  28.450  37.532  1.00  0.00     0.015 C 
ATOM      9  C   UNL     1      12.295  27.875  36.373  1.00  0.00     0.010 C 
ATOM     10  C   UNL     1      12.430  29.711  38.077  1.00  0.00     0.010 C 
ENDBRANCH   5   8
BRANCH   5  11
ATOM     11  O   UNL     1      14.853  30.033  36.851  1.00  0.00    -0.389 OA
ATOM     12  H   UNL     1      15.231  30.107  35.934  1.00  0.00     0.211 HD
ENDBRANCH   5  11
TORSDOF 2
ENDMDL
MODEL 6
REMARK VINA RESULT:    -3.436     20.214     20.834
REMARK INTER + INTRA:          -3.839
REMARK INTER:                  -3.737
REMARK INTRA:                  -0.102
REMARK UNBOUND:                -0.101
REMARK SMILES CC1=CC[C@@](O)(C(C)C)CC1
REMARK SMILES IDX 1 1 2 2 3 3 4 4 5 5 10 6 11 7 7 8 8 9 9 10 6 11
REMARK H PARENT 6 12
REMARK Flexibility Score: inf
ROOT
ATOM      1  C   UNL     1      14.589  28.197  52.109  1.00  0.00     0.039 C 
ATOM      2  C   UNL     1      15.179  29.580  52.071  1.00  0.00    -0.077 C 
ATOM      3  C   UNL     1      14.353  30.646  52.101  1.00  0.00    -0.025 C 
ATOM      4  C   UNL     1      14.855  32.067  52.125  1.00  0.00     0.062 C 
ATOM      5  C   UNL     1      16.247  32.212  51.465  1.00  0.00     0.071 C 
ATOM      6  C   UNL     1      17.181  31.158  52.122  1.00  0.00     0.040 C 
ATOM      7  C   UNL     1      16.675  29.730  51.870  1.00  0.00     0.033 C 
ENDROOT
BRANCH   5   8
ATOM      8  C   UNL     1      16.778  33.687  51.628  1.00  0.00     0.015 C 
ATOM      9  C   UNL     1      16.148  34.667  50.620  1.00  0.00     0.010 C 
ATOM     10  C   UNL     1      18.314  33.818  51.557  1.00  0.00     0.010 C 
ENDBRANCH   5   8
BRANCH   5  11
ATOM     11  O   UNL     1      16.074  31.934  50.090  1.00  0.00    -0.389 OA
ATOM     12  H   UNL     1      16.946  32.056  49.628  1.00  0.00     0.211 HD
ENDBRANCH   5  11
TORSDOF 2
ENDMDL
MODEL 7
REMARK VINA RESULT:    -3.385      2.127      3.760
REMARK INTER + INTRA:          -3.783
REMARK INTER:                  -3.632
REMARK INTRA:                  -0.151
REMARK UNBOUND:                -0.101
REMARK SMILES CC1=CC[C@@](O)(C(C)C)CC1
REMARK SMILES IDX 1 1 2 2 3 3 4 4 5 5 10 6 11 7 7 8 8 9 9 10 6 11
REMARK H PARENT 6 12
REMARK Flexibility Score: inf
ROOT
ATOM      1  C   UNL     1       2.644  42.647  50.254  1.00  0.00     0.039 C 
ATOM      2  C   UNL     1       1.858  43.854  49.823  1.00  0.00    -0.077 C 
ATOM      3  C   UNL     1       1.396  44.706  50.763  1.00  0.00    -0.025 C 
ATOM      4  C   UNL     1       0.649  45.970  50.422  1.00  0.00     0.062 C 
ATOM      5  C   UNL     1      -0.092  45.871  49.067  1.00  0.00     0.071 C 
ATOM      6  C   UNL     1       0.943  45.396  48.009  1.00  0.00     0.040 C 
ATOM      7  C   UNL     1       1.499  44.007  48.357  1.00  0.00     0.033 C 
ENDROOT
BRANCH   5   8
ATOM      8  C   UNL     1      -0.749  47.256  48.701  1.00  0.00     0.015 C 
ATOM      9  C   UNL     1       0.112  48.093  47.735  1.00  0.00     0.010 C 
ATOM     10  C   UNL     1      -1.118  48.125  49.921  1.00  0.00     0.010 C 
ENDBRANCH   5   8
BRANCH   5  11
ATOM     11  O   UNL     1      -1.111  44.906  49.232  1.00  0.00    -0.389 OA
ATOM     12  H   UNL     1      -1.746  45.228  49.925  1.00  0.00     0.211 HD
ENDBRANCH   5  11
TORSDOF 2
ENDMDL
MODEL 8
REMARK VINA RESULT:    -3.342      2.214      3.565
REMARK INTER + INTRA:          -3.736
REMARK INTER:                  -3.580
REMARK INTRA:                  -0.157
REMARK UNBOUND:                -0.101
REMARK SMILES CC1=CC[C@@](O)(C(C)C)CC1
REMARK SMILES IDX 1 1 2 2 3 3 4 4 5 5 10 6 11 7 7 8 8 9 9 10 6 11
REMARK H PARENT 6 12
REMARK Flexibility Score: inf
ROOT
ATOM      1  C   UNL     1       2.592  42.694  50.231  1.00  0.00     0.039 C 
ATOM      2  C   UNL     1       1.809  43.915  49.830  1.00  0.00    -0.077 C 
ATOM      3  C   UNL     1       1.340  44.007  48.568  1.00  0.00    -0.025 C 
ATOM      4  C   UNL     1       0.499  45.165  48.093  1.00  0.00     0.062 C 
ATOM      5  C   UNL     1       0.774  46.461  48.891  1.00  0.00     0.071 C 
ATOM      6  C   UNL     1       0.646  46.111  50.400  1.00  0.00     0.040 C 
ATOM      7  C   UNL     1       1.682  45.058  50.818  1.00  0.00     0.033 C 
ENDROOT
BRANCH   5   8
ATOM      8  C   UNL     1      -0.216  47.602  48.440  1.00  0.00     0.015 C 
ATOM      9  C   UNL     1      -1.096  48.122  49.593  1.00  0.00     0.010 C 
ATOM     10  C   UNL     1      -1.125  47.219  47.253  1.00  0.00     0.010 C 
ENDBRANCH   5   8
BRANCH   5  11
ATOM     11  O   UNL     1       2.097  46.853  48.583  1.00  0.00    -0.389 OA
ATOM     12  H   UNL     1       2.592  47.002  49.432  1.00  0.00     0.211 HD
ENDBRANCH   5  11
TORSDOF 2
ENDMDL
