MODEL 1
REMARK VINA RESULT:    -0.710      0.000      0.000
REMARK INTER + INTRA:          -2.411
REMARK INTER:                  -1.250
REMARK INTRA:                  -1.161
REMARK UNBOUND:                -1.161
REMARK SMILES CCCCCCCCCCCCCCC(=O)[O-]
REMARK SMILES IDX 9 1 10 2 11 3 12 4 13 5 14 6 15 7 16 8 17 9 8 10 7 11 6 12
REMARK SMILES IDX 5 13 4 14 3 15 2 16 1 17
REMARK H PARENT
REMARK Flexibility Score: inf
ROOT
ATOM      1  C   UNL     1       7.945  20.592  12.849  1.00  0.00     0.000 C 
ENDROOT
BRANCH   1   2
ATOM      2  C   UNL     1       9.243  20.167  13.557  1.00  0.00     0.000 C 
BRANCH   2   3
ATOM      3  C   UNL     1      10.458  20.152  12.619  1.00  0.00     0.000 C 
BRANCH   3   4
ATOM      4  C   UNL     1      10.086  20.691  11.230  1.00  0.00     0.000 C 
BRANCH   4   5
ATOM      5  C   UNL     1      11.119  21.691  10.686  1.00  0.00     0.006 C 
BRANCH   5   6
ATOM      6  C   UNL     1      10.606  22.464   9.465  1.00  0.00     0.053 C 
BRANCH   6   7
ATOM      7  C   UNL     1      10.876  23.927   9.622  1.00  0.00     0.041 C 
ATOM      8  O   UNL     1      11.063  24.649   8.608  1.00  0.00    -0.550 OA
ATOM      9  O   UNL     1      10.870  24.502  10.886  1.00  0.00    -0.550 OA
ENDBRANCH   6   7
ENDBRANCH   5   6
ENDBRANCH   4   5
ENDBRANCH   3   4
ENDBRANCH   2   3
ENDBRANCH   1   2
BRANCH   1  10
ATOM     10  C   UNL     1       6.651  20.322  13.643  1.00  0.00     0.000 C 
BRANCH  10  11
ATOM     11  C   UNL     1       6.860  19.879  15.105  1.00  0.00    -0.000 C 
BRANCH  11  12
ATOM     12  C   UNL     1       6.022  20.652  16.140  1.00  0.00    -0.000 C 
BRANCH  12  13
ATOM     13  C   UNL     1       6.776  21.852  16.738  1.00  0.00    -0.000 C 
BRANCH  13  14
ATOM     14  C   UNL     1       8.298  21.637  16.770  1.00  0.00    -0.000 C 
BRANCH  14  15
ATOM     15  C   UNL     1       9.018  22.651  17.673  1.00  0.00    -0.000 C 
BRANCH  15  16
ATOM     16  C   UNL     1      10.494  22.780  17.283  1.00  0.00    -0.003 C 
ATOM     17  C   UNL     1      10.687  22.587  15.780  1.00  0.00     0.004 C 
ENDBRANCH  15  16
ENDBRANCH  14  15
ENDBRANCH  13  14
ENDBRANCH  12  13
ENDBRANCH  11  12
ENDBRANCH  10  11
ENDBRANCH   1  10
TORSDOF 13
ENDMDL
MODEL 2
REMARK VINA RESULT:    -0.521     12.729     15.849
REMARK INTER + INTRA:          -2.078
REMARK INTER:                  -2.120
REMARK INTRA:                   0.043
REMARK UNBOUND:                -1.161
REMARK SMILES CCCCCCCCCCCCCCC(=O)[O-]
REMARK SMILES IDX 9 1 10 2 11 3 12 4 13 5 14 6 15 7 16 8 17 9 8 10 7 11 6 12
REMARK SMILES IDX 5 13 4 14 3 15 2 16 1 17
REMARK H PARENT
REMARK Flexibility Score: inf
ROOT
ATOM      1  C   UNL     1      -4.873  21.552  14.772  1.00  0.00     0.000 C 
ENDROOT
BRANCH   1   2
ATOM      2  C   UNL     1      -6.333  21.786  15.196  1.00  0.00     0.000 C 
BRANCH   2   3
ATOM      3  C   UNL     1      -7.156  20.490  15.247  1.00  0.00     0.000 C 
BRANCH   3   4
ATOM      4  C   UNL     1      -8.323  20.621  16.236  1.00  0.00     0.000 C 
BRANCH   4   5
ATOM      5  C   UNL     1      -7.905  20.338  17.688  1.00  0.00     0.006 C 
BRANCH   5   6
ATOM      6  C   UNL     1      -8.980  20.746  18.703  1.00  0.00     0.053 C 
BRANCH   6   7
ATOM      7  C   UNL     1      -8.365  21.490  19.845  1.00  0.00     0.041 C 
ATOM      8  O   UNL     1      -7.223  22.006  19.724  1.00  0.00    -0.550 OA
ATOM      9  O   UNL     1      -9.074  21.659  21.027  1.00  0.00    -0.550 OA
ENDBRANCH   6   7
ENDBRANCH   5   6
ENDBRANCH   4   5
ENDBRANCH   3   4
ENDBRANCH   2   3
ENDBRANCH   1   2
BRANCH   1  10
ATOM     10  C   UNL     1      -4.322  20.146  15.084  1.00  0.00     0.000 C 
BRANCH  10  11
ATOM     11  C   UNL     1      -3.020  20.120  15.909  1.00  0.00    -0.000 C 
BRANCH  11  12
ATOM     12  C   UNL     1      -2.034  21.260  15.596  1.00  0.00    -0.000 C 
BRANCH  12  13
ATOM     13  C   UNL     1      -0.591  20.930  16.017  1.00  0.00    -0.000 C 
BRANCH  13  14
ATOM     14  C   UNL     1      -0.530  19.989  17.230  1.00  0.00    -0.000 C 
BRANCH  14  15
ATOM     15  C   UNL     1      -1.616  20.299  18.272  1.00  0.00    -0.000 C 
BRANCH  15  16
ATOM     16  C   UNL     1      -1.005  20.932  19.527  1.00  0.00    -0.003 C 
ATOM     17  C   UNL     1      -0.359  19.876  20.420  1.00  0.00     0.004 C 
ENDBRANCH  15  16
ENDBRANCH  14  15
ENDBRANCH  13  14
ENDBRANCH  12  13
ENDBRANCH  11  12
ENDBRANCH  10  11
ENDBRANCH   1  10
TORSDOF 13
ENDMDL
MODEL 3
REMARK VINA RESULT:    -0.064      6.090      9.012
REMARK INTER + INTRA:          -1.273
REMARK INTER:                  -0.973
REMARK INTRA:                  -0.301
REMARK UNBOUND:                -1.161
REMARK SMILES CCCCCCCCCCCCCCC(=O)[O-]
REMARK SMILES IDX 9 1 10 2 11 3 12 4 13 5 14 6 15 7 16 8 17 9 8 10 7 11 6 12
REMARK SMILES IDX 5 13 4 14 3 15 2 16 1 17
REMARK H PARENT
REMARK Flexibility Score: inf
ROOT
ATOM      1  C   UNL     1       5.541  20.936  15.841  1.00  0.00     0.000 C 
ENDROOT
BRANCH   1   2
ATOM      2  C   UNL     1       4.423  19.939  15.490  1.00  0.00     0.000 C 
BRANCH   2   3
ATOM      3  C   UNL     1       3.197  20.069  16.407  1.00  0.00     0.000 C 
BRANCH   3   4
ATOM      4  C   UNL     1       1.897  19.875  15.614  1.00  0.00     0.000 C 
BRANCH   4   5
ATOM      5  C   UNL     1       0.649  19.882  16.513  1.00  0.00     0.006 C 
BRANCH   5   6
ATOM      6  C   UNL     1      -0.461  20.794  15.975  1.00  0.00     0.053 C 
BRANCH   6   7
ATOM      7  C   UNL     1      -1.662  20.735  16.865  1.00  0.00     0.041 C 
ATOM      8  O   UNL     1      -2.792  20.452  16.388  1.00  0.00    -0.550 OA
ATOM      9  O   UNL     1      -1.525  20.944  18.232  1.00  0.00    -0.550 OA
ENDBRANCH   6   7
ENDBRANCH   5   6
ENDBRANCH   4   5
ENDBRANCH   3   4
ENDBRANCH   2   3
ENDBRANCH   1   2
BRANCH   1  10
ATOM     10  C   UNL     1       6.949  20.319  15.956  1.00  0.00     0.000 C 
BRANCH  10  11
ATOM     11  C   UNL     1       7.639  20.004  14.613  1.00  0.00    -0.000 C 
BRANCH  11  12
ATOM     12  C   UNL     1       9.102  20.475  14.513  1.00  0.00    -0.000 C 
BRANCH  12  13
ATOM     13  C   UNL     1       9.418  21.147  13.165  1.00  0.00    -0.000 C 
BRANCH  13  14
ATOM     14  C   UNL     1      10.754  21.907  13.184  1.00  0.00    -0.000 C 
BRANCH  14  15
ATOM     15  C   UNL     1      11.106  22.514  11.817  1.00  0.00    -0.000 C 
BRANCH  15  16
ATOM     16  C   UNL     1      10.946  24.039  11.838  1.00  0.00    -0.003 C 
ATOM     17  C   UNL     1      10.631  24.579  10.445  1.00  0.00     0.004 C 
ENDBRANCH  15  16
ENDBRANCH  14  15
ENDBRANCH  13  14
ENDBRANCH  12  13
ENDBRANCH  11  12
ENDBRANCH  10  11
ENDBRANCH   1  10
TORSDOF 13
ENDMDL
MODEL 4
REMARK VINA RESULT:     0.077      5.952      9.178
REMARK INTER + INTRA:          -1.025
REMARK INTER:                  -0.572
REMARK INTRA:                  -0.452
REMARK UNBOUND:                -1.161
REMARK SMILES CCCCCCCCCCCCCCC(=O)[O-]
REMARK SMILES IDX 9 1 10 2 11 3 12 4 13 5 14 6 15 7 16 8 17 9 8 10 7 11 6 12
REMARK SMILES IDX 5 13 4 14 3 15 2 16 1 17
REMARK H PARENT
REMARK Flexibility Score: inf
ROOT
ATOM      1  C   UNL     1       5.803  21.229  16.029  1.00  0.00     0.000 C 
ENDROOT
BRANCH   1   2
ATOM      2  C   UNL     1       4.683  20.545  15.226  1.00  0.00     0.000 C 
BRANCH   2   3
ATOM      3  C   UNL     1       3.591  19.939  16.121  1.00  0.00     0.000 C 
BRANCH   3   4
ATOM      4  C   UNL     1       2.213  20.044  15.452  1.00  0.00     0.000 C 
BRANCH   4   5
ATOM      5  C   UNL     1       1.057  19.968  16.462  1.00  0.00     0.006 C 
BRANCH   5   6
ATOM      6  C   UNL     1      -0.119  20.878  16.083  1.00  0.00     0.053 C 
BRANCH   6   7
ATOM      7  C   UNL     1      -1.367  20.434  16.778  1.00  0.00     0.041 C 
ATOM      8  O   UNL     1      -1.372  20.266  18.026  1.00  0.00    -0.550 OA
ATOM      9  O   UNL     1      -2.539  20.255  16.056  1.00  0.00    -0.550 OA
ENDBRANCH   6   7
ENDBRANCH   5   6
ENDBRANCH   4   5
ENDBRANCH   3   4
ENDBRANCH   2   3
ENDBRANCH   1   2
BRANCH   1  10
ATOM     10  C   UNL     1       7.135  20.455  16.076  1.00  0.00     0.000 C 
BRANCH  10  11
ATOM     11  C   UNL     1       7.627  19.912  14.719  1.00  0.00    -0.000 C 
BRANCH  11  12
ATOM     12  C   UNL     1       8.631  20.821  13.986  1.00  0.00    -0.000 C 
BRANCH  12  13
ATOM     13  C   UNL     1       9.036  20.269  12.608  1.00  0.00    -0.000 C 
BRANCH  13  14
ATOM     14  C   UNL     1       9.987  21.209  11.851  1.00  0.00    -0.000 C 
BRANCH  14  15
ATOM     15  C   UNL     1      10.452  20.623  10.510  1.00  0.00    -0.000 C 
BRANCH  15  16
ATOM     16  C   UNL     1       9.310  19.875   9.813  1.00  0.00    -0.003 C 
ATOM     17  C   UNL     1       8.971  20.515   8.469  1.00  0.00     0.004 C 
ENDBRANCH  15  16
ENDBRANCH  14  15
ENDBRANCH  13  14
ENDBRANCH  12  13
ENDBRANCH  11  12
ENDBRANCH  10  11
ENDBRANCH   1  10
TORSDOF 13
ENDMDL
MODEL 5
REMARK VINA RESULT:     0.116      6.689      9.595
REMARK INTER + INTRA:          -0.957
REMARK INTER:                  -0.633
REMARK INTRA:                  -0.324
REMARK UNBOUND:                -1.161
REMARK SMILES CCCCCCCCCCCCCCC(=O)[O-]
REMARK SMILES IDX 9 1 10 2 11 3 12 4 13 5 14 6 15 7 16 8 17 9 8 10 7 11 6 12
REMARK SMILES IDX 5 13 4 14 3 15 2 16 1 17
REMARK H PARENT
REMARK Flexibility Score: inf
ROOT
ATOM      1  C   UNL     1       4.584  20.722  15.540  1.00  0.00     0.000 C 
ENDROOT
BRANCH   1   2
ATOM      2  C   UNL     1       3.329  19.950  15.985  1.00  0.00     0.000 C 
BRANCH   2   3
ATOM      3  C   UNL     1       2.030  20.737  15.753  1.00  0.00     0.000 C 
BRANCH   3   4
ATOM      4  C   UNL     1       0.804  19.896  16.135  1.00  0.00     0.000 C 
BRANCH   4   5
ATOM      5  C   UNL     1      -0.448  20.753  16.385  1.00  0.00     0.006 C 
BRANCH   5   6
ATOM      6  C   UNL     1      -1.708  19.907  16.604  1.00  0.00     0.053 C 
BRANCH   6   7
ATOM      7  C   UNL     1      -2.171  20.018  18.022  1.00  0.00     0.041 C 
ATOM      8  O   UNL     1      -1.350  20.286  18.938  1.00  0.00    -0.550 OA
ATOM      9  O   UNL     1      -3.519  19.875  18.326  1.00  0.00    -0.550 OA
ENDBRANCH   6   7
ENDBRANCH   5   6
ENDBRANCH   4   5
ENDBRANCH   3   4
ENDBRANCH   2   3
ENDBRANCH   1   2
BRANCH   1  10
ATOM     10  C   UNL     1       5.566  19.917  14.665  1.00  0.00     0.000 C 
BRANCH  10  11
ATOM     11  C   UNL     1       7.024  19.893  15.168  1.00  0.00    -0.000 C 
BRANCH  11  12
ATOM     12  C   UNL     1       7.975  20.859  14.438  1.00  0.00    -0.000 C 
BRANCH  12  13
ATOM     13  C   UNL     1       9.408  20.310  14.326  1.00  0.00    -0.000 C 
BRANCH  13  14
ATOM     14  C   UNL     1      10.127  20.792  13.057  1.00  0.00    -0.000 C 
BRANCH  14  15
ATOM     15  C   UNL     1      10.176  22.324  12.952  1.00  0.00    -0.000 C 
BRANCH  15  16
ATOM     16  C   UNL     1      10.880  22.763  11.663  1.00  0.00    -0.003 C 
ATOM     17  C   UNL     1      11.123  24.270  11.653  1.00  0.00     0.004 C 
ENDBRANCH  15  16
ENDBRANCH  14  15
ENDBRANCH  13  14
ENDBRANCH  12  13
ENDBRANCH  11  12
ENDBRANCH  10  11
ENDBRANCH   1  10
TORSDOF 13
ENDMDL
MODEL 6
REMARK VINA RESULT:     0.201      8.521     11.328
REMARK INTER + INTRA:          -0.807
REMARK INTER:                  -0.327
REMARK INTRA:                  -0.480
REMARK UNBOUND:                -1.161
REMARK SMILES CCCCCCCCCCCCCCC(=O)[O-]
REMARK SMILES IDX 9 1 10 2 11 3 12 4 13 5 14 6 15 7 16 8 17 9 8 10 7 11 6 12
REMARK SMILES IDX 5 13 4 14 3 15 2 16 1 17
REMARK H PARENT
REMARK Flexibility Score: inf
ROOT
ATOM      1  C   UNL     1      -0.467  21.015  16.096  1.00  0.00     0.000 C 
ENDROOT
BRANCH   1   2
ATOM      2  C   UNL     1       0.647  19.954  16.101  1.00  0.00     0.000 C 
BRANCH   2   3
ATOM      3  C   UNL     1       1.876  20.374  15.280  1.00  0.00     0.000 C 
BRANCH   3   4
ATOM      4  C   UNL     1       3.151  20.316  16.133  1.00  0.00     0.000 C 
BRANCH   4   5
ATOM      5  C   UNL     1       4.384  19.875  15.327  1.00  0.00     0.006 C 
BRANCH   5   6
ATOM      6  C   UNL     1       5.367  21.025  15.076  1.00  0.00     0.053 C 
BRANCH   6   7
ATOM      7  C   UNL     1       6.777  20.548  15.227  1.00  0.00     0.041 C 
ATOM      8  O   UNL     1       7.593  20.671  14.276  1.00  0.00    -0.550 OA
ATOM      9  O   UNL     1       7.204  20.013  16.436  1.00  0.00    -0.550 OA
ENDBRANCH   6   7
ENDBRANCH   5   6
ENDBRANCH   4   5
ENDBRANCH   3   4
ENDBRANCH   2   3
ENDBRANCH   1   2
BRANCH   1  10
ATOM     10  C   UNL     1      -1.400  20.984  17.323  1.00  0.00     0.000 C 
BRANCH  10  11
ATOM     11  C   UNL     1      -2.559  19.970  17.240  1.00  0.00    -0.000 C 
BRANCH  11  12
ATOM     12  C   UNL     1      -3.263  19.903  15.873  1.00  0.00    -0.000 C 
BRANCH  12  13
ATOM     13  C   UNL     1      -4.732  20.357  15.938  1.00  0.00    -0.000 C 
BRANCH  13  14
ATOM     14  C   UNL     1      -5.362  20.522  14.546  1.00  0.00    -0.000 C 
BRANCH  14  15
ATOM     15  C   UNL     1      -6.609  21.418  14.566  1.00  0.00    -0.000 C 
BRANCH  15  16
ATOM     16  C   UNL     1      -7.488  21.107  15.782  1.00  0.00    -0.003 C 
ATOM     17  C   UNL     1      -8.674  20.226  15.395  1.00  0.00     0.004 C 
ENDBRANCH  15  16
ENDBRANCH  14  15
ENDBRANCH  13  14
ENDBRANCH  12  13
ENDBRANCH  11  12
ENDBRANCH  10  11
ENDBRANCH   1  10
TORSDOF 13
ENDMDL
MODEL 7
REMARK VINA RESULT:     0.333      8.982     11.742
REMARK INTER + INTRA:          -0.575
REMARK INTER:                  -0.233
REMARK INTRA:                  -0.342
REMARK UNBOUND:                -1.161
REMARK SMILES CCCCCCCCCCCCCCC(=O)[O-]
REMARK SMILES IDX 9 1 10 2 11 3 12 4 13 5 14 6 15 7 16 8 17 9 8 10 7 11 6 12
REMARK SMILES IDX 5 13 4 14 3 15 2 16 1 17
REMARK H PARENT
REMARK Flexibility Score: inf
ROOT
ATOM      1  C   UNL     1       0.564  20.734  15.808  1.00  0.00     0.000 C 
ENDROOT
BRANCH   1   2
ATOM      2  C   UNL     1      -0.604  20.217  16.666  1.00  0.00     0.000 C 
BRANCH   2   3
ATOM      3  C   UNL     1      -1.964  20.774  16.221  1.00  0.00     0.000 C 
BRANCH   3   4
ATOM      4  C   UNL     1      -3.113  19.901  16.747  1.00  0.00     0.000 C 
BRANCH   4   5
ATOM      5  C   UNL     1      -4.343  19.922  15.826  1.00  0.00     0.006 C 
BRANCH   5   6
ATOM      6  C   UNL     1      -5.634  20.284  16.572  1.00  0.00     0.053 C 
BRANCH   6   7
ATOM      7  C   UNL     1      -6.678  20.754  15.610  1.00  0.00     0.041 C 
ATOM      8  O   UNL     1      -7.896  20.718  15.929  1.00  0.00    -0.550 OA
ATOM      9  O   UNL     1      -6.305  21.279  14.380  1.00  0.00    -0.550 OA
ENDBRANCH   6   7
ENDBRANCH   5   6
ENDBRANCH   4   5
ENDBRANCH   3   4
ENDBRANCH   2   3
ENDBRANCH   1   2
BRANCH   1  10
ATOM     10  C   UNL     1       1.909  20.016  16.039  1.00  0.00     0.000 C 
BRANCH  10  11
ATOM     11  C   UNL     1       3.158  20.800  15.589  1.00  0.00    -0.000 C 
BRANCH  11  12
ATOM     12  C   UNL     1       4.449  19.966  15.506  1.00  0.00    -0.000 C 
BRANCH  12  13
ATOM     13  C   UNL     1       5.703  20.774  15.881  1.00  0.00    -0.000 C 
BRANCH  13  14
ATOM     14  C   UNL     1       6.932  19.882  16.120  1.00  0.00    -0.000 C 
BRANCH  14  15
ATOM     15  C   UNL     1       8.095  20.214  15.173  1.00  0.00    -0.000 C 
BRANCH  15  16
ATOM     16  C   UNL     1       7.705  19.957  13.713  1.00  0.00    -0.003 C 
ATOM     17  C   UNL     1       8.708  20.592  12.754  1.00  0.00     0.004 C 
ENDBRANCH  15  16
ENDBRANCH  14  15
ENDBRANCH  13  14
ENDBRANCH  12  13
ENDBRANCH  11  12
ENDBRANCH  10  11
ENDBRANCH   1  10
TORSDOF 13
ENDMDL
MODEL 8
REMARK VINA RESULT:     1.263     12.999     16.054
REMARK INTER + INTRA:           1.061
REMARK INTER:                   1.746
REMARK INTRA:                  -0.685
REMARK UNBOUND:                -1.161
REMARK SMILES CCCCCCCCCCCCCCC(=O)[O-]
REMARK SMILES IDX 9 1 10 2 11 3 12 4 13 5 14 6 15 7 16 8 17 9 8 10 7 11 6 12
REMARK SMILES IDX 5 13 4 14 3 15 2 16 1 17
REMARK H PARENT
REMARK Flexibility Score: inf
ROOT
ATOM      1  C   UNL     1      -5.157  21.221  14.947  1.00  0.00     0.000 C 
ENDROOT
BRANCH   1   2
ATOM      2  C   UNL     1      -6.599  21.251  14.411  1.00  0.00     0.000 C 
BRANCH   2   3
ATOM      3  C   UNL     1      -7.527  20.267  15.139  1.00  0.00     0.000 C 
BRANCH   3   4
ATOM      4  C   UNL     1      -8.695  21.007  15.807  1.00  0.00     0.000 C 
BRANCH   4   5
ATOM      5  C   UNL     1      -8.269  21.760  17.078  1.00  0.00     0.006 C 
BRANCH   5   6
ATOM      6  C   UNL     1      -8.899  21.176  18.349  1.00  0.00     0.053 C 
BRANCH   6   7
ATOM      7  C   UNL     1      -8.248  21.752  19.567  1.00  0.00     0.041 C 
ATOM      8  O   UNL     1      -8.941  22.341  20.437  1.00  0.00    -0.550 OA
ATOM      9  O   UNL     1      -6.882  21.594  19.764  1.00  0.00    -0.550 OA
ENDBRANCH   6   7
ENDBRANCH   5   6
ENDBRANCH   4   5
ENDBRANCH   3   4
ENDBRANCH   2   3
ENDBRANCH   1   2
BRANCH   1  10
ATOM     10  C   UNL     1      -4.806  19.987  15.802  1.00  0.00     0.000 C 
BRANCH  10  11
ATOM     11  C   UNL     1      -5.225  20.074  17.283  1.00  0.00    -0.000 C 
BRANCH  11  12
ATOM     12  C   UNL     1      -4.079  19.875  18.292  1.00  0.00    -0.000 C 
BRANCH  12  13
ATOM     13  C   UNL     1      -2.690  19.939  17.633  1.00  0.00    -0.000 C 
BRANCH  13  14
ATOM     14  C   UNL     1      -1.654  20.664  18.507  1.00  0.00    -0.000 C 
BRANCH  14  15
ATOM     15  C   UNL     1      -0.636  21.461  17.678  1.00  0.00    -0.000 C 
BRANCH  15  16
ATOM     16  C   UNL     1      -0.464  20.847  16.284  1.00  0.00    -0.003 C 
ATOM     17  C   UNL     1      -1.228  21.646  15.231  1.00  0.00     0.004 C 
ENDBRANCH  15  16
ENDBRANCH  14  15
ENDBRANCH  13  14
ENDBRANCH  12  13
ENDBRANCH  11  12
ENDBRANCH  10  11
ENDBRANCH   1  10
TORSDOF 13
ENDMDL
