MODEL 1
REMARK VINA RESULT:    -5.344      0.000      0.000
REMARK INTER + INTRA:         -10.557
REMARK INTER:                  -8.312
REMARK INTRA:                  -2.245
REMARK UNBOUND:                -2.245
REMARK SMILES COc1cc(CNC(=O)CCCCC=CC(C)C)ccc1O
REMARK SMILES IDX 11 1 12 2 13 3 14 4 15 5 16 6 17 7 18 8 10 9 8 10 9 11 7 12
REMARK SMILES IDX 6 14 5 15 4 16 19 17 3 18 20 19 21 20 2 21 1 22 22 23
REMARK H PARENT 7 13 22 24
REMARK Flexibility Score: inf
ROOT
ATOM      1  C   UNL     1       3.198  35.591  -1.180  1.00  0.00     0.010 C 
ENDROOT
BRANCH   1   2
ATOM      2  C   UNL     1       3.068  35.393   0.341  1.00  0.00     0.005 C 
BRANCH   2   3
ATOM      3  C   UNL     1       4.279  35.940   1.114  1.00  0.00     0.027 C 
BRANCH   3   4
ATOM      4  C   UNL     1       4.154  37.428   1.321  1.00  0.00    -0.031 C 
ATOM      5  C   UNL     1       4.985  38.347   0.794  1.00  0.00    -0.028 C 
BRANCH   5   6
ATOM      6  C   UNL     1       6.222  38.025  -0.020  1.00  0.00     0.005 C 
ATOM      7  C   UNL     1       6.089  38.616  -1.427  1.00  0.00     0.012 C 
ATOM      8  C   UNL     1       7.465  38.580   0.681  1.00  0.00     0.012 C 
ENDBRANCH   5   6
ENDBRANCH   3   4
ENDBRANCH   2   3
ENDBRANCH   1   2
BRANCH   1   9
ATOM      9  C   UNL     1       3.397  34.287  -1.968  1.00  0.00     0.100 C 
BRANCH   9  10
ATOM     10  C   UNL     1       4.833  34.079  -2.351  1.00  0.00     0.220 C 
ATOM     11  O   UNL     1       5.183  32.981  -2.864  1.00  0.00    -0.275 OA
ATOM     12  N   UNL     1       5.805  35.104  -2.098  1.00  0.00    -0.352 N 
ATOM     13  H   UNL     1       5.500  35.994  -1.643  1.00  0.00     0.163 HD
BRANCH  12  14
ATOM     14  C   UNL     1       7.221  34.938  -2.416  1.00  0.00     0.151 C 
BRANCH  14  15
ATOM     15  C   UNL     1       8.060  35.138  -1.183  1.00  0.00    -0.025 A 
ATOM     16  C   UNL     1       9.330  35.727  -1.289  1.00  0.00     0.056 A 
ATOM     17  C   UNL     1       7.599  34.712   0.070  1.00  0.00     0.009 A 
ATOM     18  C   UNL     1      10.136  35.904  -0.146  1.00  0.00     0.160 A 
ATOM     19  C   UNL     1       8.392  34.885   1.207  1.00  0.00     0.050 A 
ATOM     20  C   UNL     1       9.655  35.477   1.106  1.00  0.00     0.157 A 
BRANCH  18  21
ATOM     21  O   UNL     1      11.407  36.494  -0.217  1.00  0.00    -0.493 OA
ATOM     22  C   UNL     1      11.649  37.897  -0.194  1.00  0.00     0.278 C 
ENDBRANCH  18  21
BRANCH  20  23
ATOM     23  O   UNL     1      10.418  35.633   2.263  1.00  0.00    -0.504 OA
ATOM     24  H   UNL     1      10.730  34.843   2.814  1.00  0.00     0.293 HD
ENDBRANCH  20  23
ENDBRANCH  14  15
ENDBRANCH  12  14
ENDBRANCH   9  10
ENDBRANCH   1   9
TORSDOF 10
ENDMDL
MODEL 2
REMARK VINA RESULT:    -5.237      1.476      2.333
REMARK INTER + INTRA:         -10.390
REMARK INTER:                  -8.079
REMARK INTRA:                  -2.311
REMARK UNBOUND:                -2.245
REMARK SMILES COc1cc(CNC(=O)CCCCC=CC(C)C)ccc1O
REMARK SMILES IDX 11 1 12 2 13 3 14 4 15 5 16 6 17 7 18 8 10 9 8 10 9 11 7 12
REMARK SMILES IDX 6 14 5 15 4 16 19 17 3 18 20 19 21 20 2 21 1 22 22 23
REMARK H PARENT 7 13 22 24
REMARK Flexibility Score: inf
ROOT
ATOM      1  C   UNL     1       4.973  38.314  -2.220  1.00  0.00     0.010 C 
ENDROOT
BRANCH   1   2
ATOM      2  C   UNL     1       4.670  39.349  -1.122  1.00  0.00     0.005 C 
BRANCH   2   3
ATOM      3  C   UNL     1       5.930  40.084  -0.638  1.00  0.00     0.027 C 
BRANCH   3   4
ATOM      4  C   UNL     1       7.135  39.182  -0.709  1.00  0.00    -0.031 C 
ATOM      5  C   UNL     1       7.628  38.479   0.328  1.00  0.00    -0.028 C 
BRANCH   5   6
ATOM      6  C   UNL     1       7.098  38.547   1.746  1.00  0.00     0.005 C 
ATOM      7  C   UNL     1       6.078  37.428   1.976  1.00  0.00     0.012 C 
ATOM      8  C   UNL     1       8.257  38.431   2.740  1.00  0.00     0.012 C 
ENDBRANCH   5   6
ENDBRANCH   3   4
ENDBRANCH   2   3
ENDBRANCH   1   2
BRANCH   1   9
ATOM      9  C   UNL     1       4.191  36.999  -2.078  1.00  0.00     0.100 C 
BRANCH   9  10
ATOM     10  C   UNL     1       5.105  35.824  -1.889  1.00  0.00     0.220 C 
ATOM     11  O   UNL     1       4.700  34.823  -1.238  1.00  0.00    -0.275 OA
ATOM     12  N   UNL     1       6.442  35.856  -2.410  1.00  0.00    -0.352 N 
ATOM     13  H   UNL     1       6.770  36.708  -2.919  1.00  0.00     0.163 HD
BRANCH  12  14
ATOM     14  C   UNL     1       7.385  34.756  -2.222  1.00  0.00     0.151 C 
BRANCH  14  15
ATOM     15  C   UNL     1       8.263  35.019  -1.029  1.00  0.00    -0.025 A 
ATOM     16  C   UNL     1       9.514  35.632  -1.202  1.00  0.00     0.056 A 
ATOM     17  C   UNL     1       7.858  34.628   0.255  1.00  0.00     0.009 A 
ATOM     18  C   UNL     1      10.357  35.868  -0.097  1.00  0.00     0.160 A 
ATOM     19  C   UNL     1       8.688  34.859   1.355  1.00  0.00     0.050 A 
ATOM     20  C   UNL     1       9.932  35.476   1.187  1.00  0.00     0.157 A 
BRANCH  18  21
ATOM     21  O   UNL     1      11.610  36.483  -0.236  1.00  0.00    -0.493 OA
ATOM     22  C   UNL     1      11.836  37.886  -0.153  1.00  0.00     0.278 C 
ENDBRANCH  18  21
BRANCH  20  23
ATOM     23  O   UNL     1      10.732  35.690   2.308  1.00  0.00    -0.504 OA
ATOM     24  H   UNL     1      11.737  35.560   2.287  1.00  0.00     0.293 HD
ENDBRANCH  20  23
ENDBRANCH  14  15
ENDBRANCH  12  14
ENDBRANCH   9  10
ENDBRANCH   1   9
TORSDOF 10
ENDMDL
MODEL 3
REMARK VINA RESULT:    -5.212      1.999      3.912
REMARK INTER + INTRA:         -10.352
REMARK INTER:                  -8.806
REMARK INTRA:                  -1.546
REMARK UNBOUND:                -2.245
REMARK SMILES COc1cc(CNC(=O)CCCCC=CC(C)C)ccc1O
REMARK SMILES IDX 11 1 12 2 13 3 14 4 15 5 16 6 17 7 18 8 10 9 8 10 9 11 7 12
REMARK SMILES IDX 6 14 5 15 4 16 19 17 3 18 20 19 21 20 2 21 1 22 22 23
REMARK H PARENT 7 13 22 24
REMARK Flexibility Score: inf
ROOT
ATOM      1  C   UNL     1       4.426  34.309  -1.881  1.00  0.00     0.010 C 
ENDROOT
BRANCH   1   2
ATOM      2  C   UNL     1       5.383  33.401  -2.675  1.00  0.00     0.005 C 
BRANCH   2   3
ATOM      3  C   UNL     1       6.845  33.869  -2.593  1.00  0.00     0.027 C 
BRANCH   3   4
ATOM      4  C   UNL     1       7.245  34.125  -1.163  1.00  0.00    -0.031 C 
ATOM      5  C   UNL     1       8.387  33.691  -0.597  1.00  0.00    -0.028 C 
BRANCH   5   6
ATOM      6  C   UNL     1       9.409  32.809  -1.285  1.00  0.00     0.005 C 
ATOM      7  C   UNL     1      10.709  33.589  -1.503  1.00  0.00     0.012 C 
ATOM      8  C   UNL     1       9.667  31.558  -0.442  1.00  0.00     0.012 C 
ENDBRANCH   5   6
ENDBRANCH   3   4
ENDBRANCH   2   3
ENDBRANCH   1   2
BRANCH   1   9
ATOM      9  C   UNL     1       4.201  35.691  -2.513  1.00  0.00     0.100 C 
BRANCH   9  10
ATOM     10  C   UNL     1       4.803  36.788  -1.686  1.00  0.00     0.220 C 
ATOM     11  O   UNL     1       4.175  37.224  -0.684  1.00  0.00    -0.275 OA
ATOM     12  N   UNL     1       6.064  37.365  -2.059  1.00  0.00    -0.352 N 
ATOM     13  H   UNL     1       6.554  37.013  -2.912  1.00  0.00     0.163 HD
BRANCH  12  14
ATOM     14  C   UNL     1       6.676  38.461  -1.311  1.00  0.00     0.151 C 
BRANCH  14  15
ATOM     15  C   UNL     1       7.721  37.930  -0.368  1.00  0.00    -0.025 A 
ATOM     16  C   UNL     1       8.987  37.569  -0.856  1.00  0.00     0.056 A 
ATOM     17  C   UNL     1       7.433  37.761   0.994  1.00  0.00     0.009 A 
ATOM     18  C   UNL     1       9.970  37.052   0.012  1.00  0.00     0.160 A 
ATOM     19  C   UNL     1       8.402  37.250   1.860  1.00  0.00     0.050 A 
ATOM     20  C   UNL     1       9.667  36.896   1.378  1.00  0.00     0.157 A 
BRANCH  18  21
ATOM     21  O   UNL     1      11.246  36.686  -0.444  1.00  0.00    -0.493 OA
ATOM     22  C   UNL     1      12.443  37.400  -0.153  1.00  0.00     0.278 C 
ENDBRANCH  18  21
BRANCH  20  23
ATOM     23  O   UNL     1      10.609  36.389   2.272  1.00  0.00    -0.504 OA
ATOM     24  H   UNL     1      10.489  35.495   2.734  1.00  0.00     0.293 HD
ENDBRANCH  20  23
ENDBRANCH  14  15
ENDBRANCH  12  14
ENDBRANCH   9  10
ENDBRANCH   1   9
TORSDOF 10
ENDMDL
MODEL 4
REMARK VINA RESULT:    -5.129      2.561      5.319
REMARK INTER + INTRA:         -10.223
REMARK INTER:                  -8.492
REMARK INTRA:                  -1.731
REMARK UNBOUND:                -2.245
REMARK SMILES COc1cc(CNC(=O)CCCCC=CC(C)C)ccc1O
REMARK SMILES IDX 11 1 12 2 13 3 14 4 15 5 16 6 17 7 18 8 10 9 8 10 9 11 7 12
REMARK SMILES IDX 6 14 5 15 4 16 19 17 3 18 20 19 21 20 2 21 1 22 22 23
REMARK H PARENT 7 13 22 24
REMARK Flexibility Score: inf
ROOT
ATOM      1  C   UNL     1       7.372  40.196  -0.130  1.00  0.00     0.010 C 
ENDROOT
BRANCH   1   2
ATOM      2  C   UNL     1       8.613  41.079  -0.352  1.00  0.00     0.005 C 
BRANCH   2   3
ATOM      3  C   UNL     1       9.874  40.506   0.314  1.00  0.00     0.027 C 
BRANCH   3   4
ATOM      4  C   UNL     1      10.903  40.132  -0.721  1.00  0.00    -0.031 C 
ATOM      5  C   UNL     1      11.223  38.869  -1.062  1.00  0.00    -0.028 C 
BRANCH   5   6
ATOM      6  C   UNL     1      10.657  37.628  -0.401  1.00  0.00     0.005 C 
ATOM      7  C   UNL     1       9.515  37.060  -1.249  1.00  0.00     0.012 C 
ATOM      8  C   UNL     1      11.764  36.585  -0.221  1.00  0.00     0.012 C 
ENDBRANCH   5   6
ENDBRANCH   3   4
ENDBRANCH   2   3
ENDBRANCH   1   2
BRANCH   1   9
ATOM      9  C   UNL     1       7.486  39.241   1.068  1.00  0.00     0.100 C 
BRANCH   9  10
ATOM     10  C   UNL     1       6.722  37.970   0.845  1.00  0.00     0.220 C 
ATOM     11  O   UNL     1       5.621  38.010   0.232  1.00  0.00    -0.275 OA
ATOM     12  N   UNL     1       7.218  36.727   1.362  1.00  0.00    -0.352 N 
ATOM     13  H   UNL     1       8.117  36.719   1.896  1.00  0.00     0.163 HD
BRANCH  12  14
ATOM     14  C   UNL     1       6.495  35.467   1.207  1.00  0.00     0.151 C 
BRANCH  14  15
ATOM     15  C   UNL     1       6.974  34.738  -0.020  1.00  0.00    -0.025 A 
ATOM     16  C   UNL     1       8.198  34.052   0.007  1.00  0.00     0.056 A 
ATOM     17  C   UNL     1       6.223  34.763  -1.203  1.00  0.00     0.009 A 
ATOM     18  C   UNL     1       8.670  33.379  -1.139  1.00  0.00     0.160 A 
ATOM     19  C   UNL     1       6.684  34.099  -2.342  1.00  0.00     0.050 A 
ATOM     20  C   UNL     1       7.900  33.409  -2.317  1.00  0.00     0.157 A 
BRANCH  18  21
ATOM     21  O   UNL     1       9.887  32.681  -1.142  1.00  0.00    -0.493 OA
ATOM     22  C   UNL     1      10.099  31.425  -0.505  1.00  0.00     0.278 C 
ENDBRANCH  18  21
BRANCH  20  23
ATOM     23  O   UNL     1       8.327  32.757  -3.473  1.00  0.00    -0.504 OA
ATOM     24  H   UNL     1       9.299  32.519  -3.631  1.00  0.00     0.293 HD
ENDBRANCH  20  23
ENDBRANCH  14  15
ENDBRANCH  12  14
ENDBRANCH   9  10
ENDBRANCH   1   9
TORSDOF 10
ENDMDL
MODEL 5
REMARK VINA RESULT:    -5.122      2.646      5.216
REMARK INTER + INTRA:         -10.211
REMARK INTER:                  -8.828
REMARK INTRA:                  -1.383
REMARK UNBOUND:                -2.245
REMARK SMILES COc1cc(CNC(=O)CCCCC=CC(C)C)ccc1O
REMARK SMILES IDX 11 1 12 2 13 3 14 4 15 5 16 6 17 7 18 8 10 9 8 10 9 11 7 12
REMARK SMILES IDX 6 14 5 15 4 16 19 17 3 18 20 19 21 20 2 21 1 22 22 23
REMARK H PARENT 7 13 22 24
REMARK Flexibility Score: inf
ROOT
ATOM      1  C   UNL     1       7.493  39.711   1.427  1.00  0.00     0.010 C 
ENDROOT
BRANCH   1   2
ATOM      2  C   UNL     1       8.429  39.396   2.607  1.00  0.00     0.005 C 
BRANCH   2   3
ATOM      3  C   UNL     1       9.900  39.720   2.298  1.00  0.00     0.027 C 
BRANCH   3   4
ATOM      4  C   UNL     1      10.699  38.455   2.115  1.00  0.00    -0.031 C 
ATOM      5  C   UNL     1      10.891  37.835   0.935  1.00  0.00    -0.028 C 
BRANCH   5   6
ATOM      6  C   UNL     1      10.267  38.265  -0.377  1.00  0.00     0.005 C 
ATOM      7  C   UNL     1      11.164  39.298  -1.067  1.00  0.00     0.012 C 
ATOM      8  C   UNL     1      10.059  37.046  -1.279  1.00  0.00     0.012 C 
ENDBRANCH   5   6
ENDBRANCH   3   4
ENDBRANCH   2   3
ENDBRANCH   1   2
BRANCH   1   9
ATOM      9  C   UNL     1       6.137  38.991   1.490  1.00  0.00     0.100 C 
BRANCH   9  10
ATOM     10  C   UNL     1       6.298  37.515   1.710  1.00  0.00     0.220 C 
ATOM     11  O   UNL     1       5.573  36.934   2.563  1.00  0.00    -0.275 OA
ATOM     12  N   UNL     1       7.297  36.781   0.987  1.00  0.00    -0.352 N 
ATOM     13  H   UNL     1       7.910  37.286   0.307  1.00  0.00     0.163 HD
BRANCH  12  14
ATOM     14  C   UNL     1       7.521  35.352   1.190  1.00  0.00     0.151 C 
BRANCH  14  15
ATOM     15  C   UNL     1       7.582  34.638  -0.133  1.00  0.00    -0.025 A 
ATOM     16  C   UNL     1       8.669  33.800  -0.428  1.00  0.00     0.056 A 
ATOM     17  C   UNL     1       6.577  34.827  -1.092  1.00  0.00     0.009 A 
ATOM     18  C   UNL     1       8.750  33.140  -1.671  1.00  0.00     0.160 A 
ATOM     19  C   UNL     1       6.650  34.176  -2.326  1.00  0.00     0.050 A 
ATOM     20  C   UNL     1       7.728  33.335  -2.619  1.00  0.00     0.157 A 
BRANCH  18  21
ATOM     21  O   UNL     1       9.820  32.292  -1.993  1.00  0.00    -0.493 OA
ATOM     22  C   UNL     1      10.523  31.485  -1.054  1.00  0.00     0.278 C 
ENDBRANCH  18  21
BRANCH  20  23
ATOM     23  O   UNL     1       7.768  32.702  -3.861  1.00  0.00    -0.504 OA
ATOM     24  H   UNL     1       8.629  32.350  -4.261  1.00  0.00     0.293 HD
ENDBRANCH  20  23
ENDBRANCH  14  15
ENDBRANCH  12  14
ENDBRANCH   9  10
ENDBRANCH   1   9
TORSDOF 10
ENDMDL
MODEL 6
REMARK VINA RESULT:    -5.094      2.338      3.602
REMARK INTER + INTRA:         -10.167
REMARK INTER:                  -7.808
REMARK INTRA:                  -2.359
REMARK UNBOUND:                -2.245
REMARK SMILES COc1cc(CNC(=O)CCCCC=CC(C)C)ccc1O
REMARK SMILES IDX 11 1 12 2 13 3 14 4 15 5 16 6 17 7 18 8 10 9 8 10 9 11 7 12
REMARK SMILES IDX 6 14 5 15 4 16 19 17 3 18 20 19 21 20 2 21 1 22 22 23
REMARK H PARENT 7 13 22 24
REMARK Flexibility Score: inf
ROOT
ATOM      1  C   UNL     1       6.839  34.448  -2.628  1.00  0.00     0.010 C 
ENDROOT
BRANCH   1   2
ATOM      2  C   UNL     1       5.382  34.629  -2.167  1.00  0.00     0.005 C 
BRANCH   2   3
ATOM      3  C   UNL     1       5.002  36.107  -1.976  1.00  0.00     0.027 C 
BRANCH   3   4
ATOM      4  C   UNL     1       6.233  36.956  -1.793  1.00  0.00    -0.031 C 
ATOM      5  C   UNL     1       6.790  37.251  -0.603  1.00  0.00    -0.028 C 
BRANCH   5   6
ATOM      6  C   UNL     1       6.221  36.843   0.741  1.00  0.00     0.005 C 
ATOM      7  C   UNL     1       6.837  35.513   1.187  1.00  0.00     0.012 C 
ATOM      8  C   UNL     1       6.496  37.937   1.776  1.00  0.00     0.012 C 
ENDBRANCH   5   6
ENDBRANCH   3   4
ENDBRANCH   2   3
ENDBRANCH   1   2
BRANCH   1   9
ATOM      9  C   UNL     1       7.617  33.377  -1.848  1.00  0.00     0.100 C 
BRANCH   9  10
ATOM     10  C   UNL     1       8.951  33.883  -1.383  1.00  0.00     0.220 C 
ATOM     11  O   UNL     1       9.631  33.187  -0.581  1.00  0.00    -0.275 OA
ATOM     12  N   UNL     1       9.429  35.165  -1.816  1.00  0.00    -0.352 N 
ATOM     13  H   UNL     1       8.837  35.741  -2.456  1.00  0.00     0.163 HD
BRANCH  12  14
ATOM     14  C   UNL     1      10.702  35.721  -1.364  1.00  0.00     0.151 C 
BRANCH  14  15
ATOM     15  C   UNL     1      10.469  36.778  -0.318  1.00  0.00    -0.025 A 
ATOM     16  C   UNL     1      10.268  38.112  -0.705  1.00  0.00     0.056 A 
ATOM     17  C   UNL     1      10.481  36.449   1.044  1.00  0.00     0.009 A 
ATOM     18  C   UNL     1      10.067  39.118   0.263  1.00  0.00     0.160 A 
ATOM     19  C   UNL     1      10.282  37.439   2.009  1.00  0.00     0.050 A 
ATOM     20  C   UNL     1      10.075  38.769   1.626  1.00  0.00     0.157 A 
BRANCH  18  21
ATOM     21  O   UNL     1       9.859  40.459  -0.091  1.00  0.00    -0.493 OA
ATOM     22  C   UNL     1       8.581  41.052  -0.295  1.00  0.00     0.278 C 
ENDBRANCH  18  21
BRANCH  20  23
ATOM     23  O   UNL     1       9.880  39.730   2.617  1.00  0.00    -0.504 OA
ATOM     24  H   UNL     1       9.741  40.710   2.400  1.00  0.00     0.293 HD
ENDBRANCH  20  23
ENDBRANCH  14  15
ENDBRANCH  12  14
ENDBRANCH   9  10
ENDBRANCH   1   9
TORSDOF 10
ENDMDL
MODEL 7
REMARK VINA RESULT:    -5.067      2.091      4.119
REMARK INTER + INTRA:         -10.127
REMARK INTER:                  -8.243
REMARK INTRA:                  -1.884
REMARK UNBOUND:                -2.245
REMARK SMILES COc1cc(CNC(=O)CCCCC=CC(C)C)ccc1O
REMARK SMILES IDX 11 1 12 2 13 3 14 4 15 5 16 6 17 7 18 8 10 9 8 10 9 11 7 12
REMARK SMILES IDX 6 14 5 15 4 16 19 17 3 18 20 19 21 20 2 21 1 22 22 23
REMARK H PARENT 7 13 22 24
REMARK Flexibility Score: inf
ROOT
ATOM      1  C   UNL     1       3.611  34.746  -2.239  1.00  0.00     0.010 C 
ENDROOT
BRANCH   1   2
ATOM      2  C   UNL     1       4.736  33.714  -2.436  1.00  0.00     0.005 C 
BRANCH   2   3
ATOM      3  C   UNL     1       6.135  34.349  -2.384  1.00  0.00     0.027 C 
BRANCH   3   4
ATOM      4  C   UNL     1       7.205  33.299  -2.544  1.00  0.00    -0.031 C 
ATOM      5  C   UNL     1       8.364  33.276  -1.858  1.00  0.00    -0.028 C 
BRANCH   5   6
ATOM      6  C   UNL     1       8.808  34.344  -0.880  1.00  0.00     0.005 C 
ATOM      7  C   UNL     1       8.777  33.791   0.548  1.00  0.00     0.012 C 
ATOM      8  C   UNL     1      10.217  34.824  -1.240  1.00  0.00     0.012 C 
ENDBRANCH   5   6
ENDBRANCH   3   4
ENDBRANCH   2   3
ENDBRANCH   1   2
BRANCH   1   9
ATOM      9  C   UNL     1       2.941  34.689  -0.857  1.00  0.00     0.100 C 
BRANCH   9  10
ATOM     10  C   UNL     1       3.592  35.626   0.117  1.00  0.00     0.220 C 
ATOM     11  O   UNL     1       3.074  36.756   0.329  1.00  0.00    -0.275 OA
ATOM     12  N   UNL     1       4.816  35.256   0.770  1.00  0.00    -0.352 N 
ATOM     13  H   UNL     1       5.246  34.328   0.556  1.00  0.00     0.163 HD
BRANCH  12  14
ATOM     14  C   UNL     1       5.511  36.145   1.697  1.00  0.00     0.151 C 
BRANCH  14  15
ATOM     15  C   UNL     1       6.646  36.844   0.999  1.00  0.00    -0.025 A 
ATOM     16  C   UNL     1       7.809  37.174   1.712  1.00  0.00     0.056 A 
ATOM     17  C   UNL     1       6.541  37.198  -0.353  1.00  0.00     0.009 A 
ATOM     18  C   UNL     1       8.873  37.846   1.078  1.00  0.00     0.160 A 
ATOM     19  C   UNL     1       7.592  37.864  -0.988  1.00  0.00     0.050 A 
ATOM     20  C   UNL     1       8.755  38.188  -0.283  1.00  0.00     0.157 A 
BRANCH  18  21
ATOM     21  O   UNL     1      10.050  38.186   1.761  1.00  0.00    -0.493 OA
ATOM     22  C   UNL     1      10.290  39.446   2.380  1.00  0.00     0.278 C 
ENDBRANCH  18  21
BRANCH  20  23
ATOM     23  O   UNL     1       9.783  38.853  -0.951  1.00  0.00    -0.504 OA
ATOM     24  H   UNL     1       9.603  39.528  -1.684  1.00  0.00     0.293 HD
ENDBRANCH  20  23
ENDBRANCH  14  15
ENDBRANCH  12  14
ENDBRANCH   9  10
ENDBRANCH   1   9
TORSDOF 10
ENDMDL
MODEL 8
REMARK VINA RESULT:    -5.034      2.407      5.357
REMARK INTER + INTRA:         -10.074
REMARK INTER:                  -8.530
REMARK INTRA:                  -1.544
REMARK UNBOUND:                -2.245
REMARK SMILES COc1cc(CNC(=O)CCCCC=CC(C)C)ccc1O
REMARK SMILES IDX 11 1 12 2 13 3 14 4 15 5 16 6 17 7 18 8 10 9 8 10 9 11 7 12
REMARK SMILES IDX 6 14 5 15 4 16 19 17 3 18 20 19 21 20 2 21 1 22 22 23
REMARK H PARENT 7 13 22 24
REMARK Flexibility Score: inf
ROOT
ATOM      1  C   UNL     1      10.886  36.519  -0.256  1.00  0.00     0.010 C 
ENDROOT
BRANCH   1   2
ATOM      2  C   UNL     1      10.033  37.574  -0.983  1.00  0.00     0.005 C 
BRANCH   2   3
ATOM      3  C   UNL     1       8.720  37.882  -0.247  1.00  0.00     0.027 C 
BRANCH   3   4
ATOM      4  C   UNL     1       8.726  37.278   1.134  1.00  0.00    -0.031 C 
ATOM      5  C   UNL     1       8.683  37.985   2.279  1.00  0.00    -0.028 C 
BRANCH   5   6
ATOM      6  C   UNL     1       8.704  39.498   2.360  1.00  0.00     0.005 C 
ATOM      7  C   UNL     1       7.896  39.967   3.574  1.00  0.00     0.012 C 
ATOM      8  C   UNL     1      10.150  39.994   2.452  1.00  0.00     0.012 C 
ENDBRANCH   5   6
ENDBRANCH   3   4
ENDBRANCH   2   3
ENDBRANCH   1   2
BRANCH   1   9
ATOM      9  C   UNL     1      11.160  35.254  -1.083  1.00  0.00     0.100 C 
BRANCH   9  10
ATOM     10  C   UNL     1      10.009  34.292  -1.032  1.00  0.00     0.220 C 
ATOM     11  O   UNL     1       9.934  33.469  -0.080  1.00  0.00    -0.275 OA
ATOM     12  N   UNL     1       9.027  34.283  -2.078  1.00  0.00    -0.352 N 
ATOM     13  H   UNL     1       9.125  34.952  -2.875  1.00  0.00     0.163 HD
BRANCH  12  14
ATOM     14  C   UNL     1       7.909  33.343  -2.097  1.00  0.00     0.151 C 
BRANCH  14  15
ATOM     15  C   UNL     1       6.634  34.040  -1.706  1.00  0.00    -0.025 A 
ATOM     16  C   UNL     1       6.601  34.845  -0.556  1.00  0.00     0.056 A 
ATOM     17  C   UNL     1       5.466  33.868  -2.462  1.00  0.00     0.009 A 
ATOM     18  C   UNL     1       5.409  35.490  -0.166  1.00  0.00     0.160 A 
ATOM     19  C   UNL     1       4.282  34.504  -2.082  1.00  0.00     0.050 A 
ATOM     20  C   UNL     1       4.247  35.312  -0.941  1.00  0.00     0.157 A 
BRANCH  18  21
ATOM     21  O   UNL     1       5.344  36.305   0.974  1.00  0.00    -0.493 OA
ATOM     22  C   UNL     1       5.129  35.826   2.298  1.00  0.00     0.278 C 
ENDBRANCH  18  21
BRANCH  20  23
ATOM     23  O   UNL     1       3.047  35.931  -0.593  1.00  0.00    -0.504 OA
ATOM     24  H   UNL     1       2.584  36.593  -1.203  1.00  0.00     0.293 HD
ENDBRANCH  20  23
ENDBRANCH  14  15
ENDBRANCH  12  14
ENDBRANCH   9  10
ENDBRANCH   1   9
TORSDOF 10
ENDMDL
MODEL 9
REMARK VINA RESULT:    -5.025      2.703      4.416
REMARK INTER + INTRA:         -10.061
REMARK INTER:                  -8.040
REMARK INTRA:                  -2.022
REMARK UNBOUND:                -2.245
REMARK SMILES COc1cc(CNC(=O)CCCCC=CC(C)C)ccc1O
REMARK SMILES IDX 11 1 12 2 13 3 14 4 15 5 16 6 17 7 18 8 10 9 8 10 9 11 7 12
REMARK SMILES IDX 6 14 5 15 4 16 19 17 3 18 20 19 21 20 2 21 1 22 22 23
REMARK H PARENT 7 13 22 24
REMARK Flexibility Score: inf
ROOT
ATOM      1  C   UNL     1       7.389  33.768  -1.421  1.00  0.00     0.010 C 
ENDROOT
BRANCH   1   2
ATOM      2  C   UNL     1       6.702  34.322  -2.682  1.00  0.00     0.005 C 
BRANCH   2   3
ATOM      3  C   UNL     1       6.983  35.818  -2.899  1.00  0.00     0.027 C 
BRANCH   3   4
ATOM      4  C   UNL     1       5.756  36.641  -2.602  1.00  0.00    -0.031 C 
ATOM      5  C   UNL     1       5.701  37.634  -1.694  1.00  0.00    -0.028 C 
BRANCH   5   6
ATOM      6  C   UNL     1       6.839  38.023  -0.772  1.00  0.00     0.005 C 
ATOM      7  C   UNL     1       6.901  39.548  -0.636  1.00  0.00     0.012 C 
ATOM      8  C   UNL     1       6.645  37.368   0.597  1.00  0.00     0.012 C 
ENDBRANCH   5   6
ENDBRANCH   3   4
ENDBRANCH   2   3
ENDBRANCH   1   2
BRANCH   1   9
ATOM      9  C   UNL     1       8.811  33.238  -1.661  1.00  0.00     0.100 C 
BRANCH   9  10
ATOM     10  C   UNL     1       9.824  33.957  -0.819  1.00  0.00     0.220 C 
ATOM     11  O   UNL     1      11.045  33.669  -0.942  1.00  0.00    -0.275 OA
ATOM     12  N   UNL     1       9.402  34.931   0.146  1.00  0.00    -0.352 N 
ATOM     13  H   UNL     1       8.383  35.133   0.255  1.00  0.00     0.163 HD
BRANCH  12  14
ATOM     14  C   UNL     1      10.343  35.631   1.017  1.00  0.00     0.151 C 
BRANCH  14  15
ATOM     15  C   UNL     1      10.396  37.093   0.662  1.00  0.00    -0.025 A 
ATOM     16  C   UNL     1      10.128  38.061   1.642  1.00  0.00     0.056 A 
ATOM     17  C   UNL     1      10.679  37.498  -0.650  1.00  0.00     0.009 A 
ATOM     18  C   UNL     1      10.155  39.434   1.321  1.00  0.00     0.160 A 
ATOM     19  C   UNL     1      10.708  38.856  -0.975  1.00  0.00     0.050 A 
ATOM     20  C   UNL     1      10.448  39.824   0.000  1.00  0.00     0.157 A 
BRANCH  18  21
ATOM     21  O   UNL     1       9.897  40.426   2.278  1.00  0.00    -0.493 OA
ATOM     22  C   UNL     1       8.750  40.456   3.121  1.00  0.00     0.278 C 
ENDBRANCH  18  21
BRANCH  20  23
ATOM     23  O   UNL     1      10.486  41.170  -0.362  1.00  0.00    -0.504 OA
ATOM     24  H   UNL     1       9.672  41.656  -0.718  1.00  0.00     0.293 HD
ENDBRANCH  20  23
ENDBRANCH  14  15
ENDBRANCH  12  14
ENDBRANCH   9  10
ENDBRANCH   1   9
TORSDOF 10
ENDMDL
