MODEL 1
REMARK VINA RESULT:    -4.456      0.000      0.000
REMARK INTER + INTRA:          -5.197
REMARK INTER:                  -4.977
REMARK INTRA:                  -0.220
REMARK UNBOUND:                -0.220
REMARK SMILES CC(C)c1ccc(C(=O)[O-])cc1
REMARK SMILES IDX 7 1 6 2 11 3 5 4 12 5 4 6 8 7 9 8 10 9 2 10 1 11 3 12
REMARK H PARENT
REMARK Flexibility Score: inf
ROOT
ATOM      1  C   UNL     1      58.799  27.117  50.334  1.00  0.00    -0.003 A 
ATOM      2  C   UNL     1      58.443  28.461  50.535  1.00  0.00     0.010 A 
ATOM      3  C   UNL     1      57.796  26.134  50.369  1.00  0.00     0.010 A 
ATOM      4  C   UNL     1      57.110  28.815  50.766  1.00  0.00     0.004 A 
ATOM      5  C   UNL     1      56.463  26.488  50.600  1.00  0.00     0.004 A 
ATOM      6  C   UNL     1      56.105  27.831  50.801  1.00  0.00    -0.045 A 
ENDROOT
BRANCH   1   7
ATOM      7  C   UNL     1      60.211  26.747  50.089  1.00  0.00     0.071 C 
ATOM      8  O   UNL     1      60.602  25.562  50.265  1.00  0.00    -0.545 OA
ATOM      9  O   UNL     1      61.126  27.702  49.662  1.00  0.00    -0.545 OA
ENDBRANCH   1   7
BRANCH   6  10
ATOM     10  C   UNL     1      54.655  28.202  51.051  1.00  0.00     0.013 C 
ATOM     11  C   UNL     1      53.719  27.439  50.107  1.00  0.00     0.012 C 
ATOM     12  C   UNL     1      54.444  29.716  50.933  1.00  0.00     0.012 C 
ENDBRANCH   6  10
TORSDOF 2
ENDMDL
MODEL 2
REMARK VINA RESULT:    -4.445      0.105      1.401
REMARK INTER + INTRA:          -5.184
REMARK INTER:                  -4.965
REMARK INTRA:                  -0.219
REMARK UNBOUND:                -0.220
REMARK SMILES CC(C)c1ccc(C(=O)[O-])cc1
REMARK SMILES IDX 7 1 6 2 11 3 5 4 12 5 4 6 8 7 9 8 10 9 2 10 1 11 3 12
REMARK H PARENT
REMARK Flexibility Score: inf
ROOT
ATOM      1  C   UNL     1      58.705  27.092  50.310  1.00  0.00    -0.003 A 
ATOM      2  C   UNL     1      57.703  26.108  50.309  1.00  0.00     0.010 A 
ATOM      3  C   UNL     1      58.345  28.430  50.545  1.00  0.00     0.010 A 
ATOM      4  C   UNL     1      56.368  26.453  50.539  1.00  0.00     0.004 A 
ATOM      5  C   UNL     1      57.010  28.776  50.774  1.00  0.00     0.004 A 
ATOM      6  C   UNL     1      56.007  27.793  50.773  1.00  0.00    -0.045 A 
ENDROOT
BRANCH   1   7
ATOM      7  C   UNL     1      60.117  26.721  50.067  1.00  0.00     0.071 C 
ATOM      8  O   UNL     1      60.513  25.542  50.267  1.00  0.00    -0.545 OA
ATOM      9  O   UNL     1      61.027  27.670  49.614  1.00  0.00    -0.545 OA
ENDBRANCH   1   7
BRANCH   6  10
ATOM     10  C   UNL     1      54.562  28.182  51.024  1.00  0.00     0.013 C 
ATOM     11  C   UNL     1      53.621  27.478  50.040  1.00  0.00     0.012 C 
ATOM     12  C   UNL     1      54.382  29.704  50.967  1.00  0.00     0.012 C 
ENDBRANCH   6  10
TORSDOF 2
ENDMDL
MODEL 3
REMARK VINA RESULT:    -4.335     12.060     12.904
REMARK INTER + INTRA:          -5.062
REMARK INTER:                  -4.843
REMARK INTRA:                  -0.218
REMARK UNBOUND:                -0.220
REMARK SMILES CC(C)c1ccc(C(=O)[O-])cc1
REMARK SMILES IDX 7 1 6 2 11 3 5 4 12 5 4 6 8 7 9 8 10 9 2 10 1 11 3 12
REMARK H PARENT
REMARK Flexibility Score: inf
ROOT
ATOM      1  C   UNL     1      62.939  31.053  60.869  1.00  0.00    -0.003 A 
ATOM      2  C   UNL     1      61.620  31.519  60.744  1.00  0.00     0.010 A 
ATOM      3  C   UNL     1      63.997  31.974  60.786  1.00  0.00     0.010 A 
ATOM      4  C   UNL     1      61.363  32.879  60.541  1.00  0.00     0.004 A 
ATOM      5  C   UNL     1      63.741  33.333  60.582  1.00  0.00     0.004 A 
ATOM      6  C   UNL     1      62.423  33.801  60.457  1.00  0.00    -0.045 A 
ENDROOT
BRANCH   1   7
ATOM      7  C   UNL     1      63.205  29.613  61.084  1.00  0.00     0.071 C 
ATOM      8  O   UNL     1      62.301  28.853  61.521  1.00  0.00    -0.545 OA
ATOM      9  O   UNL     1      64.459  29.080  60.808  1.00  0.00    -0.545 OA
ENDBRANCH   1   7
BRANCH   6  10
ATOM     10  C   UNL     1      62.159  35.279  60.236  1.00  0.00     0.013 C 
ATOM     11  C   UNL     1      62.927  36.135  61.250  1.00  0.00     0.012 C 
ATOM     12  C   UNL     1      60.657  35.585  60.282  1.00  0.00     0.012 C 
ENDBRANCH   6  10
TORSDOF 2
ENDMDL
MODEL 4
REMARK VINA RESULT:    -4.320     12.749     13.674
REMARK INTER + INTRA:          -5.044
REMARK INTER:                  -4.836
REMARK INTRA:                  -0.208
REMARK UNBOUND:                -0.220
REMARK SMILES CC(C)c1ccc(C(=O)[O-])cc1
REMARK SMILES IDX 7 1 6 2 11 3 5 4 12 5 4 6 8 7 9 8 10 9 2 10 1 11 3 12
REMARK H PARENT
REMARK Flexibility Score: inf
ROOT
ATOM      1  C   UNL     1      63.752  35.024  61.146  1.00  0.00    -0.003 A 
ATOM      2  C   UNL     1      62.407  35.352  60.912  1.00  0.00     0.010 A 
ATOM      3  C   UNL     1      64.168  33.693  60.977  1.00  0.00     0.010 A 
ATOM      4  C   UNL     1      61.495  34.369  60.516  1.00  0.00     0.004 A 
ATOM      5  C   UNL     1      63.256  32.709  60.582  1.00  0.00     0.004 A 
ATOM      6  C   UNL     1      61.910  33.035  60.348  1.00  0.00    -0.045 A 
ENDROOT
BRANCH   1   7
ATOM      7  C   UNL     1      64.714  36.069  61.564  1.00  0.00     0.071 C 
ATOM      8  O   UNL     1      64.340  37.034  62.281  1.00  0.00    -0.545 OA
ATOM      9  O   UNL     1      66.045  35.999  61.169  1.00  0.00    -0.545 OA
ENDBRANCH   1   7
BRANCH   6  10
ATOM     10  C   UNL     1      60.931  31.958  59.919  1.00  0.00     0.013 C 
ATOM     11  C   UNL     1      60.692  30.948  61.047  1.00  0.00     0.012 C 
ATOM     12  C   UNL     1      61.407  31.256  58.641  1.00  0.00     0.012 C 
ENDBRANCH   6  10
TORSDOF 2
ENDMDL
MODEL 5
REMARK VINA RESULT:    -4.303     12.394     13.366
REMARK INTER + INTRA:          -5.026
REMARK INTER:                  -4.812
REMARK INTRA:                  -0.213
REMARK UNBOUND:                -0.220
REMARK SMILES CC(C)c1ccc(C(=O)[O-])cc1
REMARK SMILES IDX 7 1 6 2 11 3 5 4 12 5 4 6 8 7 9 8 10 9 2 10 1 11 3 12
REMARK H PARENT
REMARK Flexibility Score: inf
ROOT
ATOM      1  C   UNL     1      62.540  31.928  60.497  1.00  0.00    -0.003 A 
ATOM      2  C   UNL     1      63.820  32.448  60.750  1.00  0.00     0.010 A 
ATOM      3  C   UNL     1      61.461  32.815  60.352  1.00  0.00     0.010 A 
ATOM      4  C   UNL     1      64.017  33.829  60.855  1.00  0.00     0.004 A 
ATOM      5  C   UNL     1      61.657  34.195  60.457  1.00  0.00     0.004 A 
ATOM      6  C   UNL     1      62.936  34.717  60.710  1.00  0.00    -0.045 A 
ENDROOT
BRANCH   1   7
ATOM      7  C   UNL     1      62.337  30.466  60.386  1.00  0.00     0.071 C 
ATOM      8  O   UNL     1      62.053  29.941  59.277  1.00  0.00    -0.545 OA
ATOM      9  O   UNL     1      62.456  29.651  61.506  1.00  0.00    -0.545 OA
ENDBRANCH   1   7
BRANCH   6  10
ATOM     10  C   UNL     1      63.136  36.218  60.821  1.00  0.00     0.013 C 
ATOM     11  C   UNL     1      64.205  36.557  61.865  1.00  0.00     0.012 C 
ATOM     12  C   UNL     1      61.813  36.929  61.135  1.00  0.00     0.012 C 
ENDBRANCH   6  10
TORSDOF 2
ENDMDL
MODEL 6
REMARK VINA RESULT:    -4.264      3.402      4.789
REMARK INTER + INTRA:          -4.982
REMARK INTER:                  -4.780
REMARK INTRA:                  -0.202
REMARK UNBOUND:                -0.220
REMARK SMILES CC(C)c1ccc(C(=O)[O-])cc1
REMARK SMILES IDX 7 1 6 2 11 3 5 4 12 5 4 6 8 7 9 8 10 9 2 10 1 11 3 12
REMARK H PARENT
REMARK Flexibility Score: inf
ROOT
ATOM      1  C   UNL     1      54.894  26.533  50.314  1.00  0.00    -0.003 A 
ATOM      2  C   UNL     1      54.629  27.900  50.493  1.00  0.00     0.010 A 
ATOM      3  C   UNL     1      56.224  26.085  50.373  1.00  0.00     0.010 A 
ATOM      4  C   UNL     1      55.671  28.802  50.726  1.00  0.00     0.004 A 
ATOM      5  C   UNL     1      57.268  26.986  50.605  1.00  0.00     0.004 A 
ATOM      6  C   UNL     1      57.004  28.353  50.784  1.00  0.00    -0.045 A 
ENDROOT
BRANCH   1   7
ATOM      7  C   UNL     1      53.787  25.582  50.069  1.00  0.00     0.071 C 
ATOM      8  O   UNL     1      53.186  25.571  48.962  1.00  0.00    -0.545 OA
ATOM      9  O   UNL     1      53.394  24.687  51.057  1.00  0.00    -0.545 OA
ENDBRANCH   1   7
BRANCH   6  10
ATOM     10  C   UNL     1      58.146  29.321  51.036  1.00  0.00     0.013 C 
ATOM     11  C   UNL     1      59.192  29.244  49.918  1.00  0.00     0.012 C 
ATOM     12  C   UNL     1      58.785  29.076  52.408  1.00  0.00     0.012 C 
ENDBRANCH   6  10
TORSDOF 2
ENDMDL
MODEL 7
REMARK VINA RESULT:    -4.255     12.188     13.180
REMARK INTER + INTRA:          -4.972
REMARK INTER:                  -4.757
REMARK INTRA:                  -0.215
REMARK UNBOUND:                -0.220
REMARK SMILES CC(C)c1ccc(C(=O)[O-])cc1
REMARK SMILES IDX 7 1 6 2 11 3 5 4 12 5 4 6 8 7 9 8 10 9 2 10 1 11 3 12
REMARK H PARENT
REMARK Flexibility Score: inf
ROOT
ATOM      1  C   UNL     1      62.429  31.377  60.538  1.00  0.00    -0.003 A 
ATOM      2  C   UNL     1      61.444  32.365  60.384  1.00  0.00     0.010 A 
ATOM      3  C   UNL     1      63.759  31.770  60.760  1.00  0.00     0.010 A 
ATOM      4  C   UNL     1      61.780  33.721  60.451  1.00  0.00     0.004 A 
ATOM      5  C   UNL     1      64.097  33.126  60.826  1.00  0.00     0.004 A 
ATOM      6  C   UNL     1      63.113  34.115  60.672  1.00  0.00    -0.045 A 
ENDROOT
BRANCH   1   7
ATOM      7  C   UNL     1      62.067  29.943  60.467  1.00  0.00     0.071 C 
ATOM      8  O   UNL     1      62.323  29.170  61.428  1.00  0.00    -0.545 OA
ATOM      9  O   UNL     1      61.440  29.430  59.338  1.00  0.00    -0.545 OA
ENDBRANCH   1   7
BRANCH   6  10
ATOM     10  C   UNL     1      63.493  35.583  60.747  1.00  0.00     0.013 C 
ATOM     11  C   UNL     1      64.644  35.806  61.734  1.00  0.00     0.012 C 
ATOM     12  C   UNL     1      62.281  36.449  61.107  1.00  0.00     0.012 C 
ENDBRANCH   6  10
TORSDOF 2
ENDMDL
MODEL 8
REMARK VINA RESULT:    -4.102      3.370      5.147
REMARK INTER + INTRA:          -4.802
REMARK INTER:                  -4.581
REMARK INTRA:                  -0.220
REMARK UNBOUND:                -0.220
REMARK SMILES CC(C)c1ccc(C(=O)[O-])cc1
REMARK SMILES IDX 7 1 6 2 11 3 5 4 12 5 4 6 8 7 9 8 10 9 2 10 1 11 3 12
REMARK H PARENT
REMARK Flexibility Score: inf
ROOT
ATOM      1  C   UNL     1      55.021  27.410  50.464  1.00  0.00    -0.003 A 
ATOM      2  C   UNL     1      55.646  28.641  50.725  1.00  0.00     0.010 A 
ATOM      3  C   UNL     1      55.814  26.258  50.338  1.00  0.00     0.010 A 
ATOM      4  C   UNL     1      57.035  28.718  50.856  1.00  0.00     0.004 A 
ATOM      5  C   UNL     1      57.204  26.334  50.470  1.00  0.00     0.004 A 
ATOM      6  C   UNL     1      57.830  27.564  50.729  1.00  0.00    -0.045 A 
ENDROOT
BRANCH   1   7
ATOM      7  C   UNL     1      53.549  27.334  50.326  1.00  0.00     0.071 C 
ATOM      8  O   UNL     1      52.875  28.367  50.076  1.00  0.00    -0.545 OA
ATOM      9  O   UNL     1      52.891  26.118  50.472  1.00  0.00    -0.545 OA
ENDBRANCH   1   7
BRANCH   6  10
ATOM     10  C   UNL     1      59.340  27.633  50.870  1.00  0.00     0.013 C 
ATOM     11  C   UNL     1      59.857  29.048  50.585  1.00  0.00     0.012 C 
ATOM     12  C   UNL     1      60.026  26.602  49.966  1.00  0.00     0.012 C 
ENDBRANCH   6  10
TORSDOF 2
ENDMDL
MODEL 9
REMARK VINA RESULT:    -3.471     12.633     13.680
REMARK INTER + INTRA:          -4.096
REMARK INTER:                  -3.884
REMARK INTRA:                  -0.212
REMARK UNBOUND:                -0.220
REMARK SMILES CC(C)c1ccc(C(=O)[O-])cc1
REMARK SMILES IDX 7 1 6 2 11 3 5 4 12 5 4 6 8 7 9 8 10 9 2 10 1 11 3 12
REMARK H PARENT
REMARK Flexibility Score: inf
ROOT
ATOM      1  C   UNL     1      63.088  35.022  60.698  1.00  0.00    -0.003 A 
ATOM      2  C   UNL     1      64.113  34.074  60.844  1.00  0.00     0.010 A 
ATOM      3  C   UNL     1      61.770  34.576  60.499  1.00  0.00     0.010 A 
ATOM      4  C   UNL     1      63.828  32.706  60.791  1.00  0.00     0.004 A 
ATOM      5  C   UNL     1      61.485  33.208  60.445  1.00  0.00     0.004 A 
ATOM      6  C   UNL     1      62.509  32.258  60.590  1.00  0.00    -0.045 A 
ENDROOT
BRANCH   1   7
ATOM      7  C   UNL     1      63.394  36.469  60.756  1.00  0.00     0.071 C 
ATOM      8  O   UNL     1      63.591  37.124  59.699  1.00  0.00    -0.545 OA
ATOM      9  O   UNL     1      63.469  37.125  61.979  1.00  0.00    -0.545 OA
ENDBRANCH   1   7
BRANCH   6  10
ATOM     10  C   UNL     1      62.185  30.776  60.530  1.00  0.00     0.013 C 
ATOM     11  C   UNL     1      60.790  30.493  61.097  1.00  0.00     0.012 C 
ATOM     12  C   UNL     1      63.254  29.948  61.253  1.00  0.00     0.012 C 
ENDBRANCH   6  10
TORSDOF 2
ENDMDL
