MODEL 1
REMARK VINA RESULT:    -4.696      0.000      0.000
REMARK INTER + INTRA:          -7.205
REMARK INTER:                  -5.794
REMARK INTRA:                  -1.411
REMARK UNBOUND:                -1.411
REMARK SMILES CC(C)=CCC[C@@H](C)c1ccc(C)cc1
REMARK SMILES IDX 6 1 7 2 8 3 9 4 13 5 12 6 11 7 14 8 10 9 15 10 5 11 4 12
REMARK SMILES IDX 2 13 1 14 3 15
REMARK H PARENT
REMARK Flexibility Score: inf
ROOT
ATOM      1  C   UNL     1      77.509   9.499   6.060  1.00  0.00     0.012 C 
ENDROOT
BRANCH   1   2
ATOM      2  C   UNL     1      76.898   9.334   7.472  1.00  0.00     0.016 C 
ATOM      3  C   UNL     1      75.755  10.335   7.687  1.00  0.00     0.013 C 
BRANCH   2   4
ATOM      4  C   UNL     1      76.420   7.916   7.727  1.00  0.00    -0.045 A 
ATOM      5  C   UNL     1      75.141   3.854   8.450  1.00  0.00     0.044 C 
ATOM      6  C   UNL     1      75.560   5.275   8.214  1.00  0.00    -0.051 A 
ATOM      7  C   UNL     1      75.116   5.963   7.077  1.00  0.00     0.004 A 
ATOM      8  C   UNL     1      76.455   5.902   9.093  1.00  0.00     0.004 A 
ATOM      9  C   UNL     1      75.537   7.275   6.837  1.00  0.00     0.004 A 
ATOM     10  C   UNL     1      76.876   7.213   8.855  1.00  0.00     0.004 A 
ENDBRANCH   2   4
ENDBRANCH   1   2
BRANCH   1  11
ATOM     11  C   UNL     1      78.796   8.682   5.844  1.00  0.00     0.028 C 
BRANCH  11  12
ATOM     12  C   UNL     1      78.526   7.363   5.160  1.00  0.00    -0.028 C 
ATOM     13  C   UNL     1      78.845   6.153   5.670  1.00  0.00    -0.080 C 
ATOM     14  C   UNL     1      79.572   6.004   6.985  1.00  0.00     0.039 C 
ATOM     15  C   UNL     1      78.475   4.923   4.881  1.00  0.00     0.039 C 
ENDBRANCH  11  12
ENDBRANCH   1  11
TORSDOF 4
ENDMDL
MODEL 2
REMARK VINA RESULT:    -4.570      1.120      3.581
REMARK INTER + INTRA:          -7.049
REMARK INTER:                  -5.557
REMARK INTRA:                  -1.492
REMARK UNBOUND:                -1.411
REMARK SMILES CC(C)=CCC[C@@H](C)c1ccc(C)cc1
REMARK SMILES IDX 6 1 7 2 8 3 9 4 13 5 12 6 11 7 14 8 10 9 15 10 5 11 4 12
REMARK SMILES IDX 2 13 1 14 3 15
REMARK H PARENT
REMARK Flexibility Score: inf
ROOT
ATOM      1  C   UNL     1      78.211   8.034   4.957  1.00  0.00     0.012 C 
ENDROOT
BRANCH   1   2
ATOM      2  C   UNL     1      78.434   6.577   5.430  1.00  0.00     0.016 C 
ATOM      3  C   UNL     1      79.665   6.488   6.342  1.00  0.00     0.013 C 
BRANCH   2   4
ATOM      4  C   UNL     1      77.212   6.008   6.129  1.00  0.00    -0.045 A 
ATOM      5  C   UNL     1      73.707   4.471   8.131  1.00  0.00     0.044 C 
ATOM      6  C   UNL     1      74.925   4.979   7.418  1.00  0.00    -0.051 A 
ATOM      7  C   UNL     1      76.205   4.672   7.900  1.00  0.00     0.004 A 
ATOM      8  C   UNL     1      74.791   5.822   6.306  1.00  0.00     0.004 A 
ATOM      9  C   UNL     1      77.340   5.177   7.258  1.00  0.00     0.004 A 
ATOM     10  C   UNL     1      75.925   6.327   5.663  1.00  0.00     0.004 A 
ENDBRANCH   2   4
ENDBRANCH   1   2
BRANCH   1  11
ATOM     11  C   UNL     1      78.420   9.082   6.064  1.00  0.00     0.028 C 
BRANCH  11  12
ATOM     12  C   UNL     1      77.153   9.842   6.377  1.00  0.00    -0.028 C 
ATOM     13  C   UNL     1      76.386   9.639   7.471  1.00  0.00    -0.080 C 
ATOM     14  C   UNL     1      76.700   8.564   8.484  1.00  0.00     0.039 C 
ATOM     15  C   UNL     1      75.168  10.507   7.663  1.00  0.00     0.039 C 
ENDBRANCH  11  12
ENDBRANCH   1  11
TORSDOF 4
ENDMDL
MODEL 3
REMARK VINA RESULT:    -4.452     14.651     17.812
REMARK INTER + INTRA:          -6.904
REMARK INTER:                  -6.151
REMARK INTRA:                  -0.753
REMARK UNBOUND:                -1.411
REMARK SMILES CC(C)=CCC[C@@H](C)c1ccc(C)cc1
REMARK SMILES IDX 6 1 7 2 8 3 9 4 13 5 12 6 11 7 14 8 10 9 15 10 5 11 4 12
REMARK SMILES IDX 2 13 1 14 3 15
REMARK H PARENT
REMARK Flexibility Score: inf
ROOT
ATOM      1  C   UNL     1      73.231  -2.374  18.630  1.00  0.00     0.012 C 
ENDROOT
BRANCH   1   2
ATOM      2  C   UNL     1      72.555  -3.752  18.830  1.00  0.00     0.016 C 
ATOM      3  C   UNL     1      72.998  -4.735  17.738  1.00  0.00     0.013 C 
BRANCH   2   4
ATOM      4  C   UNL     1      72.825  -4.329  20.208  1.00  0.00    -0.045 A 
ATOM      5  C   UNL     1      73.602  -6.049  24.093  1.00  0.00     0.044 C 
ATOM      6  C   UNL     1      73.345  -5.424  22.753  1.00  0.00    -0.051 A 
ATOM      7  C   UNL     1      72.132  -4.769  22.502  1.00  0.00     0.004 A 
ATOM      8  C   UNL     1      74.285  -5.553  21.722  1.00  0.00     0.004 A 
ATOM      9  C   UNL     1      71.875  -4.220  21.242  1.00  0.00     0.004 A 
ATOM     10  C   UNL     1      74.031  -5.004  20.463  1.00  0.00     0.004 A 
ENDBRANCH   2   4
ENDBRANCH   1   2
BRANCH   1  11
ATOM     11  C   UNL     1      72.235  -1.204  18.546  1.00  0.00     0.028 C 
BRANCH  11  12
ATOM     12  C   UNL     1      71.879  -0.658  19.908  1.00  0.00    -0.028 C 
ATOM     13  C   UNL     1      72.435   0.440  20.465  1.00  0.00    -0.080 C 
ATOM     14  C   UNL     1      73.536   1.216  19.782  1.00  0.00     0.039 C 
ATOM     15  C   UNL     1      71.945   0.883  21.820  1.00  0.00     0.039 C 
ENDBRANCH  11  12
ENDBRANCH   1  11
TORSDOF 4
ENDMDL
MODEL 4
REMARK VINA RESULT:    -4.412      1.263      4.371
REMARK INTER + INTRA:          -6.855
REMARK INTER:                  -5.460
REMARK INTRA:                  -1.395
REMARK UNBOUND:                -1.411
REMARK SMILES CC(C)=CCC[C@@H](C)c1ccc(C)cc1
REMARK SMILES IDX 6 1 7 2 8 3 9 4 13 5 12 6 11 7 14 8 10 9 15 10 5 11 4 12
REMARK SMILES IDX 2 13 1 14 3 15
REMARK H PARENT
REMARK Flexibility Score: inf
ROOT
ATOM      1  C   UNL     1      78.413   5.587   7.793  1.00  0.00     0.012 C 
ENDROOT
BRANCH   1   2
ATOM      2  C   UNL     1      78.895   6.913   7.158  1.00  0.00     0.016 C 
ATOM      3  C   UNL     1      79.209   6.717   5.669  1.00  0.00     0.013 C 
BRANCH   2   4
ATOM      4  C   UNL     1      77.891   8.037   7.347  1.00  0.00    -0.045 A 
ATOM      5  C   UNL     1      74.971  11.174   7.882  1.00  0.00     0.044 C 
ATOM      6  C   UNL     1      76.007  10.102   7.712  1.00  0.00    -0.051 A 
ATOM      7  C   UNL     1      76.850  10.106   6.592  1.00  0.00     0.004 A 
ATOM      8  C   UNL     1      76.091   9.050   8.634  1.00  0.00     0.004 A 
ATOM      9  C   UNL     1      77.789   9.086   6.413  1.00  0.00     0.004 A 
ATOM     10  C   UNL     1      77.029   8.029   8.457  1.00  0.00     0.004 A 
ENDBRANCH   2   4
ENDBRANCH   1   2
BRANCH   1  11
ATOM     11  C   UNL     1      77.520   4.746   6.863  1.00  0.00     0.028 C 
BRANCH  11  12
ATOM     12  C   UNL     1      76.170   4.457   7.476  1.00  0.00    -0.028 C 
ATOM     13  C   UNL     1      75.020   5.073   7.125  1.00  0.00    -0.080 C 
ATOM     14  C   UNL     1      74.983   6.180   6.098  1.00  0.00     0.039 C 
ATOM     15  C   UNL     1      73.742   4.647   7.804  1.00  0.00     0.039 C 
ENDBRANCH  11  12
ENDBRANCH   1  11
TORSDOF 4
ENDMDL
MODEL 5
REMARK VINA RESULT:    -4.340      2.259      4.710
REMARK INTER + INTRA:          -6.766
REMARK INTER:                  -6.079
REMARK INTRA:                  -0.687
REMARK UNBOUND:                -1.411
REMARK SMILES CC(C)=CCC[C@@H](C)c1ccc(C)cc1
REMARK SMILES IDX 6 1 7 2 8 3 9 4 13 5 12 6 11 7 14 8 10 9 15 10 5 11 4 12
REMARK SMILES IDX 2 13 1 14 3 15
REMARK H PARENT
REMARK Flexibility Score: inf
ROOT
ATOM      1  C   UNL     1      77.221   9.855   6.203  1.00  0.00     0.012 C 
ENDROOT
BRANCH   1   2
ATOM      2  C   UNL     1      78.622   9.200   6.255  1.00  0.00     0.016 C 
ATOM      3  C   UNL     1      79.360   9.603   7.539  1.00  0.00     0.013 C 
BRANCH   2   4
ATOM      4  C   UNL     1      78.553   7.688   6.133  1.00  0.00    -0.045 A 
ATOM      5  C   UNL     1      78.271   3.393   5.779  1.00  0.00     0.044 C 
ATOM      6  C   UNL     1      78.397   4.884   5.888  1.00  0.00    -0.051 A 
ATOM      7  C   UNL     1      78.969   5.462   7.030  1.00  0.00     0.004 A 
ATOM      8  C   UNL     1      77.881   5.712   4.882  1.00  0.00     0.004 A 
ATOM      9  C   UNL     1      79.052   6.852   7.150  1.00  0.00     0.004 A 
ATOM     10  C   UNL     1      77.965   7.102   5.000  1.00  0.00     0.004 A 
ENDBRANCH   2   4
ENDBRANCH   1   2
BRANCH   1  11
ATOM     11  C   UNL     1      76.390   9.637   7.481  1.00  0.00     0.028 C 
BRANCH  11  12
ATOM     12  C   UNL     1      74.905   9.711   7.216  1.00  0.00    -0.028 C 
ATOM     13  C   UNL     1      74.140  10.804   7.430  1.00  0.00    -0.080 C 
ATOM     14  C   UNL     1      74.703  12.073   8.024  1.00  0.00     0.039 C 
ATOM     15  C   UNL     1      72.675  10.733   7.080  1.00  0.00     0.039 C 
ENDBRANCH  11  12
ENDBRANCH   1  11
TORSDOF 4
ENDMDL
MODEL 6
REMARK VINA RESULT:    -4.330      1.729      4.342
REMARK INTER + INTRA:          -6.754
REMARK INTER:                  -5.987
REMARK INTRA:                  -0.767
REMARK UNBOUND:                -1.411
REMARK SMILES CC(C)=CCC[C@@H](C)c1ccc(C)cc1
REMARK SMILES IDX 6 1 7 2 8 3 9 4 13 5 12 6 11 7 14 8 10 9 15 10 5 11 4 12
REMARK SMILES IDX 2 13 1 14 3 15
REMARK H PARENT
REMARK Flexibility Score: inf
ROOT
ATOM      1  C   UNL     1      76.856   8.536   6.550  1.00  0.00     0.012 C 
ENDROOT
BRANCH   1   2
ATOM      2  C   UNL     1      77.370   7.261   7.259  1.00  0.00     0.016 C 
ATOM      3  C   UNL     1      78.100   7.622   8.559  1.00  0.00     0.013 C 
BRANCH   2   4
ATOM      4  C   UNL     1      76.254   6.268   7.533  1.00  0.00    -0.045 A 
ATOM      5  C   UNL     1      73.021   3.510   8.307  1.00  0.00     0.044 C 
ATOM      6  C   UNL     1      74.161   4.445   8.025  1.00  0.00    -0.051 A 
ATOM      7  C   UNL     1      75.180   4.620   8.970  1.00  0.00     0.004 A 
ATOM      8  C   UNL     1      74.177   5.201   6.845  1.00  0.00     0.004 A 
ATOM      9  C   UNL     1      76.222   5.520   8.725  1.00  0.00     0.004 A 
ATOM     10  C   UNL     1      75.218   6.100   6.598  1.00  0.00     0.004 A 
ENDBRANCH   2   4
ENDBRANCH   1   2
BRANCH   1  11
ATOM     11  C   UNL     1      76.219   9.561   7.506  1.00  0.00     0.028 C 
BRANCH  11  12
ATOM     12  C   UNL     1      74.740   9.734   7.255  1.00  0.00    -0.028 C 
ATOM     13  C   UNL     1      74.058  10.885   7.449  1.00  0.00    -0.080 C 
ATOM     14  C   UNL     1      74.718  12.125   8.005  1.00  0.00     0.039 C 
ATOM     15  C   UNL     1      72.588  10.911   7.117  1.00  0.00     0.039 C 
ENDBRANCH  11  12
ENDBRANCH   1  11
TORSDOF 4
ENDMDL
MODEL 7
REMARK VINA RESULT:    -4.245     13.977     17.065
REMARK INTER + INTRA:          -6.649
REMARK INTER:                  -5.643
REMARK INTRA:                  -1.006
REMARK UNBOUND:                -1.411
REMARK SMILES CC(C)=CCC[C@@H](C)c1ccc(C)cc1
REMARK SMILES IDX 6 1 7 2 8 3 9 4 13 5 12 6 11 7 14 8 10 9 15 10 5 11 4 12
REMARK SMILES IDX 2 13 1 14 3 15
REMARK H PARENT
REMARK Flexibility Score: inf
ROOT
ATOM      1  C   UNL     1      74.467  -3.078  17.959  1.00  0.00     0.012 C 
ENDROOT
BRANCH   1   2
ATOM      2  C   UNL     1      73.112  -3.709  18.358  1.00  0.00     0.016 C 
ATOM      3  C   UNL     1      72.844  -4.978  17.538  1.00  0.00     0.013 C 
BRANCH   2   4
ATOM      4  C   UNL     1      73.036  -4.010  19.845  1.00  0.00    -0.045 A 
ATOM      5  C   UNL     1      72.824  -4.953  24.054  1.00  0.00     0.044 C 
ATOM      6  C   UNL     1      72.912  -4.598  22.599  1.00  0.00    -0.051 A 
ATOM      7  C   UNL     1      71.877  -3.880  21.983  1.00  0.00     0.004 A 
ATOM      8  C   UNL     1      73.995  -5.043  21.829  1.00  0.00     0.004 A 
ATOM      9  C   UNL     1      71.941  -3.583  20.619  1.00  0.00     0.004 A 
ATOM     10  C   UNL     1      74.060  -4.746  20.465  1.00  0.00     0.004 A 
ENDBRANCH   2   4
ENDBRANCH   1   2
BRANCH   1  11
ATOM     11  C   UNL     1      74.336  -1.675  17.337  1.00  0.00     0.028 C 
BRANCH  11  12
ATOM     12  C   UNL     1      74.396  -0.582  18.377  1.00  0.00    -0.028 C 
ATOM     13  C   UNL     1      73.317   0.034  18.908  1.00  0.00    -0.080 C 
ATOM     14  C   UNL     1      71.910  -0.282  18.458  1.00  0.00     0.039 C 
ATOM     15  C   UNL     1      73.539   1.083  19.967  1.00  0.00     0.039 C 
ENDBRANCH  11  12
ENDBRANCH   1  11
TORSDOF 4
ENDMDL
MODEL 8
REMARK VINA RESULT:    -4.227     13.834     17.369
REMARK INTER + INTRA:          -6.626
REMARK INTER:                  -6.141
REMARK INTRA:                  -0.485
REMARK UNBOUND:                -1.411
REMARK SMILES CC(C)=CCC[C@@H](C)c1ccc(C)cc1
REMARK SMILES IDX 6 1 7 2 8 3 9 4 13 5 12 6 11 7 14 8 10 9 15 10 5 11 4 12
REMARK SMILES IDX 2 13 1 14 3 15
REMARK H PARENT
REMARK Flexibility Score: inf
ROOT
ATOM      1  C   UNL     1      72.265  -3.550  20.288  1.00  0.00     0.012 C 
ENDROOT
BRANCH   1   2
ATOM      2  C   UNL     1      71.882  -2.120  19.837  1.00  0.00     0.016 C 
ATOM      3  C   UNL     1      71.892  -1.155  21.030  1.00  0.00     0.013 C 
BRANCH   2   4
ATOM      4  C   UNL     1      72.786  -1.608  18.730  1.00  0.00    -0.045 A 
ATOM      5  C   UNL     1      75.427  -0.170  15.629  1.00  0.00     0.044 C 
ATOM      6  C   UNL     1      74.489  -0.677  16.684  1.00  0.00    -0.051 A 
ATOM      7  C   UNL     1      73.555   0.187  17.273  1.00  0.00     0.004 A 
ATOM      8  C   UNL     1      74.586  -1.999  17.138  1.00  0.00     0.004 A 
ATOM      9  C   UNL     1      72.706  -0.275  18.283  1.00  0.00     0.004 A 
ATOM     10  C   UNL     1      73.737  -2.463  18.147  1.00  0.00     0.004 A 
ENDBRANCH   2   4
ENDBRANCH   1   2
BRANCH   1  11
ATOM     11  C   UNL     1      71.899  -3.854  21.752  1.00  0.00     0.028 C 
BRANCH  11  12
ATOM     12  C   UNL     1      72.529  -5.135  22.244  1.00  0.00    -0.028 C 
ATOM     13  C   UNL     1      72.708  -5.453  23.546  1.00  0.00    -0.080 C 
ATOM     14  C   UNL     1      72.335  -4.505  24.661  1.00  0.00     0.039 C 
ATOM     15  C   UNL     1      73.318  -6.790  23.879  1.00  0.00     0.039 C 
ENDBRANCH  11  12
ENDBRANCH   1  11
TORSDOF 4
ENDMDL
MODEL 9
REMARK VINA RESULT:    -4.102     12.789     15.672
REMARK INTER + INTRA:          -6.472
REMARK INTER:                  -4.954
REMARK INTRA:                  -1.518
REMARK UNBOUND:                -1.411
REMARK SMILES CC(C)=CCC[C@@H](C)c1ccc(C)cc1
REMARK SMILES IDX 6 1 7 2 8 3 9 4 13 5 12 6 11 7 14 8 10 9 15 10 5 11 4 12
REMARK SMILES IDX 2 13 1 14 3 15
REMARK H PARENT
REMARK Flexibility Score: inf
ROOT
ATOM      1  C   UNL     1      74.384  -0.251  16.961  1.00  0.00     0.012 C 
ENDROOT
BRANCH   1   2
ATOM      2  C   UNL     1      74.515  -1.767  16.681  1.00  0.00     0.016 C 
ATOM      3  C   UNL     1      75.844  -2.074  15.977  1.00  0.00     0.013 C 
BRANCH   2   4
ATOM      4  C   UNL     1      74.378  -2.598  17.945  1.00  0.00    -0.045 A 
ATOM      5  C   UNL     1      73.906  -4.932  21.548  1.00  0.00     0.044 C 
ATOM      6  C   UNL     1      74.091  -4.142  20.286  1.00  0.00    -0.051 A 
ATOM      7  C   UNL     1      75.076  -3.147  20.213  1.00  0.00     0.004 A 
ATOM      8  C   UNL     1      73.234  -4.345  19.195  1.00  0.00     0.004 A 
ATOM      9  C   UNL     1      75.223  -2.385  19.051  1.00  0.00     0.004 A 
ATOM     10  C   UNL     1      73.381  -3.584  18.032  1.00  0.00     0.004 A 
ENDBRANCH   2   4
ENDBRANCH   1   2
BRANCH   1  11
ATOM     11  C   UNL     1      73.071   0.135  17.666  1.00  0.00     0.028 C 
BRANCH  11  12
ATOM     12  C   UNL     1      73.313   0.768  19.016  1.00  0.00    -0.028 C 
ATOM     13  C   UNL     1      72.823   0.297  20.184  1.00  0.00    -0.080 C 
ATOM     14  C   UNL     1      71.915  -0.908  20.245  1.00  0.00     0.039 C 
ATOM     15  C   UNL     1      73.184   1.020  21.456  1.00  0.00     0.039 C 
ENDBRANCH  11  12
ENDBRANCH   1  11
TORSDOF 4
ENDMDL
