MODEL 1
REMARK VINA RESULT:    -4.982      0.000      0.000
REMARK INTER + INTRA:          -5.419
REMARK INTER:                  -5.419
REMARK INTRA:                   0.000
REMARK UNBOUND:                 0.000
REMARK SMILES Oc1cccc(O)c1O
REMARK SMILES IDX 4 1 5 2 6 3 8 4 2 5 3 6 7 7 1 9 9 11
REMARK H PARENT 7 8 1 10 9 12
REMARK Flexibility Score: inf
ROOT
ATOM      1  C   UNL     1       1.521   0.950   0.110  1.00  0.00     0.008 A 
ATOM      2  C   UNL     1       0.266   0.343   0.033  1.00  0.00     0.050 A 
ATOM      3  C   UNL     1      -0.111  -0.373  -1.110  1.00  0.00     0.161 A 
ATOM      4  C   UNL     1       0.793  -0.481  -2.196  1.00  0.00     0.200 A 
ATOM      5  C   UNL     1       2.057   0.136  -2.107  1.00  0.00     0.161 A 
ATOM      6  C   UNL     1       2.413   0.846  -0.957  1.00  0.00     0.050 A 
ENDROOT
BRANCH   3   7
ATOM      7  O   UNL     1      -1.380  -0.956  -1.121  1.00  0.00    -0.504 OA
ATOM      8  H   UNL     1      -1.621  -1.795  -0.615  1.00  0.00     0.293 HD
ENDBRANCH   3   7
BRANCH   5   9
ATOM      9  O   UNL     1       2.975   0.053  -3.155  1.00  0.00    -0.504 OA
ATOM     10  H   UNL     1       3.618  -0.724  -3.250  1.00  0.00     0.293 HD
ENDBRANCH   5   9
BRANCH   4  11
ATOM     11  O   UNL     1       0.476  -1.182  -3.363  1.00  0.00    -0.502 OA
ATOM     12  H   UNL     1      -0.114  -2.001  -3.389  1.00  0.00     0.293 HD
ENDBRANCH   4  11
TORSDOF 3
ENDMDL
MODEL 2
REMARK VINA RESULT:    -4.855      0.194      2.832
REMARK INTER + INTRA:          -5.281
REMARK INTER:                  -5.281
REMARK INTRA:                   0.000
REMARK UNBOUND:                 0.000
REMARK SMILES Oc1cccc(O)c1O
REMARK SMILES IDX 4 1 5 2 6 3 8 4 2 5 3 6 7 7 1 9 9 11
REMARK H PARENT 7 8 1 10 9 12
REMARK Flexibility Score: inf
ROOT
ATOM      1  C   UNL     1       1.729   0.887  -0.006  1.00  0.00     0.008 A 
ATOM      2  C   UNL     1       2.583   0.791  -1.106  1.00  0.00     0.050 A 
ATOM      3  C   UNL     1       2.181   0.116  -2.265  1.00  0.00     0.161 A 
ATOM      4  C   UNL     1       0.894  -0.475  -2.318  1.00  0.00     0.200 A 
ATOM      5  C   UNL     1       0.039  -0.372  -1.201  1.00  0.00     0.161 A 
ATOM      6  C   UNL     1       0.461   0.307  -0.055  1.00  0.00     0.050 A 
ENDROOT
BRANCH   3   7
ATOM      7  O   UNL     1       3.085   0.058  -3.328  1.00  0.00    -0.504 OA
ATOM      8  H   UNL     1       3.133   0.743  -4.067  1.00  0.00     0.293 HD
ENDBRANCH   3   7
BRANCH   5   9
ATOM      9  O   UNL     1      -1.235  -0.940  -1.214  1.00  0.00    -0.504 OA
ATOM     10  H   UNL     1      -1.697  -1.214  -2.073  1.00  0.00     0.293 HD
ENDBRANCH   5   9
BRANCH   4  11
ATOM     11  O   UNL     1       0.435  -1.162  -3.445  1.00  0.00    -0.502 OA
ATOM     12  H   UNL     1      -0.015  -0.720  -4.233  1.00  0.00     0.293 HD
ENDBRANCH   4  11
TORSDOF 3
ENDMDL
MODEL 3
REMARK VINA RESULT:    -4.684      1.119      2.840
REMARK INTER + INTRA:          -5.095
REMARK INTER:                  -5.095
REMARK INTRA:                   0.000
REMARK UNBOUND:                 0.000
REMARK SMILES Oc1cccc(O)c1O
REMARK SMILES IDX 4 1 5 2 6 3 8 4 2 5 3 6 7 7 1 9 9 11
REMARK H PARENT 7 8 1 10 9 12
REMARK Flexibility Score: inf
ROOT
ATOM      1  C   UNL     1       2.264   0.373  -0.355  1.00  0.00     0.008 A 
ATOM      2  C   UNL     1       2.328   0.321  -1.748  1.00  0.00     0.050 A 
ATOM      3  C   UNL     1       1.275  -0.225  -2.491  1.00  0.00     0.161 A 
ATOM      4  C   UNL     1       0.134  -0.730  -1.818  1.00  0.00     0.200 A 
ATOM      5  C   UNL     1       0.080  -0.673  -0.410  1.00  0.00     0.161 A 
ATOM      6  C   UNL     1       1.144  -0.123   0.311  1.00  0.00     0.050 A 
ENDROOT
BRANCH   3   7
ATOM      7  O   UNL     1       1.403  -0.245  -3.882  1.00  0.00    -0.504 OA
ATOM      8  H   UNL     1       1.849  -0.988  -4.398  1.00  0.00     0.293 HD
ENDBRANCH   3   7
BRANCH   5   9
ATOM      9  O   UNL     1      -1.025  -1.159   0.289  1.00  0.00    -0.504 OA
ATOM     10  H   UNL     1      -0.931  -1.717   1.129  1.00  0.00     0.293 HD
ENDBRANCH   5   9
BRANCH   4  11
ATOM     11  O   UNL     1      -0.950  -1.287  -2.503  1.00  0.00    -0.502 OA
ATOM     12  H   UNL     1      -1.786  -0.779  -2.748  1.00  0.00     0.293 HD
ENDBRANCH   4  11
TORSDOF 3
ENDMDL
MODEL 4
REMARK VINA RESULT:    -4.668      1.151      1.252
REMARK INTER + INTRA:          -5.077
REMARK INTER:                  -5.077
REMARK INTRA:                   0.000
REMARK UNBOUND:                 0.000
REMARK SMILES Oc1cccc(O)c1O
REMARK SMILES IDX 4 1 5 2 6 3 8 4 2 5 3 6 7 7 1 9 9 11
REMARK H PARENT 7 8 1 10 9 12
REMARK Flexibility Score: inf
ROOT
ATOM      1  C   UNL     1       2.248   0.486  -0.400  1.00  0.00     0.008 A 
ATOM      2  C   UNL     1       1.192  -0.100   0.300  1.00  0.00     0.050 A 
ATOM      3  C   UNL     1       0.123  -0.691  -0.385  1.00  0.00     0.161 A 
ATOM      4  C   UNL     1       0.117  -0.692  -1.803  1.00  0.00     0.200 A 
ATOM      5  C   UNL     1       1.189  -0.096  -2.499  1.00  0.00     0.161 A 
ATOM      6  C   UNL     1       2.245   0.488  -1.794  1.00  0.00     0.050 A 
ENDROOT
BRANCH   3   7
ATOM      7  O   UNL     1      -0.900  -1.260   0.376  1.00  0.00    -0.504 OA
ATOM      8  H   UNL     1      -1.244  -0.872   1.241  1.00  0.00     0.293 HD
ENDBRANCH   3   7
BRANCH   5   9
ATOM      9  O   UNL     1       1.220  -0.077  -3.894  1.00  0.00    -0.504 OA
ATOM     10  H   UNL     1       2.084  -0.151  -4.416  1.00  0.00     0.293 HD
ENDBRANCH   5   9
BRANCH   4  11
ATOM     11  O   UNL     1      -0.920  -1.265  -2.543  1.00  0.00    -0.502 OA
ATOM     12  H   UNL     1      -1.829  -1.487  -2.167  1.00  0.00     0.293 HD
ENDBRANCH   4  11
TORSDOF 3
ENDMDL
MODEL 5
REMARK VINA RESULT:    -4.455      1.979      3.249
REMARK INTER + INTRA:          -4.845
REMARK INTER:                  -4.845
REMARK INTRA:                   0.000
REMARK UNBOUND:                 0.000
REMARK SMILES Oc1cccc(O)c1O
REMARK SMILES IDX 4 1 5 2 6 3 8 4 2 5 3 6 7 7 1 9 9 11
REMARK H PARENT 7 8 1 10 9 12
REMARK Flexibility Score: inf
ROOT
ATOM      1  C   UNL     1       2.251   0.773  -1.012  1.00  0.00     0.008 A 
ATOM      2  C   UNL     1       2.212  -0.569  -1.394  1.00  0.00     0.050 A 
ATOM      3  C   UNL     1       1.332  -1.463  -0.771  1.00  0.00     0.161 A 
ATOM      4  C   UNL     1       0.474  -0.996   0.257  1.00  0.00     0.200 A 
ATOM      5  C   UNL     1       0.523   0.361   0.634  1.00  0.00     0.161 A 
ATOM      6  C   UNL     1       1.409   1.235  -0.001  1.00  0.00     0.050 A 
ENDROOT
BRANCH   3   7
ATOM      7  O   UNL     1       1.343  -2.791  -1.202  1.00  0.00    -0.504 OA
ATOM      8  H   UNL     1       2.180  -3.300  -1.443  1.00  0.00     0.293 HD
ENDBRANCH   3   7
BRANCH   5   9
ATOM      9  O   UNL     1      -0.305   0.859   1.641  1.00  0.00    -0.504 OA
ATOM     10  H   UNL     1      -1.271   1.112   1.472  1.00  0.00     0.293 HD
ENDBRANCH   5   9
BRANCH   4  11
ATOM     11  O   UNL     1      -0.426  -1.838   0.916  1.00  0.00    -0.502 OA
ATOM     12  H   UNL     1      -1.415  -1.875   0.720  1.00  0.00     0.293 HD
ENDBRANCH   4  11
TORSDOF 3
ENDMDL
MODEL 6
REMARK VINA RESULT:    -4.407      1.952      2.735
REMARK INTER + INTRA:          -4.794
REMARK INTER:                  -4.794
REMARK INTRA:                   0.000
REMARK UNBOUND:                 0.000
REMARK SMILES Oc1cccc(O)c1O
REMARK SMILES IDX 4 1 5 2 6 3 8 4 2 5 3 6 7 7 1 9 9 11
REMARK H PARENT 7 8 1 10 9 12
REMARK Flexibility Score: inf
ROOT
ATOM      1  C   UNL     1       2.204   0.923  -0.911  1.00  0.00     0.008 A 
ATOM      2  C   UNL     1       1.357   1.355   0.110  1.00  0.00     0.050 A 
ATOM      3  C   UNL     1       0.471   0.464   0.728  1.00  0.00     0.161 A 
ATOM      4  C   UNL     1       0.438  -0.890   0.309  1.00  0.00     0.200 A 
ATOM      5  C   UNL     1       1.297  -1.315  -0.724  1.00  0.00     0.161 A 
ATOM      6  C   UNL     1       2.173  -0.408  -1.326  1.00  0.00     0.050 A 
ENDROOT
BRANCH   3   7
ATOM      7  O   UNL     1      -0.347   0.962   1.744  1.00  0.00    -0.504 OA
ATOM      8  H   UNL     1      -0.963   0.392   2.305  1.00  0.00     0.293 HD
ENDBRANCH   3   7
BRANCH   5   9
ATOM      9  O   UNL     1       1.295  -2.639  -1.165  1.00  0.00    -0.504 OA
ATOM     10  H   UNL     1       0.451  -3.103  -1.479  1.00  0.00     0.293 HD
ENDBRANCH   5   9
BRANCH   4  11
ATOM     11  O   UNL     1      -0.423  -1.828   0.886  1.00  0.00    -0.502 OA
ATOM     12  H   UNL     1      -0.123  -2.710   1.272  1.00  0.00     0.293 HD
ENDBRANCH   4  11
TORSDOF 3
ENDMDL
MODEL 7
REMARK VINA RESULT:    -4.301      1.706      2.784
REMARK INTER + INTRA:          -4.678
REMARK INTER:                  -4.678
REMARK INTRA:                   0.000
REMARK UNBOUND:                 0.000
REMARK SMILES Oc1cccc(O)c1O
REMARK SMILES IDX 4 1 5 2 6 3 8 4 2 5 3 6 7 7 1 9 9 11
REMARK H PARENT 7 8 1 10 9 12
REMARK Flexibility Score: inf
ROOT
ATOM      1  C   UNL     1      -0.674  -0.410   0.528  1.00  0.00     0.008 A 
ATOM      2  C   UNL     1       0.127   0.688   0.848  1.00  0.00     0.050 A 
ATOM      3  C   UNL     1       1.183   1.069   0.012  1.00  0.00     0.161 A 
ATOM      4  C   UNL     1       1.439   0.330  -1.171  1.00  0.00     0.200 A 
ATOM      5  C   UNL     1       0.624  -0.777  -1.484  1.00  0.00     0.161 A 
ATOM      6  C   UNL     1      -0.425  -1.139  -0.634  1.00  0.00     0.050 A 
ENDROOT
BRANCH   3   7
ATOM      7  O   UNL     1       1.943   2.177   0.391  1.00  0.00    -0.504 OA
ATOM      8  H   UNL     1       2.863   2.118   0.802  1.00  0.00     0.293 HD
ENDBRANCH   3   7
BRANCH   5   9
ATOM      9  O   UNL     1       0.843  -1.530  -2.638  1.00  0.00    -0.504 OA
ATOM     10  H   UNL     1       0.179  -2.218  -2.969  1.00  0.00     0.293 HD
ENDBRANCH   5   9
BRANCH   4  11
ATOM     11  O   UNL     1       2.477   0.661  -2.046  1.00  0.00    -0.502 OA
ATOM     12  H   UNL     1       3.420   0.868  -1.753  1.00  0.00     0.293 HD
ENDBRANCH   4  11
TORSDOF 3
ENDMDL
MODEL 8
REMARK VINA RESULT:    -4.210      9.075      9.555
REMARK INTER + INTRA:          -4.579
REMARK INTER:                  -4.579
REMARK INTRA:                   0.000
REMARK UNBOUND:                 0.000
REMARK SMILES Oc1cccc(O)c1O
REMARK SMILES IDX 4 1 5 2 6 3 8 4 2 5 3 6 7 7 1 9 9 11
REMARK H PARENT 7 8 1 10 9 12
REMARK Flexibility Score: inf
ROOT
ATOM      1  C   UNL     1      -3.579  10.005   0.253  1.00  0.00     0.008 A 
ATOM      2  C   UNL     1      -4.291   9.635  -0.889  1.00  0.00     0.050 A 
ATOM      3  C   UNL     1      -3.955   8.473  -1.594  1.00  0.00     0.161 A 
ATOM      4  C   UNL     1      -2.879   7.668  -1.142  1.00  0.00     0.200 A 
ATOM      5  C   UNL     1      -2.166   8.052   0.011  1.00  0.00     0.161 A 
ATOM      6  C   UNL     1      -2.520   9.215   0.701  1.00  0.00     0.050 A 
ENDROOT
BRANCH   3   7
ATOM      7  O   UNL     1      -4.710   8.161  -2.727  1.00  0.00    -0.504 OA
ATOM      8  H   UNL     1      -4.885   8.804  -3.485  1.00  0.00     0.293 HD
ENDBRANCH   3   7
BRANCH   5   9
ATOM      9  O   UNL     1      -1.101   7.286   0.489  1.00  0.00    -0.504 OA
ATOM     10  H   UNL     1      -0.733   6.494  -0.023  1.00  0.00     0.293 HD
ENDBRANCH   5   9
BRANCH   4  11
ATOM     11  O   UNL     1      -2.496   6.498  -1.803  1.00  0.00    -0.502 OA
ATOM     12  H   UNL     1      -1.538   6.210  -1.935  1.00  0.00     0.293 HD
ENDBRANCH   4  11
TORSDOF 3
ENDMDL
MODEL 9
REMARK VINA RESULT:    -4.172      9.285      9.927
REMARK INTER + INTRA:          -4.538
REMARK INTER:                  -4.538
REMARK INTRA:                   0.000
REMARK UNBOUND:                 0.000
REMARK SMILES Oc1cccc(O)c1O
REMARK SMILES IDX 4 1 5 2 6 3 8 4 2 5 3 6 7 7 1 9 9 11
REMARK H PARENT 7 8 1 10 9 12
REMARK Flexibility Score: inf
ROOT
ATOM      1  C   UNL     1      -3.884  10.125   0.364  1.00  0.00     0.008 A 
ATOM      2  C   UNL     1      -2.748   9.454   0.819  1.00  0.00     0.050 A 
ATOM      3  C   UNL     1      -2.264   8.329   0.141  1.00  0.00     0.161 A 
ATOM      4  C   UNL     1      -2.938   7.869  -1.018  1.00  0.00     0.200 A 
ATOM      5  C   UNL     1      -4.085   8.553  -1.468  1.00  0.00     0.161 A 
ATOM      6  C   UNL     1      -4.550   9.675  -0.776  1.00  0.00     0.050 A 
ENDROOT
BRANCH   3   7
ATOM      7  O   UNL     1      -1.122   7.706   0.649  1.00  0.00    -0.504 OA
ATOM      8  H   UNL     1      -0.967   6.709   0.633  1.00  0.00     0.293 HD
ENDBRANCH   3   7
BRANCH   5   9
ATOM      9  O   UNL     1      -4.777   8.132  -2.604  1.00  0.00    -0.504 OA
ATOM     10  H   UNL     1      -5.448   8.723  -3.080  1.00  0.00     0.293 HD
ENDBRANCH   5   9
BRANCH   4  11
ATOM     11  O   UNL     1      -2.505   6.752  -1.738  1.00  0.00    -0.502 OA
ATOM     12  H   UNL     1      -2.530   6.682  -2.744  1.00  0.00     0.293 HD
ENDBRANCH   4  11
TORSDOF 3
ENDMDL
