MODEL 1
REMARK VINA RESULT:    -5.069      0.000      0.000
REMARK INTER + INTRA:         -11.121
REMARK INTER:                  -9.217
REMARK INTRA:                  -1.904
REMARK UNBOUND:                -1.904
REMARK SMILES CCCCCC=CCC=CCCCCCCCC(=O)[O-]
REMARK SMILES IDX 11 1 12 2 13 3 14 4 15 5 16 6 17 7 18 8 19 9 20 10 10 11
REMARK SMILES IDX 9 12 8 13 7 14 6 15 5 16 4 17 3 18 2 19 1 20
REMARK H PARENT
REMARK Flexibility Score: inf
ROOT
ATOM      1  C   UNL     1      -7.706  67.636  31.106  1.00  0.00     0.027 C 
ENDROOT
BRANCH   1   2
ATOM      2  C   UNL     1      -7.985  67.231  29.652  1.00  0.00     0.004 C 
BRANCH   2   3
ATOM      3  C   UNL     1      -8.603  65.830  29.546  1.00  0.00     0.000 C 
BRANCH   3   4
ATOM      4  C   UNL     1      -9.901  65.862  28.730  1.00  0.00     0.000 C 
BRANCH   4   5
ATOM      5  C   UNL     1     -10.992  66.651  29.464  1.00  0.00     0.000 C 
BRANCH   5   6
ATOM      6  C   UNL     1     -11.981  65.705  30.160  1.00  0.00     0.006 C 
BRANCH   6   7
ATOM      7  C   UNL     1     -12.083  65.977  31.667  1.00  0.00     0.053 C 
BRANCH   7   8
ATOM      8  C   UNL     1     -13.095  65.088  32.324  1.00  0.00     0.041 C 
ATOM      9  O   UNL     1     -14.191  64.845  31.754  1.00  0.00    -0.550 OA
ATOM     10  O   UNL     1     -12.813  64.504  33.551  1.00  0.00    -0.550 OA
ENDBRANCH   7   8
ENDBRANCH   6   7
ENDBRANCH   5   6
ENDBRANCH   4   5
ENDBRANCH   3   4
ENDBRANCH   2   3
ENDBRANCH   1   2
BRANCH   1  11
ATOM     11  C   UNL     1      -7.759  66.449  32.038  1.00  0.00    -0.031 C 
ATOM     12  C   UNL     1      -7.105  66.341  33.210  1.00  0.00    -0.027 C 
BRANCH  12  13
ATOM     13  C   UNL     1      -6.152  67.363  33.779  1.00  0.00     0.054 C 
BRANCH  13  14
ATOM     14  C   UNL     1      -4.762  67.150  33.250  1.00  0.00    -0.027 C 
ATOM     15  C   UNL     1      -4.182  68.026  32.416  1.00  0.00    -0.031 C 
BRANCH  15  16
ATOM     16  C   UNL     1      -2.774  67.833  31.921  1.00  0.00     0.027 C 
BRANCH  16  17
ATOM     17  C   UNL     1      -2.714  67.053  30.593  1.00  0.00     0.004 C 
BRANCH  17  18
ATOM     18  C   UNL     1      -3.864  67.381  29.618  1.00  0.00     0.000 C 
BRANCH  18  19
ATOM     19  C   UNL     1      -4.588  66.162  29.021  1.00  0.00    -0.003 C 
ATOM     20  C   UNL     1      -3.880  64.839  29.313  1.00  0.00     0.004 C 
ENDBRANCH  18  19
ENDBRANCH  17  18
ENDBRANCH  16  17
ENDBRANCH  15  16
ENDBRANCH  13  14
ENDBRANCH  12  13
ENDBRANCH   1  11
TORSDOF 14
ENDMDL
MODEL 2
REMARK VINA RESULT:    -5.003      1.242      2.697
REMARK INTER + INTRA:         -11.001
REMARK INTER:                  -8.548
REMARK INTRA:                  -2.453
REMARK UNBOUND:                -1.904
REMARK SMILES CCCCCC=CCC=CCCCCCCCC(=O)[O-]
REMARK SMILES IDX 11 1 12 2 13 3 14 4 15 5 16 6 17 7 18 8 19 9 20 10 10 11
REMARK SMILES IDX 9 12 8 13 7 14 6 15 5 16 4 17 3 18 2 19 1 20
REMARK H PARENT
REMARK Flexibility Score: inf
ROOT
ATOM      1  C   UNL     1      -8.503  68.692  30.468  1.00  0.00     0.027 C 
ENDROOT
BRANCH   1   2
ATOM      2  C   UNL     1      -9.903  69.210  30.116  1.00  0.00     0.004 C 
BRANCH   2   3
ATOM      3  C   UNL     1     -10.315  68.852  28.681  1.00  0.00     0.000 C 
BRANCH   3   4
ATOM      4  C   UNL     1     -10.902  67.437  28.614  1.00  0.00     0.000 C 
BRANCH   4   5
ATOM      5  C   UNL     1     -12.120  67.304  29.536  1.00  0.00     0.000 C 
BRANCH   5   6
ATOM      6  C   UNL     1     -12.216  65.887  30.120  1.00  0.00     0.006 C 
BRANCH   6   7
ATOM      7  C   UNL     1     -12.108  65.880  31.650  1.00  0.00     0.053 C 
BRANCH   7   8
ATOM      8  C   UNL     1     -13.172  65.031  32.278  1.00  0.00     0.041 C 
ATOM      9  O   UNL     1     -14.110  64.568  31.577  1.00  0.00    -0.550 OA
ATOM     10  O   UNL     1     -13.109  64.726  33.631  1.00  0.00    -0.550 OA
ENDBRANCH   7   8
ENDBRANCH   6   7
ENDBRANCH   5   6
ENDBRANCH   4   5
ENDBRANCH   3   4
ENDBRANCH   2   3
ENDBRANCH   1   2
BRANCH   1  11
ATOM     11  C   UNL     1      -8.554  67.618  31.528  1.00  0.00    -0.031 C 
ATOM     12  C   UNL     1      -8.348  66.302  31.324  1.00  0.00    -0.027 C 
BRANCH  12  13
ATOM     13  C   UNL     1      -8.089  65.653  29.988  1.00  0.00     0.054 C 
BRANCH  13  14
ATOM     14  C   UNL     1      -6.614  65.503  29.744  1.00  0.00    -0.027 C 
ATOM     15  C   UNL     1      -5.917  66.413  29.049  1.00  0.00    -0.031 C 
BRANCH  15  16
ATOM     16  C   UNL     1      -4.432  66.283  28.842  1.00  0.00     0.027 C 
BRANCH  16  17
ATOM     17  C   UNL     1      -3.630  66.526  30.134  1.00  0.00     0.004 C 
BRANCH  17  18
ATOM     18  C   UNL     1      -4.049  67.794  30.906  1.00  0.00     0.000 C 
BRANCH  18  19
ATOM     19  C   UNL     1      -3.934  67.700  32.438  1.00  0.00    -0.003 C 
ATOM     20  C   UNL     1      -5.167  67.081  33.096  1.00  0.00     0.004 C 
ENDBRANCH  18  19
ENDBRANCH  17  18
ENDBRANCH  16  17
ENDBRANCH  15  16
ENDBRANCH  13  14
ENDBRANCH  12  13
ENDBRANCH   1  11
TORSDOF 14
ENDMDL
MODEL 3
REMARK VINA RESULT:    -4.988      4.624      6.283
REMARK INTER + INTRA:         -10.975
REMARK INTER:                  -7.969
REMARK INTRA:                  -3.006
REMARK UNBOUND:                -1.904
REMARK SMILES CCCCCC=CCC=CCCCCCCCC(=O)[O-]
REMARK SMILES IDX 11 1 12 2 13 3 14 4 15 5 16 6 17 7 18 8 19 9 20 10 10 11
REMARK SMILES IDX 9 12 8 13 7 14 6 15 5 16 4 17 3 18 2 19 1 20
REMARK H PARENT
REMARK Flexibility Score: inf
ROOT
ATOM      1  C   UNL     1      -7.237  66.037  33.320  1.00  0.00     0.027 C 
ENDROOT
BRANCH   1   2
ATOM      2  C   UNL     1      -8.155  66.440  32.158  1.00  0.00     0.004 C 
BRANCH   2   3
ATOM      3  C   UNL     1      -7.694  65.849  30.819  1.00  0.00     0.000 C 
BRANCH   3   4
ATOM      4  C   UNL     1      -6.202  65.497  30.858  1.00  0.00     0.000 C 
BRANCH   4   5
ATOM      5  C   UNL     1      -5.560  65.673  29.477  1.00  0.00     0.000 C 
BRANCH   5   6
ATOM      6  C   UNL     1      -4.176  65.010  29.425  1.00  0.00     0.006 C 
BRANCH   6   7
ATOM      7  C   UNL     1      -3.037  66.031  29.551  1.00  0.00     0.053 C 
BRANCH   7   8
ATOM      8  C   UNL     1      -2.003  65.843  28.482  1.00  0.00     0.041 C 
ATOM      9  O   UNL     1      -1.006  65.103  28.688  1.00  0.00    -0.550 OA
ATOM     10  O   UNL     1      -2.159  66.461  27.249  1.00  0.00    -0.550 OA
ENDBRANCH   7   8
ENDBRANCH   6   7
ENDBRANCH   5   6
ENDBRANCH   4   5
ENDBRANCH   3   4
ENDBRANCH   2   3
ENDBRANCH   1   2
BRANCH   1  11
ATOM     11  C   UNL     1      -6.952  67.202  34.237  1.00  0.00    -0.031 C 
ATOM     12  C   UNL     1      -5.730  67.677  34.547  1.00  0.00    -0.027 C 
BRANCH  12  13
ATOM     13  C   UNL     1      -4.419  67.093  34.082  1.00  0.00     0.054 C 
BRANCH  13  14
ATOM     14  C   UNL     1      -4.015  67.674  32.757  1.00  0.00    -0.027 C 
ATOM     15  C   UNL     1      -4.667  68.712  32.212  1.00  0.00    -0.031 C 
BRANCH  15  16
ATOM     16  C   UNL     1      -4.234  69.320  30.905  1.00  0.00     0.027 C 
BRANCH  16  17
ATOM     17  C   UNL     1      -5.346  69.288  29.839  1.00  0.00     0.004 C 
BRANCH  17  18
ATOM     18  C   UNL     1      -6.770  69.443  30.412  1.00  0.00     0.000 C 
BRANCH  18  19
ATOM     19  C   UNL     1      -7.911  69.278  29.392  1.00  0.00    -0.003 C 
ATOM     20  C   UNL     1      -7.486  68.525  28.132  1.00  0.00     0.004 C 
ENDBRANCH  18  19
ENDBRANCH  17  18
ENDBRANCH  16  17
ENDBRANCH  15  16
ENDBRANCH  13  14
ENDBRANCH  12  13
ENDBRANCH   1  11
TORSDOF 14
ENDMDL
MODEL 4
REMARK VINA RESULT:    -4.984      3.259      6.496
REMARK INTER + INTRA:         -10.966
REMARK INTER:                  -8.158
REMARK INTRA:                  -2.808
REMARK UNBOUND:                -1.904
REMARK SMILES CCCCCC=CCC=CCCCCCCCC(=O)[O-]
REMARK SMILES IDX 11 1 12 2 13 3 14 4 15 5 16 6 17 7 18 8 19 9 20 10 10 11
REMARK SMILES IDX 9 12 8 13 7 14 6 15 5 16 4 17 3 18 2 19 1 20
REMARK H PARENT
REMARK Flexibility Score: inf
ROOT
ATOM      1  C   UNL     1      -7.969  68.872  28.119  1.00  0.00     0.027 C 
ENDROOT
BRANCH   1   2
ATOM      2  C   UNL     1      -8.268  67.371  28.220  1.00  0.00     0.004 C 
BRANCH   2   3
ATOM      3  C   UNL     1      -7.218  66.622  29.053  1.00  0.00     0.000 C 
BRANCH   3   4
ATOM      4  C   UNL     1      -7.883  65.617  30.001  1.00  0.00     0.000 C 
BRANCH   4   5
ATOM      5  C   UNL     1      -6.999  65.347  31.224  1.00  0.00     0.000 C 
BRANCH   5   6
ATOM      6  C   UNL     1      -7.250  66.388  32.325  1.00  0.00     0.006 C 
BRANCH   6   7
ATOM      7  C   UNL     1      -6.020  67.268  32.584  1.00  0.00     0.053 C 
BRANCH   7   8
ATOM      8  C   UNL     1      -5.639  67.275  34.034  1.00  0.00     0.041 C 
ATOM      9  O   UNL     1      -4.482  66.928  34.387  1.00  0.00    -0.550 OA
ATOM     10  O   UNL     1      -6.554  67.697  34.990  1.00  0.00    -0.550 OA
ENDBRANCH   7   8
ENDBRANCH   6   7
ENDBRANCH   5   6
ENDBRANCH   4   5
ENDBRANCH   3   4
ENDBRANCH   2   3
ENDBRANCH   1   2
BRANCH   1  11
ATOM     11  C   UNL     1      -7.186  69.369  29.311  1.00  0.00    -0.031 C 
ATOM     12  C   UNL     1      -7.713  69.871  30.444  1.00  0.00    -0.027 C 
BRANCH  12  13
ATOM     13  C   UNL     1      -9.183  70.087  30.706  1.00  0.00     0.054 C 
BRANCH  13  14
ATOM     14  C   UNL     1      -9.794  68.877  31.353  1.00  0.00    -0.027 C 
ATOM     15  C   UNL     1     -10.676  68.100  30.708  1.00  0.00    -0.031 C 
BRANCH  15  16
ATOM     16  C   UNL     1     -11.255  66.864  31.343  1.00  0.00     0.027 C 
BRANCH  16  17
ATOM     17  C   UNL     1     -12.282  66.158  30.438  1.00  0.00     0.004 C 
BRANCH  17  18
ATOM     18  C   UNL     1     -11.864  66.077  28.955  1.00  0.00     0.000 C 
BRANCH  18  19
ATOM     19  C   UNL     1     -12.667  66.970  27.994  1.00  0.00    -0.003 C 
ATOM     20  C   UNL     1     -11.784  67.861  27.122  1.00  0.00     0.004 C 
ENDBRANCH  18  19
ENDBRANCH  17  18
ENDBRANCH  16  17
ENDBRANCH  15  16
ENDBRANCH  13  14
ENDBRANCH  12  13
ENDBRANCH   1  11
TORSDOF 14
ENDMDL
MODEL 5
REMARK VINA RESULT:    -4.983      2.966      5.660
REMARK INTER + INTRA:         -10.965
REMARK INTER:                  -8.257
REMARK INTRA:                  -2.708
REMARK UNBOUND:                -1.904
REMARK SMILES CCCCCC=CCC=CCCCCCCCC(=O)[O-]
REMARK SMILES IDX 11 1 12 2 13 3 14 4 15 5 16 6 17 7 18 8 19 9 20 10 10 11
REMARK SMILES IDX 9 12 8 13 7 14 6 15 5 16 4 17 3 18 2 19 1 20
REMARK H PARENT
REMARK Flexibility Score: inf
ROOT
ATOM      1  C   UNL     1      -2.133  66.488  29.772  1.00  0.00     0.027 C 
ENDROOT
BRANCH   1   2
ATOM      2  C   UNL     1      -3.082  65.844  28.752  1.00  0.00     0.004 C 
BRANCH   2   3
ATOM      3  C   UNL     1      -4.136  64.949  29.419  1.00  0.00     0.000 C 
BRANCH   3   4
ATOM      4  C   UNL     1      -5.497  65.651  29.476  1.00  0.00     0.000 C 
BRANCH   4   5
ATOM      5  C   UNL     1      -5.567  66.798  28.461  1.00  0.00     0.000 C 
BRANCH   5   6
ATOM      6  C   UNL     1      -6.485  67.922  28.962  1.00  0.00     0.006 C 
BRANCH   6   7
ATOM      7  C   UNL     1      -7.829  67.949  28.221  1.00  0.00     0.053 C 
BRANCH   7   8
ATOM      8  C   UNL     1      -8.524  69.267  28.380  1.00  0.00     0.041 C 
ATOM      9  O   UNL     1      -7.889  70.273  28.792  1.00  0.00    -0.550 OA
ATOM     10  O   UNL     1      -9.865  69.390  28.043  1.00  0.00    -0.550 OA
ENDBRANCH   7   8
ENDBRANCH   6   7
ENDBRANCH   5   6
ENDBRANCH   4   5
ENDBRANCH   3   4
ENDBRANCH   2   3
ENDBRANCH   1   2
BRANCH   1  11
ATOM     11  C   UNL     1      -2.442  67.952  29.977  1.00  0.00    -0.031 C 
ATOM     12  C   UNL     1      -2.919  68.503  31.110  1.00  0.00    -0.027 C 
BRANCH  12  13
ATOM     13  C   UNL     1      -3.291  67.749  32.362  1.00  0.00     0.054 C 
BRANCH  13  14
ATOM     14  C   UNL     1      -4.771  67.499  32.417  1.00  0.00    -0.027 C 
ATOM     15  C   UNL     1      -5.344  66.867  33.452  1.00  0.00    -0.031 C 
BRANCH  15  16
ATOM     16  C   UNL     1      -6.832  66.656  33.525  1.00  0.00     0.027 C 
BRANCH  16  17
ATOM     17  C   UNL     1      -7.579  67.286  32.333  1.00  0.00     0.004 C 
BRANCH  17  18
ATOM     18  C   UNL     1      -8.707  66.403  31.761  1.00  0.00     0.000 C 
BRANCH  18  19
ATOM     19  C   UNL     1      -9.927  67.165  31.216  1.00  0.00    -0.003 C 
ATOM     20  C   UNL     1      -9.943  68.639  31.618  1.00  0.00     0.004 C 
ENDBRANCH  18  19
ENDBRANCH  17  18
ENDBRANCH  16  17
ENDBRANCH  15  16
ENDBRANCH  13  14
ENDBRANCH  12  13
ENDBRANCH   1  11
TORSDOF 14
ENDMDL
MODEL 6
REMARK VINA RESULT:    -4.971      1.078      3.407
REMARK INTER + INTRA:         -10.942
REMARK INTER:                  -9.210
REMARK INTRA:                  -1.732
REMARK UNBOUND:                -1.904
REMARK SMILES CCCCCC=CCC=CCCCCCCCC(=O)[O-]
REMARK SMILES IDX 11 1 12 2 13 3 14 4 15 5 16 6 17 7 18 8 19 9 20 10 10 11
REMARK SMILES IDX 9 12 8 13 7 14 6 15 5 16 4 17 3 18 2 19 1 20
REMARK H PARENT
REMARK Flexibility Score: inf
ROOT
ATOM      1  C   UNL     1      -7.478  65.690  29.732  1.00  0.00     0.027 C 
ENDROOT
BRANCH   1   2
ATOM      2  C   UNL     1      -8.463  66.040  30.855  1.00  0.00     0.004 C 
BRANCH   2   3
ATOM      3  C   UNL     1      -8.782  67.541  30.903  1.00  0.00     0.000 C 
BRANCH   3   4
ATOM      4  C   UNL     1     -10.280  67.778  31.127  1.00  0.00     0.000 C 
BRANCH   4   5
ATOM      5  C   UNL     1     -11.103  67.237  29.952  1.00  0.00     0.000 C 
BRANCH   5   6
ATOM      6  C   UNL     1     -12.110  66.179  30.427  1.00  0.00     0.006 C 
BRANCH   6   7
ATOM      7  C   UNL     1     -12.102  66.012  31.953  1.00  0.00     0.053 C 
BRANCH   7   8
ATOM      8  C   UNL     1     -13.099  64.989  32.404  1.00  0.00     0.041 C 
ATOM      9  O   UNL     1     -13.017  64.487  33.555  1.00  0.00    -0.550 OA
ATOM     10  O   UNL     1     -14.139  64.616  31.563  1.00  0.00    -0.550 OA
ENDBRANCH   7   8
ENDBRANCH   6   7
ENDBRANCH   5   6
ENDBRANCH   4   5
ENDBRANCH   3   4
ENDBRANCH   2   3
ENDBRANCH   1   2
BRANCH   1  11
ATOM     11  C   UNL     1      -7.029  66.918  28.977  1.00  0.00    -0.031 C 
ATOM     12  C   UNL     1      -5.783  67.149  28.522  1.00  0.00    -0.027 C 
BRANCH  12  13
ATOM     13  C   UNL     1      -4.591  66.250  28.737  1.00  0.00     0.054 C 
BRANCH  13  14
ATOM     14  C   UNL     1      -4.089  66.355  30.150  1.00  0.00    -0.027 C 
ATOM     15  C   UNL     1      -4.099  67.518  30.818  1.00  0.00    -0.031 C 
BRANCH  15  16
ATOM     16  C   UNL     1      -3.637  67.612  32.247  1.00  0.00     0.027 C 
BRANCH  16  17
ATOM     17  C   UNL     1      -4.781  67.957  33.219  1.00  0.00     0.004 C 
BRANCH  17  18
ATOM     18  C   UNL     1      -5.938  66.936  33.215  1.00  0.00     0.000 C 
BRANCH  18  19
ATOM     19  C   UNL     1      -6.872  66.996  34.437  1.00  0.00    -0.003 C 
ATOM     20  C   UNL     1      -6.478  68.078  35.442  1.00  0.00     0.004 C 
ENDBRANCH  18  19
ENDBRANCH  17  18
ENDBRANCH  16  17
ENDBRANCH  15  16
ENDBRANCH  13  14
ENDBRANCH  12  13
ENDBRANCH   1  11
TORSDOF 14
ENDMDL
MODEL 7
REMARK VINA RESULT:    -4.958      2.062      4.842
REMARK INTER + INTRA:         -10.919
REMARK INTER:                  -7.671
REMARK INTRA:                  -3.248
REMARK UNBOUND:                -1.904
REMARK SMILES CCCCCC=CCC=CCCCCCCCC(=O)[O-]
REMARK SMILES IDX 11 1 12 2 13 3 14 4 15 5 16 6 17 7 18 8 19 9 20 10 10 11
REMARK SMILES IDX 9 12 8 13 7 14 6 15 5 16 4 17 3 18 2 19 1 20
REMARK H PARENT
REMARK Flexibility Score: inf
ROOT
ATOM      1  C   UNL     1      -3.595  67.611  32.334  1.00  0.00     0.027 C 
ENDROOT
BRANCH   1   2
ATOM      2  C   UNL     1      -4.618  68.755  32.301  1.00  0.00     0.004 C 
BRANCH   2   3
ATOM      3  C   UNL     1      -6.059  68.252  32.464  1.00  0.00     0.000 C 
BRANCH   3   4
ATOM      4  C   UNL     1      -6.083  66.803  32.964  1.00  0.00     0.000 C 
BRANCH   4   5
ATOM      5  C   UNL     1      -7.127  65.977  32.203  1.00  0.00     0.000 C 
BRANCH   5   6
ATOM      6  C   UNL     1      -8.372  66.819  31.888  1.00  0.00     0.006 C 
BRANCH   6   7
ATOM      7  C   UNL     1      -8.964  66.489  30.511  1.00  0.00     0.053 C 
BRANCH   7   8
ATOM      8  C   UNL     1     -10.462  66.511  30.531  1.00  0.00     0.041 C 
ATOM      9  O   UNL     1     -11.118  65.737  29.786  1.00  0.00    -0.550 OA
ATOM     10  O   UNL     1     -11.132  67.364  31.397  1.00  0.00    -0.550 OA
ENDBRANCH   7   8
ENDBRANCH   6   7
ENDBRANCH   5   6
ENDBRANCH   4   5
ENDBRANCH   3   4
ENDBRANCH   2   3
ENDBRANCH   1   2
BRANCH   1  11
ATOM     11  C   UNL     1      -2.805  67.530  31.050  1.00  0.00    -0.031 C 
ATOM     12  C   UNL     1      -3.102  66.750  29.993  1.00  0.00    -0.027 C 
BRANCH  12  13
ATOM     13  C   UNL     1      -4.245  65.769  29.922  1.00  0.00     0.054 C 
BRANCH  13  14
ATOM     14  C   UNL     1      -5.264  66.208  28.910  1.00  0.00    -0.027 C 
ATOM     15  C   UNL     1      -5.699  67.475  28.847  1.00  0.00    -0.031 C 
BRANCH  15  16
ATOM     16  C   UNL     1      -6.687  67.922  27.805  1.00  0.00     0.027 C 
BRANCH  16  17
ATOM     17  C   UNL     1      -7.499  69.155  28.248  1.00  0.00     0.004 C 
BRANCH  17  18
ATOM     18  C   UNL     1      -6.845  69.962  29.388  1.00  0.00     0.000 C 
BRANCH  18  19
ATOM     19  C   UNL     1      -7.801  70.863  30.189  1.00  0.00    -0.003 C 
ATOM     20  C   UNL     1      -9.159  70.214  30.451  1.00  0.00     0.004 C 
ENDBRANCH  18  19
ENDBRANCH  17  18
ENDBRANCH  16  17
ENDBRANCH  15  16
ENDBRANCH  13  14
ENDBRANCH  12  13
ENDBRANCH   1  11
TORSDOF 14
ENDMDL
MODEL 8
REMARK VINA RESULT:    -4.858      2.824      6.968
REMARK INTER + INTRA:         -10.738
REMARK INTER:                  -8.553
REMARK INTRA:                  -2.186
REMARK UNBOUND:                -1.904
REMARK SMILES CCCCCC=CCC=CCCCCCCCC(=O)[O-]
REMARK SMILES IDX 11 1 12 2 13 3 14 4 15 5 16 6 17 7 18 8 19 9 20 10 10 11
REMARK SMILES IDX 9 12 8 13 7 14 6 15 5 16 4 17 3 18 2 19 1 20
REMARK H PARENT
REMARK Flexibility Score: inf
ROOT
ATOM      1  C   UNL     1      -3.918  65.675  29.122  1.00  0.00     0.027 C 
ENDROOT
BRANCH   1   2
ATOM      2  C   UNL     1      -2.422  65.902  29.376  1.00  0.00     0.004 C 
BRANCH   2   3
ATOM      3  C   UNL     1      -2.133  67.297  29.949  1.00  0.00     0.000 C 
BRANCH   3   4
ATOM      4  C   UNL     1      -2.808  67.481  31.314  1.00  0.00     0.000 C 
BRANCH   4   5
ATOM      5  C   UNL     1      -3.701  68.727  31.321  1.00  0.00     0.000 C 
BRANCH   5   6
ATOM      6  C   UNL     1      -5.109  68.392  31.832  1.00  0.00     0.006 C 
BRANCH   6   7
ATOM      7  C   UNL     1      -5.201  66.965  32.390  1.00  0.00     0.053 C 
BRANCH   7   8
ATOM      8  C   UNL     1      -5.346  66.961  33.881  1.00  0.00     0.041 C 
ATOM      9  O   UNL     1      -4.363  66.675  34.614  1.00  0.00    -0.550 OA
ATOM     10  O   UNL     1      -6.560  67.305  34.461  1.00  0.00    -0.550 OA
ENDBRANCH   7   8
ENDBRANCH   6   7
ENDBRANCH   5   6
ENDBRANCH   4   5
ENDBRANCH   3   4
ENDBRANCH   2   3
ENDBRANCH   1   2
BRANCH   1  11
ATOM     11  C   UNL     1      -4.519  66.783  28.291  1.00  0.00    -0.031 C 
ATOM     12  C   UNL     1      -5.810  67.166  28.308  1.00  0.00    -0.027 C 
BRANCH  12  13
ATOM     13  C   UNL     1      -6.906  66.518  29.117  1.00  0.00     0.054 C 
BRANCH  13  14
ATOM     14  C   UNL     1      -8.133  67.384  29.146  1.00  0.00    -0.027 C 
ATOM     15  C   UNL     1      -8.473  68.090  30.234  1.00  0.00    -0.031 C 
BRANCH  15  16
ATOM     16  C   UNL     1      -9.679  68.990  30.247  1.00  0.00     0.027 C 
BRANCH  16  17
ATOM     17  C   UNL     1     -10.746  68.538  31.263  1.00  0.00     0.004 C 
BRANCH  17  18
ATOM     18  C   UNL     1     -10.989  67.015  31.284  1.00  0.00     0.000 C 
BRANCH  18  19
ATOM     19  C   UNL     1     -12.225  66.535  30.504  1.00  0.00    -0.003 C 
ATOM     20  C   UNL     1     -11.886  65.544  29.390  1.00  0.00     0.004 C 
ENDBRANCH  18  19
ENDBRANCH  17  18
ENDBRANCH  16  17
ENDBRANCH  15  16
ENDBRANCH  13  14
ENDBRANCH  12  13
ENDBRANCH   1  11
TORSDOF 14
ENDMDL
MODEL 9
REMARK VINA RESULT:    -4.829      3.107      5.779
REMARK INTER + INTRA:         -10.684
REMARK INTER:                  -7.749
REMARK INTRA:                  -2.935
REMARK UNBOUND:                -1.904
REMARK SMILES CCCCCC=CCC=CCCCCCCCC(=O)[O-]
REMARK SMILES IDX 11 1 12 2 13 3 14 4 15 5 16 6 17 7 18 8 19 9 20 10 10 11
REMARK SMILES IDX 9 12 8 13 7 14 6 15 5 16 4 17 3 18 2 19 1 20
REMARK H PARENT
REMARK Flexibility Score: inf
ROOT
ATOM      1  C   UNL     1      -3.258  67.391  31.506  1.00  0.00     0.027 C 
ENDROOT
BRANCH   1   2
ATOM      2  C   UNL     1      -3.509  67.039  30.033  1.00  0.00     0.004 C 
BRANCH   2   3
ATOM      3  C   UNL     1      -4.354  65.767  29.874  1.00  0.00     0.000 C 
BRANCH   3   4
ATOM      4  C   UNL     1      -5.762  66.102  29.367  1.00  0.00     0.000 C 
BRANCH   4   5
ATOM      5  C   UNL     1      -5.708  67.148  28.247  1.00  0.00     0.000 C 
BRANCH   5   6
ATOM      6  C   UNL     1      -6.898  68.114  28.339  1.00  0.00     0.006 C 
BRANCH   6   7
ATOM      7  C   UNL     1      -6.761  69.094  29.512  1.00  0.00     0.053 C 
BRANCH   7   8
ATOM      8  C   UNL     1      -7.685  70.265  29.367  1.00  0.00     0.041 C 
ATOM      9  O   UNL     1      -7.635  70.989  28.338  1.00  0.00    -0.550 OA
ATOM     10  O   UNL     1      -8.622  70.538  30.354  1.00  0.00    -0.550 OA
ENDBRANCH   7   8
ENDBRANCH   6   7
ENDBRANCH   5   6
ENDBRANCH   4   5
ENDBRANCH   3   4
ENDBRANCH   2   3
ENDBRANCH   1   2
BRANCH   1  11
ATOM     11  C   UNL     1      -4.174  68.494  31.981  1.00  0.00    -0.031 C 
ATOM     12  C   UNL     1      -5.142  68.365  32.908  1.00  0.00    -0.027 C 
BRANCH  12  13
ATOM     13  C   UNL     1      -5.530  67.081  33.598  1.00  0.00     0.054 C 
BRANCH  13  14
ATOM     14  C   UNL     1      -6.644  66.393  32.862  1.00  0.00    -0.027 C 
ATOM     15  C   UNL     1      -7.750  67.049  32.482  1.00  0.00    -0.031 C 
BRANCH  15  16
ATOM     16  C   UNL     1      -8.846  66.369  31.707  1.00  0.00     0.027 C 
BRANCH  16  17
ATOM     17  C   UNL     1      -9.958  67.343  31.273  1.00  0.00     0.004 C 
BRANCH  17  18
ATOM     18  C   UNL     1     -10.169  67.417  29.746  1.00  0.00     0.000 C 
BRANCH  18  19
ATOM     19  C   UNL     1     -10.139  66.066  29.011  1.00  0.00    -0.003 C 
ATOM     20  C   UNL     1     -11.422  65.255  29.193  1.00  0.00     0.004 C 
ENDBRANCH  18  19
ENDBRANCH  17  18
ENDBRANCH  16  17
ENDBRANCH  15  16
ENDBRANCH  13  14
ENDBRANCH  12  13
ENDBRANCH   1  11
TORSDOF 14
ENDMDL
