MODEL 1
REMARK VINA RESULT:    -2.804      0.000      0.000
REMARK INTER + INTRA:          -3.198
REMARK INTER:                  -3.132
REMARK INTRA:                  -0.066
REMARK UNBOUND:                -0.066
REMARK SMILES CCCC(=O)[O-]
REMARK SMILES IDX 3 1 4 2 5 3 6 4 2 5 1 6
REMARK H PARENT
REMARK Flexibility Score: inf
ROOT
ATOM      1  C   UNL     1      98.544   5.224 -28.749  1.00  0.00     0.052 C 
ENDROOT
BRANCH   1   2
ATOM      2  C   UNL     1      98.385   3.961 -29.534  1.00  0.00     0.041 C 
ATOM      3  O   UNL     1      99.400   3.330 -29.931  1.00  0.00    -0.550 OA
ATOM      4  O   UNL     1      97.117   3.506 -29.870  1.00  0.00    -0.550 OA
ENDBRANCH   1   2
BRANCH   1   5
ATOM      5  C   UNL     1      99.422   4.984 -27.519  1.00  0.00     0.003 C 
ATOM      6  C   UNL     1      98.676   4.178 -26.458  1.00  0.00     0.004 C 
ENDBRANCH   1   5
TORSDOF 2
ENDMDL
MODEL 2
REMARK VINA RESULT:    -2.760     23.221     24.068
REMARK INTER + INTRA:          -3.149
REMARK INTER:                  -3.118
REMARK INTRA:                  -0.032
REMARK UNBOUND:                -0.066
REMARK SMILES CCCC(=O)[O-]
REMARK SMILES IDX 3 1 4 2 5 3 6 4 2 5 1 6
REMARK H PARENT
REMARK Flexibility Score: inf
ROOT
ATOM      1  C   UNL     1      82.178  -6.289 -13.751  1.00  0.00     0.052 C 
ENDROOT
BRANCH   1   2
ATOM      2  C   UNL     1      83.651  -6.079 -13.907  1.00  0.00     0.041 C 
ATOM      3  O   UNL     1      84.405  -7.052 -14.178  1.00  0.00    -0.550 OA
ATOM      4  O   UNL     1      84.200  -4.820 -13.705  1.00  0.00    -0.550 OA
ENDBRANCH   1   2
BRANCH   1   5
ATOM      5  C   UNL     1      81.561  -5.162 -12.921  1.00  0.00     0.003 C 
ATOM      6  C   UNL     1      80.377  -4.527 -13.646  1.00  0.00     0.004 C 
ENDBRANCH   1   5
TORSDOF 2
ENDMDL
MODEL 3
REMARK VINA RESULT:    -2.696      2.260      2.935
REMARK INTER + INTRA:          -3.078
REMARK INTER:                  -3.041
REMARK INTRA:                  -0.037
REMARK UNBOUND:                -0.066
REMARK SMILES CCCC(=O)[O-]
REMARK SMILES IDX 3 1 4 2 5 3 6 4 2 5 1 6
REMARK H PARENT
REMARK Flexibility Score: inf
ROOT
ATOM      1  C   UNL     1      98.655   4.178 -26.483  1.00  0.00     0.052 C 
ENDROOT
BRANCH   1   2
ATOM      2  C   UNL     1      98.681   2.686 -26.571  1.00  0.00     0.041 C 
ATOM      3  O   UNL     1      99.144   2.003 -25.619  1.00  0.00    -0.550 OA
ATOM      4  O   UNL     1      98.242   2.048 -27.724  1.00  0.00    -0.550 OA
ENDBRANCH   1   2
BRANCH   1   5
ATOM      5  C   UNL     1      99.504   4.796 -27.596  1.00  0.00     0.003 C 
ATOM      6  C   UNL     1      98.627   5.462 -28.654  1.00  0.00     0.004 C 
ENDBRANCH   1   5
TORSDOF 2
ENDMDL
MODEL 4
REMARK VINA RESULT:    -2.682     22.904     23.580
REMARK INTER + INTRA:          -3.062
REMARK INTER:                  -2.991
REMARK INTRA:                  -0.071
REMARK UNBOUND:                -0.066
REMARK SMILES CCCC(=O)[O-]
REMARK SMILES IDX 3 1 4 2 5 3 6 4 2 5 1 6
REMARK H PARENT
REMARK Flexibility Score: inf
ROOT
ATOM      1  C   UNL     1      84.010  -5.224 -13.586  1.00  0.00     0.052 C 
ENDROOT
BRANCH   1   2
ATOM      2  C   UNL     1      82.603  -4.718 -13.547  1.00  0.00     0.041 C 
ATOM      3  O   UNL     1      81.752  -5.267 -12.798  1.00  0.00    -0.550 OA
ATOM      4  O   UNL     1      82.217  -3.670 -14.373  1.00  0.00    -0.550 OA
ENDBRANCH   1   2
BRANCH   1   5
ATOM      5  C   UNL     1      84.046  -6.664 -14.103  1.00  0.00     0.003 C 
ATOM      6  C   UNL     1      83.708  -6.725 -15.590  1.00  0.00     0.004 C 
ENDBRANCH   1   5
TORSDOF 2
ENDMDL
MODEL 5
REMARK VINA RESULT:    -2.656      2.255      3.044
REMARK INTER + INTRA:          -3.033
REMARK INTER:                  -2.992
REMARK INTRA:                  -0.041
REMARK UNBOUND:                -0.066
REMARK SMILES CCCC(=O)[O-]
REMARK SMILES IDX 3 1 4 2 5 3 6 4 2 5 1 6
REMARK H PARENT
REMARK Flexibility Score: inf
ROOT
ATOM      1  C   UNL     1      98.608   4.108 -26.455  1.00  0.00     0.052 C 
ENDROOT
BRANCH   1   2
ATOM      2  C   UNL     1      98.623   2.638 -26.729  1.00  0.00     0.041 C 
ATOM      3  O   UNL     1      97.958   2.166 -27.690  1.00  0.00    -0.550 OA
ATOM      4  O   UNL     1      99.331   1.782 -25.896  1.00  0.00    -0.550 OA
ENDBRANCH   1   2
BRANCH   1   5
ATOM      5  C   UNL     1      98.339   4.891 -27.743  1.00  0.00     0.003 C 
ATOM      6  C   UNL     1      99.643   5.342 -28.396  1.00  0.00     0.004 C 
ENDBRANCH   1   5
TORSDOF 2
ENDMDL
MODEL 6
REMARK VINA RESULT:    -2.543     22.903     23.434
REMARK INTER + INTRA:          -2.907
REMARK INTER:                  -2.872
REMARK INTRA:                  -0.035
REMARK UNBOUND:                -0.066
REMARK SMILES CCCC(=O)[O-]
REMARK SMILES IDX 3 1 4 2 5 3 6 4 2 5 1 6
REMARK H PARENT
REMARK Flexibility Score: inf
ROOT
ATOM      1  C   UNL     1      83.439  -6.570 -15.503  1.00  0.00     0.052 C 
ENDROOT
BRANCH   1   2
ATOM      2  C   UNL     1      82.003  -6.151 -15.504  1.00  0.00     0.041 C 
ATOM      3  O   UNL     1      81.563  -5.399 -16.415  1.00  0.00    -0.550 OA
ATOM      4  O   UNL     1      81.161  -6.547 -14.474  1.00  0.00    -0.550 OA
ENDBRANCH   1   2
BRANCH   1   5
ATOM      5  C   UNL     1      84.005  -6.540 -14.081  1.00  0.00     0.003 C 
ATOM      6  C   UNL     1      84.133  -5.108 -13.569  1.00  0.00     0.004 C 
ENDBRANCH   1   5
TORSDOF 2
ENDMDL
MODEL 7
REMARK VINA RESULT:    -2.537     23.602     24.281
REMARK INTER + INTRA:          -2.900
REMARK INTER:                  -2.856
REMARK INTRA:                  -0.044
REMARK UNBOUND:                -0.066
REMARK SMILES CCCC(=O)[O-]
REMARK SMILES IDX 3 1 4 2 5 3 6 4 2 5 1 6
REMARK H PARENT
REMARK Flexibility Score: inf
ROOT
ATOM      1  C   UNL     1      82.273  -5.211 -12.990  1.00  0.00     0.052 C 
ENDROOT
BRANCH   1   2
ATOM      2  C   UNL     1      81.110  -5.129 -13.928  1.00  0.00     0.041 C 
ATOM      3  O   UNL     1      80.709  -4.009 -14.343  1.00  0.00    -0.550 OA
ATOM      4  O   UNL     1      80.437  -6.283 -14.306  1.00  0.00    -0.550 OA
ENDBRANCH   1   2
BRANCH   1   5
ATOM      5  C   UNL     1      83.590  -5.218 -13.769  1.00  0.00     0.003 C 
ATOM      6  C   UNL     1      84.044  -6.644 -14.072  1.00  0.00     0.004 C 
ENDBRANCH   1   5
TORSDOF 2
ENDMDL
MODEL 8
REMARK VINA RESULT:    -2.530      1.195      1.985
REMARK INTER + INTRA:          -2.892
REMARK INTER:                  -2.883
REMARK INTRA:                  -0.009
REMARK UNBOUND:                -0.066
REMARK SMILES CCCC(=O)[O-]
REMARK SMILES IDX 3 1 4 2 5 3 6 4 2 5 1 6
REMARK H PARENT
REMARK Flexibility Score: inf
ROOT
ATOM      1  C   UNL     1      99.011   4.596 -27.214  1.00  0.00     0.052 C 
ENDROOT
BRANCH   1   2
ATOM      2  C   UNL     1      99.045   4.101 -28.625  1.00  0.00     0.041 C 
ATOM      3  O   UNL     1      98.214   4.532 -29.468  1.00  0.00    -0.550 OA
ATOM      4  O   UNL     1      99.960   3.126 -28.999  1.00  0.00    -0.550 OA
ENDBRANCH   1   2
BRANCH   1   5
ATOM      5  C   UNL     1      97.997   3.799 -26.390  1.00  0.00     0.003 C 
ATOM      6  C   UNL     1      98.507   3.559 -24.971  1.00  0.00     0.004 C 
ENDBRANCH   1   5
TORSDOF 2
ENDMDL
MODEL 9
REMARK VINA RESULT:    -2.462     23.215     23.979
REMARK INTER + INTRA:          -2.817
REMARK INTER:                  -2.771
REMARK INTRA:                  -0.045
REMARK UNBOUND:                -0.066
REMARK SMILES CCCC(=O)[O-]
REMARK SMILES IDX 3 1 4 2 5 3 6 4 2 5 1 6
REMARK H PARENT
REMARK Flexibility Score: inf
ROOT
ATOM      1  C   UNL     1      82.263  -6.275 -13.701  1.00  0.00     0.052 C 
ENDROOT
BRANCH   1   2
ATOM      2  C   UNL     1      82.405  -6.302 -15.190  1.00  0.00     0.041 C 
ATOM      3  O   UNL     1      81.382  -6.314 -15.924  1.00  0.00    -0.550 OA
ATOM      4  O   UNL     1      83.666  -6.365 -15.767  1.00  0.00    -0.550 OA
ENDBRANCH   1   2
BRANCH   1   5
ATOM      5  C   UNL     1      81.195  -5.260 -13.284  1.00  0.00     0.003 C 
ATOM      6  C   UNL     1      81.805  -3.877 -13.067  1.00  0.00     0.004 C 
ENDBRANCH   1   5
TORSDOF 2
ENDMDL
