MODEL 1
REMARK VINA RESULT:     3.644      0.000      0.000
REMARK INTER + INTRA:           4.842
REMARK INTER:                   5.987
REMARK INTRA:                  -1.145
REMARK UNBOUND:                -1.145
REMARK SMILES C[C@H]1O[C@@H](OC[C@@H]2O[C@@H](Oc3c(-c4ccc(O)c(O)c4)oc4cc(O)cc(O)c4c3=O)[C@H](O)[C@H](O)[C@@H]2O)[C@@H](O)[C@@H](O)[C@H]1O
REMARK SMILES IDX 7 1 36 2 34 3 32 4 9 5 8 6 6 7 5 8 4 9 1 10 2 11 42 12 3 13
REMARK SMILES IDX 40 14 38 15 43 16 41 18 39 20 37 22 35 24 10 26 11 27 12 28
REMARK SMILES IDX 30 29 21 30 29 31 31 32 22 33 27 34 23 35 26 36 24 37 13 38
REMARK SMILES IDX 20 39 14 40 18 41 15 42 16 43 19 44 17 46 28 48 25 50 33 52
REMARK H PARENT 43 17 41 19 39 21 37 23 35 25 19 45 17 47 28 49 25 51 33 53
REMARK Flexibility Score: inf
ROOT
ATOM      1  C   UNL     1       8.994  -1.095  14.613  1.00  0.00     0.180 C 
ATOM      2  C   UNL     1       8.140  -2.301  15.254  1.00  0.00     0.177 C 
ATOM      3  C   UNL     1       8.384  -3.530  14.482  1.00  0.00     0.180 C 
ATOM      4  C   UNL     1      10.024  -3.586  14.433  1.00  0.00     0.214 C 
ATOM      5  C   UNL     1      10.818  -2.480  15.385  1.00  0.00     0.339 C 
ATOM      6  O   UNL     1      10.359  -1.180  15.032  1.00  0.00    -0.332 OA
ENDROOT
BRANCH   1   7
ATOM      7  C   UNL     1       8.869  -0.723  13.055  1.00  0.00     0.198 C 
BRANCH   7   8
ATOM      8  O   UNL     1       7.928   0.311  12.697  1.00  0.00    -0.347 OA
BRANCH   8   9
ATOM      9  C   UNL     1       8.478   1.244  11.745  1.00  0.00     0.281 C 
ATOM     10  C   UNL     1       9.444   5.001  12.254  1.00  0.00     0.041 C 
ATOM     11  C   UNL     1       8.944   3.667  11.562  1.00  0.00     0.150 C 
ATOM     12  C   UNL     1       7.811   3.931  10.525  1.00  0.00     0.174 C 
ATOM     13  O   UNL     1       8.550   2.554  12.410  1.00  0.00    -0.344 OA
ATOM     14  C   UNL     1       7.632   2.668   9.638  1.00  0.00     0.179 C 
ATOM     15  C   UNL     1       7.673   1.258  10.387  1.00  0.00     0.202 C 
BRANCH  12  16
ATOM     16  O   UNL     1       6.634   4.452  11.113  1.00  0.00    -0.388 OA
ATOM     17  H   UNL     1       6.419   5.331  10.697  1.00  0.00     0.211 HD
ENDBRANCH  12  16
BRANCH  14  18
ATOM     18  O   UNL     1       6.530   2.811   8.748  1.00  0.00    -0.387 OA
ATOM     19  H   UNL     1       6.213   3.761   8.813  1.00  0.00     0.211 HD
ENDBRANCH  14  18
BRANCH  15  20
ATOM     20  O   UNL     1       6.422   0.612  10.482  1.00  0.00    -0.385 OA
ATOM     21  H   UNL     1       6.585  -0.361  10.206  1.00  0.00     0.211 HD
ENDBRANCH  15  20
ENDBRANCH   8   9
ENDBRANCH   7   8
ENDBRANCH   1   7
BRANCH   2  22
ATOM     22  O   UNL     1       6.885  -2.168  15.875  1.00  0.00    -0.387 OA
ATOM     23  H   UNL     1       6.173  -1.928  15.248  1.00  0.00     0.211 HD
ENDBRANCH   2  22
BRANCH   3  24
ATOM     24  O   UNL     1       7.674  -3.409  13.308  1.00  0.00    -0.387 OA
ATOM     25  H   UNL     1       8.331  -3.743  12.612  1.00  0.00     0.211 HD
ENDBRANCH   3  24
BRANCH   5  26
ATOM     26  O   UNL     1      10.665  -2.718  16.857  1.00  0.00    -0.454 OA
BRANCH  26  27
ATOM     27  C   UNL     1      10.895  -1.794  17.936  1.00  0.00     0.214 A 
ATOM     28  C   UNL     1      11.141  -0.889  19.026  1.00  0.00     0.180 A 
ATOM     29  C   UNL     1      12.275  -2.260  17.915  1.00  0.00     0.239 A 
ATOM     30  O   UNL     1      11.897  -1.173  20.123  1.00  0.00    -0.452 OA
ATOM     31  C   UNL     1      13.079  -2.750  19.051  1.00  0.00     0.111 A 
ATOM     32  O   UNL     1      12.945  -1.818  16.939  1.00  0.00    -0.285 OA
ATOM     33  C   UNL     1      13.041  -1.739  19.961  1.00  0.00     0.146 A 
ATOM     34  C   UNL     1      14.384  -3.373  18.893  1.00  0.00     0.134 A 
ATOM     35  C   UNL     1      14.222  -0.936  20.066  1.00  0.00     0.094 A 
ATOM     36  C   UNL     1      15.509  -2.590  18.865  1.00  0.00     0.093 A 
ATOM     37  C   UNL     1      15.470  -1.420  19.610  1.00  0.00     0.123 A 
BRANCH  28  38
ATOM     38  C   UNL     1      10.719   0.565  19.057  1.00  0.00     0.025 A 
ATOM     39  C   UNL     1       9.473   0.724  18.399  1.00  0.00     0.062 A 
ATOM     40  C   UNL     1      11.160   1.614  19.951  1.00  0.00     0.016 A 
ATOM     41  C   UNL     1       8.661   1.828  18.586  1.00  0.00     0.158 A 
ATOM     42  C   UNL     1      10.351   2.759  20.012  1.00  0.00     0.051 A 
ATOM     43  C   UNL     1       9.027   2.772  19.537  1.00  0.00     0.157 A 
BRANCH  41  44
ATOM     44  O   UNL     1       7.594   2.101  17.696  1.00  0.00    -0.504 OA
ATOM     45  H   UNL     1       7.737   2.461  16.750  1.00  0.00     0.293 HD
ENDBRANCH  41  44
BRANCH  43  46
ATOM     46  O   UNL     1       8.123   3.808  19.919  1.00  0.00    -0.504 OA
ATOM     47  H   UNL     1       7.976   4.051  20.890  1.00  0.00     0.293 HD
ENDBRANCH  43  46
ENDBRANCH  28  38
BRANCH  34  48
ATOM     48  O   UNL     1      14.613  -4.667  19.390  1.00  0.00    -0.507 OA
ATOM     49  H   UNL     1      15.331  -4.845  20.123  1.00  0.00     0.293 HD
ENDBRANCH  34  48
BRANCH  37  50
ATOM     50  O   UNL     1      16.630  -0.878  20.125  1.00  0.00    -0.508 OA
ATOM     51  H   UNL     1      17.437  -0.892  19.496  1.00  0.00     0.293 HD
ENDBRANCH  37  50
ENDBRANCH  26  27
ENDBRANCH   5  26
BRANCH   4  52
ATOM     52  O   UNL     1      10.409  -3.434  13.062  1.00  0.00    -0.384 OA
ATOM     53  H   UNL     1       9.631  -3.645  12.467  1.00  0.00     0.211 HD
ENDBRANCH   4  52
TORSDOF 16
ENDMDL
MODEL 2
REMARK VINA RESULT:     4.418      1.584      2.205
REMARK INTER + INTRA:           6.114
REMARK INTER:                   6.582
REMARK INTRA:                  -0.468
REMARK UNBOUND:                -1.145
REMARK SMILES C[C@H]1O[C@@H](OC[C@@H]2O[C@@H](Oc3c(-c4ccc(O)c(O)c4)oc4cc(O)cc(O)c4c3=O)[C@H](O)[C@H](O)[C@@H]2O)[C@@H](O)[C@@H](O)[C@H]1O
REMARK SMILES IDX 7 1 36 2 34 3 32 4 9 5 8 6 6 7 5 8 4 9 1 10 2 11 42 12 3 13
REMARK SMILES IDX 40 14 38 15 43 16 41 18 39 20 37 22 35 24 10 26 11 27 12 28
REMARK SMILES IDX 30 29 21 30 29 31 31 32 22 33 27 34 23 35 26 36 24 37 13 38
REMARK SMILES IDX 20 39 14 40 18 41 15 42 16 43 19 44 17 46 28 48 25 50 33 52
REMARK H PARENT 43 17 41 19 39 21 37 23 35 25 19 45 17 47 28 49 25 51 33 53
REMARK Flexibility Score: inf
ROOT
ATOM      1  C   UNL     1       9.114  -1.417  15.979  1.00  0.00     0.180 C 
ATOM      2  C   UNL     1       8.344  -1.865  17.321  1.00  0.00     0.177 C 
ATOM      3  C   UNL     1       7.633  -3.130  17.072  1.00  0.00     0.180 C 
ATOM      4  C   UNL     1       8.815  -4.065  16.421  1.00  0.00     0.214 C 
ATOM      5  C   UNL     1      10.351  -3.436  16.469  1.00  0.00     0.339 C 
ATOM      6  O   UNL     1      10.328  -2.161  15.836  1.00  0.00    -0.332 OA
ENDROOT
BRANCH   1   7
ATOM      7  C   UNL     1       8.334  -1.269  14.582  1.00  0.00     0.198 C 
BRANCH   7   8
ATOM      8  O   UNL     1       9.084  -1.525  13.377  1.00  0.00    -0.347 OA
BRANCH   8   9
ATOM      9  C   UNL     1       9.642  -0.321  12.814  1.00  0.00     0.281 C 
ATOM     10  C   UNL     1       7.812   2.935  11.651  1.00  0.00     0.041 C 
ATOM     11  C   UNL     1       8.872   1.761  11.721  1.00  0.00     0.150 C 
ATOM     12  C   UNL     1       9.403   1.362  10.311  1.00  0.00     0.174 C 
ATOM     13  O   UNL     1       8.518   0.551  12.446  1.00  0.00    -0.344 OA
ATOM     14  C   UNL     1      10.679   0.490  10.479  1.00  0.00     0.179 C 
ATOM     15  C   UNL     1      10.637  -0.622  11.626  1.00  0.00     0.202 C 
BRANCH  12  16
ATOM     16  O   UNL     1       8.396   0.837   9.468  1.00  0.00    -0.388 OA
ATOM     17  H   UNL     1       8.748   0.037   8.992  1.00  0.00     0.211 HD
ENDBRANCH  12  16
BRANCH  14  18
ATOM     18  O   UNL     1      11.141   0.000   9.224  1.00  0.00    -0.387 OA
ATOM     19  H   UNL     1      10.435   0.211   8.542  1.00  0.00     0.211 HD
ENDBRANCH  14  18
BRANCH  15  20
ATOM     20  O   UNL     1      10.543  -1.947  11.150  1.00  0.00    -0.385 OA
ATOM     21  H   UNL     1      10.803  -1.910  10.159  1.00  0.00     0.211 HD
ENDBRANCH  15  20
ENDBRANCH   8   9
ENDBRANCH   7   8
ENDBRANCH   1   7
BRANCH   2  22
ATOM     22  O   UNL     1       7.787  -0.988  18.269  1.00  0.00    -0.387 OA
ATOM     23  H   UNL     1       7.859  -0.048  18.009  1.00  0.00     0.211 HD
ENDBRANCH   2  22
BRANCH   3  24
ATOM     24  O   UNL     1       6.522  -2.819  16.321  1.00  0.00    -0.387 OA
ATOM     25  H   UNL     1       5.786  -2.773  17.017  1.00  0.00     0.211 HD
ENDBRANCH   3  24
BRANCH   5  26
ATOM     26  O   UNL     1      10.929  -3.334  17.847  1.00  0.00    -0.454 OA
BRANCH  26  27
ATOM     27  C   UNL     1      11.410  -2.161  18.527  1.00  0.00     0.214 A 
ATOM     28  C   UNL     1      11.910  -1.003  19.218  1.00  0.00     0.180 A 
ATOM     29  C   UNL     1      12.747  -2.690  18.294  1.00  0.00     0.239 A 
ATOM     30  O   UNL     1      12.926  -1.011  20.125  1.00  0.00    -0.452 OA
ATOM     31  C   UNL     1      13.823  -2.887  19.284  1.00  0.00     0.111 A 
ATOM     32  O   UNL     1      13.138  -2.575  17.098  1.00  0.00    -0.285 OA
ATOM     33  C   UNL     1      14.001  -1.663  19.849  1.00  0.00     0.146 A 
ATOM     34  C   UNL     1      15.057  -3.601  18.987  1.00  0.00     0.134 A 
ATOM     35  C   UNL     1      15.154  -0.929  19.423  1.00  0.00     0.094 A 
ATOM     36  C   UNL     1      16.122  -2.920  18.458  1.00  0.00     0.093 A 
ATOM     37  C   UNL     1      16.253  -1.589  18.826  1.00  0.00     0.123 A 
BRANCH  28  38
ATOM     38  C   UNL     1      11.483   0.423  18.940  1.00  0.00     0.025 A 
ATOM     39  C   UNL     1      10.137   0.450  18.493  1.00  0.00     0.062 A 
ATOM     40  C   UNL     1      12.064   1.652  19.436  1.00  0.00     0.016 A 
ATOM     41  C   UNL     1       9.359   1.593  18.523  1.00  0.00     0.158 A 
ATOM     42  C   UNL     1      11.265   2.801  19.335  1.00  0.00     0.051 A 
ATOM     43  C   UNL     1       9.878   2.737  19.114  1.00  0.00     0.157 A 
BRANCH  41  44
ATOM     44  O   UNL     1       8.147   1.662  17.795  1.00  0.00    -0.504 OA
ATOM     45  H   UNL     1       7.228   1.650  18.243  1.00  0.00     0.293 HD
ENDBRANCH  41  44
BRANCH  43  46
ATOM     46  O   UNL     1       9.044   3.869  19.363  1.00  0.00    -0.504 OA
ATOM     47  H   UNL     1       8.303   3.839  20.051  1.00  0.00     0.293 HD
ENDBRANCH  43  46
ENDBRANCH  28  38
BRANCH  34  48
ATOM     48  O   UNL     1      15.429  -4.716  19.757  1.00  0.00    -0.507 OA
ATOM     49  H   UNL     1      15.488  -5.667  19.335  1.00  0.00     0.293 HD
ENDBRANCH  34  48
BRANCH  37  50
ATOM     50  O   UNL     1      17.496  -0.989  18.858  1.00  0.00    -0.508 OA
ATOM     51  H   UNL     1      17.940  -0.949  19.780  1.00  0.00     0.293 HD
ENDBRANCH  37  50
ENDBRANCH  26  27
ENDBRANCH   5  26
BRANCH   4  52
ATOM     52  O   UNL     1       8.431  -4.347  15.071  1.00  0.00    -0.384 OA
ATOM     53  H   UNL     1       9.195  -4.773  14.583  1.00  0.00     0.211 HD
ENDBRANCH   4  52
TORSDOF 16
ENDMDL
