MODEL 1
REMARK VINA RESULT:    -3.215      0.000      0.000
REMARK INTER + INTRA:          -4.649
REMARK INTER:                  -4.343
REMARK INTRA:                  -0.306
REMARK UNBOUND:                -0.306
REMARK SMILES CCCCCCCC(=O)[O-]
REMARK SMILES IDX 5 1 6 2 7 3 8 4 9 5 10 6 4 7 3 8 2 9 1 10
REMARK H PARENT
REMARK Flexibility Score: inf
ROOT
ATOM      1  C   UNL     1     -21.736  31.394 -41.197  1.00  0.00     0.000 C 
ENDROOT
BRANCH   1   2
ATOM      2  C   UNL     1     -20.259  30.983 -41.214  1.00  0.00     0.006 C 
BRANCH   2   3
ATOM      3  C   UNL     1     -19.706  30.971 -42.642  1.00  0.00     0.053 C 
BRANCH   3   4
ATOM      4  C   UNL     1     -18.531  31.890 -42.757  1.00  0.00     0.041 C 
ATOM      5  O   UNL     1     -18.043  32.156 -43.886  1.00  0.00    -0.550 OA
ATOM      6  O   UNL     1     -17.944  32.414 -41.612  1.00  0.00    -0.550 OA
ENDBRANCH   3   4
ENDBRANCH   2   3
ENDBRANCH   1   2
BRANCH   1   7
ATOM      7  C   UNL     1     -22.052  32.265 -39.972  1.00  0.00     0.000 C 
BRANCH   7   8
ATOM      8  C   UNL     1     -20.985  33.342 -39.721  1.00  0.00    -0.000 C 
BRANCH   8   9
ATOM      9  C   UNL     1     -21.287  34.195 -38.479  1.00  0.00    -0.003 C 
ATOM     10  C   UNL     1     -22.784  34.221 -38.182  1.00  0.00     0.004 C 
ENDBRANCH   8   9
ENDBRANCH   7   8
ENDBRANCH   1   7
TORSDOF 6
ENDMDL
MODEL 2
REMARK VINA RESULT:    -3.206      4.441      5.712
REMARK INTER + INTRA:          -4.636
REMARK INTER:                  -4.480
REMARK INTRA:                  -0.156
REMARK UNBOUND:                -0.306
REMARK SMILES CCCCCCCC(=O)[O-]
REMARK SMILES IDX 5 1 6 2 7 3 8 4 9 5 10 6 4 7 3 8 2 9 1 10
REMARK H PARENT
REMARK Flexibility Score: inf
ROOT
ATOM      1  C   UNL     1     -21.563  30.695 -42.524  1.00  0.00     0.000 C 
ENDROOT
BRANCH   1   2
ATOM      2  C   UNL     1     -22.289  29.373 -42.803  1.00  0.00     0.006 C 
BRANCH   2   3
ATOM      3  C   UNL     1     -23.101  28.923 -41.585  1.00  0.00     0.053 C 
BRANCH   3   4
ATOM      4  C   UNL     1     -24.565  29.087 -41.843  1.00  0.00     0.041 C 
ATOM      5  O   UNL     1     -25.256  28.104 -42.219  1.00  0.00    -0.550 OA
ATOM      6  O   UNL     1     -25.158  30.336 -41.715  1.00  0.00    -0.550 OA
ENDBRANCH   3   4
ENDBRANCH   2   3
ENDBRANCH   1   2
BRANCH   1   7
ATOM      7  C   UNL     1     -20.040  30.511 -42.588  1.00  0.00     0.000 C 
BRANCH   7   8
ATOM      8  C   UNL     1     -19.272  31.775 -42.169  1.00  0.00    -0.000 C 
BRANCH   8   9
ATOM      9  C   UNL     1     -17.815  31.771 -42.656  1.00  0.00    -0.003 C 
ATOM     10  C   UNL     1     -17.719  32.258 -44.099  1.00  0.00     0.004 C 
ENDBRANCH   8   9
ENDBRANCH   7   8
ENDBRANCH   1   7
TORSDOF 6
ENDMDL
MODEL 3
REMARK VINA RESULT:    -3.137     15.625     16.486
REMARK INTER + INTRA:          -4.544
REMARK INTER:                  -4.435
REMARK INTRA:                  -0.109
REMARK UNBOUND:                -0.306
REMARK SMILES CCCCCCCC(=O)[O-]
REMARK SMILES IDX 5 1 6 2 7 3 8 4 9 5 10 6 4 7 3 8 2 9 1 10
REMARK H PARENT
REMARK Flexibility Score: inf
ROOT
ATOM      1  C   UNL     1     -24.745  22.935 -28.726  1.00  0.00     0.000 C 
ENDROOT
BRANCH   1   2
ATOM      2  C   UNL     1     -24.020  21.592 -28.871  1.00  0.00     0.006 C 
BRANCH   2   3
ATOM      3  C   UNL     1     -24.459  20.608 -27.783  1.00  0.00     0.053 C 
BRANCH   3   4
ATOM      4  C   UNL     1     -24.133  19.204 -28.184  1.00  0.00     0.041 C 
ATOM      5  O   UNL     1     -23.938  18.324 -27.305  1.00  0.00    -0.550 OA
ATOM      6  O   UNL     1     -23.997  18.879 -29.526  1.00  0.00    -0.550 OA
ENDBRANCH   3   4
ENDBRANCH   2   3
ENDBRANCH   1   2
BRANCH   1   7
ATOM      7  C   UNL     1     -24.366  23.892 -29.865  1.00  0.00     0.000 C 
BRANCH   7   8
ATOM      8  C   UNL     1     -23.907  25.268 -29.356  1.00  0.00    -0.000 C 
BRANCH   8   9
ATOM      9  C   UNL     1     -24.649  26.428 -30.037  1.00  0.00    -0.003 C 
ATOM     10  C   UNL     1     -24.001  26.785 -31.371  1.00  0.00     0.004 C 
ENDBRANCH   8   9
ENDBRANCH   7   8
ENDBRANCH   1   7
TORSDOF 6
ENDMDL
MODEL 4
REMARK VINA RESULT:    -3.131      3.552      5.421
REMARK INTER + INTRA:          -4.535
REMARK INTER:                  -4.378
REMARK INTRA:                  -0.157
REMARK UNBOUND:                -0.306
REMARK SMILES CCCCCCCC(=O)[O-]
REMARK SMILES IDX 5 1 6 2 7 3 8 4 9 5 10 6 4 7 3 8 2 9 1 10
REMARK H PARENT
REMARK Flexibility Score: inf
ROOT
ATOM      1  C   UNL     1     -23.998  33.303 -37.859  1.00  0.00     0.000 C 
ENDROOT
BRANCH   1   2
ATOM      2  C   UNL     1     -22.764  33.654 -37.019  1.00  0.00     0.006 C 
BRANCH   2   3
ATOM      3  C   UNL     1     -21.789  34.530 -37.810  1.00  0.00     0.053 C 
BRANCH   3   4
ATOM      4  C   UNL     1     -20.873  33.682 -38.634  1.00  0.00     0.041 C 
ATOM      5  O   UNL     1     -20.987  33.660 -39.888  1.00  0.00    -0.550 OA
ATOM      6  O   UNL     1     -19.925  32.878 -38.015  1.00  0.00    -0.550 OA
ENDBRANCH   3   4
ENDBRANCH   2   3
ENDBRANCH   1   2
BRANCH   1   7
ATOM      7  C   UNL     1     -25.230  34.087 -37.383  1.00  0.00     0.000 C 
BRANCH   7   8
ATOM      8  C   UNL     1     -26.551  33.401 -37.764  1.00  0.00    -0.000 C 
BRANCH   8   9
ATOM      9  C   UNL     1     -27.756  33.975 -37.002  1.00  0.00    -0.003 C 
ATOM     10  C   UNL     1     -28.560  34.925 -37.885  1.00  0.00     0.004 C 
ENDBRANCH   8   9
ENDBRANCH   7   8
ENDBRANCH   1   7
TORSDOF 6
ENDMDL
MODEL 5
REMARK VINA RESULT:    -3.119     13.626     14.676
REMARK INTER + INTRA:          -4.519
REMARK INTER:                  -4.018
REMARK INTRA:                  -0.501
REMARK UNBOUND:                -0.306
REMARK SMILES CCCCCCCC(=O)[O-]
REMARK SMILES IDX 5 1 6 2 7 3 8 4 9 5 10 6 4 7 3 8 2 9 1 10
REMARK H PARENT
REMARK Flexibility Score: inf
ROOT
ATOM      1  C   UNL     1     -26.343  18.603 -38.315  1.00  0.00     0.000 C 
ENDROOT
BRANCH   1   2
ATOM      2  C   UNL     1     -26.634  18.243 -36.852  1.00  0.00     0.006 C 
BRANCH   2   3
ATOM      3  C   UNL     1     -25.550  18.795 -35.922  1.00  0.00     0.053 C 
BRANCH   3   4
ATOM      4  C   UNL     1     -25.561  20.290 -35.934  1.00  0.00     0.041 C 
ATOM      5  O   UNL     1     -24.526  20.929 -36.260  1.00  0.00    -0.550 OA
ATOM      6  O   UNL     1     -26.700  20.980 -35.539  1.00  0.00    -0.550 OA
ENDBRANCH   3   4
ENDBRANCH   2   3
ENDBRANCH   1   2
BRANCH   1   7
ATOM      7  C   UNL     1     -27.645  18.764 -39.112  1.00  0.00     0.000 C 
BRANCH   7   8
ATOM      8  C   UNL     1     -27.712  20.097 -39.874  1.00  0.00    -0.000 C 
BRANCH   8   9
ATOM      9  C   UNL     1     -27.039  21.248 -39.111  1.00  0.00    -0.003 C 
ATOM     10  C   UNL     1     -28.077  22.142 -38.440  1.00  0.00     0.004 C 
ENDBRANCH   8   9
ENDBRANCH   7   8
ENDBRANCH   1   7
TORSDOF 6
ENDMDL
MODEL 6
REMARK VINA RESULT:    -3.092      1.962      2.715
REMARK INTER + INTRA:          -4.483
REMARK INTER:                  -4.172
REMARK INTRA:                  -0.310
REMARK UNBOUND:                -0.306
REMARK SMILES CCCCCCCC(=O)[O-]
REMARK SMILES IDX 5 1 6 2 7 3 8 4 9 5 10 6 4 7 3 8 2 9 1 10
REMARK H PARENT
REMARK Flexibility Score: inf
ROOT
ATOM      1  C   UNL     1     -20.644  33.362 -39.931  1.00  0.00     0.000 C 
ENDROOT
BRANCH   1   2
ATOM      2  C   UNL     1     -20.699  31.839 -40.111  1.00  0.00     0.006 C 
BRANCH   2   3
ATOM      3  C   UNL     1     -21.804  31.439 -41.092  1.00  0.00     0.053 C 
BRANCH   3   4
ATOM      4  C   UNL     1     -21.230  30.682 -42.247  1.00  0.00     0.041 C 
ATOM      5  O   UNL     1     -21.943  29.862 -42.884  1.00  0.00    -0.550 OA
ATOM      6  O   UNL     1     -19.895  30.844 -42.590  1.00  0.00    -0.550 OA
ENDBRANCH   3   4
ENDBRANCH   2   3
ENDBRANCH   1   2
BRANCH   1   7
ATOM      7  C   UNL     1     -20.863  33.751 -38.462  1.00  0.00     0.000 C 
BRANCH   7   8
ATOM      8  C   UNL     1     -22.262  34.333 -38.205  1.00  0.00    -0.000 C 
BRANCH   8   9
ATOM      9  C   UNL     1     -23.189  33.346 -37.479  1.00  0.00    -0.003 C 
ATOM     10  C   UNL     1     -24.644  33.797 -37.565  1.00  0.00     0.004 C 
ENDBRANCH   8   9
ENDBRANCH   7   8
ENDBRANCH   1   7
TORSDOF 6
ENDMDL
MODEL 7
REMARK VINA RESULT:    -3.086     18.323     19.077
REMARK INTER + INTRA:          -4.475
REMARK INTER:                  -3.830
REMARK INTRA:                  -0.644
REMARK UNBOUND:                -0.306
REMARK SMILES CCCCCCCC(=O)[O-]
REMARK SMILES IDX 5 1 6 2 7 3 8 4 9 5 10 6 4 7 3 8 2 9 1 10
REMARK H PARENT
REMARK Flexibility Score: inf
ROOT
ATOM      1  C   UNL     1     -23.838  19.527 -26.144  1.00  0.00     0.000 C 
ENDROOT
BRANCH   1   2
ATOM      2  C   UNL     1     -24.739  20.004 -27.290  1.00  0.00     0.006 C 
BRANCH   2   3
ATOM      3  C   UNL     1     -23.919  20.693 -28.385  1.00  0.00     0.053 C 
BRANCH   3   4
ATOM      4  C   UNL     1     -24.039  19.948 -29.676  1.00  0.00     0.041 C 
ATOM      5  O   UNL     1     -24.386  20.550 -30.726  1.00  0.00    -0.550 OA
ATOM      6  O   UNL     1     -23.815  18.578 -29.711  1.00  0.00    -0.550 OA
ENDBRANCH   3   4
ENDBRANCH   2   3
ENDBRANCH   1   2
BRANCH   1   7
ATOM      7  C   UNL     1     -23.674  18.000 -26.172  1.00  0.00     0.000 C 
BRANCH   7   8
ATOM      8  C   UNL     1     -22.261  17.564 -26.592  1.00  0.00    -0.000 C 
BRANCH   8   9
ATOM      9  C   UNL     1     -21.236  18.704 -26.492  1.00  0.00    -0.003 C 
ATOM     10  C   UNL     1     -20.602  18.991 -27.850  1.00  0.00     0.004 C 
ENDBRANCH   8   9
ENDBRANCH   7   8
ENDBRANCH   1   7
TORSDOF 6
ENDMDL
MODEL 8
REMARK VINA RESULT:    -3.041     18.613     19.290
REMARK INTER + INTRA:          -4.414
REMARK INTER:                  -3.857
REMARK INTRA:                  -0.557
REMARK UNBOUND:                -0.306
REMARK SMILES CCCCCCCC(=O)[O-]
REMARK SMILES IDX 5 1 6 2 7 3 8 4 9 5 10 6 4 7 3 8 2 9 1 10
REMARK H PARENT
REMARK Flexibility Score: inf
ROOT
ATOM      1  C   UNL     1     -24.431  19.872 -27.321  1.00  0.00     0.000 C 
ENDROOT
BRANCH   1   2
ATOM      2  C   UNL     1     -23.510  19.989 -28.543  1.00  0.00     0.006 C 
BRANCH   2   3
ATOM      3  C   UNL     1     -23.879  18.956 -29.611  1.00  0.00     0.053 C 
BRANCH   3   4
ATOM      4  C   UNL     1     -22.652  18.274 -30.127  1.00  0.00     0.041 C 
ATOM      5  O   UNL     1     -22.197  17.259 -29.538  1.00  0.00    -0.550 OA
ATOM      6  O   UNL     1     -21.983  18.789 -31.229  1.00  0.00    -0.550 OA
ENDBRANCH   3   4
ENDBRANCH   2   3
ENDBRANCH   1   2
BRANCH   1   7
ATOM      7  C   UNL     1     -23.673  19.300 -26.114  1.00  0.00     0.000 C 
BRANCH   7   8
ATOM      8  C   UNL     1     -23.692  17.763 -26.076  1.00  0.00    -0.000 C 
BRANCH   8   9
ATOM      9  C   UNL     1     -22.282  17.155 -26.061  1.00  0.00    -0.003 C 
ATOM     10  C   UNL     1     -21.214  18.245 -26.094  1.00  0.00     0.004 C 
ENDBRANCH   8   9
ENDBRANCH   7   8
ENDBRANCH   1   7
TORSDOF 6
ENDMDL
