MODEL 1
REMARK VINA RESULT:    -4.335      0.000      0.000
REMARK INTER + INTRA:          -4.717
REMARK INTER:                  -4.588
REMARK INTRA:                  -0.129
REMARK UNBOUND:                -0.129
REMARK SMILES C=C(C)[C@H]1CC=C(C)CC1
REMARK SMILES IDX 8 1 7 2 6 3 5 4 4 5 10 6 9 7 2 8 1 9 3 10
REMARK H PARENT
REMARK Flexibility Score: inf
ROOT
ATOM      1  C   UNL     1      39.886  20.204  -0.216  1.00  0.00     0.039 C 
ATOM      2  C   UNL     1      40.869  20.092  -1.350  1.00  0.00    -0.077 C 
ATOM      3  C   UNL     1      40.450  19.594  -2.533  1.00  0.00    -0.027 C 
ATOM      4  C   UNL     1      41.371  19.392  -3.712  1.00  0.00     0.035 C 
ATOM      5  C   UNL     1      42.622  20.282  -3.631  1.00  0.00     0.018 C 
ATOM      6  C   UNL     1      43.252  20.174  -2.234  1.00  0.00     0.013 C 
ATOM      7  C   UNL     1      42.262  20.663  -1.169  1.00  0.00     0.031 C 
ENDROOT
BRANCH   5   8
ATOM      8  C   UNL     1      43.623  19.933  -4.725  1.00  0.00    -0.077 C 
ATOM      9  C   UNL     1      44.077  18.675  -4.844  1.00  0.00     0.008 C 
ATOM     10  C   UNL     1      44.135  20.977  -5.686  1.00  0.00     0.039 C 
ENDBRANCH   5   8
TORSDOF 1
ENDMDL
MODEL 2
REMARK VINA RESULT:    -4.317      0.531      1.974
REMARK INTER + INTRA:          -4.698
REMARK INTER:                  -4.569
REMARK INTRA:                  -0.129
REMARK UNBOUND:                -0.129
REMARK SMILES C=C(C)[C@H]1CC=C(C)CC1
REMARK SMILES IDX 8 1 7 2 6 3 5 4 4 5 10 6 9 7 2 8 1 9 3 10
REMARK H PARENT
REMARK Flexibility Score: inf
ROOT
ATOM      1  C   UNL     1      40.252  20.245  -0.376  1.00  0.00     0.039 C 
ATOM      2  C   UNL     1      41.153  20.142  -1.576  1.00  0.00    -0.077 C 
ATOM      3  C   UNL     1      42.433  20.560  -1.472  1.00  0.00    -0.027 C 
ATOM      4  C   UNL     1      43.398  20.547  -2.633  1.00  0.00     0.035 C 
ATOM      5  C   UNL     1      42.983  19.545  -3.723  1.00  0.00     0.018 C 
ATOM      6  C   UNL     1      41.495  19.727  -4.061  1.00  0.00     0.013 C 
ATOM      7  C   UNL     1      40.634  19.452  -2.822  1.00  0.00     0.031 C 
ENDROOT
BRANCH   5   8
ATOM      8  C   UNL     1      43.859  19.679  -4.962  1.00  0.00    -0.077 C 
ATOM      9  C   UNL     1      44.034  20.880  -5.535  1.00  0.00     0.008 C 
ATOM     10  C   UNL     1      44.538  18.481  -5.578  1.00  0.00     0.039 C 
ENDBRANCH   5   8
TORSDOF 1
ENDMDL
MODEL 3
REMARK VINA RESULT:    -3.799      1.321      4.600
REMARK INTER + INTRA:          -4.150
REMARK INTER:                  -4.018
REMARK INTRA:                  -0.132
REMARK UNBOUND:                -0.129
REMARK SMILES C=C(C)[C@H]1CC=C(C)CC1
REMARK SMILES IDX 8 1 7 2 6 3 5 4 4 5 10 6 9 7 2 8 1 9 3 10
REMARK H PARENT
REMARK Flexibility Score: inf
ROOT
ATOM      1  C   UNL     1      45.129  19.727  -7.125  1.00  0.00     0.039 C 
ATOM      2  C   UNL     1      44.353  19.662  -5.838  1.00  0.00    -0.077 C 
ATOM      3  C   UNL     1      44.302  18.494  -5.162  1.00  0.00    -0.027 C 
ATOM      4  C   UNL     1      43.507  18.314  -3.891  1.00  0.00     0.035 C 
ATOM      5  C   UNL     1      43.244  19.650  -3.176  1.00  0.00     0.018 C 
ATOM      6  C   UNL     1      42.719  20.687  -4.180  1.00  0.00     0.013 C 
ATOM      7  C   UNL     1      43.765  20.941  -5.274  1.00  0.00     0.031 C 
ENDROOT
BRANCH   5   8
ATOM      8  C   UNL     1      42.289  19.473  -2.003  1.00  0.00    -0.077 C 
ATOM      9  C   UNL     1      41.768  18.265  -1.737  1.00  0.00     0.008 C 
ATOM     10  C   UNL     1      41.898  20.636  -1.124  1.00  0.00     0.039 C 
ENDBRANCH   5   8
TORSDOF 1
ENDMDL
MODEL 4
REMARK VINA RESULT:    -3.783      1.290      1.917
REMARK INTER + INTRA:          -4.133
REMARK INTER:                  -4.004
REMARK INTRA:                  -0.129
REMARK UNBOUND:                -0.129
REMARK SMILES C=C(C)[C@H]1CC=C(C)CC1
REMARK SMILES IDX 8 1 7 2 6 3 5 4 4 5 10 6 9 7 2 8 1 9 3 10
REMARK H PARENT
REMARK Flexibility Score: inf
ROOT
ATOM      1  C   UNL     1      41.502  19.447  -0.844  1.00  0.00     0.039 C 
ATOM      2  C   UNL     1      42.166  19.653  -2.178  1.00  0.00    -0.077 C 
ATOM      3  C   UNL     1      41.928  20.796  -2.858  1.00  0.00    -0.027 C 
ATOM      4  C   UNL     1      42.503  21.073  -4.226  1.00  0.00     0.035 C 
ATOM      5  C   UNL     1      43.764  20.237  -4.507  1.00  0.00     0.018 C 
ATOM      6  C   UNL     1      43.506  18.765  -4.149  1.00  0.00     0.013 C 
ATOM      7  C   UNL     1      43.182  18.634  -2.655  1.00  0.00     0.031 C 
ENDROOT
BRANCH   5   8
ATOM      8  C   UNL     1      44.220  20.389  -5.951  1.00  0.00    -0.077 C 
ATOM      9  C   UNL     1      44.413  19.302  -6.714  1.00  0.00     0.008 C 
ATOM     10  C   UNL     1      44.475  21.748  -6.556  1.00  0.00     0.039 C 
ENDBRANCH   5   8
TORSDOF 1
ENDMDL
MODEL 5
REMARK VINA RESULT:    -3.766      2.433      4.661
REMARK INTER + INTRA:          -4.115
REMARK INTER:                  -3.986
REMARK INTRA:                  -0.129
REMARK UNBOUND:                -0.129
REMARK SMILES C=C(C)[C@H]1CC=C(C)CC1
REMARK SMILES IDX 8 1 7 2 6 3 5 4 4 5 10 6 9 7 2 8 1 9 3 10
REMARK H PARENT
REMARK Flexibility Score: inf
ROOT
ATOM      1  C   UNL     1      44.377  21.659  -6.482  1.00  0.00     0.039 C 
ATOM      2  C   UNL     1      44.195  20.458  -5.595  1.00  0.00    -0.077 C 
ATOM      3  C   UNL     1      43.584  20.612  -4.401  1.00  0.00    -0.027 C 
ATOM      4  C   UNL     1      43.402  19.479  -3.419  1.00  0.00     0.035 C 
ATOM      5  C   UNL     1      43.461  18.102  -4.102  1.00  0.00     0.018 C 
ATOM      6  C   UNL     1      44.687  18.029  -5.025  1.00  0.00     0.013 C 
ATOM      7  C   UNL     1      44.584  19.092  -6.126  1.00  0.00     0.031 C 
ENDROOT
BRANCH   5   8
ATOM      8  C   UNL     1      43.463  16.975  -3.078  1.00  0.00    -0.077 C 
ATOM      9  C   UNL     1      44.536  16.178  -2.958  1.00  0.00     0.008 C 
ATOM     10  C   UNL     1      42.271  16.718  -2.189  1.00  0.00     0.039 C 
ENDBRANCH   5   8
TORSDOF 1
ENDMDL
MODEL 6
REMARK VINA RESULT:    -3.718      1.146      4.675
REMARK INTER + INTRA:          -4.064
REMARK INTER:                  -3.935
REMARK INTRA:                  -0.129
REMARK UNBOUND:                -0.129
REMARK SMILES C=C(C)[C@H]1CC=C(C)CC1
REMARK SMILES IDX 8 1 7 2 6 3 5 4 4 5 10 6 9 7 2 8 1 9 3 10
REMARK H PARENT
REMARK Flexibility Score: inf
ROOT
ATOM      1  C   UNL     1      45.114  19.029  -6.855  1.00  0.00     0.039 C 
ATOM      2  C   UNL     1      44.353  19.250  -5.576  1.00  0.00    -0.077 C 
ATOM      3  C   UNL     1      44.026  20.511  -5.219  1.00  0.00    -0.027 C 
ATOM      4  C   UNL     1      43.311  20.840  -3.930  1.00  0.00     0.035 C 
ATOM      5  C   UNL     1      42.533  19.636  -3.373  1.00  0.00     0.018 C 
ATOM      6  C   UNL     1      43.431  18.390  -3.368  1.00  0.00     0.013 C 
ATOM      7  C   UNL     1      43.864  18.044  -4.798  1.00  0.00     0.031 C 
ENDROOT
BRANCH   5   8
ATOM      8  C   UNL     1      41.976  19.930  -1.987  1.00  0.00    -0.077 C 
ATOM      9  C   UNL     1      42.768  20.458  -1.041  1.00  0.00     0.008 C 
ATOM     10  C   UNL     1      40.539  19.629  -1.637  1.00  0.00     0.039 C 
ENDBRANCH   5   8
TORSDOF 1
ENDMDL
MODEL 7
REMARK VINA RESULT:    -3.603      7.768      9.804
REMARK INTER + INTRA:          -3.942
REMARK INTER:                  -3.814
REMARK INTRA:                  -0.129
REMARK UNBOUND:                -0.129
REMARK SMILES C=C(C)[C@H]1CC=C(C)CC1
REMARK SMILES IDX 8 1 7 2 6 3 5 4 4 5 10 6 9 7 2 8 1 9 3 10
REMARK H PARENT
REMARK Flexibility Score: inf
ROOT
ATOM      1  C   UNL     1      46.846  13.988  -2.964  1.00  0.00     0.039 C 
ATOM      2  C   UNL     1      48.115  14.193  -3.746  1.00  0.00    -0.077 C 
ATOM      3  C   UNL     1      48.356  15.402  -4.297  1.00  0.00    -0.027 C 
ATOM      4  C   UNL     1      49.573  15.691  -5.143  1.00  0.00     0.035 C 
ATOM      5  C   UNL     1      50.723  14.709  -4.862  1.00  0.00     0.018 C 
ATOM      6  C   UNL     1      50.195  13.266  -4.879  1.00  0.00     0.013 C 
ATOM      7  C   UNL     1      49.141  13.077  -3.780  1.00  0.00     0.031 C 
ENDROOT
BRANCH   5   8
ATOM      8  C   UNL     1      51.867  14.897  -5.850  1.00  0.00    -0.077 C 
ATOM      9  C   UNL     1      52.247  16.133  -6.211  1.00  0.00     0.008 C 
ATOM     10  C   UNL     1      52.589  13.717  -6.452  1.00  0.00     0.039 C 
ENDBRANCH   5   8
TORSDOF 1
ENDMDL
MODEL 8
REMARK VINA RESULT:    -3.549      8.485     11.485
REMARK INTER + INTRA:          -3.885
REMARK INTER:                  -3.757
REMARK INTRA:                  -0.128
REMARK UNBOUND:                -0.129
REMARK SMILES C=C(C)[C@H]1CC=C(C)CC1
REMARK SMILES IDX 8 1 7 2 6 3 5 4 4 5 10 6 9 7 2 8 1 9 3 10
REMARK H PARENT
REMARK Flexibility Score: inf
ROOT
ATOM      1  C   UNL     1      54.357  14.374  -7.121  1.00  0.00     0.039 C 
ATOM      2  C   UNL     1      52.989  14.428  -6.496  1.00  0.00    -0.077 C 
ATOM      3  C   UNL     1      52.313  13.275  -6.299  1.00  0.00    -0.027 C 
ATOM      4  C   UNL     1      50.916  13.229  -5.729  1.00  0.00     0.035 C 
ATOM      5  C   UNL     1      50.579  14.489  -4.914  1.00  0.00     0.018 C 
ATOM      6  C   UNL     1      50.961  15.745  -5.711  1.00  0.00     0.013 C 
ATOM      7  C   UNL     1      52.470  15.758  -5.987  1.00  0.00     0.031 C 
ENDROOT
BRANCH   5   8
ATOM      8  C   UNL     1      49.112  14.510  -4.506  1.00  0.00    -0.077 C 
ATOM      9  C   UNL     1      48.523  13.389  -4.059  1.00  0.00     0.008 C 
ATOM     10  C   UNL     1      48.287  15.770  -4.600  1.00  0.00     0.039 C 
ENDBRANCH   5   8
TORSDOF 1
ENDMDL
MODEL 9
REMARK VINA RESULT:    -3.526      8.318     11.346
REMARK INTER + INTRA:          -3.861
REMARK INTER:                  -3.732
REMARK INTRA:                  -0.129
REMARK UNBOUND:                -0.129
REMARK SMILES C=C(C)[C@H]1CC=C(C)CC1
REMARK SMILES IDX 8 1 7 2 6 3 5 4 4 5 10 6 9 7 2 8 1 9 3 10
REMARK H PARENT
REMARK Flexibility Score: inf
ROOT
ATOM      1  C   UNL     1      54.122  13.123  -6.754  1.00  0.00     0.039 C 
ATOM      2  C   UNL     1      52.884  13.895  -6.386  1.00  0.00    -0.077 C 
ATOM      3  C   UNL     1      52.869  15.233  -6.566  1.00  0.00    -0.027 C 
ATOM      4  C   UNL     1      51.696  16.101  -6.179  1.00  0.00     0.035 C 
ATOM      5  C   UNL     1      50.384  15.303  -6.097  1.00  0.00     0.018 C 
ATOM      6  C   UNL     1      50.601  14.024  -5.274  1.00  0.00     0.013 C 
ATOM      7  C   UNL     1      51.648  13.131  -5.950  1.00  0.00     0.031 C 
ENDROOT
BRANCH   5   8
ATOM      8  C   UNL     1      49.254  16.150  -5.528  1.00  0.00    -0.077 C 
ATOM      9  C   UNL     1      48.598  15.745  -4.429  1.00  0.00     0.008 C 
ATOM     10  C   UNL     1      48.838  17.446  -6.179  1.00  0.00     0.039 C 
ENDBRANCH   5   8
TORSDOF 1
ENDMDL
