MODEL 1
REMARK VINA RESULT:    -4.480      0.000      0.000
REMARK INTER + INTRA:          -7.779
REMARK INTER:                  -6.837
REMARK INTRA:                  -0.942
REMARK UNBOUND:                -0.942
REMARK SMILES O=C([O-])CCCCCCCCC(=O)[O-]
REMARK SMILES IDX 7 1 6 2 5 3 4 4 2 5 1 6 3 7 8 8 9 9 10 10 11 11 12 12 13 13
REMARK SMILES IDX 14 14
REMARK H PARENT
REMARK Flexibility Score: inf
ROOT
ATOM      1  C   UNL     1       2.156  52.949  19.213  1.00  0.00     0.000 C 
ENDROOT
BRANCH   1   2
ATOM      2  C   UNL     1       2.858  53.860  20.231  1.00  0.00     0.000 C 
BRANCH   2   3
ATOM      3  C   UNL     1       2.042  55.137  20.480  1.00  0.00     0.006 C 
BRANCH   3   4
ATOM      4  C   UNL     1       0.530  54.876  20.451  1.00  0.00     0.053 C 
BRANCH   4   5
ATOM      5  C   UNL     1      -0.193  55.899  19.631  1.00  0.00     0.041 C 
ATOM      6  O   UNL     1      -1.442  56.027  19.733  1.00  0.00    -0.550 OA
ATOM      7  O   UNL     1       0.507  56.690  18.730  1.00  0.00    -0.550 OA
ENDBRANCH   4   5
ENDBRANCH   3   4
ENDBRANCH   2   3
ENDBRANCH   1   2
BRANCH   1   8
ATOM      8  C   UNL     1       2.733  53.087  17.796  1.00  0.00     0.000 C 
BRANCH   8   9
ATOM      9  C   UNL     1       1.753  53.763  16.820  1.00  0.00     0.000 C 
BRANCH   9  10
ATOM     10  C   UNL     1       2.303  55.091  16.259  1.00  0.00     0.006 C 
BRANCH  10  11
ATOM     11  C   UNL     1       3.832  55.105  16.103  1.00  0.00     0.053 C 
BRANCH  11  12
ATOM     12  C   UNL     1       4.477  56.189  16.907  1.00  0.00     0.041 C 
ATOM     13  O   UNL     1       3.871  56.696  17.888  1.00  0.00    -0.550 OA
ATOM     14  O   UNL     1       5.736  56.659  16.558  1.00  0.00    -0.550 OA
ENDBRANCH  11  12
ENDBRANCH  10  11
ENDBRANCH   9  10
ENDBRANCH   8   9
ENDBRANCH   1   8
TORSDOF 9
ENDMDL
MODEL 2
REMARK VINA RESULT:    -4.469      2.136      3.154
REMARK INTER + INTRA:          -7.762
REMARK INTER:                  -6.917
REMARK INTRA:                  -0.846
REMARK UNBOUND:                -0.942
REMARK SMILES O=C([O-])CCCCCCCCC(=O)[O-]
REMARK SMILES IDX 7 1 6 2 5 3 4 4 2 5 1 6 3 7 8 8 9 9 10 10 11 11 12 12 13 13
REMARK SMILES IDX 14 14
REMARK H PARENT
REMARK Flexibility Score: inf
ROOT
ATOM      1  C   UNL     1      -0.427  56.480  17.481  1.00  0.00     0.000 C 
ENDROOT
BRANCH   1   2
ATOM      2  C   UNL     1      -0.683  55.244  18.357  1.00  0.00     0.000 C 
BRANCH   2   3
ATOM      3  C   UNL     1      -0.556  55.591  19.847  1.00  0.00     0.006 C 
BRANCH   3   4
ATOM      4  C   UNL     1       0.063  54.447  20.660  1.00  0.00     0.053 C 
BRANCH   4   5
ATOM      5  C   UNL     1       1.557  54.436  20.552  1.00  0.00     0.041 C 
ATOM      6  O   UNL     1       2.237  55.369  21.055  1.00  0.00    -0.550 OA
ATOM      7  O   UNL     1       2.198  53.411  19.868  1.00  0.00    -0.550 OA
ENDBRANCH   4   5
ENDBRANCH   3   4
ENDBRANCH   2   3
ENDBRANCH   1   2
BRANCH   1   8
ATOM      8  C   UNL     1       1.059  56.664  17.134  1.00  0.00     0.000 C 
BRANCH   8   9
ATOM      9  C   UNL     1       1.742  57.739  18.000  1.00  0.00     0.000 C 
BRANCH   9  10
ATOM     10  C   UNL     1       3.222  57.412  18.283  1.00  0.00     0.006 C 
BRANCH  10  11
ATOM     11  C   UNL     1       3.632  55.993  17.853  1.00  0.00     0.053 C 
BRANCH  11  12
ATOM     12  C   UNL     1       4.676  56.000  16.782  1.00  0.00     0.041 C 
ATOM     13  O   UNL     1       4.496  55.350  15.718  1.00  0.00    -0.550 OA
ATOM     14  O   UNL     1       5.860  56.702  16.969  1.00  0.00    -0.550 OA
ENDBRANCH  11  12
ENDBRANCH  10  11
ENDBRANCH   9  10
ENDBRANCH   8   9
ENDBRANCH   1   8
TORSDOF 9
ENDMDL
MODEL 3
REMARK VINA RESULT:    -4.434      0.754      4.958
REMARK INTER + INTRA:          -7.709
REMARK INTER:                  -6.760
REMARK INTRA:                  -0.949
REMARK UNBOUND:                -0.942
REMARK SMILES O=C([O-])CCCCCCCCC(=O)[O-]
REMARK SMILES IDX 7 1 6 2 5 3 4 4 2 5 1 6 3 7 8 8 9 9 10 10 11 11 12 12 13 13
REMARK SMILES IDX 14 14
REMARK H PARENT
REMARK Flexibility Score: inf
ROOT
ATOM      1  C   UNL     1       2.443  53.014  17.722  1.00  0.00     0.000 C 
ENDROOT
BRANCH   1   2
ATOM      2  C   UNL     1       1.429  53.911  16.996  1.00  0.00     0.000 C 
BRANCH   2   3
ATOM      3  C   UNL     1       2.142  54.921  16.085  1.00  0.00     0.006 C 
BRANCH   3   4
ATOM      4  C   UNL     1       3.082  55.848  16.868  1.00  0.00     0.053 C 
BRANCH   4   5
ATOM      5  C   UNL     1       4.482  55.791  16.339  1.00  0.00     0.041 C 
ATOM      6  O   UNL     1       4.823  54.881  15.538  1.00  0.00    -0.550 OA
ATOM      7  O   UNL     1       5.421  56.726  16.756  1.00  0.00    -0.550 OA
ENDBRANCH   4   5
ENDBRANCH   3   4
ENDBRANCH   2   3
ENDBRANCH   1   2
BRANCH   1   8
ATOM      8  C   UNL     1       2.120  52.839  19.214  1.00  0.00     0.000 C 
BRANCH   8   9
ATOM      9  C   UNL     1       2.946  53.775  20.115  1.00  0.00     0.000 C 
BRANCH   9  10
ATOM     10  C   UNL     1       2.143  55.010  20.573  1.00  0.00     0.006 C 
BRANCH  10  11
ATOM     11  C   UNL     1       0.626  54.769  20.632  1.00  0.00     0.053 C 
BRANCH  11  12
ATOM     12  C   UNL     1      -0.137  55.712  19.756  1.00  0.00     0.041 C 
ATOM     13  O   UNL     1       0.477  56.536  19.027  1.00  0.00    -0.550 OA
ATOM     14  O   UNL     1      -1.525  55.700  19.763  1.00  0.00    -0.550 OA
ENDBRANCH  11  12
ENDBRANCH  10  11
ENDBRANCH   9  10
ENDBRANCH   8   9
ENDBRANCH   1   8
TORSDOF 9
ENDMDL
MODEL 4
REMARK VINA RESULT:    -4.384      2.645      3.608
REMARK INTER + INTRA:          -7.633
REMARK INTER:                  -7.061
REMARK INTRA:                  -0.572
REMARK UNBOUND:                -0.942
REMARK SMILES O=C([O-])CCCCCCCCC(=O)[O-]
REMARK SMILES IDX 7 1 6 2 5 3 4 4 2 5 1 6 3 7 8 8 9 9 10 10 11 11 12 12 13 13
REMARK SMILES IDX 14 14
REMARK H PARENT
REMARK Flexibility Score: inf
ROOT
ATOM      1  C   UNL     1      -0.116  55.679  17.632  1.00  0.00     0.000 C 
ENDROOT
BRANCH   1   2
ATOM      2  C   UNL     1      -0.538  56.196  19.016  1.00  0.00     0.000 C 
BRANCH   2   3
ATOM      3  C   UNL     1      -1.990  55.808  19.329  1.00  0.00     0.006 C 
BRANCH   3   4
ATOM      4  C   UNL     1      -2.867  55.774  18.070  1.00  0.00     0.053 C 
BRANCH   4   5
ATOM      5  C   UNL     1      -3.653  57.039  17.909  1.00  0.00     0.041 C 
ATOM      6  O   UNL     1      -3.298  57.905  17.065  1.00  0.00    -0.550 OA
ATOM      7  O   UNL     1      -4.761  57.277  18.713  1.00  0.00    -0.550 OA
ENDBRANCH   4   5
ENDBRANCH   3   4
ENDBRANCH   2   3
ENDBRANCH   1   2
BRANCH   1   8
ATOM      8  C   UNL     1       0.992  56.530  16.993  1.00  0.00     0.000 C 
BRANCH   8   9
ATOM      9  C   UNL     1       1.528  57.616  17.942  1.00  0.00     0.000 C 
BRANCH   9  10
ATOM     10  C   UNL     1       3.017  57.410  18.290  1.00  0.00     0.006 C 
BRANCH  10  11
ATOM     11  C   UNL     1       3.542  56.010  17.937  1.00  0.00     0.053 C 
BRANCH  11  12
ATOM     12  C   UNL     1       4.572  56.043  16.852  1.00  0.00     0.041 C 
ATOM     13  O   UNL     1       5.567  56.809  16.946  1.00  0.00    -0.550 OA
ATOM     14  O   UNL     1       4.419  55.249  15.723  1.00  0.00    -0.550 OA
ENDBRANCH  11  12
ENDBRANCH  10  11
ENDBRANCH   9  10
ENDBRANCH   8   9
ENDBRANCH   1   8
TORSDOF 9
ENDMDL
MODEL 5
REMARK VINA RESULT:    -4.322      1.959      4.369
REMARK INTER + INTRA:          -7.539
REMARK INTER:                  -6.338
REMARK INTRA:                  -1.201
REMARK UNBOUND:                -0.942
REMARK SMILES O=C([O-])CCCCCCCCC(=O)[O-]
REMARK SMILES IDX 7 1 6 2 5 3 4 4 2 5 1 6 3 7 8 8 9 9 10 10 11 11 12 12 13 13
REMARK SMILES IDX 14 14
REMARK H PARENT
REMARK Flexibility Score: inf
ROOT
ATOM      1  C   UNL     1      -0.202  56.173  19.404  1.00  0.00     0.000 C 
ENDROOT
BRANCH   1   2
ATOM      2  C   UNL     1      -0.243  55.830  17.907  1.00  0.00     0.000 C 
BRANCH   2   3
ATOM      3  C   UNL     1       0.704  56.739  17.110  1.00  0.00     0.006 C 
BRANCH   3   4
ATOM      4  C   UNL     1       2.022  56.037  16.755  1.00  0.00     0.053 C 
BRANCH   4   5
ATOM      5  C   UNL     1       3.137  56.462  17.661  1.00  0.00     0.041 C 
ATOM      6  O   UNL     1       3.014  57.487  18.382  1.00  0.00    -0.550 OA
ATOM      7  O   UNL     1       4.325  55.743  17.685  1.00  0.00    -0.550 OA
ENDBRANCH   4   5
ENDBRANCH   3   4
ENDBRANCH   2   3
ENDBRANCH   1   2
BRANCH   1   8
ATOM      8  C   UNL     1       0.219  54.979  20.275  1.00  0.00     0.000 C 
BRANCH   8   9
ATOM      9  C   UNL     1       1.670  55.092  20.776  1.00  0.00     0.000 C 
BRANCH   9  10
ATOM     10  C   UNL     1       2.557  53.932  20.277  1.00  0.00     0.006 C 
BRANCH  10  11
ATOM     11  C   UNL     1       1.776  52.842  19.525  1.00  0.00     0.053 C 
BRANCH  11  12
ATOM     12  C   UNL     1       2.249  52.668  18.117  1.00  0.00     0.041 C 
ATOM     13  O   UNL     1       3.473  52.491  17.878  1.00  0.00    -0.550 OA
ATOM     14  O   UNL     1       1.344  52.730  17.066  1.00  0.00    -0.550 OA
ENDBRANCH  11  12
ENDBRANCH  10  11
ENDBRANCH   9  10
ENDBRANCH   8   9
ENDBRANCH   1   8
TORSDOF 9
ENDMDL
MODEL 6
REMARK VINA RESULT:    -4.321      2.239      4.812
REMARK INTER + INTRA:          -7.537
REMARK INTER:                  -6.523
REMARK INTRA:                  -1.015
REMARK UNBOUND:                -0.942
REMARK SMILES O=C([O-])CCCCCCCCC(=O)[O-]
REMARK SMILES IDX 7 1 6 2 5 3 4 4 2 5 1 6 3 7 8 8 9 9 10 10 11 11 12 12 13 13
REMARK SMILES IDX 14 14
REMARK H PARENT
REMARK Flexibility Score: inf
ROOT
ATOM      1  C   UNL     1      -1.509  52.637  17.352  1.00  0.00     0.000 C 
ENDROOT
BRANCH   1   2
ATOM      2  C   UNL     1      -0.052  52.534  17.829  1.00  0.00     0.000 C 
BRANCH   2   3
ATOM      3  C   UNL     1       0.916  53.052  16.756  1.00  0.00     0.006 C 
BRANCH   3   4
ATOM      4  C   UNL     1       1.960  54.018  17.331  1.00  0.00     0.053 C 
BRANCH   4   5
ATOM      5  C   UNL     1       2.156  55.212  16.448  1.00  0.00     0.041 C 
ATOM      6  O   UNL     1       1.264  56.098  16.370  1.00  0.00    -0.550 OA
ATOM      7  O   UNL     1       3.312  55.331  15.687  1.00  0.00    -0.550 OA
ENDBRANCH   4   5
ENDBRANCH   3   4
ENDBRANCH   2   3
ENDBRANCH   1   2
BRANCH   1   8
ATOM      8  C   UNL     1      -2.358  53.564  18.236  1.00  0.00     0.000 C 
BRANCH   8   9
ATOM      9  C   UNL     1      -2.026  55.052  18.028  1.00  0.00     0.000 C 
BRANCH   9  10
ATOM     10  C   UNL     1      -1.695  55.772  19.352  1.00  0.00     0.006 C 
BRANCH  10  11
ATOM     11  C   UNL     1      -0.187  55.933  19.604  1.00  0.00     0.053 C 
BRANCH  11  12
ATOM     12  C   UNL     1       0.338  54.936  20.587  1.00  0.00     0.041 C 
ATOM     13  O   UNL     1      -0.442  54.104  21.122  1.00  0.00    -0.550 OA
ATOM     14  O   UNL     1       1.682  54.941  20.934  1.00  0.00    -0.550 OA
ENDBRANCH  11  12
ENDBRANCH  10  11
ENDBRANCH   9  10
ENDBRANCH   8   9
ENDBRANCH   1   8
TORSDOF 9
ENDMDL
MODEL 7
REMARK VINA RESULT:    -4.306      2.483      4.836
REMARK INTER + INTRA:          -7.514
REMARK INTER:                  -6.371
REMARK INTRA:                  -1.143
REMARK UNBOUND:                -0.942
REMARK SMILES O=C([O-])CCCCCCCCC(=O)[O-]
REMARK SMILES IDX 7 1 6 2 5 3 4 4 2 5 1 6 3 7 8 8 9 9 10 10 11 11 12 12 13 13
REMARK SMILES IDX 14 14
REMARK H PARENT
REMARK Flexibility Score: inf
ROOT
ATOM      1  C   UNL     1       2.103  55.385  16.738  1.00  0.00     0.000 C 
ENDROOT
BRANCH   1   2
ATOM      2  C   UNL     1       0.884  56.310  16.874  1.00  0.00     0.000 C 
BRANCH   2   3
ATOM      3  C   UNL     1       0.792  56.892  18.292  1.00  0.00     0.006 C 
BRANCH   3   4
ATOM      4  C   UNL     1      -0.169  56.098  19.186  1.00  0.00     0.053 C 
BRANCH   4   5
ATOM      5  C   UNL     1       0.561  55.360  20.266  1.00  0.00     0.041 C 
ATOM      6  O   UNL     1       1.778  55.597  20.486  1.00  0.00    -0.550 OA
ATOM      7  O   UNL     1      -0.094  54.385  21.008  1.00  0.00    -0.550 OA
ENDBRANCH   4   5
ENDBRANCH   3   4
ENDBRANCH   2   3
ENDBRANCH   1   2
BRANCH   1   8
ATOM      8  C   UNL     1       1.713  53.926  16.455  1.00  0.00     0.000 C 
BRANCH   8   9
ATOM      9  C   UNL     1       1.809  53.033  17.704  1.00  0.00     0.000 C 
BRANCH   9  10
ATOM     10  C   UNL     1       0.459  52.382  18.067  1.00  0.00     0.006 C 
BRANCH  10  11
ATOM     11  C   UNL     1      -0.731  52.956  17.281  1.00  0.00     0.053 C 
BRANCH  11  12
ATOM     12  C   UNL     1      -2.048  52.562  17.870  1.00  0.00     0.041 C 
ATOM     13  O   UNL     1      -2.690  51.589  17.393  1.00  0.00    -0.550 OA
ATOM     14  O   UNL     1      -2.583  53.287  18.928  1.00  0.00    -0.550 OA
ENDBRANCH  11  12
ENDBRANCH  10  11
ENDBRANCH   9  10
ENDBRANCH   8   9
ENDBRANCH   1   8
TORSDOF 9
ENDMDL
MODEL 8
REMARK VINA RESULT:    -4.257      1.958      4.926
REMARK INTER + INTRA:          -7.439
REMARK INTER:                  -6.700
REMARK INTRA:                  -0.739
REMARK UNBOUND:                -0.942
REMARK SMILES O=C([O-])CCCCCCCCC(=O)[O-]
REMARK SMILES IDX 7 1 6 2 5 3 4 4 2 5 1 6 3 7 8 8 9 9 10 10 11 11 12 12 13 13
REMARK SMILES IDX 14 14
REMARK H PARENT
REMARK Flexibility Score: inf
ROOT
ATOM      1  C   UNL     1      -0.506  56.526  17.480  1.00  0.00     0.000 C 
ENDROOT
BRANCH   1   2
ATOM      2  C   UNL     1       0.912  56.637  16.901  1.00  0.00     0.000 C 
BRANCH   2   3
ATOM      3  C   UNL     1       1.580  55.257  16.814  1.00  0.00     0.006 C 
BRANCH   3   4
ATOM      4  C   UNL     1       2.715  55.224  15.781  1.00  0.00     0.053 C 
BRANCH   4   5
ATOM      5  C   UNL     1       4.061  55.200  16.438  1.00  0.00     0.041 C 
ATOM      6  O   UNL     1       4.491  54.140  16.966  1.00  0.00    -0.550 OA
ATOM      7  O   UNL     1       4.828  56.356  16.495  1.00  0.00    -0.550 OA
ENDBRANCH   4   5
ENDBRANCH   3   4
ENDBRANCH   2   3
ENDBRANCH   1   2
BRANCH   1   8
ATOM      8  C   UNL     1      -0.770  55.166  18.146  1.00  0.00     0.000 C 
BRANCH   8   9
ATOM      9  C   UNL     1      -1.317  55.304  19.579  1.00  0.00     0.000 C 
BRANCH   9  10
ATOM     10  C   UNL     1      -0.408  54.624  20.623  1.00  0.00     0.006 C 
BRANCH  10  11
ATOM     11  C   UNL     1       0.691  53.746  20.002  1.00  0.00     0.053 C 
BRANCH  11  12
ATOM     12  C   UNL     1       2.065  54.193  20.390  1.00  0.00     0.041 C 
ATOM     13  O   UNL     1       2.222  55.238  21.076  1.00  0.00    -0.550 OA
ATOM     14  O   UNL     1       3.176  53.472  19.971  1.00  0.00    -0.550 OA
ENDBRANCH  11  12
ENDBRANCH  10  11
ENDBRANCH   9  10
ENDBRANCH   8   9
ENDBRANCH   1   8
TORSDOF 9
ENDMDL
MODEL 9
REMARK VINA RESULT:    -4.251      2.285      3.309
REMARK INTER + INTRA:          -7.430
REMARK INTER:                  -6.430
REMARK INTRA:                  -1.000
REMARK UNBOUND:                -0.942
REMARK SMILES O=C([O-])CCCCCCCCC(=O)[O-]
REMARK SMILES IDX 7 1 6 2 5 3 4 4 2 5 1 6 3 7 8 8 9 9 10 10 11 11 12 12 13 13
REMARK SMILES IDX 14 14
REMARK H PARENT
REMARK Flexibility Score: inf
ROOT
ATOM      1  C   UNL     1       0.207  54.990  18.750  1.00  0.00     0.000 C 
ENDROOT
BRANCH   1   2
ATOM      2  C   UNL     1       0.658  55.228  20.199  1.00  0.00     0.000 C 
BRANCH   2   3
ATOM      3  C   UNL     1       2.134  54.846  20.384  1.00  0.00     0.006 C 
BRANCH   3   4
ATOM      4  C   UNL     1       2.390  53.359  20.108  1.00  0.00     0.053 C 
BRANCH   4   5
ATOM      5  C   UNL     1       3.318  53.162  18.949  1.00  0.00     0.041 C 
ATOM      6  O   UNL     1       4.546  53.416  19.068  1.00  0.00    -0.550 OA
ATOM      7  O   UNL     1       2.822  52.728  17.727  1.00  0.00    -0.550 OA
ENDBRANCH   4   5
ENDBRANCH   3   4
ENDBRANCH   2   3
ENDBRANCH   1   2
BRANCH   1   8
ATOM      8  C   UNL     1      -0.279  56.275  18.061  1.00  0.00     0.000 C 
BRANCH   8   9
ATOM      9  C   UNL     1       0.840  56.993  17.286  1.00  0.00     0.000 C 
BRANCH   9  10
ATOM     10  C   UNL     1       1.977  56.035  16.873  1.00  0.00     0.006 C 
BRANCH  10  11
ATOM     11  C   UNL     1       3.361  56.469  17.381  1.00  0.00     0.053 C 
BRANCH  11  12
ATOM     12  C   UNL     1       4.472  55.964  16.515  1.00  0.00     0.041 C 
ATOM     13  O   UNL     1       5.629  56.450  16.621  1.00  0.00    -0.550 OA
ATOM     14  O   UNL     1       4.224  54.976  15.571  1.00  0.00    -0.550 OA
ENDBRANCH  11  12
ENDBRANCH  10  11
ENDBRANCH   9  10
ENDBRANCH   8   9
ENDBRANCH   1   8
TORSDOF 9
ENDMDL
