MODEL 1
REMARK VINA RESULT:    -5.836      0.000      0.000
REMARK INTER + INTRA:          -6.888
REMARK INTER:                  -6.688
REMARK INTRA:                  -0.200
REMARK UNBOUND:                -0.200
REMARK SMILES CCC=Cc1oc(O)c2ccccc12
REMARK SMILES IDX 7 1 6 2 5 3 14 4 13 5 12 6 11 7 10 8 9 9 8 10 4 12 3 13 2 14
REMARK SMILES IDX 1 15
REMARK H PARENT 8 11
REMARK Flexibility Score: inf
ROOT
ATOM      1  C   UNL     1      -3.223  -7.979  26.764  1.00  0.00     0.290 A 
ATOM      2  O   UNL     1      -4.215  -8.389  26.000  1.00  0.00    -0.425 OA
ATOM      3  C   UNL     1      -4.779  -9.446  26.561  1.00  0.00     0.138 A 
ATOM      4  C   UNL     1      -4.129  -9.719  27.759  1.00  0.00     0.032 A 
ATOM      5  C   UNL     1      -4.369 -10.655  28.770  1.00  0.00     0.013 A 
ATOM      6  C   UNL     1      -3.524 -10.640  29.895  1.00  0.00     0.001 A 
ATOM      7  C   UNL     1      -2.483  -9.693  29.998  1.00  0.00     0.001 A 
ATOM      8  C   UNL     1      -2.282  -8.743  28.982  1.00  0.00     0.016 A 
ATOM      9  C   UNL     1      -3.131  -8.785  27.877  1.00  0.00     0.066 A 
ENDROOT
BRANCH   1  10
ATOM     10  O   UNL     1      -2.417  -6.885  26.464  1.00  0.00    -0.480 OA
ATOM     11  H   UNL     1      -1.432  -6.998  26.260  1.00  0.00     0.297 HD
ENDBRANCH   1  10
BRANCH   3  12
ATOM     12  C   UNL     1      -5.921 -10.150  25.953  1.00  0.00     0.043 C 
ATOM     13  C   UNL     1      -7.050  -9.528  25.598  1.00  0.00    -0.023 C 
BRANCH  13  14
ATOM     14  C   UNL     1      -8.205 -10.277  25.001  1.00  0.00     0.024 C 
ATOM     15  C   UNL     1      -7.807 -10.971  23.702  1.00  0.00     0.008 C 
ENDBRANCH  13  14
ENDBRANCH   3  12
TORSDOF 3
ENDMDL
MODEL 2
REMARK VINA RESULT:    -5.821      6.424      8.989
REMARK INTER + INTRA:          -6.871
REMARK INTER:                  -6.634
REMARK INTRA:                  -0.237
REMARK UNBOUND:                -0.200
REMARK SMILES CCC=Cc1oc(O)c2ccccc12
REMARK SMILES IDX 7 1 6 2 5 3 14 4 13 5 12 6 11 7 10 8 9 9 8 10 4 12 3 13 2 14
REMARK SMILES IDX 1 15
REMARK H PARENT 8 11
REMARK Flexibility Score: inf
ROOT
ATOM      1  C   UNL     1      -0.100  -5.313  26.489  1.00  0.00     0.290 A 
ATOM      2  O   UNL     1       0.312  -4.206  25.906  1.00  0.00    -0.425 OA
ATOM      3  C   UNL     1       1.547  -3.947  26.300  1.00  0.00     0.138 A 
ATOM      4  C   UNL     1       1.960  -4.950  27.169  1.00  0.00     0.032 A 
ATOM      5  C   UNL     1       3.182  -5.208  27.799  1.00  0.00     0.013 A 
ATOM      6  C   UNL     1       3.279  -6.358  28.603  1.00  0.00     0.001 A 
ATOM      7  C   UNL     1       2.176  -7.228  28.747  1.00  0.00     0.001 A 
ATOM      8  C   UNL     1       0.969  -6.963  28.078  1.00  0.00     0.016 A 
ATOM      9  C   UNL     1       0.901  -5.814  27.292  1.00  0.00     0.066 A 
ENDROOT
BRANCH   1  10
ATOM     10  O   UNL     1      -1.360  -5.869  26.293  1.00  0.00    -0.480 OA
ATOM     11  H   UNL     1      -1.754  -5.966  25.365  1.00  0.00     0.297 HD
ENDBRANCH   1  10
BRANCH   3  12
ATOM     12  C   UNL     1       2.298  -2.770  25.831  1.00  0.00     0.043 C 
ATOM     13  C   UNL     1       3.161  -2.820  24.812  1.00  0.00    -0.023 C 
BRANCH  13  14
ATOM     14  C   UNL     1       3.927  -1.607  24.371  1.00  0.00     0.024 C 
ATOM     15  C   UNL     1       3.001  -0.543  23.790  1.00  0.00     0.008 C 
ENDBRANCH  13  14
ENDBRANCH   3  12
TORSDOF 3
ENDMDL
MODEL 3
REMARK VINA RESULT:    -5.764      2.650      6.385
REMARK INTER + INTRA:          -6.806
REMARK INTER:                  -6.580
REMARK INTRA:                  -0.226
REMARK UNBOUND:                -0.200
REMARK SMILES CCC=Cc1oc(O)c2ccccc12
REMARK SMILES IDX 7 1 6 2 5 3 14 4 13 5 12 6 11 7 10 8 9 9 8 10 4 12 3 13 2 14
REMARK SMILES IDX 1 15
REMARK H PARENT 8 11
REMARK Flexibility Score: inf
ROOT
ATOM      1  C   UNL     1      -8.314 -11.118  23.495  1.00  0.00     0.290 A 
ATOM      2  O   UNL     1      -7.170 -10.603  23.894  1.00  0.00    -0.425 OA
ATOM      3  C   UNL     1      -7.317 -10.130  25.120  1.00  0.00     0.138 A 
ATOM      4  C   UNL     1      -8.620 -10.369  25.540  1.00  0.00     0.032 A 
ATOM      5  C   UNL     1      -9.272 -10.155  26.759  1.00  0.00     0.013 A 
ATOM      6  C   UNL     1     -10.617 -10.557  26.866  1.00  0.00     0.001 A 
ATOM      7  C   UNL     1     -11.270 -11.172  25.776  1.00  0.00     0.001 A 
ATOM      8  C   UNL     1     -10.583 -11.404  24.572  1.00  0.00     0.016 A 
ATOM      9  C   UNL     1      -9.254 -10.992  24.495  1.00  0.00     0.066 A 
ENDROOT
BRANCH   1  10
ATOM     10  O   UNL     1      -8.507 -11.702  22.246  1.00  0.00    -0.480 OA
ATOM     11  H   UNL     1      -8.886 -12.636  22.156  1.00  0.00     0.297 HD
ENDBRANCH   1  10
BRANCH   3  12
ATOM     12  C   UNL     1      -6.218  -9.482  25.856  1.00  0.00     0.043 C 
ATOM     13  C   UNL     1      -5.270 -10.172  26.498  1.00  0.00    -0.023 C 
BRANCH  13  14
ATOM     14  C   UNL     1      -4.175  -9.483  27.258  1.00  0.00     0.024 C 
ATOM     15  C   UNL     1      -3.671  -8.249  26.514  1.00  0.00     0.008 C 
ENDBRANCH  13  14
ENDBRANCH   3  12
TORSDOF 3
ENDMDL
MODEL 4
REMARK VINA RESULT:    -5.614      4.519      6.239
REMARK INTER + INTRA:          -6.634
REMARK INTER:                  -6.390
REMARK INTRA:                  -0.244
REMARK UNBOUND:                -0.200
REMARK SMILES CCC=Cc1oc(O)c2ccccc12
REMARK SMILES IDX 7 1 6 2 5 3 14 4 13 5 12 6 11 7 10 8 9 9 8 10 4 12 3 13 2 14
REMARK SMILES IDX 1 15
REMARK H PARENT 8 11
REMARK Flexibility Score: inf
ROOT
ATOM      1  C   UNL     1       0.905  -4.287  26.195  1.00  0.00     0.290 A 
ATOM      2  O   UNL     1      -0.234  -4.937  26.068  1.00  0.00    -0.425 OA
ATOM      3  C   UNL     1      -0.164  -6.064  26.756  1.00  0.00     0.138 A 
ATOM      4  C   UNL     1       1.079  -6.136  27.374  1.00  0.00     0.032 A 
ATOM      5  C   UNL     1       1.635  -7.055  28.269  1.00  0.00     0.013 A 
ATOM      6  C   UNL     1       2.936  -6.808  28.745  1.00  0.00     0.001 A 
ATOM      7  C   UNL     1       3.640  -5.654  28.339  1.00  0.00     0.001 A 
ATOM      8  C   UNL     1       3.047  -4.729  27.462  1.00  0.00     0.016 A 
ATOM      9  C   UNL     1       1.760  -5.003  27.004  1.00  0.00     0.066 A 
ENDROOT
BRANCH   1  10
ATOM     10  O   UNL     1       1.167  -3.060  25.594  1.00  0.00    -0.480 OA
ATOM     11  H   UNL     1       1.822  -2.979  24.827  1.00  0.00     0.297 HD
ENDBRANCH   1  10
BRANCH   3  12
ATOM     12  C   UNL     1      -1.278  -7.025  26.816  1.00  0.00     0.043 C 
ATOM     13  C   UNL     1      -2.126  -7.087  27.848  1.00  0.00    -0.023 C 
BRANCH  13  14
ATOM     14  C   UNL     1      -3.239  -8.093  27.890  1.00  0.00     0.024 C 
ATOM     15  C   UNL     1      -3.960  -8.184  26.549  1.00  0.00     0.008 C 
ENDBRANCH  13  14
ENDBRANCH   3  12
TORSDOF 3
ENDMDL
MODEL 5
REMARK VINA RESULT:    -5.603     11.860     12.676
REMARK INTER + INTRA:          -6.622
REMARK INTER:                  -6.423
REMARK INTRA:                  -0.198
REMARK UNBOUND:                -0.200
REMARK SMILES CCC=Cc1oc(O)c2ccccc12
REMARK SMILES IDX 7 1 6 2 5 3 14 4 13 5 12 6 11 7 10 8 9 9 8 10 4 12 3 13 2 14
REMARK SMILES IDX 1 15
REMARK H PARENT 8 11
REMARK Flexibility Score: inf
ROOT
ATOM      1  C   UNL     1      -2.265  -4.998  16.560  1.00  0.00     0.290 A 
ATOM      2  O   UNL     1      -2.839  -3.880  16.954  1.00  0.00    -0.425 OA
ATOM      3  C   UNL     1      -4.007  -3.760  16.345  1.00  0.00     0.138 A 
ATOM      4  C   UNL     1      -4.204  -4.869  15.529  1.00  0.00     0.032 A 
ATOM      5  C   UNL     1      -5.285  -5.281  14.745  1.00  0.00     0.013 A 
ATOM      6  C   UNL     1      -5.172  -6.504  14.057  1.00  0.00     0.001 A 
ATOM      7  C   UNL     1      -4.005  -7.289  14.179  1.00  0.00     0.001 A 
ATOM      8  C   UNL     1      -2.945  -6.867  14.999  1.00  0.00     0.016 A 
ATOM      9  C   UNL     1      -3.084  -5.650  15.664  1.00  0.00     0.066 A 
ENDROOT
BRANCH   1  10
ATOM     10  O   UNL     1      -1.020  -5.429  17.009  1.00  0.00    -0.480 OA
ATOM     11  H   UNL     1      -0.900  -6.342  17.430  1.00  0.00     0.297 HD
ENDBRANCH   1  10
BRANCH   3  12
ATOM     12  C   UNL     1      -4.901  -2.611  16.567  1.00  0.00     0.043 C 
ATOM     13  C   UNL     1      -5.400  -2.302  17.767  1.00  0.00    -0.023 C 
BRANCH  13  14
ATOM     14  C   UNL     1      -6.326  -1.136  17.957  1.00  0.00     0.024 C 
ATOM     15  C   UNL     1      -7.659  -1.575  18.555  1.00  0.00     0.008 C 
ENDBRANCH  13  14
ENDBRANCH   3  12
TORSDOF 3
ENDMDL
MODEL 6
REMARK VINA RESULT:    -5.562      2.176      4.906
REMARK INTER + INTRA:          -6.575
REMARK INTER:                  -6.382
REMARK INTRA:                  -0.192
REMARK UNBOUND:                -0.200
REMARK SMILES CCC=Cc1oc(O)c2ccccc12
REMARK SMILES IDX 7 1 6 2 5 3 14 4 13 5 12 6 11 7 10 8 9 9 8 10 4 12 3 13 2 14
REMARK SMILES IDX 1 15
REMARK H PARENT 8 11
REMARK Flexibility Score: inf
ROOT
ATOM      1  C   UNL     1      -5.752  -9.634  25.952  1.00  0.00     0.290 A 
ATOM      2  O   UNL     1      -4.716  -8.820  25.933  1.00  0.00    -0.425 OA
ATOM      3  C   UNL     1      -4.523  -8.345  27.152  1.00  0.00     0.138 A 
ATOM      4  C   UNL     1      -5.472  -8.895  28.005  1.00  0.00     0.032 A 
ATOM      5  C   UNL     1      -5.665  -8.801  29.387  1.00  0.00     0.013 A 
ATOM      6  C   UNL     1      -6.724  -9.533  29.955  1.00  0.00     0.001 A 
ATOM      7  C   UNL     1      -7.547 -10.349  29.148  1.00  0.00     0.001 A 
ATOM      8  C   UNL     1      -7.312 -10.450  27.766  1.00  0.00     0.016 A 
ATOM      9  C   UNL     1      -6.259  -9.710  27.231  1.00  0.00     0.066 A 
ENDROOT
BRANCH   1  10
ATOM     10  O   UNL     1      -6.228 -10.306  24.831  1.00  0.00    -0.480 OA
ATOM     11  H   UNL     1      -5.967 -11.266  24.643  1.00  0.00     0.297 HD
ENDBRANCH   1  10
BRANCH   3  12
ATOM     12  C   UNL     1      -3.439  -7.399  27.470  1.00  0.00     0.043 C 
ATOM     13  C   UNL     1      -2.155  -7.651  27.200  1.00  0.00    -0.023 C 
BRANCH  13  14
ATOM     14  C   UNL     1      -1.071  -6.676  27.556  1.00  0.00     0.024 C 
ATOM     15  C   UNL     1       0.314  -7.267  27.309  1.00  0.00     0.008 C 
ENDBRANCH  13  14
ENDBRANCH   3  12
TORSDOF 3
ENDMDL
MODEL 7
REMARK VINA RESULT:    -5.519      9.200     11.268
REMARK INTER + INTRA:          -6.525
REMARK INTER:                  -6.285
REMARK INTRA:                  -0.240
REMARK UNBOUND:                -0.200
REMARK SMILES CCC=Cc1oc(O)c2ccccc12
REMARK SMILES IDX 7 1 6 2 5 3 14 4 13 5 12 6 11 7 10 8 9 9 8 10 4 12 3 13 2 14
REMARK SMILES IDX 1 15
REMARK H PARENT 8 11
REMARK Flexibility Score: inf
ROOT
ATOM      1  C   UNL     1       3.070  -0.487  24.035  1.00  0.00     0.290 A 
ATOM      2  O   UNL     1       2.338  -1.570  24.208  1.00  0.00    -0.425 OA
ATOM      3  C   UNL     1       2.780  -2.219  25.272  1.00  0.00     0.138 A 
ATOM      4  C   UNL     1       3.839  -1.509  25.824  1.00  0.00     0.032 A 
ATOM      5  C   UNL     1       4.599  -1.699  26.982  1.00  0.00     0.013 A 
ATOM      6  C   UNL     1       5.596  -0.751  27.280  1.00  0.00     0.001 A 
ATOM      7  C   UNL     1       5.799   0.364  26.437  1.00  0.00     0.001 A 
ATOM      8  C   UNL     1       5.000   0.548  25.295  1.00  0.00     0.016 A 
ATOM      9  C   UNL     1       4.024  -0.409  25.025  1.00  0.00     0.066 A 
ENDROOT
BRANCH   1  10
ATOM     10  O   UNL     1       2.872   0.423  23.001  1.00  0.00    -0.480 OA
ATOM     11  H   UNL     1       2.086   0.339  22.369  1.00  0.00     0.297 HD
ENDBRANCH   1  10
BRANCH   3  12
ATOM     12  C   UNL     1       2.176  -3.480  25.737  1.00  0.00     0.043 C 
ATOM     13  C   UNL     1       1.322  -3.538  26.763  1.00  0.00    -0.023 C 
BRANCH  13  14
ATOM     14  C   UNL     1       0.739  -4.842  27.227  1.00  0.00     0.024 C 
ATOM     15  C   UNL     1      -0.260  -5.396  26.217  1.00  0.00     0.008 C 
ENDBRANCH  13  14
ENDBRANCH   3  12
TORSDOF 3
ENDMDL
MODEL 8
REMARK VINA RESULT:    -5.489     11.762     13.049
REMARK INTER + INTRA:          -6.491
REMARK INTER:                  -6.279
REMARK INTRA:                  -0.212
REMARK UNBOUND:                -0.200
REMARK SMILES CCC=Cc1oc(O)c2ccccc12
REMARK SMILES IDX 7 1 6 2 5 3 14 4 13 5 12 6 11 7 10 8 9 9 8 10 4 12 3 13 2 14
REMARK SMILES IDX 1 15
REMARK H PARENT 8 11
REMARK Flexibility Score: inf
ROOT
ATOM      1  C   UNL     1      -2.400  -5.761  16.414  1.00  0.00     0.290 A 
ATOM      2  O   UNL     1      -1.550  -6.727  16.134  1.00  0.00    -0.425 OA
ATOM      3  C   UNL     1      -2.070  -7.499  15.195  1.00  0.00     0.138 A 
ATOM      4  C   UNL     1      -3.314  -6.993  14.837  1.00  0.00     0.032 A 
ATOM      5  C   UNL     1      -4.236  -7.365  13.853  1.00  0.00     0.013 A 
ATOM      6  C   UNL     1      -5.410  -6.600  13.726  1.00  0.00     0.001 A 
ATOM      7  C   UNL     1      -5.630  -5.481  14.559  1.00  0.00     0.001 A 
ATOM      8  C   UNL     1      -4.673  -5.109  15.519  1.00  0.00     0.016 A 
ATOM      9  C   UNL     1      -3.523  -5.889  15.624  1.00  0.00     0.066 A 
ENDROOT
BRANCH   1  10
ATOM     10  O   UNL     1      -2.164  -4.771  17.363  1.00  0.00    -0.480 OA
ATOM     11  H   UNL     1      -1.385  -4.835  18.007  1.00  0.00     0.297 HD
ENDBRANCH   1  10
BRANCH   3  12
ATOM     12  C   UNL     1      -1.368  -8.678  14.659  1.00  0.00     0.043 C 
ATOM     13  C   UNL     1      -0.876  -9.645  15.440  1.00  0.00    -0.023 C 
BRANCH  13  14
ATOM     14  C   UNL     1      -0.146 -10.823  14.865  1.00  0.00     0.024 C 
ATOM     15  C   UNL     1      -0.385 -10.948  13.364  1.00  0.00     0.008 C 
ENDBRANCH  13  14
ENDBRANCH   3  12
TORSDOF 3
ENDMDL
MODEL 9
REMARK VINA RESULT:    -5.381     11.551     12.757
REMARK INTER + INTRA:          -6.366
REMARK INTER:                  -6.194
REMARK INTRA:                  -0.173
REMARK UNBOUND:                -0.200
REMARK SMILES CCC=Cc1oc(O)c2ccccc12
REMARK SMILES IDX 7 1 6 2 5 3 14 4 13 5 12 6 11 7 10 8 9 9 8 10 4 12 3 13 2 14
REMARK SMILES IDX 1 15
REMARK H PARENT 8 11
REMARK Flexibility Score: inf
ROOT
ATOM      1  C   UNL     1      -2.569  -6.271  16.243  1.00  0.00     0.290 A 
ATOM      2  O   UNL     1      -1.872  -7.329  16.604  1.00  0.00    -0.425 OA
ATOM      3  C   UNL     1      -0.585  -7.057  16.481  1.00  0.00     0.138 A 
ATOM      4  C   UNL     1      -0.443  -5.748  16.035  1.00  0.00     0.032 A 
ATOM      5  C   UNL     1       0.679  -4.941  15.822  1.00  0.00     0.013 A 
ATOM      6  C   UNL     1       0.466  -3.617  15.394  1.00  0.00     0.001 A 
ATOM      7  C   UNL     1      -0.844  -3.126  15.207  1.00  0.00     0.001 A 
ATOM      8  C   UNL     1      -1.955  -3.948  15.457  1.00  0.00     0.016 A 
ATOM      9  C   UNL     1      -1.714  -5.256  15.876  1.00  0.00     0.066 A 
ENDROOT
BRANCH   1  10
ATOM     10  O   UNL     1      -3.960  -6.220  16.253  1.00  0.00    -0.480 OA
ATOM     11  H   UNL     1      -4.503  -6.797  16.883  1.00  0.00     0.297 HD
ENDBRANCH   1  10
BRANCH   3  12
ATOM     12  C   UNL     1       0.467  -8.038  16.803  1.00  0.00     0.043 C 
ATOM     13  C   UNL     1       0.309  -9.353  16.626  1.00  0.00    -0.023 C 
BRANCH  13  14
ATOM     14  C   UNL     1       1.391 -10.329  16.984  1.00  0.00     0.024 C 
ATOM     15  C   UNL     1       0.861 -11.759  17.024  1.00  0.00     0.008 C 
ENDBRANCH  13  14
ENDBRANCH   3  12
TORSDOF 3
ENDMDL
