MODEL 1
REMARK VINA RESULT:    -3.773      0.000      0.000
REMARK INTER + INTRA:          -4.104
REMARK INTER:                  -4.104
REMARK INTRA:                   0.000
REMARK UNBOUND:                 0.000
REMARK SMILES Oc1cccc(O)c1O
REMARK SMILES IDX 4 1 5 2 6 3 8 4 2 5 3 6 7 7 1 9 9 11
REMARK H PARENT 7 8 1 10 9 12
REMARK Flexibility Score: inf
ROOT
ATOM      1  C   UNL     1      20.269  21.969  47.125  1.00  0.00     0.008 A 
ATOM      2  C   UNL     1      21.239  22.148  46.136  1.00  0.00     0.050 A 
ATOM      3  C   UNL     1      21.048  23.101  45.125  1.00  0.00     0.161 A 
ATOM      4  C   UNL     1      19.879  23.877  45.107  1.00  0.00     0.200 A 
ATOM      5  C   UNL     1      18.903  23.697  46.104  1.00  0.00     0.161 A 
ATOM      6  C   UNL     1      19.104  22.741  47.111  1.00  0.00     0.050 A 
ENDROOT
BRANCH   3   7
ATOM      7  O   UNL     1      22.013  23.283  44.136  1.00  0.00    -0.504 OA
ATOM      8  H   UNL     1      21.768  23.299  43.153  1.00  0.00     0.293 HD
ENDBRANCH   3   7
BRANCH   5   9
ATOM      9  O   UNL     1      17.740  24.465  46.091  1.00  0.00    -0.504 OA
ATOM     10  H   UNL     1      17.542  25.140  46.820  1.00  0.00     0.293 HD
ENDBRANCH   5   9
BRANCH   4  11
ATOM     11  O   UNL     1      19.705  24.821  44.095  1.00  0.00    -0.502 OA
ATOM     12  H   UNL     1      18.931  25.474  44.096  1.00  0.00     0.293 HD
ENDBRANCH   4  11
TORSDOF 3
ENDMDL
MODEL 2
REMARK VINA RESULT:    -3.737      0.025      2.799
REMARK INTER + INTRA:          -4.065
REMARK INTER:                  -4.065
REMARK INTRA:                   0.000
REMARK UNBOUND:                 0.000
REMARK SMILES Oc1cccc(O)c1O
REMARK SMILES IDX 4 1 5 2 6 3 8 4 2 5 3 6 7 7 1 9 9 11
REMARK H PARENT 7 8 1 10 9 12
REMARK Flexibility Score: inf
ROOT
ATOM      1  C   UNL     1      20.279  21.960  47.125  1.00  0.00     0.008 A 
ATOM      2  C   UNL     1      19.108  22.722  47.111  1.00  0.00     0.050 A 
ATOM      3  C   UNL     1      18.900  23.676  46.104  1.00  0.00     0.161 A 
ATOM      4  C   UNL     1      19.871  23.866  45.110  1.00  0.00     0.200 A 
ATOM      5  C   UNL     1      21.049  23.098  45.125  1.00  0.00     0.161 A 
ATOM      6  C   UNL     1      21.247  22.146  46.136  1.00  0.00     0.050 A 
ENDROOT
BRANCH   3   7
ATOM      7  O   UNL     1      17.734  24.439  46.086  1.00  0.00    -0.504 OA
ATOM      8  H   UNL     1      17.068  24.371  45.325  1.00  0.00     0.293 HD
ENDBRANCH   3   7
BRANCH   5   9
ATOM      9  O   UNL     1      22.017  23.283  44.139  1.00  0.00    -0.504 OA
ATOM     10  H   UNL     1      21.777  23.291  43.154  1.00  0.00     0.293 HD
ENDBRANCH   5   9
BRANCH   4  11
ATOM     11  O   UNL     1      19.649  24.820  44.116  1.00  0.00    -0.502 OA
ATOM     12  H   UNL     1      19.936  25.785  44.222  1.00  0.00     0.293 HD
ENDBRANCH   4  11
TORSDOF 3
ENDMDL
MODEL 3
REMARK VINA RESULT:    -2.971      1.605      2.623
REMARK INTER + INTRA:          -3.231
REMARK INTER:                  -3.231
REMARK INTRA:                   0.000
REMARK UNBOUND:                 0.000
REMARK SMILES Oc1cccc(O)c1O
REMARK SMILES IDX 4 1 5 2 6 3 8 4 2 5 3 6 7 7 1 9 9 11
REMARK H PARENT 7 8 1 10 9 12
REMARK Flexibility Score: inf
ROOT
ATOM      1  C   UNL     1      19.210  25.107  44.144  1.00  0.00     0.008 A 
ATOM      2  C   UNL     1      20.259  24.185  44.125  1.00  0.00     0.050 A 
ATOM      3  C   UNL     1      20.334  23.183  45.104  1.00  0.00     0.161 A 
ATOM      4  C   UNL     1      19.354  23.109  46.105  1.00  0.00     0.200 A 
ATOM      5  C   UNL     1      18.298  24.038  46.123  1.00  0.00     0.161 A 
ATOM      6  C   UNL     1      18.232  25.035  45.138  1.00  0.00     0.050 A 
ENDROOT
BRANCH   3   7
ATOM      7  O   UNL     1      21.379  22.261  45.089  1.00  0.00    -0.504 OA
ATOM      8  H   UNL     1      21.210  21.271  44.949  1.00  0.00     0.293 HD
ENDBRANCH   3   7
BRANCH   5   9
ATOM      9  O   UNL     1      17.322  23.968  47.115  1.00  0.00    -0.504 OA
ATOM     10  H   UNL     1      17.129  23.104  47.610  1.00  0.00     0.293 HD
ENDBRANCH   5   9
BRANCH   4  11
ATOM     11  O   UNL     1      19.444  22.106  47.071  1.00  0.00    -0.502 OA
ATOM     12  H   UNL     1      18.766  22.016  47.818  1.00  0.00     0.293 HD
ENDBRANCH   4  11
TORSDOF 3
ENDMDL
MODEL 4
REMARK VINA RESULT:    -2.963      1.609      3.847
REMARK INTER + INTRA:          -3.222
REMARK INTER:                  -3.222
REMARK INTRA:                   0.000
REMARK UNBOUND:                 0.000
REMARK SMILES Oc1cccc(O)c1O
REMARK SMILES IDX 4 1 5 2 6 3 8 4 2 5 3 6 7 7 1 9 9 11
REMARK H PARENT 7 8 1 10 9 12
REMARK Flexibility Score: inf
ROOT
ATOM      1  C   UNL     1      19.125  25.125  44.149  1.00  0.00     0.008 A 
ATOM      2  C   UNL     1      18.146  25.057  45.143  1.00  0.00     0.050 A 
ATOM      3  C   UNL     1      18.213  24.065  46.132  1.00  0.00     0.161 A 
ATOM      4  C   UNL     1      19.265  23.139  46.122  1.00  0.00     0.200 A 
ATOM      5  C   UNL     1      20.251  23.208  45.122  1.00  0.00     0.161 A 
ATOM      6  C   UNL     1      20.175  24.204  44.137  1.00  0.00     0.050 A 
ENDROOT
BRANCH   3   7
ATOM      7  O   UNL     1      17.238  23.994  47.125  1.00  0.00    -0.504 OA
ATOM      8  H   UNL     1      16.415  23.411  47.020  1.00  0.00     0.293 HD
ENDBRANCH   3   7
BRANCH   5   9
ATOM      9  O   UNL     1      21.299  22.289  45.108  1.00  0.00    -0.504 OA
ATOM     10  H   UNL     1      21.129  21.290  45.102  1.00  0.00     0.293 HD
ENDBRANCH   5   9
BRANCH   4  11
ATOM     11  O   UNL     1      19.317  22.158  47.114  1.00  0.00    -0.502 OA
ATOM     12  H   UNL     1      18.480  21.762  47.524  1.00  0.00     0.293 HD
ENDBRANCH   4  11
TORSDOF 3
ENDMDL
MODEL 5
REMARK VINA RESULT:    -2.644     16.615     18.239
REMARK INTER + INTRA:          -2.875
REMARK INTER:                  -2.875
REMARK INTRA:                   0.000
REMARK UNBOUND:                 0.000
REMARK SMILES Oc1cccc(O)c1O
REMARK SMILES IDX 4 1 5 2 6 3 8 4 2 5 3 6 7 7 1 9 9 11
REMARK H PARENT 7 8 1 10 9 12
REMARK Flexibility Score: inf
ROOT
ATOM      1  C   UNL     1      31.882  25.125  34.294  1.00  0.00     0.008 A 
ATOM      2  C   UNL     1      30.678  25.125  33.586  1.00  0.00     0.050 A 
ATOM      3  C   UNL     1      30.684  25.119  32.184  1.00  0.00     0.161 A 
ATOM      4  C   UNL     1      31.903  25.113  31.490  1.00  0.00     0.200 A 
ATOM      5  C   UNL     1      33.116  25.113  32.203  1.00  0.00     0.161 A 
ATOM      6  C   UNL     1      33.098  25.119  33.607  1.00  0.00     0.050 A 
ENDROOT
BRANCH   3   7
ATOM      7  O   UNL     1      29.485  25.118  31.474  1.00  0.00    -0.504 OA
ATOM      8  H   UNL     1      28.601  25.321  31.926  1.00  0.00     0.293 HD
ENDBRANCH   3   7
BRANCH   5   9
ATOM      9  O   UNL     1      34.330  25.108  31.519  1.00  0.00    -0.504 OA
ATOM     10  H   UNL     1      34.438  24.624  30.635  1.00  0.00     0.293 HD
ENDBRANCH   5   9
BRANCH   4  11
ATOM     11  O   UNL     1      31.892  25.107  30.095  1.00  0.00    -0.502 OA
ATOM     12  H   UNL     1      31.986  25.957  29.552  1.00  0.00     0.293 HD
ENDBRANCH   4  11
TORSDOF 3
ENDMDL
MODEL 6
REMARK VINA RESULT:    -2.586     19.209     20.395
REMARK INTER + INTRA:          -2.813
REMARK INTER:                  -2.813
REMARK INTRA:                   0.000
REMARK UNBOUND:                 0.000
REMARK SMILES Oc1cccc(O)c1O
REMARK SMILES IDX 4 1 5 2 6 3 8 4 2 5 3 6 7 7 1 9 9 11
REMARK H PARENT 7 8 1 10 9 12
REMARK Flexibility Score: inf
ROOT
ATOM      1  C   UNL     1      32.486  23.830  27.431  1.00  0.00     0.008 A 
ATOM      2  C   UNL     1      32.918  24.063  28.739  1.00  0.00     0.050 A 
ATOM      3  C   UNL     1      32.008  24.495  29.715  1.00  0.00     0.161 A 
ATOM      4  C   UNL     1      30.662  24.694  29.376  1.00  0.00     0.200 A 
ATOM      5  C   UNL     1      30.227  24.459  28.059  1.00  0.00     0.161 A 
ATOM      6  C   UNL     1      31.146  24.026  27.091  1.00  0.00     0.050 A 
ENDROOT
BRANCH   3   7
ATOM      7  O   UNL     1      32.434  24.729  31.021  1.00  0.00    -0.504 OA
ATOM      8  H   UNL     1      31.774  24.868  31.777  1.00  0.00     0.293 HD
ENDBRANCH   3   7
BRANCH   5   9
ATOM      9  O   UNL     1      28.890  24.655  27.718  1.00  0.00    -0.504 OA
ATOM     10  H   UNL     1      28.156  24.631  28.416  1.00  0.00     0.293 HD
ENDBRANCH   5   9
BRANCH   4  11
ATOM     11  O   UNL     1      29.769  25.125  30.359  1.00  0.00    -0.502 OA
ATOM     12  H   UNL     1      30.034  25.191  31.335  1.00  0.00     0.293 HD
ENDBRANCH   4  11
TORSDOF 3
ENDMDL
MODEL 7
REMARK VINA RESULT:    -2.582     19.307     20.578
REMARK INTER + INTRA:          -2.808
REMARK INTER:                  -2.808
REMARK INTRA:                   0.000
REMARK UNBOUND:                 0.000
REMARK SMILES Oc1cccc(O)c1O
REMARK SMILES IDX 4 1 5 2 6 3 8 4 2 5 3 6 7 7 1 9 9 11
REMARK H PARENT 7 8 1 10 9 12
REMARK Flexibility Score: inf
ROOT
ATOM      1  C   UNL     1      31.840  23.629  26.913  1.00  0.00     0.008 A 
ATOM      2  C   UNL     1      30.493  24.001  26.879  1.00  0.00     0.050 A 
ATOM      3  C   UNL     1      29.871  24.500  28.032  1.00  0.00     0.161 A 
ATOM      4  C   UNL     1      30.601  24.626  29.222  1.00  0.00     0.200 A 
ATOM      5  C   UNL     1      31.957  24.253  29.256  1.00  0.00     0.161 A 
ATOM      6  C   UNL     1      32.570  23.755  28.096  1.00  0.00     0.050 A 
ENDROOT
BRANCH   3   7
ATOM      7  O   UNL     1      28.528  24.872  28.002  1.00  0.00    -0.504 OA
ATOM      8  H   UNL     1      28.091  25.345  28.785  1.00  0.00     0.293 HD
ENDBRANCH   3   7
BRANCH   5   9
ATOM      9  O   UNL     1      32.687  24.376  30.437  1.00  0.00    -0.504 OA
ATOM     10  H   UNL     1      33.218  25.213  30.647  1.00  0.00     0.293 HD
ENDBRANCH   5   9
BRANCH   4  11
ATOM     11  O   UNL     1      29.967  25.125  30.360  1.00  0.00    -0.502 OA
ATOM     12  H   UNL     1      29.196  25.780  30.304  1.00  0.00     0.293 HD
ENDBRANCH   4  11
TORSDOF 3
ENDMDL
MODEL 8
REMARK VINA RESULT:    -2.561     19.072     20.461
REMARK INTER + INTRA:          -2.786
REMARK INTER:                  -2.786
REMARK INTRA:                   0.000
REMARK UNBOUND:                 0.000
REMARK SMILES Oc1cccc(O)c1O
REMARK SMILES IDX 4 1 5 2 6 3 8 4 2 5 3 6 7 7 1 9 9 11
REMARK H PARENT 7 8 1 10 9 12
REMARK Flexibility Score: inf
ROOT
ATOM      1  C   UNL     1      30.526  24.004  26.984  1.00  0.00     0.008 A 
ATOM      2  C   UNL     1      31.857  23.639  27.198  1.00  0.00     0.050 A 
ATOM      3  C   UNL     1      32.426  23.768  28.473  1.00  0.00     0.161 A 
ATOM      4  C   UNL     1      31.657  24.264  29.535  1.00  0.00     0.200 A 
ATOM      5  C   UNL     1      30.316  24.631  29.319  1.00  0.00     0.161 A 
ATOM      6  C   UNL     1      29.756  24.498  28.039  1.00  0.00     0.050 A 
ENDROOT
BRANCH   3   7
ATOM      7  O   UNL     1      33.754  23.406  28.691  1.00  0.00    -0.504 OA
ATOM      8  H   UNL     1      34.002  22.661  29.334  1.00  0.00     0.293 HD
ENDBRANCH   3   7
BRANCH   5   9
ATOM      9  O   UNL     1      29.547  25.125  30.372  1.00  0.00    -0.504 OA
ATOM     10  H   UNL     1      28.727  24.632  30.706  1.00  0.00     0.293 HD
ENDBRANCH   5   9
BRANCH   4  11
ATOM     11  O   UNL     1      32.238  24.386  30.798  1.00  0.00    -0.502 OA
ATOM     12  H   UNL     1      32.505  25.284  31.184  1.00  0.00     0.293 HD
ENDBRANCH   4  11
TORSDOF 3
ENDMDL
MODEL 9
REMARK VINA RESULT:    -2.551     19.248     20.224
REMARK INTER + INTRA:          -2.774
REMARK INTER:                  -2.774
REMARK INTRA:                   0.000
REMARK UNBOUND:                 0.000
REMARK SMILES Oc1cccc(O)c1O
REMARK SMILES IDX 4 1 5 2 6 3 8 4 2 5 3 6 7 7 1 9 9 11
REMARK H PARENT 7 8 1 10 9 12
REMARK Flexibility Score: inf
ROOT
ATOM      1  C   UNL     1      29.936  25.125  30.427  1.00  0.00     0.008 A 
ATOM      2  C   UNL     1      31.287  24.783  30.520  1.00  0.00     0.050 A 
ATOM      3  C   UNL     1      31.969  24.292  29.398  1.00  0.00     0.161 A 
ATOM      4  C   UNL     1      31.292  24.143  28.178  1.00  0.00     0.200 A 
ATOM      5  C   UNL     1      29.932  24.488  28.085  1.00  0.00     0.161 A 
ATOM      6  C   UNL     1      29.259  24.979  29.214  1.00  0.00     0.050 A 
ENDROOT
BRANCH   3   7
ATOM      7  O   UNL     1      33.316  23.949  29.487  1.00  0.00    -0.504 OA
ATOM      8  H   UNL     1      33.610  23.022  29.773  1.00  0.00     0.293 HD
ENDBRANCH   3   7
BRANCH   5   9
ATOM      9  O   UNL     1      29.255  24.342  26.875  1.00  0.00    -0.504 OA
ATOM     10  H   UNL     1      28.245  24.410  26.821  1.00  0.00     0.293 HD
ENDBRANCH   5   9
BRANCH   4  11
ATOM     11  O   UNL     1      31.985  23.653  27.071  1.00  0.00    -0.502 OA
ATOM     12  H   UNL     1      31.524  23.135  26.333  1.00  0.00     0.293 HD
ENDBRANCH   4  11
TORSDOF 3
ENDMDL
