MODEL 1
REMARK VINA RESULT:    -3.949      0.000      0.000
REMARK INTER + INTRA:          -6.416
REMARK INTER:                  -5.796
REMARK INTRA:                  -0.621
REMARK UNBOUND:                -0.621
REMARK SMILES O=C([O-])CCCCCCCC(=O)[O-]
REMARK SMILES IDX 7 1 6 2 5 3 4 4 2 5 1 6 3 7 8 8 9 9 10 10 11 11 12 12 13 13
REMARK H PARENT
REMARK Flexibility Score: inf
ROOT
ATOM      1  C   UNL     1     100.058   3.611  23.245  1.00  0.00     0.000 C 
ENDROOT
BRANCH   1   2
ATOM      2  C   UNL     1      99.107   4.790  22.983  1.00  0.00     0.000 C 
BRANCH   2   3
ATOM      3  C   UNL     1      98.108   5.014  24.128  1.00  0.00     0.006 C 
BRANCH   3   4
ATOM      4  C   UNL     1      96.709   4.529  23.737  1.00  0.00     0.053 C 
BRANCH   4   5
ATOM      5  C   UNL     1      96.412   3.211  24.381  1.00  0.00     0.041 C 
ATOM      6  O   UNL     1      95.882   2.285  23.714  1.00  0.00    -0.550 OA
ATOM      7  O   UNL     1      96.676   3.023  25.731  1.00  0.00    -0.550 OA
ENDBRANCH   4   5
ENDBRANCH   3   4
ENDBRANCH   2   3
ENDBRANCH   1   2
BRANCH   1   8
ATOM      8  C   UNL     1     100.628   3.618  24.675  1.00  0.00     0.000 C 
BRANCH   8   9
ATOM      9  C   UNL     1     100.948   2.205  25.195  1.00  0.00     0.006 C 
BRANCH   9  10
ATOM     10  C   UNL     1      99.711   1.372  25.572  1.00  0.00     0.053 C 
BRANCH  10  11
ATOM     11  C   UNL     1      99.601   0.125  24.751  1.00  0.00     0.041 C 
ATOM     12  O   UNL     1      99.127   0.172  23.586  1.00  0.00    -0.550 OA
ATOM     13  O   UNL     1     100.054  -1.087  25.260  1.00  0.00    -0.550 OA
ENDBRANCH  10  11
ENDBRANCH   9  10
ENDBRANCH   8   9
ENDBRANCH   1   8
TORSDOF 8
ENDMDL
MODEL 2
REMARK VINA RESULT:    -3.894      0.702      4.399
REMARK INTER + INTRA:          -6.336
REMARK INTER:                  -5.540
REMARK INTRA:                  -0.796
REMARK UNBOUND:                -0.621
REMARK SMILES O=C([O-])CCCCCCCC(=O)[O-]
REMARK SMILES IDX 7 1 6 2 5 3 4 4 2 5 1 6 3 7 8 8 9 9 10 10 11 11 12 12 13 13
REMARK H PARENT
REMARK Flexibility Score: inf
ROOT
ATOM      1  C   UNL     1     100.026   3.322  23.342  1.00  0.00     0.000 C 
ENDROOT
BRANCH   1   2
ATOM      2  C   UNL     1     100.173   3.162  24.864  1.00  0.00     0.000 C 
BRANCH   2   3
ATOM      3  C   UNL     1      99.727   1.780  25.362  1.00  0.00     0.006 C 
BRANCH   3   4
ATOM      4  C   UNL     1      99.159   0.941  24.213  1.00  0.00     0.053 C 
BRANCH   4   5
ATOM      5  C   UNL     1      99.891  -0.360  24.102  1.00  0.00     0.041 C 
ATOM      6  O   UNL     1     100.132  -1.041  25.132  1.00  0.00    -0.550 OA
ATOM      7  O   UNL     1     100.348  -0.796  22.865  1.00  0.00    -0.550 OA
ENDBRANCH   4   5
ENDBRANCH   3   4
ENDBRANCH   2   3
ENDBRANCH   1   2
BRANCH   1   8
ATOM      8  C   UNL     1      99.320   4.632  22.951  1.00  0.00     0.000 C 
BRANCH   8   9
ATOM      9  C   UNL     1      98.249   5.059  23.972  1.00  0.00     0.006 C 
BRANCH   9  10
ATOM     10  C   UNL     1      96.821   4.611  23.620  1.00  0.00     0.053 C 
BRANCH  10  11
ATOM     11  C   UNL     1      96.420   3.375  24.363  1.00  0.00     0.041 C 
ATOM     12  O   UNL     1      96.524   3.327  25.617  1.00  0.00    -0.550 OA
ATOM     13  O   UNL     1      95.899   2.286  23.674  1.00  0.00    -0.550 OA
ENDBRANCH  10  11
ENDBRANCH   9  10
ENDBRANCH   8   9
ENDBRANCH   1   8
TORSDOF 8
ENDMDL
MODEL 3
REMARK VINA RESULT:    -3.861      2.475      5.248
REMARK INTER + INTRA:          -6.288
REMARK INTER:                  -5.594
REMARK INTRA:                  -0.694
REMARK UNBOUND:                -0.621
REMARK SMILES O=C([O-])CCCCCCCC(=O)[O-]
REMARK SMILES IDX 7 1 6 2 5 3 4 4 2 5 1 6 3 7 8 8 9 9 10 10 11 11 12 12 13 13
REMARK H PARENT
REMARK Flexibility Score: inf
ROOT
ATOM      1  C   UNL     1      96.137   2.982  23.982  1.00  0.00     0.000 C 
ENDROOT
BRANCH   1   2
ATOM      2  C   UNL     1      97.090   2.262  24.950  1.00  0.00     0.000 C 
BRANCH   2   3
ATOM      3  C   UNL     1      98.515   2.835  24.915  1.00  0.00     0.006 C 
BRANCH   3   4
ATOM      4  C   UNL     1      99.443   1.943  24.085  1.00  0.00     0.053 C 
BRANCH   4   5
ATOM      5  C   UNL     1     100.324   2.776  23.207  1.00  0.00     0.041 C 
ATOM      6  O   UNL     1     101.452   2.347  22.851  1.00  0.00    -0.550 OA
ATOM      7  O   UNL     1      99.917   4.047  22.822  1.00  0.00    -0.550 OA
ENDBRANCH   4   5
ENDBRANCH   3   4
ENDBRANCH   2   3
ENDBRANCH   1   2
BRANCH   1   8
ATOM      8  C   UNL     1      96.572   4.428  23.690  1.00  0.00     0.000 C 
BRANCH   8   9
ATOM      9  C   UNL     1      95.568   5.471  24.217  1.00  0.00     0.006 C 
BRANCH   9  10
ATOM     10  C   UNL     1      95.448   5.519  25.749  1.00  0.00     0.053 C 
BRANCH  10  11
ATOM     11  C   UNL     1      96.765   5.791  26.408  1.00  0.00     0.041 C 
ATOM     12  O   UNL     1      97.434   6.810  26.091  1.00  0.00    -0.550 OA
ATOM     13  O   UNL     1      97.238   4.938  27.397  1.00  0.00    -0.550 OA
ENDBRANCH  10  11
ENDBRANCH   9  10
ENDBRANCH   8   9
ENDBRANCH   1   8
TORSDOF 8
ENDMDL
MODEL 4
REMARK VINA RESULT:    -3.851      2.954      4.548
REMARK INTER + INTRA:          -6.273
REMARK INTER:                  -5.475
REMARK INTRA:                  -0.798
REMARK UNBOUND:                -0.621
REMARK SMILES O=C([O-])CCCCCCCC(=O)[O-]
REMARK SMILES IDX 7 1 6 2 5 3 4 4 2 5 1 6 3 7 8 8 9 9 10 10 11 11 12 12 13 13
REMARK H PARENT
REMARK Flexibility Score: inf
ROOT
ATOM      1  C   UNL     1      95.860   6.610  24.960  1.00  0.00     0.000 C 
ENDROOT
BRANCH   1   2
ATOM      2  C   UNL     1      95.091   6.294  23.667  1.00  0.00     0.000 C 
BRANCH   2   3
ATOM      3  C   UNL     1      96.009   6.187  22.441  1.00  0.00     0.006 C 
BRANCH   3   4
ATOM      4  C   UNL     1      97.455   6.533  22.808  1.00  0.00     0.053 C 
BRANCH   4   5
ATOM      5  C   UNL     1      98.380   6.179  21.686  1.00  0.00     0.041 C 
ATOM      6  O   UNL     1      99.384   5.450  21.898  1.00  0.00    -0.550 OA
ATOM      7  O   UNL     1      98.160   6.695  20.416  1.00  0.00    -0.550 OA
ENDBRANCH   4   5
ENDBRANCH   3   4
ENDBRANCH   2   3
ENDBRANCH   1   2
BRANCH   1   8
ATOM      8  C   UNL     1      95.715   5.503  26.019  1.00  0.00     0.000 C 
BRANCH   8   9
ATOM      9  C   UNL     1      97.024   4.726  26.252  1.00  0.00     0.006 C 
BRANCH   9  10
ATOM     10  C   UNL     1      96.953   3.236  25.878  1.00  0.00     0.053 C 
BRANCH  10  11
ATOM     11  C   UNL     1      97.094   3.018  24.404  1.00  0.00     0.041 C 
ATOM     12  O   UNL     1      96.075   2.816  23.692  1.00  0.00    -0.550 OA
ATOM     13  O   UNL     1      98.349   3.070  23.809  1.00  0.00    -0.550 OA
ENDBRANCH  10  11
ENDBRANCH   9  10
ENDBRANCH   8   9
ENDBRANCH   1   8
TORSDOF 8
ENDMDL
MODEL 5
REMARK VINA RESULT:    -3.808      2.567      5.302
REMARK INTER + INTRA:          -6.209
REMARK INTER:                  -5.453
REMARK INTRA:                  -0.756
REMARK UNBOUND:                -0.621
REMARK SMILES O=C([O-])CCCCCCCC(=O)[O-]
REMARK SMILES IDX 7 1 6 2 5 3 4 4 2 5 1 6 3 7 8 8 9 9 10 10 11 11 12 12 13 13
REMARK H PARENT
REMARK Flexibility Score: inf
ROOT
ATOM      1  C   UNL     1      97.361   5.998  22.545  1.00  0.00     0.000 C 
ENDROOT
BRANCH   1   2
ATOM      2  C   UNL     1      98.776   5.422  22.714  1.00  0.00     0.000 C 
BRANCH   2   3
ATOM      3  C   UNL     1      98.795   4.124  23.536  1.00  0.00     0.006 C 
BRANCH   3   4
ATOM      4  C   UNL     1      99.933   4.143  24.561  1.00  0.00     0.053 C 
BRANCH   4   5
ATOM      5  C   UNL     1     101.093   3.334  24.073  1.00  0.00     0.041 C 
ATOM      6  O   UNL     1     102.164   3.299  24.733  1.00  0.00    -0.550 OA
ATOM      7  O   UNL     1     101.008   2.659  22.862  1.00  0.00    -0.550 OA
ENDBRANCH   4   5
ENDBRANCH   3   4
ENDBRANCH   2   3
ENDBRANCH   1   2
BRANCH   1   8
ATOM      8  C   UNL     1      96.291   5.158  23.264  1.00  0.00     0.000 C 
BRANCH   8   9
ATOM      9  C   UNL     1      95.384   6.003  24.177  1.00  0.00     0.006 C 
BRANCH   9  10
ATOM     10  C   UNL     1      95.389   5.572  25.653  1.00  0.00     0.053 C 
BRANCH  10  11
ATOM     11  C   UNL     1      96.765   5.600  26.242  1.00  0.00     0.041 C 
ATOM     12  O   UNL     1      97.230   4.580  26.817  1.00  0.00    -0.550 OA
ATOM     13  O   UNL     1      97.549   6.742  26.128  1.00  0.00    -0.550 OA
ENDBRANCH  10  11
ENDBRANCH   9  10
ENDBRANCH   8   9
ENDBRANCH   1   8
TORSDOF 8
ENDMDL
MODEL 6
REMARK VINA RESULT:    -3.804      1.837      3.987
REMARK INTER + INTRA:          -6.203
REMARK INTER:                  -5.459
REMARK INTRA:                  -0.744
REMARK UNBOUND:                -0.621
REMARK SMILES O=C([O-])CCCCCCCC(=O)[O-]
REMARK SMILES IDX 7 1 6 2 5 3 4 4 2 5 1 6 3 7 8 8 9 9 10 10 11 11 12 12 13 13
REMARK H PARENT
REMARK Flexibility Score: inf
ROOT
ATOM      1  C   UNL     1      97.135   5.323  23.194  1.00  0.00     0.000 C 
ENDROOT
BRANCH   1   2
ATOM      2  C   UNL     1      98.623   5.612  22.942  1.00  0.00     0.000 C 
BRANCH   2   3
ATOM      3  C   UNL     1      99.477   4.336  22.895  1.00  0.00     0.006 C 
BRANCH   3   4
ATOM      4  C   UNL     1     100.201   4.112  24.226  1.00  0.00     0.053 C 
BRANCH   4   5
ATOM      5  C   UNL     1     101.072   2.897  24.152  1.00  0.00     0.041 C 
ATOM      6  O   UNL     1     101.563   2.405  25.201  1.00  0.00    -0.550 OA
ATOM      7  O   UNL     1     101.380   2.338  22.919  1.00  0.00    -0.550 OA
ENDBRANCH   4   5
ENDBRANCH   3   4
ENDBRANCH   2   3
ENDBRANCH   1   2
BRANCH   1   8
ATOM      8  C   UNL     1      96.758   5.421  24.683  1.00  0.00     0.000 C 
BRANCH   8   9
ATOM      9  C   UNL     1      96.015   4.172  25.192  1.00  0.00     0.006 C 
BRANCH   9  10
ATOM     10  C   UNL     1      96.925   2.967  25.487  1.00  0.00     0.053 C 
BRANCH  10  11
ATOM     11  C   UNL     1      96.923   1.974  24.367  1.00  0.00     0.041 C 
ATOM     12  O   UNL     1      95.945   1.912  23.576  1.00  0.00    -0.550 OA
ATOM     13  O   UNL     1      98.016   1.138  24.175  1.00  0.00    -0.550 OA
ENDBRANCH  10  11
ENDBRANCH   9  10
ENDBRANCH   8   9
ENDBRANCH   1   8
TORSDOF 8
ENDMDL
MODEL 7
REMARK VINA RESULT:    -3.800      2.061      3.055
REMARK INTER + INTRA:          -6.197
REMARK INTER:                  -5.485
REMARK INTRA:                  -0.712
REMARK UNBOUND:                -0.621
REMARK SMILES O=C([O-])CCCCCCCC(=O)[O-]
REMARK SMILES IDX 7 1 6 2 5 3 4 4 2 5 1 6 3 7 8 8 9 9 10 10 11 11 12 12 13 13
REMARK H PARENT
REMARK Flexibility Score: inf
ROOT
ATOM      1  C   UNL     1      97.512   6.009  22.536  1.00  0.00     0.000 C 
ENDROOT
BRANCH   1   2
ATOM      2  C   UNL     1      96.427   5.166  23.225  1.00  0.00     0.000 C 
BRANCH   2   3
ATOM      3  C   UNL     1      95.480   6.010  24.091  1.00  0.00     0.006 C 
BRANCH   3   4
ATOM      4  C   UNL     1      95.384   5.442  25.510  1.00  0.00     0.053 C 
BRANCH   4   5
ATOM      5  C   UNL     1      96.702   5.555  26.211  1.00  0.00     0.041 C 
ATOM      6  O   UNL     1      97.193   4.558  26.802  1.00  0.00    -0.550 OA
ATOM      7  O   UNL     1      97.365   6.774  26.252  1.00  0.00    -0.550 OA
ENDBRANCH   4   5
ENDBRANCH   3   4
ENDBRANCH   2   3
ENDBRANCH   1   2
BRANCH   1   8
ATOM      8  C   UNL     1      98.883   5.311  22.525  1.00  0.00     0.000 C 
BRANCH   8   9
ATOM      9  C   UNL     1      99.175   4.551  23.832  1.00  0.00     0.006 C 
BRANCH   9  10
ATOM     10  C   UNL     1      99.500   3.060  23.640  1.00  0.00     0.053 C 
BRANCH  10  11
ATOM     11  C   UNL     1      98.726   2.190  24.581  1.00  0.00     0.041 C 
ATOM     12  O   UNL     1      97.585   1.765  24.260  1.00  0.00    -0.550 OA
ATOM     13  O   UNL     1      99.278   1.820  25.802  1.00  0.00    -0.550 OA
ENDBRANCH  10  11
ENDBRANCH   9  10
ENDBRANCH   8   9
ENDBRANCH   1   8
TORSDOF 8
ENDMDL
MODEL 8
REMARK VINA RESULT:    -3.794      1.464      2.033
REMARK INTER + INTRA:          -6.189
REMARK INTER:                  -5.502
REMARK INTRA:                  -0.687
REMARK UNBOUND:                -0.621
REMARK SMILES O=C([O-])CCCCCCCC(=O)[O-]
REMARK SMILES IDX 7 1 6 2 5 3 4 4 2 5 1 6 3 7 8 8 9 9 10 10 11 11 12 12 13 13
REMARK H PARENT
REMARK Flexibility Score: inf
ROOT
ATOM      1  C   UNL     1     100.096   4.137  24.270  1.00  0.00     0.000 C 
ENDROOT
BRANCH   1   2
ATOM      2  C   UNL     1      99.243   4.087  25.547  1.00  0.00     0.000 C 
BRANCH   2   3
ATOM      3  C   UNL     1      98.359   2.833  25.623  1.00  0.00     0.006 C 
BRANCH   3   4
ATOM      4  C   UNL     1      96.874   3.209  25.621  1.00  0.00     0.053 C 
BRANCH   4   5
ATOM      5  C   UNL     1      96.345   3.250  24.222  1.00  0.00     0.041 C 
ATOM      6  O   UNL     1      96.222   4.350  23.624  1.00  0.00    -0.550 OA
ATOM      7  O   UNL     1      95.943   2.077  23.597  1.00  0.00    -0.550 OA
ENDBRANCH   4   5
ENDBRANCH   3   4
ENDBRANCH   2   3
ENDBRANCH   1   2
BRANCH   1   8
ATOM      8  C   UNL     1      99.965   2.860  23.422  1.00  0.00     0.000 C 
BRANCH   8   9
ATOM      9  C   UNL     1     101.315   2.152  23.199  1.00  0.00     0.006 C 
BRANCH   9  10
ATOM     10  C   UNL     1     101.583   0.980  24.157  1.00  0.00     0.053 C 
BRANCH  10  11
ATOM     11  C   UNL     1     100.503  -0.054  24.097  1.00  0.00     0.041 C 
ATOM     12  O   UNL     1      99.835  -0.335  25.128  1.00  0.00    -0.550 OA
ATOM     13  O   UNL     1     100.208  -0.686  22.895  1.00  0.00    -0.550 OA
ENDBRANCH  10  11
ENDBRANCH   9  10
ENDBRANCH   8   9
ENDBRANCH   1   8
TORSDOF 8
ENDMDL
MODEL 9
REMARK VINA RESULT:    -3.777      2.504      4.878
REMARK INTER + INTRA:          -6.165
REMARK INTER:                  -5.386
REMARK INTRA:                  -0.778
REMARK UNBOUND:                -0.621
REMARK SMILES O=C([O-])CCCCCCCC(=O)[O-]
REMARK SMILES IDX 7 1 6 2 5 3 4 4 2 5 1 6 3 7 8 8 9 9 10 10 11 11 12 12 13 13
REMARK H PARENT
REMARK Flexibility Score: inf
ROOT
ATOM      1  C   UNL     1      99.938   4.199  24.104  1.00  0.00     0.000 C 
ENDROOT
BRANCH   1   2
ATOM      2  C   UNL     1      99.178   4.373  25.429  1.00  0.00     0.000 C 
BRANCH   2   3
ATOM      3  C   UNL     1      98.619   3.050  25.972  1.00  0.00     0.006 C 
BRANCH   3   4
ATOM      4  C   UNL     1      97.135   2.899  25.624  1.00  0.00     0.053 C 
BRANCH   4   5
ATOM      5  C   UNL     1      96.967   2.061  24.395  1.00  0.00     0.041 C 
ATOM      6  O   UNL     1      95.939   2.185  23.679  1.00  0.00    -0.550 OA
ATOM      7  O   UNL     1      97.922   1.107  24.069  1.00  0.00    -0.550 OA
ENDBRANCH   4   5
ENDBRANCH   3   4
ENDBRANCH   2   3
ENDBRANCH   1   2
BRANCH   1   8
ATOM      8  C   UNL     1      99.123   4.672  22.888  1.00  0.00     0.000 C 
BRANCH   8   9
ATOM      9  C   UNL     1      98.174   5.837  23.224  1.00  0.00     0.006 C 
BRANCH   9  10
ATOM     10  C   UNL     1      96.699   5.576  22.873  1.00  0.00     0.053 C 
BRANCH  10  11
ATOM     11  C   UNL     1      96.259   6.361  21.677  1.00  0.00     0.041 C 
ATOM     12  O   UNL     1      95.057   6.718  21.561  1.00  0.00    -0.550 OA
ATOM     13  O   UNL     1      97.182   6.728  20.705  1.00  0.00    -0.550 OA
ENDBRANCH  10  11
ENDBRANCH   9  10
ENDBRANCH   8   9
ENDBRANCH   1   8
TORSDOF 8
ENDMDL
