MODEL 1
REMARK VINA RESULT:    -3.054      0.000      0.000
REMARK INTER + INTRA:          -7.656
REMARK INTER:                  -5.643
REMARK INTRA:                  -2.013
REMARK UNBOUND:                -2.013
REMARK SMILES CCCCCCCCCCCCCCCCO
REMARK SMILES IDX 9 1 8 2 7 3 6 4 5 5 4 6 3 7 2 8 1 9 10 10 11 11 12 12 13 13
REMARK SMILES IDX 14 14 15 15 16 16 17 17
REMARK H PARENT 17 18
REMARK Flexibility Score: inf
ROOT
ATOM      1  C   UNL     1     171.263 163.517 143.498  1.00  0.00     0.000 C 
ENDROOT
BRANCH   1   2
ATOM      2  C   UNL     1     171.402 162.172 142.765  1.00  0.00    -0.000 C 
BRANCH   2   3
ATOM      3  C   UNL     1     172.541 161.306 143.345  1.00  0.00    -0.000 C 
BRANCH   3   4
ATOM      4  C   UNL     1     172.196 159.807 143.447  1.00  0.00    -0.000 C 
BRANCH   4   5
ATOM      5  C   UNL     1     171.543 159.379 144.773  1.00  0.00    -0.000 C 
BRANCH   5   6
ATOM      6  C   UNL     1     172.063 160.184 145.979  1.00  0.00    -0.000 C 
BRANCH   6   7
ATOM      7  C   UNL     1     170.924 160.782 146.824  1.00  0.00    -0.000 C 
BRANCH   7   8
ATOM      8  C   UNL     1     169.596 160.951 146.062  1.00  0.00    -0.003 C 
ATOM      9  C   UNL     1     168.948 162.315 146.303  1.00  0.00     0.004 C 
ENDBRANCH   7   8
ENDBRANCH   6   7
ENDBRANCH   5   6
ENDBRANCH   4   5
ENDBRANCH   3   4
ENDBRANCH   2   3
ENDBRANCH   1   2
BRANCH   1  10
ATOM     10  C   UNL     1     172.097 163.585 144.786  1.00  0.00     0.000 C 
BRANCH  10  11
ATOM     11  C   UNL     1     173.074 164.773 144.791  1.00  0.00     0.000 C 
BRANCH  11  12
ATOM     12  C   UNL     1     173.065 165.545 143.461  1.00  0.00     0.000 C 
BRANCH  12  13
ATOM     13  C   UNL     1     172.886 167.061 143.662  1.00  0.00     0.000 C 
BRANCH  13  14
ATOM     14  C   UNL     1     171.423 167.458 143.929  1.00  0.00     0.002 C 
BRANCH  14  15
ATOM     15  C   UNL     1     170.434 167.074 142.815  1.00  0.00     0.028 C 
BRANCH  15  16
ATOM     16  C   UNL     1     170.159 168.220 141.836  1.00  0.00     0.156 C 
BRANCH  16  17
ATOM     17  O   UNL     1     170.742 167.942 140.591  1.00  0.00    -0.396 OA
ATOM     18  H   UNL     1     170.208 168.429 139.912  1.00  0.00     0.210 HD
ENDBRANCH  16  17
ENDBRANCH  15  16
ENDBRANCH  14  15
ENDBRANCH  13  14
ENDBRANCH  12  13
ENDBRANCH  11  12
ENDBRANCH  10  11
ENDBRANCH   1  10
TORSDOF 15
ENDMDL
MODEL 2
REMARK VINA RESULT:    -3.047      9.892     11.996
REMARK INTER + INTRA:          -7.644
REMARK INTER:                  -5.538
REMARK INTRA:                  -2.106
REMARK UNBOUND:                -2.013
REMARK SMILES CCCCCCCCCCCCCCCCO
REMARK SMILES IDX 9 1 8 2 7 3 6 4 5 5 4 6 3 7 2 8 1 9 10 10 11 11 12 12 13 13
REMARK SMILES IDX 14 14 15 15 16 16 17 17
REMARK H PARENT 17 18
REMARK Flexibility Score: inf
ROOT
ATOM      1  C   UNL     1     168.111 169.154 152.251  1.00  0.00     0.000 C 
ENDROOT
BRANCH   1   2
ATOM      2  C   UNL     1     169.147 169.051 151.119  1.00  0.00    -0.000 C 
BRANCH   2   3
ATOM      3  C   UNL     1     168.987 170.180 150.078  1.00  0.00    -0.000 C 
BRANCH   3   4
ATOM      4  C   UNL     1     168.535 169.690 148.688  1.00  0.00    -0.000 C 
BRANCH   4   5
ATOM      5  C   UNL     1     167.056 169.279 148.594  1.00  0.00    -0.000 C 
BRANCH   5   6
ATOM      6  C   UNL     1     166.114 170.282 149.284  1.00  0.00    -0.000 C 
BRANCH   6   7
ATOM      7  C   UNL     1     164.992 169.588 150.077  1.00  0.00    -0.000 C 
BRANCH   7   8
ATOM      8  C   UNL     1     165.130 168.056 150.154  1.00  0.00    -0.003 C 
ATOM      9  C   UNL     1     163.860 167.327 149.713  1.00  0.00     0.004 C 
ENDBRANCH   7   8
ENDBRANCH   6   7
ENDBRANCH   5   6
ENDBRANCH   4   5
ENDBRANCH   3   4
ENDBRANCH   2   3
ENDBRANCH   1   2
BRANCH   1  10
ATOM     10  C   UNL     1     167.733 170.604 152.586  1.00  0.00     0.000 C 
BRANCH  10  11
ATOM     11  C   UNL     1     168.175 171.014 154.002  1.00  0.00     0.000 C 
BRANCH  11  12
ATOM     12  C   UNL     1     167.623 170.071 155.084  1.00  0.00     0.000 C 
BRANCH  12  13
ATOM     13  C   UNL     1     166.119 170.279 155.334  1.00  0.00     0.000 C 
BRANCH  13  14
ATOM     14  C   UNL     1     165.305 168.980 155.192  1.00  0.00     0.002 C 
BRANCH  14  15
ATOM     15  C   UNL     1     164.716 168.736 153.791  1.00  0.00     0.028 C 
BRANCH  15  16
ATOM     16  C   UNL     1     163.439 169.542 153.529  1.00  0.00     0.156 C 
BRANCH  16  17
ATOM     17  O   UNL     1     162.549 168.795 152.744  1.00  0.00    -0.396 OA
ATOM     18  H   UNL     1     161.770 168.584 153.320  1.00  0.00     0.210 HD
ENDBRANCH  16  17
ENDBRANCH  15  16
ENDBRANCH  14  15
ENDBRANCH  13  14
ENDBRANCH  12  13
ENDBRANCH  11  12
ENDBRANCH  10  11
ENDBRANCH   1  10
TORSDOF 15
ENDMDL
MODEL 3
REMARK VINA RESULT:    -3.030      7.782     10.078
REMARK INTER + INTRA:          -7.611
REMARK INTER:                  -5.756
REMARK INTRA:                  -1.855
REMARK UNBOUND:                -2.013
REMARK SMILES CCCCCCCCCCCCCCCCO
REMARK SMILES IDX 9 1 8 2 7 3 6 4 5 5 4 6 3 7 2 8 1 9 10 10 11 11 12 12 13 13
REMARK SMILES IDX 14 14 15 15 16 16 17 17
REMARK H PARENT 17 18
REMARK Flexibility Score: inf
ROOT
ATOM      1  C   UNL     1     168.647 169.106 151.506  1.00  0.00     0.000 C 
ENDROOT
BRANCH   1   2
ATOM      2  C   UNL     1     167.645 169.301 152.656  1.00  0.00    -0.000 C 
BRANCH   2   3
ATOM      3  C   UNL     1     167.246 170.781 152.836  1.00  0.00    -0.000 C 
BRANCH   3   4
ATOM      4  C   UNL     1     165.723 171.014 152.904  1.00  0.00    -0.000 C 
BRANCH   4   5
ATOM      5  C   UNL     1     164.934 170.507 151.684  1.00  0.00    -0.000 C 
BRANCH   5   6
ATOM      6  C   UNL     1     165.422 171.124 150.361  1.00  0.00    -0.000 C 
BRANCH   6   7
ATOM      7  C   UNL     1     165.604 170.073 149.251  1.00  0.00    -0.000 C 
BRANCH   7   8
ATOM      8  C   UNL     1     165.225 168.641 149.673  1.00  0.00    -0.003 C 
ATOM      9  C   UNL     1     165.074 167.696 148.480  1.00  0.00     0.004 C 
ENDBRANCH   7   8
ENDBRANCH   6   7
ENDBRANCH   5   6
ENDBRANCH   4   5
ENDBRANCH   3   4
ENDBRANCH   2   3
ENDBRANCH   1   2
BRANCH   1  10
ATOM     10  C   UNL     1     169.160 170.433 150.928  1.00  0.00     0.000 C 
BRANCH  10  11
ATOM     11  C   UNL     1     170.534 170.286 150.250  1.00  0.00     0.000 C 
BRANCH  11  12
ATOM     12  C   UNL     1     170.935 168.816 150.050  1.00  0.00     0.000 C 
BRANCH  12  13
ATOM     13  C   UNL     1     171.399 168.523 148.612  1.00  0.00     0.000 C 
BRANCH  13  14
ATOM     14  C   UNL     1     170.390 168.999 147.551  1.00  0.00     0.002 C 
BRANCH  14  15
ATOM     15  C   UNL     1     169.286 167.985 147.207  1.00  0.00     0.028 C 
BRANCH  15  16
ATOM     16  C   UNL     1     168.098 168.618 146.475  1.00  0.00     0.156 C 
BRANCH  16  17
ATOM     17  O   UNL     1     168.265 168.495 145.088  1.00  0.00    -0.396 OA
ATOM     18  H   UNL     1     167.955 167.585 144.843  1.00  0.00     0.210 HD
ENDBRANCH  16  17
ENDBRANCH  15  16
ENDBRANCH  14  15
ENDBRANCH  13  14
ENDBRANCH  12  13
ENDBRANCH  11  12
ENDBRANCH  10  11
ENDBRANCH   1  10
TORSDOF 15
ENDMDL
MODEL 4
REMARK VINA RESULT:    -3.015     11.573     14.909
REMARK INTER + INTRA:          -7.585
REMARK INTER:                  -5.139
REMARK INTRA:                  -2.445
REMARK UNBOUND:                -2.013
REMARK SMILES CCCCCCCCCCCCCCCCO
REMARK SMILES IDX 9 1 8 2 7 3 6 4 5 5 4 6 3 7 2 8 1 9 10 10 11 11 12 12 13 13
REMARK SMILES IDX 14 14 15 15 16 16 17 17
REMARK H PARENT 17 18
REMARK Flexibility Score: inf
ROOT
ATOM      1  C   UNL     1     169.033 151.376 155.577  1.00  0.00     0.000 C 
ENDROOT
BRANCH   1   2
ATOM      2  C   UNL     1     168.317 152.182 154.480  1.00  0.00    -0.000 C 
BRANCH   2   3
ATOM      3  C   UNL     1     169.308 152.973 153.598  1.00  0.00    -0.000 C 
BRANCH   3   4
ATOM      4  C   UNL     1     169.678 152.260 152.282  1.00  0.00    -0.000 C 
BRANCH   4   5
ATOM      5  C   UNL     1     171.081 151.629 152.257  1.00  0.00    -0.000 C 
BRANCH   5   6
ATOM      6  C   UNL     1     172.197 152.647 152.554  1.00  0.00    -0.000 C 
BRANCH   6   7
ATOM      7  C   UNL     1     172.489 153.569 151.357  1.00  0.00    -0.000 C 
BRANCH   7   8
ATOM      8  C   UNL     1     172.453 155.071 151.696  1.00  0.00    -0.003 C 
ATOM      9  C   UNL     1     171.069 155.689 151.489  1.00  0.00     0.004 C 
ENDBRANCH   7   8
ENDBRANCH   6   7
ENDBRANCH   5   6
ENDBRANCH   4   5
ENDBRANCH   3   4
ENDBRANCH   2   3
ENDBRANCH   1   2
BRANCH   1  10
ATOM     10  C   UNL     1     170.245 152.112 156.165  1.00  0.00     0.000 C 
BRANCH  10  11
ATOM     11  C   UNL     1     171.553 151.318 155.995  1.00  0.00     0.000 C 
BRANCH  11  12
ATOM     12  C   UNL     1     172.800 152.199 156.174  1.00  0.00     0.000 C 
BRANCH  12  13
ATOM     13  C   UNL     1     172.453 153.619 156.656  1.00  0.00     0.000 C 
BRANCH  13  14
ATOM     14  C   UNL     1     172.690 154.690 155.576  1.00  0.00     0.002 C 
BRANCH  14  15
ATOM     15  C   UNL     1     171.443 155.507 155.192  1.00  0.00     0.028 C 
BRANCH  15  16
ATOM     16  C   UNL     1     171.666 157.020 155.288  1.00  0.00     0.156 C 
BRANCH  16  17
ATOM     17  O   UNL     1     172.705 157.410 154.430  1.00  0.00    -0.396 OA
ATOM     18  H   UNL     1     173.528 157.456 154.982  1.00  0.00     0.210 HD
ENDBRANCH  16  17
ENDBRANCH  15  16
ENDBRANCH  14  15
ENDBRANCH  13  14
ENDBRANCH  12  13
ENDBRANCH  11  12
ENDBRANCH  10  11
ENDBRANCH   1  10
TORSDOF 15
ENDMDL
MODEL 5
REMARK VINA RESULT:    -2.989     11.325     14.392
REMARK INTER + INTRA:          -7.537
REMARK INTER:                  -5.232
REMARK INTRA:                  -2.305
REMARK UNBOUND:                -2.013
REMARK SMILES CCCCCCCCCCCCCCCCO
REMARK SMILES IDX 9 1 8 2 7 3 6 4 5 5 4 6 3 7 2 8 1 9 10 10 11 11 12 12 13 13
REMARK SMILES IDX 14 14 15 15 16 16 17 17
REMARK H PARENT 17 18
REMARK Flexibility Score: inf
ROOT
ATOM      1  C   UNL     1     169.873 154.862 155.131  1.00  0.00     0.000 C 
ENDROOT
BRANCH   1   2
ATOM      2  C   UNL     1     170.164 156.262 155.697  1.00  0.00    -0.000 C 
BRANCH   2   3
ATOM      3  C   UNL     1     171.471 156.859 155.135  1.00  0.00    -0.000 C 
BRANCH   3   4
ATOM      4  C   UNL     1     172.089 156.037 153.986  1.00  0.00    -0.000 C 
BRANCH   4   5
ATOM      5  C   UNL     1     172.018 156.702 152.600  1.00  0.00    -0.000 C 
BRANCH   5   6
ATOM      6  C   UNL     1     171.489 155.752 151.510  1.00  0.00    -0.000 C 
BRANCH   6   7
ATOM      7  C   UNL     1     169.953 155.647 151.514  1.00  0.00    -0.000 C 
BRANCH   7   8
ATOM      8  C   UNL     1     169.231 156.991 151.720  1.00  0.00    -0.003 C 
ATOM      9  C   UNL     1     168.005 156.868 152.626  1.00  0.00     0.004 C 
ENDBRANCH   7   8
ENDBRANCH   6   7
ENDBRANCH   5   6
ENDBRANCH   4   5
ENDBRANCH   3   4
ENDBRANCH   2   3
ENDBRANCH   1   2
BRANCH   1  10
ATOM     10  C   UNL     1     169.878 153.768 156.208  1.00  0.00     0.000 C 
BRANCH  10  11
ATOM     11  C   UNL     1     170.613 152.496 155.751  1.00  0.00     0.000 C 
BRANCH  11  12
ATOM     12  C   UNL     1     172.112 152.532 156.089  1.00  0.00     0.000 C 
BRANCH  12  13
ATOM     13  C   UNL     1     173.001 152.449 154.835  1.00  0.00     0.000 C 
BRANCH  13  14
ATOM     14  C   UNL     1     172.190 152.469 153.527  1.00  0.00     0.002 C 
BRANCH  14  15
ATOM     15  C   UNL     1     173.036 152.468 152.242  1.00  0.00     0.028 C 
BRANCH  15  16
ATOM     16  C   UNL     1     172.265 151.959 151.018  1.00  0.00     0.156 C 
BRANCH  16  17
ATOM     17  O   UNL     1     173.120 151.232 150.178  1.00  0.00    -0.396 OA
ATOM     18  H   UNL     1     173.164 150.310 150.544  1.00  0.00     0.210 HD
ENDBRANCH  16  17
ENDBRANCH  15  16
ENDBRANCH  14  15
ENDBRANCH  13  14
ENDBRANCH  12  13
ENDBRANCH  11  12
ENDBRANCH  10  11
ENDBRANCH   1  10
TORSDOF 15
ENDMDL
MODEL 6
REMARK VINA RESULT:    -2.955     10.166     12.388
REMARK INTER + INTRA:          -7.474
REMARK INTER:                  -5.668
REMARK INTRA:                  -1.806
REMARK UNBOUND:                -2.013
REMARK SMILES CCCCCCCCCCCCCCCCO
REMARK SMILES IDX 9 1 8 2 7 3 6 4 5 5 4 6 3 7 2 8 1 9 10 10 11 11 12 12 13 13
REMARK SMILES IDX 14 14 15 15 16 16 17 17
REMARK H PARENT 17 18
REMARK Flexibility Score: inf
ROOT
ATOM      1  C   UNL     1     164.613 169.079 155.632  1.00  0.00     0.000 C 
ENDROOT
BRANCH   1   2
ATOM      2  C   UNL     1     163.779 169.637 154.467  1.00  0.00    -0.000 C 
BRANCH   2   3
ATOM      3  C   UNL     1     164.277 169.127 153.097  1.00  0.00    -0.000 C 
BRANCH   3   4
ATOM      4  C   UNL     1     163.816 169.989 151.905  1.00  0.00    -0.000 C 
BRANCH   4   5
ATOM      5  C   UNL     1     164.942 170.738 151.172  1.00  0.00    -0.000 C 
BRANCH   5   6
ATOM      6  C   UNL     1     165.132 170.257 149.722  1.00  0.00    -0.000 C 
BRANCH   6   7
ATOM      7  C   UNL     1     165.578 168.786 149.641  1.00  0.00    -0.000 C 
BRANCH   7   8
ATOM      8  C   UNL     1     164.542 167.849 148.993  1.00  0.00    -0.003 C 
ATOM      9  C   UNL     1     165.079 167.156 147.739  1.00  0.00     0.004 C 
ENDBRANCH   7   8
ENDBRANCH   6   7
ENDBRANCH   5   6
ENDBRANCH   4   5
ENDBRANCH   3   4
ENDBRANCH   2   3
ENDBRANCH   1   2
BRANCH   1  10
ATOM     10  C   UNL     1     165.423 170.162 156.360  1.00  0.00     0.000 C 
BRANCH  10  11
ATOM     11  C   UNL     1     166.401 170.893 155.424  1.00  0.00     0.000 C 
BRANCH  11  12
ATOM     12  C   UNL     1     167.539 169.981 154.938  1.00  0.00     0.000 C 
BRANCH  12  13
ATOM     13  C   UNL     1     167.978 170.305 153.499  1.00  0.00     0.000 C 
BRANCH  13  14
ATOM     14  C   UNL     1     167.936 169.077 152.571  1.00  0.00     0.002 C 
BRANCH  14  15
ATOM     15  C   UNL     1     168.908 169.132 151.380  1.00  0.00     0.028 C 
BRANCH  15  16
ATOM     16  C   UNL     1     168.818 170.445 150.594  1.00  0.00     0.156 C 
BRANCH  16  17
ATOM     17  O   UNL     1     169.195 170.236 149.260  1.00  0.00    -0.396 OA
ATOM     18  H   UNL     1     170.093 169.814 149.280  1.00  0.00     0.210 HD
ENDBRANCH  16  17
ENDBRANCH  15  16
ENDBRANCH  14  15
ENDBRANCH  13  14
ENDBRANCH  12  13
ENDBRANCH  11  12
ENDBRANCH  10  11
ENDBRANCH   1  10
TORSDOF 15
ENDMDL
MODEL 7
REMARK VINA RESULT:    -2.907      8.262     10.593
REMARK INTER + INTRA:          -7.384
REMARK INTER:                  -5.344
REMARK INTRA:                  -2.039
REMARK UNBOUND:                -2.013
REMARK SMILES CCCCCCCCCCCCCCCCO
REMARK SMILES IDX 9 1 8 2 7 3 6 4 5 5 4 6 3 7 2 8 1 9 10 10 11 11 12 12 13 13
REMARK SMILES IDX 14 14 15 15 16 16 17 17
REMARK H PARENT 17 18
REMARK Flexibility Score: inf
ROOT
ATOM      1  C   UNL     1     168.169 170.862 152.431  1.00  0.00     0.000 C 
ENDROOT
BRANCH   1   2
ATOM      2  C   UNL     1     169.208 170.645 151.318  1.00  0.00    -0.000 C 
BRANCH   2   3
ATOM      3  C   UNL     1     169.368 169.154 150.952  1.00  0.00    -0.000 C 
BRANCH   3   4
ATOM      4  C   UNL     1     170.611 168.852 150.092  1.00  0.00    -0.000 C 
BRANCH   4   5
ATOM      5  C   UNL     1     171.026 169.980 149.131  1.00  0.00    -0.000 C 
BRANCH   5   6
ATOM      6  C   UNL     1     170.590 169.716 147.678  1.00  0.00    -0.000 C 
BRANCH   6   7
ATOM      7  C   UNL     1     169.107 170.050 147.437  1.00  0.00    -0.000 C 
BRANCH   7   8
ATOM      8  C   UNL     1     168.311 168.922 146.754  1.00  0.00    -0.003 C 
ATOM      9  C   UNL     1     168.931 167.542 146.981  1.00  0.00     0.004 C 
ENDBRANCH   7   8
ENDBRANCH   6   7
ENDBRANCH   5   6
ENDBRANCH   4   5
ENDBRANCH   3   4
ENDBRANCH   2   3
ENDBRANCH   1   2
BRANCH   1  10
ATOM     10  C   UNL     1     167.506 169.557 152.893  1.00  0.00     0.000 C 
BRANCH  10  11
ATOM     11  C   UNL     1     165.986 169.705 153.084  1.00  0.00     0.000 C 
BRANCH  11  12
ATOM     12  C   UNL     1     165.457 171.046 152.550  1.00  0.00     0.000 C 
BRANCH  12  13
ATOM     13  C   UNL     1     164.535 170.871 151.330  1.00  0.00     0.000 C 
BRANCH  13  14
ATOM     14  C   UNL     1     165.269 171.081 149.993  1.00  0.00     0.002 C 
BRANCH  14  15
ATOM     15  C   UNL     1     165.890 169.809 149.389  1.00  0.00     0.028 C 
BRANCH  15  16
ATOM     16  C   UNL     1     164.917 168.626 149.355  1.00  0.00     0.156 C 
BRANCH  16  17
ATOM     17  O   UNL     1     165.325 167.639 150.264  1.00  0.00    -0.396 OA
ATOM     18  H   UNL     1     166.314 167.589 150.204  1.00  0.00     0.210 HD
ENDBRANCH  16  17
ENDBRANCH  15  16
ENDBRANCH  14  15
ENDBRANCH  13  14
ENDBRANCH  12  13
ENDBRANCH  11  12
ENDBRANCH  10  11
ENDBRANCH   1  10
TORSDOF 15
ENDMDL
MODEL 8
REMARK VINA RESULT:    -2.868      9.253     12.000
REMARK INTER + INTRA:          -7.312
REMARK INTER:                  -4.816
REMARK INTRA:                  -2.496
REMARK UNBOUND:                -2.013
REMARK SMILES CCCCCCCCCCCCCCCCO
REMARK SMILES IDX 9 1 8 2 7 3 6 4 5 5 4 6 3 7 2 8 1 9 10 10 11 11 12 12 13 13
REMARK SMILES IDX 14 14 15 15 16 16 17 17
REMARK H PARENT 17 18
REMARK Flexibility Score: inf
ROOT
ATOM      1  C   UNL     1     165.753 171.125 150.192  1.00  0.00     0.000 C 
ENDROOT
BRANCH   1   2
ATOM      2  C   UNL     1     165.079 171.079 151.574  1.00  0.00    -0.000 C 
BRANCH   2   3
ATOM      3  C   UNL     1     166.108 171.014 152.722  1.00  0.00    -0.000 C 
BRANCH   3   4
ATOM      4  C   UNL     1     167.572 170.933 152.245  1.00  0.00    -0.000 C 
BRANCH   4   5
ATOM      5  C   UNL     1     168.224 169.546 152.380  1.00  0.00    -0.000 C 
BRANCH   5   6
ATOM      6  C   UNL     1     169.036 169.146 151.135  1.00  0.00    -0.000 C 
BRANCH   6   7
ATOM      7  C   UNL     1     169.478 170.363 150.302  1.00  0.00    -0.000 C 
BRANCH   7   8
ATOM      8  C   UNL     1     169.123 170.264 148.806  1.00  0.00    -0.003 C 
ATOM      9  C   UNL     1     168.976 168.818 148.330  1.00  0.00     0.004 C 
ENDBRANCH   7   8
ENDBRANCH   6   7
ENDBRANCH   5   6
ENDBRANCH   4   5
ENDBRANCH   3   4
ENDBRANCH   2   3
ENDBRANCH   1   2
BRANCH   1  10
ATOM     10  C   UNL     1     165.265 170.013 149.252  1.00  0.00     0.000 C 
BRANCH  10  11
ATOM     11  C   UNL     1     165.585 168.607 149.790  1.00  0.00     0.000 C 
BRANCH  11  12
ATOM     12  C   UNL     1     164.317 167.777 150.047  1.00  0.00     0.000 C 
BRANCH  12  13
ATOM     13  C   UNL     1     164.454 166.859 151.275  1.00  0.00     0.000 C 
BRANCH  13  14
ATOM     14  C   UNL     1     165.458 167.395 152.312  1.00  0.00     0.002 C 
BRANCH  14  15
ATOM     15  C   UNL     1     165.282 166.832 153.733  1.00  0.00     0.028 C 
BRANCH  15  16
ATOM     16  C   UNL     1     164.821 167.889 154.743  1.00  0.00     0.156 C 
BRANCH  16  17
ATOM     17  O   UNL     1     163.862 168.729 154.159  1.00  0.00    -0.396 OA
ATOM     18  H   UNL     1     163.715 169.477 154.793  1.00  0.00     0.210 HD
ENDBRANCH  16  17
ENDBRANCH  15  16
ENDBRANCH  14  15
ENDBRANCH  13  14
ENDBRANCH  12  13
ENDBRANCH  11  12
ENDBRANCH  10  11
ENDBRANCH   1  10
TORSDOF 15
ENDMDL
MODEL 9
REMARK VINA RESULT:    -2.859      8.387     10.647
REMARK INTER + INTRA:          -7.295
REMARK INTER:                  -5.523
REMARK INTRA:                  -1.772
REMARK UNBOUND:                -2.013
REMARK SMILES CCCCCCCCCCCCCCCCO
REMARK SMILES IDX 9 1 8 2 7 3 6 4 5 5 4 6 3 7 2 8 1 9 10 10 11 11 12 12 13 13
REMARK SMILES IDX 14 14 15 15 16 16 17 17
REMARK H PARENT 17 18
REMARK Flexibility Score: inf
ROOT
ATOM      1  C   UNL     1     166.051 169.555 153.628  1.00  0.00     0.000 C 
ENDROOT
BRANCH   1   2
ATOM      2  C   UNL     1     165.363 170.814 153.075  1.00  0.00    -0.000 C 
BRANCH   2   3
ATOM      3  C   UNL     1     164.409 170.490 151.906  1.00  0.00    -0.000 C 
BRANCH   3   4
ATOM      4  C   UNL     1     164.828 171.124 150.564  1.00  0.00    -0.000 C 
BRANCH   4   5
ATOM      5  C   UNL     1     165.772 170.264 149.706  1.00  0.00    -0.000 C 
BRANCH   5   6
ATOM      6  C   UNL     1     165.285 168.811 149.558  1.00  0.00    -0.000 C 
BRANCH   6   7
ATOM      7  C   UNL     1     165.695 168.185 148.213  1.00  0.00    -0.000 C 
BRANCH   7   8
ATOM      8  C   UNL     1     165.170 166.753 147.999  1.00  0.00    -0.003 C 
ATOM      9  C   UNL     1     163.706 166.595 148.414  1.00  0.00     0.004 C 
ENDBRANCH   7   8
ENDBRANCH   6   7
ENDBRANCH   5   6
ENDBRANCH   4   5
ENDBRANCH   3   4
ENDBRANCH   2   3
ENDBRANCH   1   2
BRANCH   1  10
ATOM     10  C   UNL     1     167.433 169.306 153.006  1.00  0.00     0.000 C 
BRANCH  10  11
ATOM     11  C   UNL     1     168.205 170.612 152.748  1.00  0.00     0.000 C 
BRANCH  11  12
ATOM     12  C   UNL     1     169.005 170.570 151.436  1.00  0.00     0.000 C 
BRANCH  12  13
ATOM     13  C   UNL     1     169.150 169.141 150.881  1.00  0.00     0.000 C 
BRANCH  13  14
ATOM     14  C   UNL     1     169.380 169.113 149.360  1.00  0.00     0.002 C 
BRANCH  14  15
ATOM     15  C   UNL     1     170.816 169.443 148.916  1.00  0.00     0.028 C 
BRANCH  15  16
ATOM     16  C   UNL     1     171.267 168.630 147.697  1.00  0.00     0.156 C 
BRANCH  16  17
ATOM     17  O   UNL     1     170.762 167.324 147.774  1.00  0.00    -0.396 OA
ATOM     18  H   UNL     1     170.098 167.319 148.510  1.00  0.00     0.210 HD
ENDBRANCH  16  17
ENDBRANCH  15  16
ENDBRANCH  14  15
ENDBRANCH  13  14
ENDBRANCH  12  13
ENDBRANCH  11  12
ENDBRANCH  10  11
ENDBRANCH   1  10
TORSDOF 15
ENDMDL
