MODEL 1
REMARK VINA RESULT:    -4.539      0.000      0.000
REMARK INTER + INTRA:         -13.484
REMARK INTER:                 -10.377
REMARK INTRA:                  -3.108
REMARK UNBOUND:                -3.108
REMARK SMILES CCCCCCCCCCCCCCCCCCCCCCCC(=O)[O-]
REMARK SMILES IDX 13 1 14 2 15 3 16 4 17 5 18 6 19 7 20 8 21 9 22 10 23 11
REMARK SMILES IDX 24 12 25 13 26 14 12 15 11 16 10 17 9 18 8 19 7 20 6 21 5 22
REMARK SMILES IDX 4 23 3 24 2 25 1 26
REMARK H PARENT
REMARK Flexibility Score: inf
ROOT
ATOM      1  C   UNL     1       0.714  10.796  86.930  1.00  0.00     0.000 C 
ENDROOT
BRANCH   1   2
ATOM      2  C   UNL     1       1.120  10.151  88.260  1.00  0.00     0.000 C 
BRANCH   2   3
ATOM      3  C   UNL     1       2.440   9.377  88.115  1.00  0.00     0.000 C 
BRANCH   3   4
ATOM      4  C   UNL     1       2.811   9.104  86.649  1.00  0.00     0.000 C 
BRANCH   4   5
ATOM      5  C   UNL     1       2.639   7.629  86.256  1.00  0.00     0.000 C 
BRANCH   5   6
ATOM      6  C   UNL     1       1.395   7.439  85.375  1.00  0.00     0.000 C 
BRANCH   6   7
ATOM      7  C   UNL     1       0.433   6.373  85.923  1.00  0.00     0.000 C 
BRANCH   7   8
ATOM      8  C   UNL     1       0.370   6.369  87.460  1.00  0.00     0.000 C 
BRANCH   8   9
ATOM      9  C   UNL     1      -0.090   5.016  88.026  1.00  0.00     0.000 C 
BRANCH   9  10
ATOM     10  C   UNL     1       1.047   4.249  88.726  1.00  0.00     0.006 C 
BRANCH  10  11
ATOM     11  C   UNL     1       1.494   3.020  87.924  1.00  0.00     0.053 C 
BRANCH  11  12
ATOM     12  C   UNL     1       2.811   3.249  87.247  1.00  0.00     0.041 C 
ATOM     13  O   UNL     1       3.858   2.717  87.699  1.00  0.00    -0.550 OA
ATOM     14  O   UNL     1       2.884   4.074  86.132  1.00  0.00    -0.550 OA
ENDBRANCH  11  12
ENDBRANCH  10  11
ENDBRANCH   9  10
ENDBRANCH   8   9
ENDBRANCH   7   8
ENDBRANCH   6   7
ENDBRANCH   5   6
ENDBRANCH   4   5
ENDBRANCH   3   4
ENDBRANCH   2   3
ENDBRANCH   1   2
BRANCH   1  15
ATOM     15  C   UNL     1      -0.567  10.158  86.375  1.00  0.00     0.000 C 
BRANCH  15  16
ATOM     16  C   UNL     1      -0.760  10.406  84.869  1.00  0.00     0.000 C 
BRANCH  16  17
ATOM     17  C   UNL     1       0.428  11.133  84.203  1.00  0.00     0.000 C 
BRANCH  17  18
ATOM     18  C   UNL     1       1.099  10.275  83.115  1.00  0.00    -0.000 C 
BRANCH  18  19
ATOM     19  C   UNL     1       2.084  11.077  82.252  1.00  0.00    -0.000 C 
BRANCH  19  20
ATOM     20  C   UNL     1       3.540  10.608  82.428  1.00  0.00    -0.000 C 
BRANCH  20  21
ATOM     21  C   UNL     1       3.638   9.160  82.937  1.00  0.00    -0.000 C 
BRANCH  21  22
ATOM     22  C   UNL     1       4.730   8.353  82.212  1.00  0.00    -0.000 C 
BRANCH  22  23
ATOM     23  C   UNL     1       6.060   9.119  82.118  1.00  0.00    -0.000 C 
BRANCH  23  24
ATOM     24  C   UNL     1       6.906   8.688  80.907  1.00  0.00    -0.000 C 
BRANCH  24  25
ATOM     25  C   UNL     1       6.517   7.298  80.382  1.00  0.00    -0.003 C 
ATOM     26  C   UNL     1       7.726   6.470  79.948  1.00  0.00     0.004 C 
ENDBRANCH  24  25
ENDBRANCH  23  24
ENDBRANCH  22  23
ENDBRANCH  21  22
ENDBRANCH  20  21
ENDBRANCH  19  20
ENDBRANCH  18  19
ENDBRANCH  17  18
ENDBRANCH  16  17
ENDBRANCH  15  16
ENDBRANCH   1  15
TORSDOF 22
ENDMDL
MODEL 2
REMARK VINA RESULT:    -4.516      2.833      7.687
REMARK INTER + INTRA:         -13.432
REMARK INTER:                 -11.118
REMARK INTRA:                  -2.314
REMARK UNBOUND:                -3.108
REMARK SMILES CCCCCCCCCCCCCCCCCCCCCCCC(=O)[O-]
REMARK SMILES IDX 13 1 14 2 15 3 16 4 17 5 18 6 19 7 20 8 21 9 22 10 23 11
REMARK SMILES IDX 24 12 25 13 26 14 12 15 11 16 10 17 9 18 8 19 7 20 6 21 5 22
REMARK SMILES IDX 4 23 3 24 2 25 1 26
REMARK H PARENT
REMARK Flexibility Score: inf
ROOT
ATOM      1  C   UNL     1       1.791  10.802  83.684  1.00  0.00     0.000 C 
ENDROOT
BRANCH   1   2
ATOM      2  C   UNL     1       2.841  10.281  82.698  1.00  0.00     0.000 C 
BRANCH   2   3
ATOM      3  C   UNL     1       3.297   8.863  83.078  1.00  0.00     0.000 C 
BRANCH   3   4
ATOM      4  C   UNL     1       4.507   8.388  82.258  1.00  0.00     0.000 C 
BRANCH   4   5
ATOM      5  C   UNL     1       5.618   9.444  82.169  1.00  0.00     0.000 C 
BRANCH   5   6
ATOM      6  C   UNL     1       6.928   8.818  81.666  1.00  0.00     0.000 C 
BRANCH   6   7
ATOM      7  C   UNL     1       6.699   7.724  80.612  1.00  0.00     0.000 C 
BRANCH   7   8
ATOM      8  C   UNL     1       7.478   7.985  79.311  1.00  0.00     0.000 C 
BRANCH   8   9
ATOM      9  C   UNL     1       8.950   8.345  79.569  1.00  0.00     0.000 C 
BRANCH   9  10
ATOM     10  C   UNL     1       9.914   7.206  79.192  1.00  0.00     0.006 C 
BRANCH  10  11
ATOM     11  C   UNL     1       9.168   5.921  78.810  1.00  0.00     0.053 C 
BRANCH  11  12
ATOM     12  C   UNL     1       9.416   4.822  79.798  1.00  0.00     0.041 C 
ATOM     13  O   UNL     1       8.496   4.442  80.568  1.00  0.00    -0.550 OA
ATOM     14  O   UNL     1      10.673   4.237  79.886  1.00  0.00    -0.550 OA
ENDBRANCH  11  12
ENDBRANCH  10  11
ENDBRANCH   9  10
ENDBRANCH   8   9
ENDBRANCH   7   8
ENDBRANCH   6   7
ENDBRANCH   5   6
ENDBRANCH   4   5
ENDBRANCH   3   4
ENDBRANCH   2   3
ENDBRANCH   1   2
BRANCH   1  15
ATOM     15  C   UNL     1       0.592   9.847  83.771  1.00  0.00     0.000 C 
BRANCH  15  16
ATOM     16  C   UNL     1      -0.496  10.333  84.743  1.00  0.00     0.000 C 
BRANCH  16  17
ATOM     17  C   UNL     1      -0.340  11.810  85.161  1.00  0.00     0.000 C 
BRANCH  17  18
ATOM     18  C   UNL     1      -0.899  12.078  86.570  1.00  0.00    -0.000 C 
BRANCH  18  19
ATOM     19  C   UNL     1       0.195  12.083  87.649  1.00  0.00    -0.000 C 
BRANCH  19  20
ATOM     20  C   UNL     1       0.351  10.713  88.336  1.00  0.00    -0.000 C 
BRANCH  20  21
ATOM     21  C   UNL     1       1.704  10.561  89.051  1.00  0.00    -0.000 C 
BRANCH  21  22
ATOM     22  C   UNL     1       2.502   9.345  88.549  1.00  0.00    -0.000 C 
BRANCH  22  23
ATOM     23  C   UNL     1       1.684   8.459  87.595  1.00  0.00    -0.000 C 
BRANCH  23  24
ATOM     24  C   UNL     1       2.526   7.908  86.430  1.00  0.00    -0.000 C 
BRANCH  24  25
ATOM     25  C   UNL     1       1.784   6.829  85.627  1.00  0.00    -0.003 C 
ATOM     26  C   UNL     1       2.509   5.484  85.634  1.00  0.00     0.004 C 
ENDBRANCH  24  25
ENDBRANCH  23  24
ENDBRANCH  22  23
ENDBRANCH  21  22
ENDBRANCH  20  21
ENDBRANCH  19  20
ENDBRANCH  18  19
ENDBRANCH  17  18
ENDBRANCH  16  17
ENDBRANCH  15  16
ENDBRANCH   1  15
TORSDOF 22
ENDMDL
MODEL 3
REMARK VINA RESULT:    -4.455      3.459      7.334
REMARK INTER + INTRA:         -13.292
REMARK INTER:                  -9.695
REMARK INTRA:                  -3.597
REMARK UNBOUND:                -3.108
REMARK SMILES CCCCCCCCCCCCCCCCCCCCCCCC(=O)[O-]
REMARK SMILES IDX 13 1 14 2 15 3 16 4 17 5 18 6 19 7 20 8 21 9 22 10 23 11
REMARK SMILES IDX 24 12 25 13 26 14 12 15 11 16 10 17 9 18 8 19 7 20 6 21 5 22
REMARK SMILES IDX 4 23 3 24 2 25 1 26
REMARK H PARENT
REMARK Flexibility Score: inf
ROOT
ATOM      1  C   UNL     1       5.401  13.198  81.369  1.00  0.00     0.000 C 
ENDROOT
BRANCH   1   2
ATOM      2  C   UNL     1       5.755  13.697  82.773  1.00  0.00     0.000 C 
BRANCH   2   3
ATOM      3  C   UNL     1       4.753  13.170  83.813  1.00  0.00     0.000 C 
BRANCH   3   4
ATOM      4  C   UNL     1       4.893  11.660  84.060  1.00  0.00     0.000 C 
BRANCH   4   5
ATOM      5  C   UNL     1       3.537  10.948  84.185  1.00  0.00     0.000 C 
BRANCH   5   6
ATOM      6  C   UNL     1       3.516   9.662  83.346  1.00  0.00     0.000 C 
BRANCH   6   7
ATOM      7  C   UNL     1       4.481   9.713  82.151  1.00  0.00     0.000 C 
BRANCH   7   8
ATOM      8  C   UNL     1       5.375   8.464  82.060  1.00  0.00     0.000 C 
BRANCH   8   9
ATOM      9  C   UNL     1       6.651   8.713  81.239  1.00  0.00     0.000 C 
BRANCH   9  10
ATOM     10  C   UNL     1       7.094   7.473  80.443  1.00  0.00     0.006 C 
BRANCH  10  11
ATOM     11  C   UNL     1       8.095   7.825  79.334  1.00  0.00     0.053 C 
BRANCH  11  12
ATOM     12  C   UNL     1       9.151   6.772  79.185  1.00  0.00     0.041 C 
ATOM     13  O   UNL     1       8.829   5.558  79.102  1.00  0.00    -0.550 OA
ATOM     14  O   UNL     1      10.492   7.132  79.168  1.00  0.00    -0.550 OA
ENDBRANCH  11  12
ENDBRANCH  10  11
ENDBRANCH   9  10
ENDBRANCH   8   9
ENDBRANCH   7   8
ENDBRANCH   6   7
ENDBRANCH   5   6
ENDBRANCH   4   5
ENDBRANCH   3   4
ENDBRANCH   2   3
ENDBRANCH   1   2
BRANCH   1  15
ATOM     15  C   UNL     1       3.945  13.530  81.015  1.00  0.00     0.000 C 
BRANCH  15  16
ATOM     16  C   UNL     1       3.286  12.470  80.116  1.00  0.00     0.000 C 
BRANCH  16  17
ATOM     17  C   UNL     1       1.825  12.151  80.501  1.00  0.00     0.000 C 
BRANCH  17  18
ATOM     18  C   UNL     1       1.433  12.766  81.856  1.00  0.00    -0.000 C 
BRANCH  18  19
ATOM     19  C   UNL     1       0.324  11.976  82.566  1.00  0.00    -0.000 C 
BRANCH  19  20
ATOM     20  C   UNL     1       0.130  10.568  81.973  1.00  0.00    -0.000 C 
BRANCH  20  21
ATOM     21  C   UNL     1      -0.148   9.505  83.048  1.00  0.00    -0.000 C 
BRANCH  21  22
ATOM     22  C   UNL     1      -0.132  10.089  84.471  1.00  0.00    -0.000 C 
BRANCH  22  23
ATOM     23  C   UNL     1       0.291   9.054  85.527  1.00  0.00    -0.000 C 
BRANCH  23  24
ATOM     24  C   UNL     1       1.109   7.897  84.926  1.00  0.00    -0.000 C 
BRANCH  24  25
ATOM     25  C   UNL     1       2.005   7.208  85.967  1.00  0.00    -0.003 C 
ATOM     26  C   UNL     1       3.003   6.238  85.338  1.00  0.00     0.004 C 
ENDBRANCH  24  25
ENDBRANCH  23  24
ENDBRANCH  22  23
ENDBRANCH  21  22
ENDBRANCH  20  21
ENDBRANCH  19  20
ENDBRANCH  18  19
ENDBRANCH  17  18
ENDBRANCH  16  17
ENDBRANCH  15  16
ENDBRANCH   1  15
TORSDOF 22
ENDMDL
MODEL 4
REMARK VINA RESULT:    -4.412      6.863     12.973
REMARK INTER + INTRA:         -13.193
REMARK INTER:                 -10.529
REMARK INTRA:                  -2.664
REMARK UNBOUND:                -3.108
REMARK SMILES CCCCCCCCCCCCCCCCCCCCCCCC(=O)[O-]
REMARK SMILES IDX 13 1 14 2 15 3 16 4 17 5 18 6 19 7 20 8 21 9 22 10 23 11
REMARK SMILES IDX 24 12 25 13 26 14 12 15 11 16 10 17 9 18 8 19 7 20 6 21 5 22
REMARK SMILES IDX 4 23 3 24 2 25 1 26
REMARK H PARENT
REMARK Flexibility Score: inf
ROOT
ATOM      1  C   UNL     1      13.244   3.823  79.363  1.00  0.00     0.000 C 
ENDROOT
BRANCH   1   2
ATOM      2  C   UNL     1      11.765   3.468  79.545  1.00  0.00     0.000 C 
BRANCH   2   3
ATOM      3  C   UNL     1      10.917   4.734  79.756  1.00  0.00     0.000 C 
BRANCH   3   4
ATOM      4  C   UNL     1       9.450   4.417  80.085  1.00  0.00     0.000 C 
BRANCH   4   5
ATOM      5  C   UNL     1       8.488   5.533  79.650  1.00  0.00     0.000 C 
BRANCH   5   6
ATOM      6  C   UNL     1       9.248   6.665  78.941  1.00  0.00     0.000 C 
BRANCH   6   7
ATOM      7  C   UNL     1       8.939   8.050  79.531  1.00  0.00     0.000 C 
BRANCH   7   8
ATOM      8  C   UNL     1       7.448   8.232  79.863  1.00  0.00     0.000 C 
BRANCH   8   9
ATOM      9  C   UNL     1       7.218   8.674  81.317  1.00  0.00     0.000 C 
BRANCH   9  10
ATOM     10  C   UNL     1       5.747   8.543  81.750  1.00  0.00     0.006 C 
BRANCH  10  11
ATOM     11  C   UNL     1       5.110   9.906  82.052  1.00  0.00     0.053 C 
BRANCH  11  12
ATOM     12  C   UNL     1       3.770   9.759  82.706  1.00  0.00     0.041 C 
ATOM     13  O   UNL     1       3.420   8.654  83.196  1.00  0.00    -0.550 OA
ATOM     14  O   UNL     1       2.895  10.838  82.747  1.00  0.00    -0.550 OA
ENDBRANCH  11  12
ENDBRANCH  10  11
ENDBRANCH   9  10
ENDBRANCH   8   9
ENDBRANCH   7   8
ENDBRANCH   6   7
ENDBRANCH   5   6
ENDBRANCH   4   5
ENDBRANCH   3   4
ENDBRANCH   2   3
ENDBRANCH   1   2
BRANCH   1  15
ATOM     15  C   UNL     1      14.033   2.633  78.800  1.00  0.00     0.000 C 
BRANCH  15  16
ATOM     16  C   UNL     1      14.824   2.983  77.528  1.00  0.00     0.000 C 
BRANCH  16  17
ATOM     17  C   UNL     1      16.224   2.335  77.469  1.00  0.00     0.000 C 
BRANCH  17  18
ATOM     18  C   UNL     1      17.340   3.378  77.279  1.00  0.00    -0.000 C 
BRANCH  18  19
ATOM     19  C   UNL     1      16.792   4.785  77.000  1.00  0.00    -0.000 C 
BRANCH  19  20
ATOM     20  C   UNL     1      17.146   5.788  78.114  1.00  0.00    -0.000 C 
BRANCH  20  21
ATOM     21  C   UNL     1      15.954   6.094  79.036  1.00  0.00    -0.000 C 
BRANCH  21  22
ATOM     22  C   UNL     1      16.222   5.693  80.497  1.00  0.00    -0.000 C 
BRANCH  22  23
ATOM     23  C   UNL     1      17.603   5.043  80.684  1.00  0.00    -0.000 C 
BRANCH  23  24
ATOM     24  C   UNL     1      17.510   3.566  81.107  1.00  0.00    -0.000 C 
BRANCH  24  25
ATOM     25  C   UNL     1      16.135   3.207  81.691  1.00  0.00    -0.003 C 
ATOM     26  C   UNL     1      15.916   1.699  81.803  1.00  0.00     0.004 C 
ENDBRANCH  24  25
ENDBRANCH  23  24
ENDBRANCH  22  23
ENDBRANCH  21  22
ENDBRANCH  20  21
ENDBRANCH  19  20
ENDBRANCH  18  19
ENDBRANCH  17  18
ENDBRANCH  16  17
ENDBRANCH  15  16
ENDBRANCH   1  15
TORSDOF 22
ENDMDL
MODEL 5
REMARK VINA RESULT:    -4.367      1.546      4.117
REMARK INTER + INTRA:         -13.090
REMARK INTER:                 -10.381
REMARK INTRA:                  -2.709
REMARK UNBOUND:                -3.108
REMARK SMILES CCCCCCCCCCCCCCCCCCCCCCCC(=O)[O-]
REMARK SMILES IDX 13 1 14 2 15 3 16 4 17 5 18 6 19 7 20 8 21 9 22 10 23 11
REMARK SMILES IDX 24 12 25 13 26 14 12 15 11 16 10 17 9 18 8 19 7 20 6 21 5 22
REMARK SMILES IDX 4 23 3 24 2 25 1 26
REMARK H PARENT
REMARK Flexibility Score: inf
ROOT
ATOM      1  C   UNL     1       1.243   9.739  82.813  1.00  0.00     0.000 C 
ENDROOT
BRANCH   1   2
ATOM      2  C   UNL     1       0.057   9.002  83.446  1.00  0.00     0.000 C 
BRANCH   2   3
ATOM      3  C   UNL     1      -0.549   9.822  84.597  1.00  0.00     0.000 C 
BRANCH   3   4
ATOM      4  C   UNL     1      -0.248  11.324  84.478  1.00  0.00     0.000 C 
BRANCH   4   5
ATOM      5  C   UNL     1       0.548  11.868  85.674  1.00  0.00     0.000 C 
BRANCH   5   6
ATOM      6  C   UNL     1       0.495  10.890  86.857  1.00  0.00     0.000 C 
BRANCH   6   7
ATOM      7  C   UNL     1       1.890  10.498  87.370  1.00  0.00     0.000 C 
BRANCH   7   8
ATOM      8  C   UNL     1       2.190   9.001  87.180  1.00  0.00     0.000 C 
BRANCH   8   9
ATOM      9  C   UNL     1       0.970   8.115  87.478  1.00  0.00     0.000 C 
BRANCH   9  10
ATOM     10  C   UNL     1       0.784   6.996  86.438  1.00  0.00     0.006 C 
BRANCH  10  11
ATOM     11  C   UNL     1       1.463   5.689  86.868  1.00  0.00     0.053 C 
BRANCH  11  12
ATOM     12  C   UNL     1       2.532   5.276  85.902  1.00  0.00     0.041 C 
ATOM     13  O   UNL     1       2.884   4.070  85.823  1.00  0.00    -0.550 OA
ATOM     14  O   UNL     1       3.159   6.229  85.110  1.00  0.00    -0.550 OA
ENDBRANCH  11  12
ENDBRANCH  10  11
ENDBRANCH   9  10
ENDBRANCH   8   9
ENDBRANCH   7   8
ENDBRANCH   6   7
ENDBRANCH   5   6
ENDBRANCH   4   5
ENDBRANCH   3   4
ENDBRANCH   2   3
ENDBRANCH   1   2
BRANCH   1  15
ATOM     15  C   UNL     1       2.538   9.472  83.592  1.00  0.00     0.000 C 
BRANCH  15  16
ATOM     16  C   UNL     1       3.650  10.487  83.277  1.00  0.00     0.000 C 
BRANCH  16  17
ATOM     17  C   UNL     1       4.685   9.976  82.252  1.00  0.00     0.000 C 
BRANCH  17  18
ATOM     18  C   UNL     1       4.773   8.439  82.232  1.00  0.00    -0.000 C 
BRANCH  18  19
ATOM     19  C   UNL     1       5.866   7.921  81.284  1.00  0.00    -0.000 C 
BRANCH  19  20
ATOM     20  C   UNL     1       6.852   9.027  80.862  1.00  0.00    -0.000 C 
BRANCH  20  21
ATOM     21  C   UNL     1       7.602   8.686  79.564  1.00  0.00    -0.000 C 
BRANCH  21  22
ATOM     22  C   UNL     1       9.051   8.240  79.820  1.00  0.00    -0.000 C 
BRANCH  22  23
ATOM     23  C   UNL     1       9.374   6.888  79.163  1.00  0.00    -0.000 C 
BRANCH  23  24
ATOM     24  C   UNL     1       8.369   5.787  79.548  1.00  0.00    -0.000 C 
BRANCH  24  25
ATOM     25  C   UNL     1       9.057   4.530  80.102  1.00  0.00    -0.003 C 
ATOM     26  C   UNL     1      10.542   4.464  79.746  1.00  0.00     0.004 C 
ENDBRANCH  24  25
ENDBRANCH  23  24
ENDBRANCH  22  23
ENDBRANCH  21  22
ENDBRANCH  20  21
ENDBRANCH  19  20
ENDBRANCH  18  19
ENDBRANCH  17  18
ENDBRANCH  16  17
ENDBRANCH  15  16
ENDBRANCH   1  15
TORSDOF 22
ENDMDL
MODEL 6
REMARK VINA RESULT:    -4.278      7.804     14.018
REMARK INTER + INTRA:         -12.888
REMARK INTER:                 -10.248
REMARK INTRA:                  -2.640
REMARK UNBOUND:                -3.108
REMARK SMILES CCCCCCCCCCCCCCCCCCCCCCCC(=O)[O-]
REMARK SMILES IDX 13 1 14 2 15 3 16 4 17 5 18 6 19 7 20 8 21 9 22 10 23 11
REMARK SMILES IDX 24 12 25 13 26 14 12 15 11 16 10 17 9 18 8 19 7 20 6 21 5 22
REMARK SMILES IDX 4 23 3 24 2 25 1 26
REMARK H PARENT
REMARK Flexibility Score: inf
ROOT
ATOM      1  C   UNL     1      15.387   3.553  77.002  1.00  0.00     0.000 C 
ENDROOT
BRANCH   1   2
ATOM      2  C   UNL     1      16.624   4.450  76.882  1.00  0.00     0.000 C 
BRANCH   2   3
ATOM      3  C   UNL     1      17.274   4.676  78.257  1.00  0.00     0.000 C 
BRANCH   3   4
ATOM      4  C   UNL     1      16.581   5.783  79.066  1.00  0.00     0.000 C 
BRANCH   4   5
ATOM      5  C   UNL     1      16.510   5.469  80.568  1.00  0.00     0.000 C 
BRANCH   5   6
ATOM      6  C   UNL     1      17.220   4.143  80.883  1.00  0.00     0.000 C 
BRANCH   6   7
ATOM      7  C   UNL     1      16.391   3.226  81.796  1.00  0.00     0.000 C 
BRANCH   7   8
ATOM      8  C   UNL     1      17.087   1.881  82.071  1.00  0.00     0.000 C 
BRANCH   8   9
ATOM      9  C   UNL     1      16.145   0.682  81.881  1.00  0.00     0.000 C 
BRANCH   9  10
ATOM     10  C   UNL     1      14.781   0.886  82.562  1.00  0.00     0.006 C 
BRANCH  10  11
ATOM     11  C   UNL     1      14.399  -0.299  83.458  1.00  0.00     0.053 C 
BRANCH  11  12
ATOM     12  C   UNL     1      12.973  -0.713  83.253  1.00  0.00     0.041 C 
ATOM     13  O   UNL     1      12.608  -1.212  82.157  1.00  0.00    -0.550 OA
ATOM     14  O   UNL     1      12.042  -0.520  84.266  1.00  0.00    -0.550 OA
ENDBRANCH  11  12
ENDBRANCH  10  11
ENDBRANCH   9  10
ENDBRANCH   8   9
ENDBRANCH   7   8
ENDBRANCH   6   7
ENDBRANCH   5   6
ENDBRANCH   4   5
ENDBRANCH   3   4
ENDBRANCH   2   3
ENDBRANCH   1   2
BRANCH   1  15
ATOM     15  C   UNL     1      15.606   2.446  78.042  1.00  0.00     0.000 C 
BRANCH  15  16
ATOM     16  C   UNL     1      14.385   2.224  78.951  1.00  0.00     0.000 C 
BRANCH  16  17
ATOM     17  C   UNL     1      13.600   3.516  79.262  1.00  0.00     0.000 C 
BRANCH  17  18
ATOM     18  C   UNL     1      12.133   3.230  79.632  1.00  0.00    -0.000 C 
BRANCH  18  19
ATOM     19  C   UNL     1      11.270   4.500  79.655  1.00  0.00    -0.000 C 
BRANCH  19  20
ATOM     20  C   UNL     1       9.796   4.205  79.989  1.00  0.00    -0.000 C 
BRANCH  20  21
ATOM     21  C   UNL     1       8.854   5.346  79.570  1.00  0.00    -0.000 C 
BRANCH  21  22
ATOM     22  C   UNL     1       9.616   6.600  79.107  1.00  0.00    -0.000 C 
BRANCH  22  23
ATOM     23  C   UNL     1       8.707   7.835  79.004  1.00  0.00    -0.000 C 
BRANCH  23  24
ATOM     24  C   UNL     1       8.758   8.715  80.266  1.00  0.00    -0.000 C 
BRANCH  24  25
ATOM     25  C   UNL     1       7.387   8.848  80.946  1.00  0.00    -0.003 C 
ATOM     26  C   UNL     1       6.467   7.663  80.657  1.00  0.00     0.004 C 
ENDBRANCH  24  25
ENDBRANCH  23  24
ENDBRANCH  22  23
ENDBRANCH  21  22
ENDBRANCH  20  21
ENDBRANCH  19  20
ENDBRANCH  18  19
ENDBRANCH  17  18
ENDBRANCH  16  17
ENDBRANCH  15  16
ENDBRANCH   1  15
TORSDOF 22
ENDMDL
MODEL 7
REMARK VINA RESULT:    -4.238     14.215     16.603
REMARK INTER + INTRA:         -12.796
REMARK INTER:                  -7.821
REMARK INTRA:                  -4.975
REMARK UNBOUND:                -3.108
REMARK SMILES CCCCCCCCCCCCCCCCCCCCCCCC(=O)[O-]
REMARK SMILES IDX 13 1 14 2 15 3 16 4 17 5 18 6 19 7 20 8 21 9 22 10 23 11
REMARK SMILES IDX 24 12 25 13 26 14 12 15 11 16 10 17 9 18 8 19 7 20 6 21 5 22
REMARK SMILES IDX 4 23 3 24 2 25 1 26
REMARK H PARENT
REMARK Flexibility Score: inf
ROOT
ATOM      1  C   UNL     1      15.476   2.375  77.816  1.00  0.00     0.000 C 
ENDROOT
BRANCH   1   2
ATOM      2  C   UNL     1      14.536   1.775  78.867  1.00  0.00     0.000 C 
BRANCH   2   3
ATOM      3  C   UNL     1      14.201   2.806  79.958  1.00  0.00     0.000 C 
BRANCH   3   4
ATOM      4  C   UNL     1      15.390   3.716  80.300  1.00  0.00     0.000 C 
BRANCH   4   5
ATOM      5  C   UNL     1      16.283   3.139  81.409  1.00  0.00     0.000 C 
BRANCH   5   6
ATOM      6  C   UNL     1      17.623   2.654  80.836  1.00  0.00     0.000 C 
BRANCH   6   7
ATOM      7  C   UNL     1      17.968   1.218  81.261  1.00  0.00     0.000 C 
BRANCH   7   8
ATOM      8  C   UNL     1      17.996   0.240  80.074  1.00  0.00     0.000 C 
BRANCH   8   9
ATOM      9  C   UNL     1      16.770  -0.687  80.047  1.00  0.00     0.000 C 
BRANCH   9  10
ATOM     10  C   UNL     1      16.272  -1.052  81.456  1.00  0.00     0.006 C 
BRANCH  10  11
ATOM     11  C   UNL     1      14.825  -0.603  81.692  1.00  0.00     0.053 C 
BRANCH  11  12
ATOM     12  C   UNL     1      14.718   0.336  82.856  1.00  0.00     0.041 C 
ATOM     13  O   UNL     1      13.681   1.031  83.017  1.00  0.00    -0.550 OA
ATOM     14  O   UNL     1      15.778   0.463  83.745  1.00  0.00    -0.550 OA
ENDBRANCH  11  12
ENDBRANCH  10  11
ENDBRANCH   9  10
ENDBRANCH   8   9
ENDBRANCH   7   8
ENDBRANCH   6   7
ENDBRANCH   5   6
ENDBRANCH   4   5
ENDBRANCH   3   4
ENDBRANCH   2   3
ENDBRANCH   1   2
BRANCH   1  15
ATOM     15  C   UNL     1      16.149   1.275  76.984  1.00  0.00     0.000 C 
BRANCH  15  16
ATOM     16  C   UNL     1      17.572   1.647  76.533  1.00  0.00     0.000 C 
BRANCH  16  17
ATOM     17  C   UNL     1      18.190   2.815  77.330  1.00  0.00     0.000 C 
BRANCH  17  18
ATOM     18  C   UNL     1      18.906   3.827  76.416  1.00  0.00    -0.000 C 
BRANCH  18  19
ATOM     19  C   UNL     1      18.121   4.120  75.129  1.00  0.00    -0.000 C 
BRANCH  19  20
ATOM     20  C   UNL     1      17.437   5.499  75.156  1.00  0.00    -0.000 C 
BRANCH  20  21
ATOM     21  C   UNL     1      16.041   5.456  75.800  1.00  0.00    -0.000 C 
BRANCH  21  22
ATOM     22  C   UNL     1      16.057   5.902  77.272  1.00  0.00    -0.000 C 
BRANCH  22  23
ATOM     23  C   UNL     1      16.660   7.305  77.454  1.00  0.00    -0.000 C 
BRANCH  23  24
ATOM     24  C   UNL     1      17.902   7.302  78.362  1.00  0.00    -0.000 C 
BRANCH  24  25
ATOM     25  C   UNL     1      17.974   6.055  79.257  1.00  0.00    -0.003 C 
ATOM     26  C   UNL     1      18.486   6.365  80.663  1.00  0.00     0.004 C 
ENDBRANCH  24  25
ENDBRANCH  23  24
ENDBRANCH  22  23
ENDBRANCH  21  22
ENDBRANCH  20  21
ENDBRANCH  19  20
ENDBRANCH  18  19
ENDBRANCH  17  18
ENDBRANCH  16  17
ENDBRANCH  15  16
ENDBRANCH   1  15
TORSDOF 22
ENDMDL
MODEL 8
REMARK VINA RESULT:    -4.229     13.359     15.502
REMARK INTER + INTRA:         -12.776
REMARK INTER:                  -8.197
REMARK INTRA:                  -4.580
REMARK UNBOUND:                -3.108
REMARK SMILES CCCCCCCCCCCCCCCCCCCCCCCC(=O)[O-]
REMARK SMILES IDX 13 1 14 2 15 3 16 4 17 5 18 6 19 7 20 8 21 9 22 10 23 11
REMARK SMILES IDX 24 12 25 13 26 14 12 15 11 16 10 17 9 18 8 19 7 20 6 21 5 22
REMARK SMILES IDX 4 23 3 24 2 25 1 26
REMARK H PARENT
REMARK Flexibility Score: inf
ROOT
ATOM      1  C   UNL     1      14.984   2.007  78.104  1.00  0.00     0.000 C 
ENDROOT
BRANCH   1   2
ATOM      2  C   UNL     1      14.240   1.379  79.287  1.00  0.00     0.000 C 
BRANCH   2   3
ATOM      3  C   UNL     1      13.862   2.446  80.328  1.00  0.00     0.000 C 
BRANCH   3   4
ATOM      4  C   UNL     1      14.706   2.350  81.608  1.00  0.00     0.000 C 
BRANCH   4   5
ATOM      5  C   UNL     1      14.216   1.251  82.563  1.00  0.00     0.000 C 
BRANCH   5   6
ATOM      6  C   UNL     1      15.379   0.345  82.997  1.00  0.00     0.000 C 
BRANCH   6   7
ATOM      7  C   UNL     1      15.047  -1.151  82.871  1.00  0.00     0.000 C 
BRANCH   7   8
ATOM      8  C   UNL     1      14.761  -1.572  81.420  1.00  0.00     0.000 C 
BRANCH   8   9
ATOM      9  C   UNL     1      13.445  -2.355  81.284  1.00  0.00     0.000 C 
BRANCH   9  10
ATOM     10  C   UNL     1      12.204  -1.449  81.371  1.00  0.00     0.006 C 
BRANCH  10  11
ATOM     11  C   UNL     1      11.121  -2.038  82.284  1.00  0.00     0.053 C 
BRANCH  11  12
ATOM     12  C   UNL     1      11.436  -1.817  83.732  1.00  0.00     0.041 C 
ATOM     13  O   UNL     1      11.536  -0.649  84.189  1.00  0.00    -0.550 OA
ATOM     14  O   UNL     1      11.648  -2.905  84.570  1.00  0.00    -0.550 OA
ENDBRANCH  11  12
ENDBRANCH  10  11
ENDBRANCH   9  10
ENDBRANCH   8   9
ENDBRANCH   7   8
ENDBRANCH   6   7
ENDBRANCH   5   6
ENDBRANCH   4   5
ENDBRANCH   3   4
ENDBRANCH   2   3
ENDBRANCH   1   2
BRANCH   1  15
ATOM     15  C   UNL     1      16.319   1.293  77.849  1.00  0.00     0.000 C 
BRANCH  15  16
ATOM     16  C   UNL     1      16.538   0.080  78.769  1.00  0.00     0.000 C 
BRANCH  16  17
ATOM     17  C   UNL     1      17.730   0.241  79.736  1.00  0.00     0.000 C 
BRANCH  17  18
ATOM     18  C   UNL     1      18.283   1.677  79.742  1.00  0.00    -0.000 C 
BRANCH  18  19
ATOM     19  C   UNL     1      18.361   2.275  81.155  1.00  0.00    -0.000 C 
BRANCH  19  20
ATOM     20  C   UNL     1      17.918   3.750  81.197  1.00  0.00    -0.000 C 
BRANCH  20  21
ATOM     21  C   UNL     1      17.433   4.261  79.830  1.00  0.00    -0.000 C 
BRANCH  21  22
ATOM     22  C   UNL     1      16.473   5.456  79.955  1.00  0.00    -0.000 C 
BRANCH  22  23
ATOM     23  C   UNL     1      15.486   5.543  78.779  1.00  0.00    -0.000 C 
BRANCH  23  24
ATOM     24  C   UNL     1      16.131   6.123  77.507  1.00  0.00    -0.000 C 
BRANCH  24  25
ATOM     25  C   UNL     1      16.110   5.133  76.333  1.00  0.00    -0.003 C 
ATOM     26  C   UNL     1      17.463   4.462  76.102  1.00  0.00     0.004 C 
ENDBRANCH  24  25
ENDBRANCH  23  24
ENDBRANCH  22  23
ENDBRANCH  21  22
ENDBRANCH  20  21
ENDBRANCH  19  20
ENDBRANCH  18  19
ENDBRANCH  17  18
ENDBRANCH  16  17
ENDBRANCH  15  16
ENDBRANCH   1  15
TORSDOF 22
ENDMDL
MODEL 9
REMARK VINA RESULT:    -4.174     14.090     17.398
REMARK INTER + INTRA:         -12.649
REMARK INTER:                  -8.165
REMARK INTRA:                  -4.484
REMARK UNBOUND:                -3.108
REMARK SMILES CCCCCCCCCCCCCCCCCCCCCCCC(=O)[O-]
REMARK SMILES IDX 13 1 14 2 15 3 16 4 17 5 18 6 19 7 20 8 21 9 22 10 23 11
REMARK SMILES IDX 24 12 25 13 26 14 12 15 11 16 10 17 9 18 8 19 7 20 6 21 5 22
REMARK SMILES IDX 4 23 3 24 2 25 1 26
REMARK H PARENT
REMARK Flexibility Score: inf
ROOT
ATOM      1  C   UNL     1      13.863   2.550  80.078  1.00  0.00     0.000 C 
ENDROOT
BRANCH   1   2
ATOM      2  C   UNL     1      14.418   1.626  78.988  1.00  0.00     0.000 C 
BRANCH   2   3
ATOM      3  C   UNL     1      15.009   2.442  77.826  1.00  0.00     0.000 C 
BRANCH   3   4
ATOM      4  C   UNL     1      16.381   1.921  77.372  1.00  0.00     0.000 C 
BRANCH   4   5
ATOM      5  C   UNL     1      17.538   2.480  78.214  1.00  0.00     0.000 C 
BRANCH   5   6
ATOM      6  C   UNL     1      18.659   3.019  77.312  1.00  0.00     0.000 C 
BRANCH   6   7
ATOM      7  C   UNL     1      18.192   3.277  75.870  1.00  0.00     0.000 C 
BRANCH   7   8
ATOM      8  C   UNL     1      18.367   4.746  75.447  1.00  0.00     0.000 C 
BRANCH   8   9
ATOM      9  C   UNL     1      17.052   5.380  74.966  1.00  0.00     0.000 C 
BRANCH   9  10
ATOM     10  C   UNL     1      16.031   5.561  76.103  1.00  0.00     0.006 C 
BRANCH  10  11
ATOM     11  C   UNL     1      16.531   6.534  77.179  1.00  0.00     0.053 C 
BRANCH  11  12
ATOM     12  C   UNL     1      16.286   6.007  78.560  1.00  0.00     0.041 C 
ATOM     13  O   UNL     1      15.113   5.770  78.950  1.00  0.00    -0.550 OA
ATOM     14  O   UNL     1      17.354   5.807  79.426  1.00  0.00    -0.550 OA
ENDBRANCH  11  12
ENDBRANCH  10  11
ENDBRANCH   9  10
ENDBRANCH   8   9
ENDBRANCH   7   8
ENDBRANCH   6   7
ENDBRANCH   5   6
ENDBRANCH   4   5
ENDBRANCH   3   4
ENDBRANCH   2   3
ENDBRANCH   1   2
BRANCH   1  15
ATOM     15  C   UNL     1      14.630   2.374  81.396  1.00  0.00     0.000 C 
BRANCH  15  16
ATOM     16  C   UNL     1      15.865   3.286  81.499  1.00  0.00     0.000 C 
BRANCH  16  17
ATOM     17  C   UNL     1      17.158   2.539  81.889  1.00  0.00     0.000 C 
BRANCH  17  18
ATOM     18  C   UNL     1      16.902   1.444  82.940  1.00  0.00    -0.000 C 
BRANCH  18  19
ATOM     19  C   UNL     1      17.283   0.042  82.439  1.00  0.00    -0.000 C 
BRANCH  19  20
ATOM     20  C   UNL     1      17.430  -0.016  80.907  1.00  0.00    -0.000 C 
BRANCH  20  21
ATOM     21  C   UNL     1      16.579  -1.128  80.273  1.00  0.00    -0.000 C 
BRANCH  21  22
ATOM     22  C   UNL     1      16.019  -2.110  81.316  1.00  0.00    -0.000 C 
BRANCH  22  23
ATOM     23  C   UNL     1      14.534  -2.432  81.083  1.00  0.00    -0.000 C 
BRANCH  23  24
ATOM     24  C   UNL     1      13.642  -1.179  81.131  1.00  0.00    -0.000 C 
BRANCH  24  25
ATOM     25  C   UNL     1      12.870  -1.058  82.454  1.00  0.00    -0.003 C 
ATOM     26  C   UNL     1      13.716  -0.464  83.579  1.00  0.00     0.004 C 
ENDBRANCH  24  25
ENDBRANCH  23  24
ENDBRANCH  22  23
ENDBRANCH  21  22
ENDBRANCH  20  21
ENDBRANCH  19  20
ENDBRANCH  18  19
ENDBRANCH  17  18
ENDBRANCH  16  17
ENDBRANCH  15  16
ENDBRANCH   1  15
TORSDOF 22
ENDMDL
