MODEL 1
REMARK VINA RESULT:    -5.012      0.000      0.000
REMARK INTER + INTRA:         -11.297
REMARK INTER:                  -9.406
REMARK INTRA:                  -1.891
REMARK UNBOUND:                -1.891
REMARK SMILES O=C([O-])CCCCCCCCCCCCCCC(=O)[O-]
REMARK SMILES IDX 10 1 9 2 8 3 7 4 6 5 5 6 4 7 2 8 1 9 3 10 11 11 12 12 13 13
REMARK SMILES IDX 14 14 15 15 16 16 17 17 18 18 19 19 20 20
REMARK H PARENT
REMARK Flexibility Score: inf
ROOT
ATOM      1  C   UNL     1      47.490  48.491  10.593  1.00  0.00     0.000 C 
ENDROOT
BRANCH   1   2
ATOM      2  C   UNL     1      47.322  49.893   9.987  1.00  0.00     0.000 C 
BRANCH   2   3
ATOM      3  C   UNL     1      47.162  50.987  11.057  1.00  0.00     0.000 C 
BRANCH   3   4
ATOM      4  C   UNL     1      45.763  50.962  11.709  1.00  0.00     0.000 C 
BRANCH   4   5
ATOM      5  C   UNL     1      44.610  50.950  10.692  1.00  0.00     0.000 C 
BRANCH   5   6
ATOM      6  C   UNL     1      43.441  50.050  11.124  1.00  0.00     0.006 C 
BRANCH   6   7
ATOM      7  C   UNL     1      43.516  49.676  12.610  1.00  0.00     0.053 C 
BRANCH   7   8
ATOM      8  C   UNL     1      42.240  49.989  13.330  1.00  0.00     0.041 C 
ATOM      9  O   UNL     1      41.147  49.998  12.707  1.00  0.00    -0.550 OA
ATOM     10  O   UNL     1      42.255  50.241  14.697  1.00  0.00    -0.550 OA
ENDBRANCH   7   8
ENDBRANCH   6   7
ENDBRANCH   5   6
ENDBRANCH   4   5
ENDBRANCH   3   4
ENDBRANCH   2   3
ENDBRANCH   1   2
BRANCH   1  11
ATOM     11  C   UNL     1      46.632  47.433   9.883  1.00  0.00     0.000 C 
BRANCH  11  12
ATOM     12  C   UNL     1      46.526  46.156  10.730  1.00  0.00     0.000 C 
BRANCH  12  13
ATOM     13  C   UNL     1      45.183  45.426  10.546  1.00  0.00     0.000 C 
BRANCH  13  14
ATOM     14  C   UNL     1      43.933  46.313  10.713  1.00  0.00     0.000 C 
BRANCH  14  15
ATOM     15  C   UNL     1      43.206  46.172  12.066  1.00  0.00     0.000 C 
BRANCH  15  16
ATOM     16  C   UNL     1      41.713  46.543  12.042  1.00  0.00     0.006 C 
BRANCH  16  17
ATOM     17  C   UNL     1      41.235  46.995  10.657  1.00  0.00     0.053 C 
BRANCH  17  18
ATOM     18  C   UNL     1      40.223  46.035  10.115  1.00  0.00     0.041 C 
ATOM     19  O   UNL     1      39.185  45.769  10.775  1.00  0.00    -0.550 OA
ATOM     20  O   UNL     1      40.403  45.471   8.858  1.00  0.00    -0.550 OA
ENDBRANCH  17  18
ENDBRANCH  16  17
ENDBRANCH  15  16
ENDBRANCH  14  15
ENDBRANCH  13  14
ENDBRANCH  12  13
ENDBRANCH  11  12
ENDBRANCH   1  11
TORSDOF 15
ENDMDL
MODEL 2
REMARK VINA RESULT:    -5.010      2.355      4.978
REMARK INTER + INTRA:         -11.295
REMARK INTER:                  -8.971
REMARK INTRA:                  -2.323
REMARK UNBOUND:                -1.891
REMARK SMILES O=C([O-])CCCCCCCCCCCCCCC(=O)[O-]
REMARK SMILES IDX 10 1 9 2 8 3 7 4 6 5 5 6 4 7 2 8 1 9 3 10 11 11 12 12 13 13
REMARK SMILES IDX 14 14 15 15 16 16 17 17 18 18 19 19 20 20
REMARK H PARENT
REMARK Flexibility Score: inf
ROOT
ATOM      1  C   UNL     1      43.855  49.631   9.526  1.00  0.00     0.000 C 
ENDROOT
BRANCH   1   2
ATOM      2  C   UNL     1      44.069  50.540  10.748  1.00  0.00     0.000 C 
BRANCH   2   3
ATOM      3  C   UNL     1      45.456  50.356  11.389  1.00  0.00     0.000 C 
BRANCH   3   4
ATOM      4  C   UNL     1      46.590  50.408  10.343  1.00  0.00     0.000 C 
BRANCH   4   5
ATOM      5  C   UNL     1      47.609  49.264  10.481  1.00  0.00     0.000 C 
BRANCH   5   6
ATOM      6  C   UNL     1      46.945  47.894  10.694  1.00  0.00     0.006 C 
BRANCH   6   7
ATOM      7  C   UNL     1      46.663  47.174   9.369  1.00  0.00     0.053 C 
BRANCH   7   8
ATOM      8  C   UNL     1      46.297  45.737   9.581  1.00  0.00     0.041 C 
ATOM      9  O   UNL     1      46.481  45.195  10.702  1.00  0.00    -0.550 OA
ATOM     10  O   UNL     1      45.722  45.004   8.550  1.00  0.00    -0.550 OA
ENDBRANCH   7   8
ENDBRANCH   6   7
ENDBRANCH   5   6
ENDBRANCH   4   5
ENDBRANCH   3   4
ENDBRANCH   2   3
ENDBRANCH   1   2
BRANCH   1  11
ATOM     11  C   UNL     1      42.527  48.862   9.587  1.00  0.00     0.000 C 
BRANCH  11  12
ATOM     12  C   UNL     1      42.775  47.354   9.745  1.00  0.00     0.000 C 
BRANCH  12  13
ATOM     13  C   UNL     1      43.021  46.938  11.206  1.00  0.00     0.000 C 
BRANCH  13  14
ATOM     14  C   UNL     1      42.096  47.613  12.239  1.00  0.00     0.000 C 
BRANCH  14  15
ATOM     15  C   UNL     1      42.820  48.403  13.349  1.00  0.00     0.000 C 
BRANCH  15  16
ATOM     16  C   UNL     1      42.121  49.704  13.781  1.00  0.00     0.006 C 
BRANCH  16  17
ATOM     17  C   UNL     1      40.969  50.098  12.848  1.00  0.00     0.053 C 
BRANCH  17  18
ATOM     18  C   UNL     1      39.935  50.880  13.596  1.00  0.00     0.041 C 
ATOM     19  O   UNL     1      38.872  51.234  13.024  1.00  0.00    -0.550 OA
ATOM     20  O   UNL     1      40.127  51.178  14.940  1.00  0.00    -0.550 OA
ENDBRANCH  17  18
ENDBRANCH  16  17
ENDBRANCH  15  16
ENDBRANCH  14  15
ENDBRANCH  13  14
ENDBRANCH  12  13
ENDBRANCH  11  12
ENDBRANCH   1  11
TORSDOF 15
ENDMDL
MODEL 3
REMARK VINA RESULT:    -4.932      1.347      2.624
REMARK INTER + INTRA:         -11.148
REMARK INTER:                  -9.441
REMARK INTRA:                  -1.707
REMARK UNBOUND:                -1.891
REMARK SMILES O=C([O-])CCCCCCCCCCCCCCC(=O)[O-]
REMARK SMILES IDX 10 1 9 2 8 3 7 4 6 5 5 6 4 7 2 8 1 9 3 10 11 11 12 12 13 13
REMARK SMILES IDX 14 14 15 15 16 16 17 17 18 18 19 19 20 20
REMARK H PARENT
REMARK Flexibility Score: inf
ROOT
ATOM      1  C   UNL     1      46.645  50.891  10.993  1.00  0.00     0.000 C 
ENDROOT
BRANCH   1   2
ATOM      2  C   UNL     1      45.417  51.322  10.174  1.00  0.00     0.000 C 
BRANCH   2   3
ATOM      3  C   UNL     1      44.113  50.676  10.676  1.00  0.00     0.000 C 
BRANCH   3   4
ATOM      4  C   UNL     1      44.239  50.168  12.128  1.00  0.00     0.000 C 
BRANCH   4   5
ATOM      5  C   UNL     1      43.067  49.277  12.574  1.00  0.00     0.000 C 
BRANCH   5   6
ATOM      6  C   UNL     1      42.207  49.925  13.671  1.00  0.00     0.006 C 
BRANCH   6   7
ATOM      7  C   UNL     1      40.764  50.168  13.208  1.00  0.00     0.053 C 
BRANCH   7   8
ATOM      8  C   UNL     1      40.020  51.067  14.148  1.00  0.00     0.041 C 
ATOM      9  O   UNL     1      40.478  51.300  15.297  1.00  0.00    -0.550 OA
ATOM     10  O   UNL     1      38.837  51.673  13.743  1.00  0.00    -0.550 OA
ENDBRANCH   7   8
ENDBRANCH   6   7
ENDBRANCH   5   6
ENDBRANCH   4   5
ENDBRANCH   3   4
ENDBRANCH   2   3
ENDBRANCH   1   2
BRANCH   1  11
ATOM     11  C   UNL     1      47.621  50.026  10.184  1.00  0.00     0.000 C 
BRANCH  11  12
ATOM     12  C   UNL     1      47.550  48.558  10.630  1.00  0.00     0.000 C 
BRANCH  12  13
ATOM     13  C   UNL     1      46.401  47.784   9.959  1.00  0.00     0.000 C 
BRANCH  13  14
ATOM     14  C   UNL     1      46.092  46.408  10.584  1.00  0.00     0.000 C 
BRANCH  14  15
ATOM     15  C   UNL     1      44.606  46.157  10.911  1.00  0.00     0.000 C 
BRANCH  15  16
ATOM     16  C   UNL     1      43.671  46.109   9.689  1.00  0.00     0.006 C 
BRANCH  16  17
ATOM     17  C   UNL     1      42.680  47.279   9.653  1.00  0.00     0.053 C 
BRANCH  17  18
ATOM     18  C   UNL     1      41.278  46.780   9.805  1.00  0.00     0.041 C 
ATOM     19  O   UNL     1      40.695  46.221   8.840  1.00  0.00    -0.550 OA
ATOM     20  O   UNL     1      40.630  46.890  11.030  1.00  0.00    -0.550 OA
ENDBRANCH  17  18
ENDBRANCH  16  17
ENDBRANCH  15  16
ENDBRANCH  14  15
ENDBRANCH  13  14
ENDBRANCH  12  13
ENDBRANCH  11  12
ENDBRANCH   1  11
TORSDOF 15
ENDMDL
MODEL 4
REMARK VINA RESULT:    -4.927      2.378      4.785
REMARK INTER + INTRA:         -11.139
REMARK INTER:                  -9.018
REMARK INTRA:                  -2.121
REMARK UNBOUND:                -1.891
REMARK SMILES O=C([O-])CCCCCCCCCCCCCCC(=O)[O-]
REMARK SMILES IDX 10 1 9 2 8 3 7 4 6 5 5 6 4 7 2 8 1 9 3 10 11 11 12 12 13 13
REMARK SMILES IDX 14 14 15 15 16 16 17 17 18 18 19 19 20 20
REMARK H PARENT
REMARK Flexibility Score: inf
ROOT
ATOM      1  C   UNL     1      42.673  49.866   9.275  1.00  0.00     0.000 C 
ENDROOT
BRANCH   1   2
ATOM      2  C   UNL     1      42.445  48.380   9.594  1.00  0.00     0.000 C 
BRANCH   2   3
ATOM      3  C   UNL     1      41.789  48.162  10.970  1.00  0.00     0.000 C 
BRANCH   3   4
ATOM      4  C   UNL     1      42.801  47.659  12.022  1.00  0.00     0.000 C 
BRANCH   4   5
ATOM      5  C   UNL     1      42.760  48.447  13.342  1.00  0.00     0.000 C 
BRANCH   5   6
ATOM      6  C   UNL     1      42.303  49.902  13.156  1.00  0.00     0.006 C 
BRANCH   6   7
ATOM      7  C   UNL     1      41.936  50.570  14.488  1.00  0.00     0.053 C 
BRANCH   7   8
ATOM      8  C   UNL     1      40.483  50.925  14.554  1.00  0.00     0.041 C 
ATOM      9  O   UNL     1      40.018  51.505  15.569  1.00  0.00    -0.550 OA
ATOM     10  O   UNL     1      39.647  50.644  13.480  1.00  0.00    -0.550 OA
ENDBRANCH   7   8
ENDBRANCH   6   7
ENDBRANCH   5   6
ENDBRANCH   4   5
ENDBRANCH   3   4
ENDBRANCH   2   3
ENDBRANCH   1   2
BRANCH   1  11
ATOM     11  C   UNL     1      44.160  50.249   9.276  1.00  0.00     0.000 C 
BRANCH  11  12
ATOM     12  C   UNL     1      44.532  50.997  10.565  1.00  0.00     0.000 C 
BRANCH  12  13
ATOM     13  C   UNL     1      45.435  50.170  11.498  1.00  0.00     0.000 C 
BRANCH  13  14
ATOM     14  C   UNL     1      46.922  50.126  11.092  1.00  0.00     0.000 C 
BRANCH  14  15
ATOM     15  C   UNL     1      47.415  48.766  10.558  1.00  0.00     0.000 C 
BRANCH  15  16
ATOM     16  C   UNL     1      46.365  47.641  10.580  1.00  0.00     0.006 C 
BRANCH  16  17
ATOM     17  C   UNL     1      46.071  47.075   9.185  1.00  0.00     0.053 C 
BRANCH  17  18
ATOM     18  C   UNL     1      46.139  45.580   9.203  1.00  0.00     0.041 C 
ATOM     19  O   UNL     1      45.519  44.907   8.339  1.00  0.00    -0.550 OA
ATOM     20  O   UNL     1      46.925  44.932  10.147  1.00  0.00    -0.550 OA
ENDBRANCH  17  18
ENDBRANCH  16  17
ENDBRANCH  15  16
ENDBRANCH  14  15
ENDBRANCH  13  14
ENDBRANCH  12  13
ENDBRANCH  11  12
ENDBRANCH   1  11
TORSDOF 15
ENDMDL
MODEL 5
REMARK VINA RESULT:    -4.905      2.350      4.366
REMARK INTER + INTRA:         -11.096
REMARK INTER:                  -8.762
REMARK INTRA:                  -2.334
REMARK UNBOUND:                -1.891
REMARK SMILES O=C([O-])CCCCCCCCCCCCCCC(=O)[O-]
REMARK SMILES IDX 10 1 9 2 8 3 7 4 6 5 5 6 4 7 2 8 1 9 3 10 11 11 12 12 13 13
REMARK SMILES IDX 14 14 15 15 16 16 17 17 18 18 19 19 20 20
REMARK H PARENT
REMARK Flexibility Score: inf
ROOT
ATOM      1  C   UNL     1      45.521  51.639   9.173  1.00  0.00     0.000 C 
ENDROOT
BRANCH   1   2
ATOM      2  C   UNL     1      45.877  52.037  10.614  1.00  0.00     0.000 C 
BRANCH   2   3
ATOM      3  C   UNL     1      46.471  50.870  11.423  1.00  0.00     0.000 C 
BRANCH   3   4
ATOM      4  C   UNL     1      47.562  50.114  10.634  1.00  0.00     0.000 C 
BRANCH   4   5
ATOM      5  C   UNL     1      47.372  48.587  10.629  1.00  0.00     0.000 C 
BRANCH   5   6
ATOM      6  C   UNL     1      46.670  48.077   9.360  1.00  0.00     0.006 C 
BRANCH   6   7
ATOM      7  C   UNL     1      45.595  47.028   9.674  1.00  0.00     0.053 C 
BRANCH   7   8
ATOM      8  C   UNL     1      46.177  45.654   9.802  1.00  0.00     0.041 C 
ATOM      9  O   UNL     1      47.237  45.355   9.192  1.00  0.00    -0.550 OA
ATOM     10  O   UNL     1      45.567  44.711  10.621  1.00  0.00    -0.550 OA
ENDBRANCH   7   8
ENDBRANCH   6   7
ENDBRANCH   5   6
ENDBRANCH   4   5
ENDBRANCH   3   4
ENDBRANCH   2   3
ENDBRANCH   1   2
BRANCH   1  11
ATOM     11  C   UNL     1      44.010  51.458   8.965  1.00  0.00     0.000 C 
BRANCH  11  12
ATOM     12  C   UNL     1      43.605  49.987   9.144  1.00  0.00     0.000 C 
BRANCH  12  13
ATOM     13  C   UNL     1      42.381  49.811  10.060  1.00  0.00     0.000 C 
BRANCH  13  14
ATOM     14  C   UNL     1      42.672  49.942  11.568  1.00  0.00     0.000 C 
BRANCH  14  15
ATOM     15  C   UNL     1      43.533  48.812  12.169  1.00  0.00     0.000 C 
BRANCH  15  16
ATOM     16  C   UNL     1      42.740  47.707  12.892  1.00  0.00     0.006 C 
BRANCH  16  17
ATOM     17  C   UNL     1      42.457  46.496  11.994  1.00  0.00     0.053 C 
BRANCH  17  18
ATOM     18  C   UNL     1      41.067  46.569  11.443  1.00  0.00     0.041 C 
ATOM     19  O   UNL     1      40.863  46.397  10.214  1.00  0.00    -0.550 OA
ATOM     20  O   UNL     1      39.991  46.781  12.297  1.00  0.00    -0.550 OA
ENDBRANCH  17  18
ENDBRANCH  16  17
ENDBRANCH  15  16
ENDBRANCH  14  15
ENDBRANCH  13  14
ENDBRANCH  12  13
ENDBRANCH  11  12
ENDBRANCH   1  11
TORSDOF 15
ENDMDL
MODEL 6
REMARK VINA RESULT:    -4.874      1.105      5.050
REMARK INTER + INTRA:         -11.038
REMARK INTER:                  -8.789
REMARK INTRA:                  -2.249
REMARK UNBOUND:                -1.891
REMARK SMILES O=C([O-])CCCCCCCCCCCCCCC(=O)[O-]
REMARK SMILES IDX 10 1 9 2 8 3 7 4 6 5 5 6 4 7 2 8 1 9 3 10 11 11 12 12 13 13
REMARK SMILES IDX 14 14 15 15 16 16 17 17 18 18 19 19 20 20
REMARK H PARENT
REMARK Flexibility Score: inf
ROOT
ATOM      1  C   UNL     1      46.693  48.516   9.190  1.00  0.00     0.000 C 
ENDROOT
BRANCH   1   2
ATOM      2  C   UNL     1      46.972  47.580  10.377  1.00  0.00     0.000 C 
BRANCH   2   3
ATOM      3  C   UNL     1      45.850  46.550  10.597  1.00  0.00     0.000 C 
BRANCH   3   4
ATOM      4  C   UNL     1      44.719  46.693   9.556  1.00  0.00     0.000 C 
BRANCH   4   5
ATOM      5  C   UNL     1      43.349  46.213  10.064  1.00  0.00     0.000 C 
BRANCH   5   6
ATOM      6  C   UNL     1      42.176  46.985   9.439  1.00  0.00     0.006 C 
BRANCH   6   7
ATOM      7  C   UNL     1      40.817  46.483   9.944  1.00  0.00     0.053 C 
BRANCH   7   8
ATOM      8  C   UNL     1      40.083  45.707   8.894  1.00  0.00     0.041 C 
ATOM      9  O   UNL     1      40.606  44.683   8.382  1.00  0.00    -0.550 OA
ATOM     10  O   UNL     1      38.807  46.095   8.504  1.00  0.00    -0.550 OA
ENDBRANCH   7   8
ENDBRANCH   6   7
ENDBRANCH   5   6
ENDBRANCH   4   5
ENDBRANCH   3   4
ENDBRANCH   2   3
ENDBRANCH   1   2
BRANCH   1  11
ATOM     11  C   UNL     1      47.079  49.973   9.483  1.00  0.00     0.000 C 
BRANCH  11  12
ATOM     12  C   UNL     1      47.205  50.213  10.995  1.00  0.00     0.000 C 
BRANCH  12  13
ATOM     13  C   UNL     1      46.021  51.008  11.575  1.00  0.00     0.000 C 
BRANCH  13  14
ATOM     14  C   UNL     1      44.824  51.182  10.619  1.00  0.00     0.000 C 
BRANCH  14  15
ATOM     15  C   UNL     1      43.587  50.325  10.955  1.00  0.00     0.000 C 
BRANCH  15  16
ATOM     16  C   UNL     1      43.796  49.298  12.082  1.00  0.00     0.006 C 
BRANCH  16  17
ATOM     17  C   UNL     1      42.477  48.804  12.689  1.00  0.00     0.053 C 
BRANCH  17  18
ATOM     18  C   UNL     1      41.798  49.911  13.433  1.00  0.00     0.041 C 
ATOM     19  O   UNL     1      42.379  50.478  14.395  1.00  0.00    -0.550 OA
ATOM     20  O   UNL     1      40.541  50.349  13.034  1.00  0.00    -0.550 OA
ENDBRANCH  17  18
ENDBRANCH  16  17
ENDBRANCH  15  16
ENDBRANCH  14  15
ENDBRANCH  13  14
ENDBRANCH  12  13
ENDBRANCH  11  12
ENDBRANCH   1  11
TORSDOF 15
ENDMDL
MODEL 7
REMARK VINA RESULT:    -4.871      2.696      4.687
REMARK INTER + INTRA:         -11.032
REMARK INTER:                  -9.318
REMARK INTRA:                  -1.714
REMARK UNBOUND:                -1.891
REMARK SMILES O=C([O-])CCCCCCCCCCCCCCC(=O)[O-]
REMARK SMILES IDX 10 1 9 2 8 3 7 4 6 5 5 6 4 7 2 8 1 9 3 10 11 11 12 12 13 13
REMARK SMILES IDX 14 14 15 15 16 16 17 17 18 18 19 19 20 20
REMARK H PARENT
REMARK Flexibility Score: inf
ROOT
ATOM      1  C   UNL     1      44.976  50.665  11.778  1.00  0.00     0.000 C 
ENDROOT
BRANCH   1   2
ATOM      2  C   UNL     1      43.997  50.647  10.593  1.00  0.00     0.000 C 
BRANCH   2   3
ATOM      3  C   UNL     1      42.935  49.540  10.718  1.00  0.00     0.000 C 
BRANCH   3   4
ATOM      4  C   UNL     1      43.340  48.460  11.745  1.00  0.00     0.000 C 
BRANCH   4   5
ATOM      5  C   UNL     1      42.392  48.372  12.953  1.00  0.00     0.000 C 
BRANCH   5   6
ATOM      6  C   UNL     1      41.368  49.517  12.994  1.00  0.00     0.006 C 
BRANCH   6   7
ATOM      7  C   UNL     1      41.654  50.510  14.129  1.00  0.00     0.053 C 
BRANCH   7   8
ATOM      8  C   UNL     1      40.399  51.147  14.644  1.00  0.00     0.041 C 
ATOM      9  O   UNL     1      40.236  51.314  15.880  1.00  0.00    -0.550 OA
ATOM     10  O   UNL     1      39.424  51.584  13.756  1.00  0.00    -0.550 OA
ENDBRANCH   7   8
ENDBRANCH   6   7
ENDBRANCH   5   6
ENDBRANCH   4   5
ENDBRANCH   3   4
ENDBRANCH   2   3
ENDBRANCH   1   2
BRANCH   1  11
ATOM     11  C   UNL     1      46.362  51.202  11.391  1.00  0.00     0.000 C 
BRANCH  11  12
ATOM     12  C   UNL     1      46.612  51.036   9.885  1.00  0.00     0.000 C 
BRANCH  12  13
ATOM     13  C   UNL     1      47.528  49.842   9.559  1.00  0.00     0.000 C 
BRANCH  13  14
ATOM     14  C   UNL     1      46.796  48.506   9.323  1.00  0.00     0.000 C 
BRANCH  14  15
ATOM     15  C   UNL     1      46.757  47.557  10.538  1.00  0.00     0.000 C 
BRANCH  15  16
ATOM     16  C   UNL     1      46.686  46.060  10.190  1.00  0.00     0.006 C 
BRANCH  16  17
ATOM     17  C   UNL     1      45.873  45.784   8.918  1.00  0.00     0.053 C 
BRANCH  17  18
ATOM     18  C   UNL     1      46.654  44.921   7.977  1.00  0.00     0.041 C 
ATOM     19  O   UNL     1      47.904  45.045   7.892  1.00  0.00    -0.550 OA
ATOM     20  O   UNL     1      46.006  43.948   7.226  1.00  0.00    -0.550 OA
ENDBRANCH  17  18
ENDBRANCH  16  17
ENDBRANCH  15  16
ENDBRANCH  14  15
ENDBRANCH  13  14
ENDBRANCH  12  13
ENDBRANCH  11  12
ENDBRANCH   1  11
TORSDOF 15
ENDMDL
MODEL 8
REMARK VINA RESULT:    -4.865      1.486      4.457
REMARK INTER + INTRA:         -11.022
REMARK INTER:                  -8.931
REMARK INTRA:                  -2.091
REMARK UNBOUND:                -1.891
REMARK SMILES O=C([O-])CCCCCCCCCCCCCCC(=O)[O-]
REMARK SMILES IDX 10 1 9 2 8 3 7 4 6 5 5 6 4 7 2 8 1 9 3 10 11 11 12 12 13 13
REMARK SMILES IDX 14 14 15 15 16 16 17 17 18 18 19 19 20 20
REMARK H PARENT
REMARK Flexibility Score: inf
ROOT
ATOM      1  C   UNL     1      46.905  47.630  10.494  1.00  0.00     0.000 C 
ENDROOT
BRANCH   1   2
ATOM      2  C   UNL     1      46.242  47.650   9.108  1.00  0.00     0.000 C 
BRANCH   2   3
ATOM      3  C   UNL     1      44.830  47.037   9.117  1.00  0.00     0.000 C 
BRANCH   3   4
ATOM      4  C   UNL     1      43.826  47.878   8.301  1.00  0.00     0.000 C 
BRANCH   4   5
ATOM      5  C   UNL     1      42.390  47.828   8.848  1.00  0.00     0.000 C 
BRANCH   5   6
ATOM      6  C   UNL     1      42.041  46.474   9.488  1.00  0.00     0.006 C 
BRANCH   6   7
ATOM      7  C   UNL     1      40.633  46.466  10.099  1.00  0.00     0.053 C 
BRANCH   7   8
ATOM      8  C   UNL     1      40.674  46.384  11.594  1.00  0.00     0.041 C 
ATOM      9  O   UNL     1      39.615  46.194  12.247  1.00  0.00    -0.550 OA
ATOM     10  O   UNL     1      41.887  46.485  12.265  1.00  0.00    -0.550 OA
ENDBRANCH   7   8
ENDBRANCH   6   7
ENDBRANCH   5   6
ENDBRANCH   4   5
ENDBRANCH   3   4
ENDBRANCH   2   3
ENDBRANCH   1   2
BRANCH   1  11
ATOM     11  C   UNL     1      47.804  48.851  10.736  1.00  0.00     0.000 C 
BRANCH  11  12
ATOM     12  C   UNL     1      47.331  50.053   9.906  1.00  0.00     0.000 C 
BRANCH  12  13
ATOM     13  C   UNL     1      46.742  51.183  10.771  1.00  0.00     0.000 C 
BRANCH  13  14
ATOM     14  C   UNL     1      45.683  50.732  11.798  1.00  0.00     0.000 C 
BRANCH  14  15
ATOM     15  C   UNL     1      44.283  50.453  11.214  1.00  0.00     0.000 C 
BRANCH  15  16
ATOM     16  C   UNL     1      43.303  49.765  12.181  1.00  0.00     0.006 C 
BRANCH  16  17
ATOM     17  C   UNL     1      41.837  49.940  11.764  1.00  0.00     0.053 C 
BRANCH  17  18
ATOM     18  C   UNL     1      40.960  50.051  12.972  1.00  0.00     0.041 C 
ATOM     19  O   UNL     1      39.762  49.670  12.923  1.00  0.00    -0.550 OA
ATOM     20  O   UNL     1      41.482  50.532  14.167  1.00  0.00    -0.550 OA
ENDBRANCH  17  18
ENDBRANCH  16  17
ENDBRANCH  15  16
ENDBRANCH  14  15
ENDBRANCH  13  14
ENDBRANCH  12  13
ENDBRANCH  11  12
ENDBRANCH   1  11
TORSDOF 15
ENDMDL
MODEL 9
REMARK VINA RESULT:    -4.743      2.275      5.077
REMARK INTER + INTRA:         -10.792
REMARK INTER:                  -8.470
REMARK INTRA:                  -2.322
REMARK UNBOUND:                -1.891
REMARK SMILES O=C([O-])CCCCCCCCCCCCCCC(=O)[O-]
REMARK SMILES IDX 10 1 9 2 8 3 7 4 6 5 5 6 4 7 2 8 1 9 3 10 11 11 12 12 13 13
REMARK SMILES IDX 14 14 15 15 16 16 17 17 18 18 19 19 20 20
REMARK H PARENT
REMARK Flexibility Score: inf
ROOT
ATOM      1  C   UNL     1      44.477  50.997  10.038  1.00  0.00     0.000 C 
ENDROOT
BRANCH   1   2
ATOM      2  C   UNL     1      45.185  50.417  11.273  1.00  0.00     0.000 C 
BRANCH   2   3
ATOM      3  C   UNL     1      46.584  49.864  10.950  1.00  0.00     0.000 C 
BRANCH   3   4
ATOM      4  C   UNL     1      46.688  49.363   9.493  1.00  0.00     0.000 C 
BRANCH   4   5
ATOM      5  C   UNL     1      46.422  47.856   9.339  1.00  0.00     0.000 C 
BRANCH   5   6
ATOM      6  C   UNL     1      46.869  47.042  10.564  1.00  0.00     0.006 C 
BRANCH   6   7
ATOM      7  C   UNL     1      46.339  45.602  10.527  1.00  0.00     0.053 C 
BRANCH   7   8
ATOM      8  C   UNL     1      46.417  45.013   9.152  1.00  0.00     0.041 C 
ATOM      9  O   UNL     1      47.529  44.671   8.672  1.00  0.00    -0.550 OA
ATOM     10  O   UNL     1      45.258  44.813   8.412  1.00  0.00    -0.550 OA
ENDBRANCH   7   8
ENDBRANCH   6   7
ENDBRANCH   5   6
ENDBRANCH   4   5
ENDBRANCH   3   4
ENDBRANCH   2   3
ENDBRANCH   1   2
BRANCH   1  11
ATOM     11  C   UNL     1      43.055  50.445   9.859  1.00  0.00     0.000 C 
BRANCH  11  12
ATOM     12  C   UNL     1      43.054  49.224   8.928  1.00  0.00     0.000 C 
BRANCH  12  13
ATOM     13  C   UNL     1      41.963  48.199   9.286  1.00  0.00     0.000 C 
BRANCH  13  14
ATOM     14  C   UNL     1      42.470  46.932  10.003  1.00  0.00     0.000 C 
BRANCH  14  15
ATOM     15  C   UNL     1      43.140  47.178  11.370  1.00  0.00     0.000 C 
BRANCH  15  16
ATOM     16  C   UNL     1      42.186  47.640  12.487  1.00  0.00     0.006 C 
BRANCH  16  17
ATOM     17  C   UNL     1      42.803  48.720  13.385  1.00  0.00     0.053 C 
BRANCH  17  18
ATOM     18  C   UNL     1      41.859  49.871  13.539  1.00  0.00     0.041 C 
ATOM     19  O   UNL     1      41.981  50.665  14.508  1.00  0.00    -0.550 OA
ATOM     20  O   UNL     1      40.873  50.094  12.586  1.00  0.00    -0.550 OA
ENDBRANCH  17  18
ENDBRANCH  16  17
ENDBRANCH  15  16
ENDBRANCH  14  15
ENDBRANCH  13  14
ENDBRANCH  12  13
ENDBRANCH  11  12
ENDBRANCH   1  11
TORSDOF 15
ENDMDL
