MODEL 1
REMARK VINA RESULT:    -5.316      0.000      0.000
REMARK INTER + INTRA:          -7.428
REMARK INTER:                  -7.181
REMARK INTRA:                  -0.247
REMARK UNBOUND:                -0.247
REMARK SMILES CCCCCCC=CC(=O)[O-]
REMARK SMILES IDX 5 1 6 2 7 3 8 4 9 5 10 6 11 7 4 8 3 9 2 10 1 11
REMARK H PARENT
REMARK Flexibility Score: inf
ROOT
ATOM      1  C   UNL     1      -2.172   4.848   5.232  1.00  0.00     0.004 C 
ENDROOT
BRANCH   1   2
ATOM      2  C   UNL     1      -2.388   3.391   5.670  1.00  0.00     0.027 C 
BRANCH   2   3
ATOM      3  C   UNL     1      -2.311   3.258   7.163  1.00  0.00    -0.025 C 
ATOM      4  C   UNL     1      -1.326   2.571   7.753  1.00  0.00     0.020 C 
BRANCH   4   5
ATOM      5  C   UNL     1      -1.223   2.437   9.214  1.00  0.00     0.064 C 
ATOM      6  O   UNL     1      -0.278   2.974   9.853  1.00  0.00    -0.545 OA
ATOM      7  O   UNL     1      -2.181   1.707   9.904  1.00  0.00    -0.545 OA
ENDBRANCH   4   5
ENDBRANCH   2   3
ENDBRANCH   1   2
BRANCH   1   8
ATOM      8  C   UNL     1      -3.494   5.597   4.997  1.00  0.00     0.000 C 
BRANCH   8   9
ATOM      9  C   UNL     1      -3.306   6.887   4.186  1.00  0.00    -0.000 C 
BRANCH   9  10
ATOM     10  C   UNL     1      -3.895   8.092   4.929  1.00  0.00    -0.003 C 
ATOM     11  C   UNL     1      -4.458   7.681   6.287  1.00  0.00     0.004 C 
ENDBRANCH   9  10
ENDBRANCH   8   9
ENDBRANCH   1   8
TORSDOF 6
ENDMDL
MODEL 2
REMARK VINA RESULT:    -4.464      3.238      5.072
REMARK INTER + INTRA:          -6.277
REMARK INTER:                  -5.968
REMARK INTRA:                  -0.309
REMARK UNBOUND:                -0.247
REMARK SMILES CCCCCCC=CC(=O)[O-]
REMARK SMILES IDX 5 1 6 2 7 3 8 4 9 5 10 6 11 7 4 8 3 9 2 10 1 11
REMARK H PARENT
REMARK Flexibility Score: inf
ROOT
ATOM      1  C   UNL     1      -4.447   7.482   5.240  1.00  0.00     0.004 C 
ENDROOT
BRANCH   1   2
ATOM      2  C   UNL     1      -4.238   8.050   6.652  1.00  0.00     0.027 C 
BRANCH   2   3
ATOM      3  C   UNL     1      -5.329   7.603   7.583  1.00  0.00    -0.025 C 
ATOM      4  C   UNL     1      -5.799   6.352   7.556  1.00  0.00     0.020 C 
BRANCH   4   5
ATOM      5  C   UNL     1      -6.858   5.887   8.466  1.00  0.00     0.064 C 
ATOM      6  O   UNL     1      -6.606   5.604   9.668  1.00  0.00    -0.545 OA
ATOM      7  O   UNL     1      -8.157   5.758   7.994  1.00  0.00    -0.545 OA
ENDBRANCH   4   5
ENDBRANCH   2   3
ENDBRANCH   1   2
BRANCH   1   8
ATOM      8  C   UNL     1      -3.132   7.349   4.456  1.00  0.00     0.000 C 
BRANCH   8   9
ATOM      9  C   UNL     1      -2.674   5.890   4.311  1.00  0.00    -0.000 C 
BRANCH   9  10
ATOM     10  C   UNL     1      -3.192   5.036   5.473  1.00  0.00    -0.003 C 
ATOM     11  C   UNL     1      -2.414   3.728   5.586  1.00  0.00     0.004 C 
ENDBRANCH   9  10
ENDBRANCH   8   9
ENDBRANCH   1   8
TORSDOF 6
ENDMDL
MODEL 3
REMARK VINA RESULT:    -4.145     14.701     15.828
REMARK INTER + INTRA:          -5.845
REMARK INTER:                  -5.518
REMARK INTRA:                  -0.328
REMARK UNBOUND:                -0.247
REMARK SMILES CCCCCCC=CC(=O)[O-]
REMARK SMILES IDX 5 1 6 2 7 3 8 4 9 5 10 6 11 7 4 8 3 9 2 10 1 11
REMARK H PARENT
REMARK Flexibility Score: inf
ROOT
ATOM      1  C   UNL     1       8.870   6.000  -4.875  1.00  0.00     0.004 C 
ENDROOT
BRANCH   1   2
ATOM      2  C   UNL     1       7.373   5.757  -4.626  1.00  0.00     0.027 C 
BRANCH   2   3
ATOM      3  C   UNL     1       7.143   5.132  -3.280  1.00  0.00    -0.025 C 
ATOM      4  C   UNL     1       8.069   5.187  -2.317  1.00  0.00     0.020 C 
BRANCH   4   5
ATOM      5  C   UNL     1       7.860   4.594  -0.987  1.00  0.00     0.064 C 
ATOM      6  O   UNL     1       6.766   4.049  -0.681  1.00  0.00    -0.545 OA
ATOM      7  O   UNL     1       8.885   4.635  -0.052  1.00  0.00    -0.545 OA
ENDBRANCH   4   5
ENDBRANCH   2   3
ENDBRANCH   1   2
BRANCH   1   8
ATOM      8  C   UNL     1       9.415   5.174  -6.051  1.00  0.00     0.000 C 
BRANCH   8   9
ATOM      9  C   UNL     1       8.320   4.774  -7.050  1.00  0.00    -0.000 C 
BRANCH   9  10
ATOM     10  C   UNL     1       8.932   4.318  -8.380  1.00  0.00    -0.003 C 
ATOM     11  C   UNL     1       9.613   2.959  -8.237  1.00  0.00     0.004 C 
ENDBRANCH   9  10
ENDBRANCH   8   9
ENDBRANCH   1   8
TORSDOF 6
ENDMDL
MODEL 4
REMARK VINA RESULT:    -4.107     16.019     17.223
REMARK INTER + INTRA:          -5.794
REMARK INTER:                  -5.570
REMARK INTRA:                  -0.224
REMARK UNBOUND:                -0.247
REMARK SMILES CCCCCCC=CC(=O)[O-]
REMARK SMILES IDX 5 1 6 2 7 3 8 4 9 5 10 6 11 7 4 8 3 9 2 10 1 11
REMARK H PARENT
REMARK Flexibility Score: inf
ROOT
ATOM      1  C   UNL     1       8.085   6.088  -4.571  1.00  0.00     0.004 C 
ENDROOT
BRANCH   1   2
ATOM      2  C   UNL     1       7.761   5.835  -6.051  1.00  0.00     0.027 C 
BRANCH   2   3
ATOM      3  C   UNL     1       8.722   4.852  -6.655  1.00  0.00    -0.025 C 
ATOM      4  C   UNL     1       8.508   4.318  -7.862  1.00  0.00     0.020 C 
BRANCH   4   5
ATOM      5  C   UNL     1       9.442   3.364  -8.480  1.00  0.00     0.064 C 
ATOM      6  O   UNL     1       9.794   3.483  -9.685  1.00  0.00    -0.545 OA
ATOM      7  O   UNL     1       9.945   2.313  -7.725  1.00  0.00    -0.545 OA
ENDBRANCH   4   5
ENDBRANCH   2   3
ENDBRANCH   1   2
BRANCH   1   8
ATOM      8  C   UNL     1       7.097   5.392  -3.621  1.00  0.00     0.000 C 
BRANCH   8   9
ATOM      9  C   UNL     1       7.359   5.728  -2.146  1.00  0.00    -0.000 C 
BRANCH   9  10
ATOM     10  C   UNL     1       7.689   4.463  -1.346  1.00  0.00    -0.003 C 
ATOM     11  C   UNL     1       9.185   4.165  -1.378  1.00  0.00     0.004 C 
ENDBRANCH   9  10
ENDBRANCH   8   9
ENDBRANCH   1   8
TORSDOF 6
ENDMDL
MODEL 5
REMARK VINA RESULT:    -4.095     16.397     17.065
REMARK INTER + INTRA:          -5.777
REMARK INTER:                  -5.132
REMARK INTRA:                  -0.646
REMARK UNBOUND:                -0.247
REMARK SMILES CCCCCCC=CC(=O)[O-]
REMARK SMILES IDX 5 1 6 2 7 3 8 4 9 5 10 6 11 7 4 8 3 9 2 10 1 11
REMARK H PARENT
REMARK Flexibility Score: inf
ROOT
ATOM      1  C   UNL     1      -2.812  -3.405  -8.384  1.00  0.00     0.004 C 
ENDROOT
BRANCH   1   2
ATOM      2  C   UNL     1      -2.077  -3.506  -7.039  1.00  0.00     0.027 C 
BRANCH   2   3
ATOM      3  C   UNL     1      -1.072  -4.621  -7.053  1.00  0.00    -0.025 C 
ATOM      4  C   UNL     1       0.094  -4.518  -6.408  1.00  0.00     0.020 C 
BRANCH   4   5
ATOM      5  C   UNL     1       1.089  -5.602  -6.397  1.00  0.00     0.064 C 
ATOM      6  O   UNL     1       0.735  -6.811  -6.345  1.00  0.00    -0.545 OA
ATOM      7  O   UNL     1       2.441  -5.290  -6.444  1.00  0.00    -0.545 OA
ENDBRANCH   4   5
ENDBRANCH   2   3
ENDBRANCH   1   2
BRANCH   1   8
ATOM      8  C   UNL     1      -2.035  -2.581  -9.423  1.00  0.00     0.000 C 
BRANCH   8   9
ATOM      9  C   UNL     1      -1.219  -1.446  -8.786  1.00  0.00    -0.000 C 
BRANCH   9  10
ATOM     10  C   UNL     1       0.113  -1.251  -9.520  1.00  0.00    -0.003 C 
ATOM     11  C   UNL     1       0.986  -2.499  -9.422  1.00  0.00     0.004 C 
ENDBRANCH   9  10
ENDBRANCH   8   9
ENDBRANCH   1   8
TORSDOF 6
ENDMDL
MODEL 6
REMARK VINA RESULT:    -4.030     16.393     17.778
REMARK INTER + INTRA:          -5.690
REMARK INTER:                  -5.069
REMARK INTRA:                  -0.621
REMARK UNBOUND:                -0.247
REMARK SMILES CCCCCCC=CC(=O)[O-]
REMARK SMILES IDX 5 1 6 2 7 3 8 4 9 5 10 6 11 7 4 8 3 9 2 10 1 11
REMARK H PARENT
REMARK Flexibility Score: inf
ROOT
ATOM      1  C   UNL     1      -0.175  -4.599  -6.335  1.00  0.00     0.004 C 
ENDROOT
BRANCH   1   2
ATOM      2  C   UNL     1      -1.386  -4.584  -7.280  1.00  0.00     0.027 C 
BRANCH   2   3
ATOM      3  C   UNL     1      -1.568  -3.232  -7.906  1.00  0.00    -0.025 C 
ATOM      4  C   UNL     1      -0.586  -2.324  -7.902  1.00  0.00     0.020 C 
BRANCH   4   5
ATOM      5  C   UNL     1      -0.737  -0.997  -8.521  1.00  0.00     0.064 C 
ATOM      6  O   UNL     1      -1.281  -0.045  -7.898  1.00  0.00    -0.545 OA
ATOM      7  O   UNL     1      -0.272  -0.788  -9.812  1.00  0.00    -0.545 OA
ENDBRANCH   4   5
ENDBRANCH   2   3
ENDBRANCH   1   2
BRANCH   1   8
ATOM      8  C   UNL     1       0.851  -5.682  -6.705  1.00  0.00     0.000 C 
BRANCH   8   9
ATOM      9  C   UNL     1       2.189  -5.092  -7.173  1.00  0.00    -0.000 C 
BRANCH   9  10
ATOM     10  C   UNL     1       2.439  -5.405  -8.652  1.00  0.00    -0.003 C 
ATOM     11  C   UNL     1       1.752  -4.384  -9.555  1.00  0.00     0.004 C 
ENDBRANCH   9  10
ENDBRANCH   8   9
ENDBRANCH   1   8
TORSDOF 6
ENDMDL
MODEL 7
REMARK VINA RESULT:    -4.001     14.659     15.665
REMARK INTER + INTRA:          -5.651
REMARK INTER:                  -5.301
REMARK INTRA:                  -0.349
REMARK UNBOUND:                -0.247
REMARK SMILES CCCCCCC=CC(=O)[O-]
REMARK SMILES IDX 5 1 6 2 7 3 8 4 9 5 10 6 11 7 4 8 3 9 2 10 1 11
REMARK H PARENT
REMARK Flexibility Score: inf
ROOT
ATOM      1  C   UNL     1       8.788   5.491  -5.225  1.00  0.00     0.004 C 
ENDROOT
BRANCH   1   2
ATOM      2  C   UNL     1       7.386   5.811  -4.683  1.00  0.00     0.027 C 
BRANCH   2   3
ATOM      3  C   UNL     1       7.179   5.205  -3.325  1.00  0.00    -0.025 C 
ATOM      4  C   UNL     1       8.181   5.107  -2.445  1.00  0.00     0.020 C 
BRANCH   4   5
ATOM      5  C   UNL     1       7.999   4.530  -1.104  1.00  0.00     0.064 C 
ATOM      6  O   UNL     1       8.949   4.492  -0.276  1.00  0.00    -0.545 OA
ATOM      7  O   UNL     1       6.761   4.017  -0.742  1.00  0.00    -0.545 OA
ENDBRANCH   4   5
ENDBRANCH   2   3
ENDBRANCH   1   2
BRANCH   1   8
ATOM      8  C   UNL     1       8.778   5.139  -6.721  1.00  0.00     0.000 C 
BRANCH   8   9
ATOM      9  C   UNL     1       7.416   5.401  -7.381  1.00  0.00    -0.000 C 
BRANCH   9  10
ATOM     10  C   UNL     1       7.530   6.481  -8.462  1.00  0.00    -0.003 C 
ATOM     11  C   UNL     1       8.817   6.322  -9.268  1.00  0.00     0.004 C 
ENDBRANCH   9  10
ENDBRANCH   8   9
ENDBRANCH   1   8
TORSDOF 6
ENDMDL
MODEL 8
REMARK VINA RESULT:    -3.950     15.674     16.308
REMARK INTER + INTRA:          -5.582
REMARK INTER:                  -5.316
REMARK INTRA:                  -0.266
REMARK UNBOUND:                -0.247
REMARK SMILES CCCCCCC=CC(=O)[O-]
REMARK SMILES IDX 5 1 6 2 7 3 8 4 9 5 10 6 11 7 4 8 3 9 2 10 1 11
REMARK H PARENT
REMARK Flexibility Score: inf
ROOT
ATOM      1  C   UNL     1      -0.597  -1.888  -8.170  1.00  0.00     0.004 C 
ENDROOT
BRANCH   1   2
ATOM      2  C   UNL     1      -1.613  -2.946  -7.714  1.00  0.00     0.027 C 
BRANCH   2   3
ATOM      3  C   UNL     1      -0.925  -4.126  -7.092  1.00  0.00    -0.025 C 
ATOM      4  C   UNL     1       0.398  -4.293  -7.190  1.00  0.00     0.020 C 
BRANCH   4   5
ATOM      5  C   UNL     1       1.097  -5.435  -6.578  1.00  0.00     0.064 C 
ATOM      6  O   UNL     1       2.338  -5.399  -6.360  1.00  0.00    -0.545 OA
ATOM      7  O   UNL     1       0.378  -6.572  -6.236  1.00  0.00    -0.545 OA
ENDBRANCH   4   5
ENDBRANCH   2   3
ENDBRANCH   1   2
BRANCH   1   8
ATOM      8  C   UNL     1      -1.176  -0.464  -8.154  1.00  0.00     0.000 C 
BRANCH   8   9
ATOM      9  C   UNL     1      -1.947  -0.125  -9.438  1.00  0.00    -0.000 C 
BRANCH   9  10
ATOM     10  C   UNL     1      -3.252   0.612  -9.116  1.00  0.00    -0.003 C 
ATOM     11  C   UNL     1      -2.990   1.842  -8.250  1.00  0.00     0.004 C 
ENDBRANCH   9  10
ENDBRANCH   8   9
ENDBRANCH   1   8
TORSDOF 6
ENDMDL
