MODEL 1
REMARK VINA RESULT:    -4.943      0.000      0.000
REMARK INTER + INTRA:          -6.442
REMARK INTER:                  -6.099
REMARK INTRA:                  -0.343
REMARK UNBOUND:                -0.343
REMARK SMILES O=c1c(O)c(-c2cc(O)c(O)c(O)c2)oc2cc(O)cc(O)c12
REMARK SMILES IDX 5 1 3 2 2 3 1 4 23 5 21 6 20 7 18 8 17 9 16 10 15 11 6 12
REMARK SMILES IDX 7 13 8 14 14 15 10 16 12 17 9 18 11 20 13 22 4 24 22 26
REMARK SMILES IDX 19 28
REMARK H PARENT 9 19 11 21 13 23 4 25 22 27 19 29
REMARK Flexibility Score: inf
ROOT
ATOM      1  C   UNL     1      40.204 -30.464  10.624  1.00  0.00     0.180 A 
ATOM      2  C   UNL     1      39.700 -30.028  11.862  1.00  0.00     0.208 A 
ATOM      3  C   UNL     1      38.325 -29.776  11.986  1.00  0.00     0.238 A 
ATOM      4  O   UNL     1      37.871 -29.438  13.110  1.00  0.00    -0.285 OA
ATOM      5  C   UNL     1      37.473 -29.943  10.867  1.00  0.00     0.111 A 
ATOM      6  C   UNL     1      36.071 -29.677  10.868  1.00  0.00     0.134 A 
ATOM      7  C   UNL     1      35.305 -30.004   9.742  1.00  0.00     0.093 A 
ATOM      8  C   UNL     1      35.902 -30.526   8.592  1.00  0.00     0.123 A 
ATOM      9  C   UNL     1      37.278 -30.734   8.560  1.00  0.00     0.094 A 
ATOM     10  C   UNL     1      38.064 -30.452   9.681  1.00  0.00     0.146 A 
ATOM     11  O   UNL     1      39.371 -30.675   9.612  1.00  0.00    -0.452 OA
ENDROOT
BRANCH   1  12
ATOM     12  C   UNL     1      41.646 -30.727  10.410  1.00  0.00     0.029 A 
ATOM     13  C   UNL     1      42.553 -29.683  10.179  1.00  0.00     0.062 A 
ATOM     14  C   UNL     1      43.909 -29.954   9.955  1.00  0.00     0.162 A 
ATOM     15  C   UNL     1      42.108 -32.052  10.378  1.00  0.00     0.062 A 
ATOM     16  C   UNL     1      44.373 -31.278   9.948  1.00  0.00     0.200 A 
ATOM     17  C   UNL     1      43.460 -32.338  10.156  1.00  0.00     0.162 A 
BRANCH  14  18
ATOM     18  O   UNL     1      44.805 -28.910   9.735  1.00  0.00    -0.504 OA
ATOM     19  H   UNL     1      45.801 -29.075   9.643  1.00  0.00     0.293 HD
ENDBRANCH  14  18
BRANCH  16  20
ATOM     20  O   UNL     1      45.736 -31.493   9.727  1.00  0.00    -0.502 OA
ATOM     21  H   UNL     1      46.443 -31.425  10.445  1.00  0.00     0.293 HD
ENDBRANCH  16  20
BRANCH  17  22
ATOM     22  O   UNL     1      43.847 -33.680  10.150  1.00  0.00    -0.504 OA
ATOM     23  H   UNL     1      44.114 -34.195  10.976  1.00  0.00     0.293 HD
ENDBRANCH  17  22
ENDBRANCH   1  12
BRANCH   2  24
ATOM     24  O   UNL     1      40.554 -29.890  12.959  1.00  0.00    -0.502 OA
ATOM     25  H   UNL     1      41.557 -29.790  12.859  1.00  0.00     0.293 HD
ENDBRANCH   2  24
BRANCH   6  26
ATOM     26  O   UNL     1      35.393 -29.072  11.930  1.00  0.00    -0.507 OA
ATOM     27  H   UNL     1      35.753 -28.307  12.481  1.00  0.00     0.293 HD
ENDBRANCH   6  26
BRANCH   8  28
ATOM     28  O   UNL     1      35.135 -30.834   7.470  1.00  0.00    -0.508 OA
ATOM     29  H   UNL     1      34.310 -30.296   7.229  1.00  0.00     0.293 HD
ENDBRANCH   8  28
TORSDOF 7
ENDMDL
MODEL 2
REMARK VINA RESULT:    -4.865      0.147      1.764
REMARK INTER + INTRA:          -6.346
REMARK INTER:                  -6.069
REMARK INTRA:                  -0.277
REMARK UNBOUND:                -0.343
REMARK SMILES O=c1c(O)c(-c2cc(O)c(O)c(O)c2)oc2cc(O)cc(O)c12
REMARK SMILES IDX 5 1 3 2 2 3 1 4 23 5 21 6 20 7 18 8 17 9 16 10 15 11 6 12
REMARK SMILES IDX 7 13 8 14 14 15 10 16 12 17 9 18 11 20 13 22 4 24 22 26
REMARK SMILES IDX 19 28
REMARK H PARENT 9 19 11 21 13 23 4 25 22 27 19 29
REMARK Flexibility Score: inf
ROOT
ATOM      1  C   UNL     1      40.147 -30.526  10.642  1.00  0.00     0.180 A 
ATOM      2  C   UNL     1      39.665 -30.055  11.876  1.00  0.00     0.208 A 
ATOM      3  C   UNL     1      38.300 -29.752  12.003  1.00  0.00     0.238 A 
ATOM      4  O   UNL     1      37.865 -29.382  13.125  1.00  0.00    -0.285 OA
ATOM      5  C   UNL     1      37.437 -29.908  10.892  1.00  0.00     0.111 A 
ATOM      6  C   UNL     1      36.045 -29.594  10.897  1.00  0.00     0.134 A 
ATOM      7  C   UNL     1      35.262 -29.911   9.780  1.00  0.00     0.093 A 
ATOM      8  C   UNL     1      35.833 -30.472   8.636  1.00  0.00     0.123 A 
ATOM      9  C   UNL     1      37.201 -30.728   8.599  1.00  0.00     0.094 A 
ATOM     10  C   UNL     1      38.002 -30.456   9.711  1.00  0.00     0.146 A 
ATOM     11  O   UNL     1      39.301 -30.725   9.639  1.00  0.00    -0.452 OA
ENDROOT
BRANCH   1  12
ATOM     12  C   UNL     1      41.577 -30.843  10.425  1.00  0.00     0.029 A 
ATOM     13  C   UNL     1      42.030 -32.170  10.363  1.00  0.00     0.062 A 
ATOM     14  C   UNL     1      43.391 -32.449  10.180  1.00  0.00     0.162 A 
ATOM     15  C   UNL     1      42.510 -29.799  10.338  1.00  0.00     0.062 A 
ATOM     16  C   UNL     1      44.318 -31.403  10.069  1.00  0.00     0.200 A 
ATOM     17  C   UNL     1      43.872 -30.063  10.155  1.00  0.00     0.162 A 
BRANCH  14  18
ATOM     18  O   UNL     1      43.831 -33.769  10.111  1.00  0.00    -0.504 OA
ATOM     19  H   UNL     1      43.208 -34.548  10.290  1.00  0.00     0.293 HD
ENDBRANCH  14  18
BRANCH  16  20
ATOM     20  O   UNL     1      45.662 -31.736   9.881  1.00  0.00    -0.502 OA
ATOM     21  H   UNL     1      46.102 -32.556  10.272  1.00  0.00     0.293 HD
ENDBRANCH  16  20
BRANCH  17  22
ATOM     22  O   UNL     1      44.739 -28.971  10.065  1.00  0.00    -0.504 OA
ATOM     23  H   UNL     1      45.634 -28.920  10.530  1.00  0.00     0.293 HD
ENDBRANCH  17  22
ENDBRANCH   1  12
BRANCH   2  24
ATOM     24  O   UNL     1      40.530 -29.929  12.966  1.00  0.00    -0.502 OA
ATOM     25  H   UNL     1      41.475 -30.294  12.957  1.00  0.00     0.293 HD
ENDBRANCH   2  24
BRANCH   6  26
ATOM     26  O   UNL     1      35.394 -28.949  11.953  1.00  0.00    -0.507 OA
ATOM     27  H   UNL     1      34.753 -28.178  11.847  1.00  0.00     0.293 HD
ENDBRANCH   6  26
BRANCH   8  28
ATOM     28  O   UNL     1      35.049 -30.771   7.523  1.00  0.00    -0.508 OA
ATOM     29  H   UNL     1      35.364 -30.565   6.582  1.00  0.00     0.293 HD
ENDBRANCH   8  28
TORSDOF 7
ENDMDL
MODEL 3
REMARK VINA RESULT:    -4.676      2.335      7.321
REMARK INTER + INTRA:          -6.112
REMARK INTER:                  -5.774
REMARK INTRA:                  -0.338
REMARK UNBOUND:                -0.343
REMARK SMILES O=c1c(O)c(-c2cc(O)c(O)c(O)c2)oc2cc(O)cc(O)c12
REMARK SMILES IDX 5 1 3 2 2 3 1 4 23 5 21 6 20 7 18 8 17 9 16 10 15 11 6 12
REMARK SMILES IDX 7 13 8 14 14 15 10 16 12 17 9 18 11 20 13 22 4 24 22 26
REMARK SMILES IDX 19 28
REMARK H PARENT 9 19 11 21 13 23 4 25 22 27 19 29
REMARK Flexibility Score: inf
ROOT
ATOM      1  C   UNL     1      41.119 -31.202  11.694  1.00  0.00     0.180 A 
ATOM      2  C   UNL     1      42.072 -30.169  11.675  1.00  0.00     0.208 A 
ATOM      3  C   UNL     1      43.402 -30.464  12.012  1.00  0.00     0.238 A 
ATOM      4  O   UNL     1      44.262 -29.547  11.942  1.00  0.00    -0.285 OA
ATOM      5  C   UNL     1      43.760 -31.783  12.382  1.00  0.00     0.111 A 
ATOM      6  C   UNL     1      45.070 -32.186  12.781  1.00  0.00     0.134 A 
ATOM      7  C   UNL     1      45.338 -33.544  12.998  1.00  0.00     0.093 A 
ATOM      8  C   UNL     1      44.329 -34.503  12.893  1.00  0.00     0.123 A 
ATOM      9  C   UNL     1      43.034 -34.113  12.561  1.00  0.00     0.094 A 
ATOM     10  C   UNL     1      42.743 -32.771  12.303  1.00  0.00     0.146 A 
ATOM     11  O   UNL     1      41.498 -32.442  11.980  1.00  0.00    -0.452 OA
ENDROOT
BRANCH   1  12
ATOM     12  C   UNL     1      39.693 -30.963  11.373  1.00  0.00     0.029 A 
ATOM     13  C   UNL     1      38.735 -30.799  12.385  1.00  0.00     0.062 A 
ATOM     14  C   UNL     1      37.387 -30.598  12.061  1.00  0.00     0.162 A 
ATOM     15  C   UNL     1      39.277 -30.959  10.033  1.00  0.00     0.062 A 
ATOM     16  C   UNL     1      36.977 -30.569  10.720  1.00  0.00     0.200 A 
ATOM     17  C   UNL     1      37.934 -30.758   9.695  1.00  0.00     0.162 A 
BRANCH  14  18
ATOM     18  O   UNL     1      36.442 -30.427  13.072  1.00  0.00    -0.504 OA
ATOM     19  H   UNL     1      36.297 -29.529  13.518  1.00  0.00     0.293 HD
ENDBRANCH  14  18
BRANCH  16  20
ATOM     20  O   UNL     1      35.622 -30.358  10.452  1.00  0.00    -0.502 OA
ATOM     21  H   UNL     1      34.926 -31.089  10.444  1.00  0.00     0.293 HD
ENDBRANCH  16  20
BRANCH  17  22
ATOM     22  O   UNL     1      37.599 -30.754   8.339  1.00  0.00    -0.504 OA
ATOM     23  H   UNL     1      38.051 -31.329   7.644  1.00  0.00     0.293 HD
ENDBRANCH  17  22
ENDBRANCH   1  12
BRANCH   2  24
ATOM     24  O   UNL     1      41.702 -28.879  11.287  1.00  0.00    -0.502 OA
ATOM     25  H   UNL     1      42.204 -28.359  10.577  1.00  0.00     0.293 HD
ENDBRANCH   2  24
BRANCH   6  26
ATOM     26  O   UNL     1      46.125 -31.298  13.005  1.00  0.00    -0.507 OA
ATOM     27  H   UNL     1      46.218 -30.394  12.567  1.00  0.00     0.293 HD
ENDBRANCH   6  26
BRANCH   8  28
ATOM     28  O   UNL     1      44.601 -35.850  13.125  1.00  0.00    -0.508 OA
ATOM     29  H   UNL     1      44.452 -36.552  12.409  1.00  0.00     0.293 HD
ENDBRANCH   8  28
TORSDOF 7
ENDMDL
MODEL 4
REMARK VINA RESULT:    -4.661      2.254      7.287
REMARK INTER + INTRA:          -6.095
REMARK INTER:                  -5.762
REMARK INTRA:                  -0.333
REMARK UNBOUND:                -0.343
REMARK SMILES O=c1c(O)c(-c2cc(O)c(O)c(O)c2)oc2cc(O)cc(O)c12
REMARK SMILES IDX 5 1 3 2 2 3 1 4 23 5 21 6 20 7 18 8 17 9 16 10 15 11 6 12
REMARK SMILES IDX 7 13 8 14 14 15 10 16 12 17 9 18 11 20 13 22 4 24 22 26
REMARK SMILES IDX 19 28
REMARK H PARENT 9 19 11 21 13 23 4 25 22 27 19 29
REMARK Flexibility Score: inf
ROOT
ATOM      1  C   UNL     1      41.119 -31.182  11.460  1.00  0.00     0.180 A 
ATOM      2  C   UNL     1      42.062 -30.141  11.391  1.00  0.00     0.208 A 
ATOM      3  C   UNL     1      43.394 -30.404  11.743  1.00  0.00     0.238 A 
ATOM      4  O   UNL     1      44.244 -29.482  11.628  1.00  0.00    -0.285 OA
ATOM      5  C   UNL     1      43.766 -31.700  12.177  1.00  0.00     0.111 A 
ATOM      6  C   UNL     1      45.079 -32.068  12.596  1.00  0.00     0.134 A 
ATOM      7  C   UNL     1      45.362 -33.410  12.880  1.00  0.00     0.093 A 
ATOM      8  C   UNL     1      44.363 -34.385  12.822  1.00  0.00     0.123 A 
ATOM      9  C   UNL     1      43.065 -34.025  12.471  1.00  0.00     0.094 A 
ATOM     10  C   UNL     1      42.760 -32.701  12.147  1.00  0.00     0.146 A 
ATOM     11  O   UNL     1      41.512 -32.402  11.807  1.00  0.00    -0.452 OA
ENDROOT
BRANCH   1  12
ATOM     12  C   UNL     1      39.691 -30.974  11.127  1.00  0.00     0.029 A 
ATOM     13  C   UNL     1      39.243 -30.976   9.798  1.00  0.00     0.062 A 
ATOM     14  C   UNL     1      37.892 -30.754   9.503  1.00  0.00     0.162 A 
ATOM     15  C   UNL     1      38.774 -30.710  12.156  1.00  0.00     0.062 A 
ATOM     16  C   UNL     1      36.972 -30.515  10.534  1.00  0.00     0.200 A 
ATOM     17  C   UNL     1      37.421 -30.487  11.875  1.00  0.00     0.162 A 
BRANCH  14  18
ATOM     18  O   UNL     1      37.453 -30.767   8.179  1.00  0.00    -0.504 OA
ATOM     19  H   UNL     1      37.290 -29.909   7.666  1.00  0.00     0.293 HD
ENDBRANCH  14  18
BRANCH  16  20
ATOM     20  O   UNL     1      35.635 -30.307  10.185  1.00  0.00    -0.502 OA
ATOM     21  H   UNL     1      34.960 -29.849  10.780  1.00  0.00     0.293 HD
ENDBRANCH  16  20
BRANCH  17  22
ATOM     22  O   UNL     1      36.566 -30.243  12.953  1.00  0.00    -0.504 OA
ATOM     23  H   UNL     1      36.666 -30.670  13.862  1.00  0.00     0.293 HD
ENDBRANCH  17  22
ENDBRANCH   1  12
BRANCH   2  24
ATOM     24  O   UNL     1      41.678 -28.875  10.939  1.00  0.00    -0.502 OA
ATOM     25  H   UNL     1      40.714 -28.564  10.944  1.00  0.00     0.293 HD
ENDBRANCH   2  24
BRANCH   6  26
ATOM     26  O   UNL     1      46.125 -31.158  12.777  1.00  0.00    -0.507 OA
ATOM     27  H   UNL     1      47.072 -31.411  13.016  1.00  0.00     0.293 HD
ENDBRANCH   6  26
BRANCH   8  28
ATOM     28  O   UNL     1      44.650 -35.715  13.121  1.00  0.00    -0.508 OA
ATOM     29  H   UNL     1      44.125 -36.476  12.704  1.00  0.00     0.293 HD
ENDBRANCH   8  28
TORSDOF 7
ENDMDL
MODEL 5
REMARK VINA RESULT:    -4.531      1.428      6.968
REMARK INTER + INTRA:          -5.934
REMARK INTER:                  -5.648
REMARK INTRA:                  -0.285
REMARK UNBOUND:                -0.343
REMARK SMILES O=c1c(O)c(-c2cc(O)c(O)c(O)c2)oc2cc(O)cc(O)c12
REMARK SMILES IDX 5 1 3 2 2 3 1 4 23 5 21 6 20 7 18 8 17 9 16 10 15 11 6 12
REMARK SMILES IDX 7 13 8 14 14 15 10 16 12 17 9 18 11 20 13 22 4 24 22 26
REMARK SMILES IDX 19 28
REMARK H PARENT 9 19 11 21 13 23 4 25 22 27 19 29
REMARK Flexibility Score: inf
ROOT
ATOM      1  C   UNL     1      39.789 -30.876  10.385  1.00  0.00     0.180 A 
ATOM      2  C   UNL     1      40.112 -31.874  11.321  1.00  0.00     0.208 A 
ATOM      3  C   UNL     1      41.463 -32.134  11.598  1.00  0.00     0.238 A 
ATOM      4  O   UNL     1      41.746 -32.992  12.476  1.00  0.00    -0.285 OA
ATOM      5  C   UNL     1      42.475 -31.407  10.925  1.00  0.00     0.111 A 
ATOM      6  C   UNL     1      43.876 -31.616  11.099  1.00  0.00     0.134 A 
ATOM      7  C   UNL     1      44.785 -30.750  10.479  1.00  0.00     0.093 A 
ATOM      8  C   UNL     1      44.345 -29.723   9.641  1.00  0.00     0.123 A 
ATOM      9  C   UNL     1      42.982 -29.548   9.418  1.00  0.00     0.094 A 
ATOM     10  C   UNL     1      42.049 -30.373  10.050  1.00  0.00     0.146 A 
ATOM     11  O   UNL     1      40.758 -30.166   9.820  1.00  0.00    -0.452 OA
ENDROOT
BRANCH   1  12
ATOM     12  C   UNL     1      38.388 -30.561  10.023  1.00  0.00     0.029 A 
ATOM     13  C   UNL     1      37.546 -29.861  10.901  1.00  0.00     0.062 A 
ATOM     14  C   UNL     1      36.217 -29.593  10.550  1.00  0.00     0.162 A 
ATOM     15  C   UNL     1      37.869 -31.022   8.804  1.00  0.00     0.062 A 
ATOM     16  C   UNL     1      35.708 -30.034   9.319  1.00  0.00     0.200 A 
ATOM     17  C   UNL     1      36.543 -30.762   8.440  1.00  0.00     0.162 A 
BRANCH  14  18
ATOM     18  O   UNL     1      35.390 -28.889  11.423  1.00  0.00    -0.504 OA
ATOM     19  H   UNL     1      34.412 -29.130  11.540  1.00  0.00     0.293 HD
ENDBRANCH  14  18
BRANCH  16  20
ATOM     20  O   UNL     1      34.377 -29.735   9.015  1.00  0.00    -0.502 OA
ATOM     21  H   UNL     1      33.588 -30.277   9.335  1.00  0.00     0.293 HD
ENDBRANCH  16  20
BRANCH  17  22
ATOM     22  O   UNL     1      36.102 -31.243   7.205  1.00  0.00    -0.504 OA
ATOM     23  H   UNL     1      36.701 -31.689   6.525  1.00  0.00     0.293 HD
ENDBRANCH  17  22
ENDBRANCH   1  12
BRANCH   2  24
ATOM     24  O   UNL     1      39.099 -32.565  11.990  1.00  0.00    -0.502 OA
ATOM     25  H   UNL     1      38.200 -32.147  12.197  1.00  0.00     0.293 HD
ENDBRANCH   2  24
BRANCH   6  26
ATOM     26  O   UNL     1      44.422 -32.668  11.840  1.00  0.00    -0.507 OA
ATOM     27  H   UNL     1      45.332 -32.654  12.274  1.00  0.00     0.293 HD
ENDBRANCH   6  26
BRANCH   8  28
ATOM     28  O   UNL     1      45.257 -28.875   9.016  1.00  0.00    -0.508 OA
ATOM     29  H   UNL     1      45.042 -28.424   8.133  1.00  0.00     0.293 HD
ENDBRANCH   8  28
TORSDOF 7
ENDMDL
MODEL 6
REMARK VINA RESULT:    -3.758      2.282      7.375
REMARK INTER + INTRA:          -4.980
REMARK INTER:                  -5.218
REMARK INTRA:                   0.238
REMARK UNBOUND:                -0.343
REMARK SMILES O=c1c(O)c(-c2cc(O)c(O)c(O)c2)oc2cc(O)cc(O)c12
REMARK SMILES IDX 5 1 3 2 2 3 1 4 23 5 21 6 20 7 18 8 17 9 16 10 15 11 6 12
REMARK SMILES IDX 7 13 8 14 14 15 10 16 12 17 9 18 11 20 13 22 4 24 22 26
REMARK SMILES IDX 19 28
REMARK H PARENT 9 19 11 21 13 23 4 25 22 27 19 29
REMARK Flexibility Score: inf
ROOT
ATOM      1  C   UNL     1      40.810 -31.564  11.499  1.00  0.00     0.180 A 
ATOM      2  C   UNL     1      41.315 -30.597  10.613  1.00  0.00     0.208 A 
ATOM      3  C   UNL     1      42.682 -30.614  10.293  1.00  0.00     0.238 A 
ATOM      4  O   UNL     1      43.118 -29.779   9.458  1.00  0.00    -0.285 OA
ATOM      5  C   UNL     1      43.530 -31.586  10.875  1.00  0.00     0.111 A 
ATOM      6  C   UNL     1      44.937 -31.672  10.653  1.00  0.00     0.134 A 
ATOM      7  C   UNL     1      45.654 -32.754  11.178  1.00  0.00     0.093 A 
ATOM      8  C   UNL     1      45.027 -33.718  11.970  1.00  0.00     0.123 A 
ATOM      9  C   UNL     1      43.665 -33.611  12.241  1.00  0.00     0.094 A 
ATOM     10  C   UNL     1      42.916 -32.563  11.702  1.00  0.00     0.146 A 
ATOM     11  O   UNL     1      41.618 -32.504  11.977  1.00  0.00    -0.452 OA
ENDROOT
BRANCH   1  12
ATOM     12  C   UNL     1      39.386 -31.595  11.902  1.00  0.00     0.029 A 
ATOM     13  C   UNL     1      38.610 -30.427  11.931  1.00  0.00     0.062 A 
ATOM     14  C   UNL     1      37.270 -30.472  12.338  1.00  0.00     0.162 A 
ATOM     15  C   UNL     1      38.813 -32.805  12.323  1.00  0.00     0.062 A 
ATOM     16  C   UNL     1      36.692 -31.687  12.735  1.00  0.00     0.200 A 
ATOM     17  C   UNL     1      37.476 -32.865  12.732  1.00  0.00     0.162 A 
BRANCH  14  18
ATOM     18  O   UNL     1      36.503 -29.309  12.355  1.00  0.00    -0.504 OA
ATOM     19  H   UNL     1      35.528 -29.319  12.631  1.00  0.00     0.293 HD
ENDBRANCH  14  18
BRANCH  16  20
ATOM     20  O   UNL     1      35.351 -31.679  13.125  1.00  0.00    -0.502 OA
ATOM     21  H   UNL     1      34.911 -32.416  13.656  1.00  0.00     0.293 HD
ENDBRANCH  16  20
BRANCH  17  22
ATOM     22  O   UNL     1      36.972 -34.108  13.125  1.00  0.00    -0.504 OA
ATOM     23  H   UNL     1      36.417 -34.706  12.531  1.00  0.00     0.293 HD
ENDBRANCH  17  22
ENDBRANCH   1  12
BRANCH   2  24
ATOM     24  O   UNL     1      40.457 -29.659  10.033  1.00  0.00    -0.502 OA
ATOM     25  H   UNL     1      39.868 -29.046  10.584  1.00  0.00     0.293 HD
ENDBRANCH   2  24
BRANCH   6  26
ATOM     26  O   UNL     1      45.677 -30.713   9.955  1.00  0.00    -0.507 OA
ATOM     27  H   UNL     1      45.520 -29.718  10.004  1.00  0.00     0.293 HD
ENDBRANCH   6  26
BRANCH   8  28
ATOM     28  O   UNL     1      45.751 -34.784  12.501  1.00  0.00    -0.508 OA
ATOM     29  H   UNL     1      45.454 -35.744  12.369  1.00  0.00     0.293 HD
ENDBRANCH   8  28
TORSDOF 7
ENDMDL
MODEL 7
REMARK VINA RESULT:    -3.233      1.579      6.904
REMARK INTER + INTRA:          -4.332
REMARK INTER:                  -4.210
REMARK INTRA:                  -0.123
REMARK UNBOUND:                -0.343
REMARK SMILES O=c1c(O)c(-c2cc(O)c(O)c(O)c2)oc2cc(O)cc(O)c12
REMARK SMILES IDX 5 1 3 2 2 3 1 4 23 5 21 6 20 7 18 8 17 9 16 10 15 11 6 12
REMARK SMILES IDX 7 13 8 14 14 15 10 16 12 17 9 18 11 20 13 22 4 24 22 26
REMARK SMILES IDX 19 28
REMARK H PARENT 9 19 11 21 13 23 4 25 22 27 19 29
REMARK Flexibility Score: inf
ROOT
ATOM      1  C   UNL     1      39.073 -30.660  10.736  1.00  0.00     0.180 A 
ATOM      2  C   UNL     1      39.551 -29.851  11.781  1.00  0.00     0.208 A 
ATOM      3  C   UNL     1      40.876 -30.012  12.215  1.00  0.00     0.238 A 
ATOM      4  O   UNL     1      41.315 -29.248  13.115  1.00  0.00    -0.285 OA
ATOM      5  C   UNL     1      41.701 -30.992  11.613  1.00  0.00     0.111 A 
ATOM      6  C   UNL     1      43.047 -31.268  12.001  1.00  0.00     0.134 A 
ATOM      7  C   UNL     1      43.811 -32.168  11.248  1.00  0.00     0.093 A 
ATOM      8  C   UNL     1      43.258 -32.849  10.161  1.00  0.00     0.123 A 
ATOM      9  C   UNL     1      41.929 -32.630   9.810  1.00  0.00     0.094 A 
ATOM     10  C   UNL     1      41.151 -31.711  10.520  1.00  0.00     0.146 A 
ATOM     11  O   UNL     1      39.891 -31.524  10.146  1.00  0.00    -0.452 OA
ENDROOT
BRANCH   1  12
ATOM     12  C   UNL     1      37.681 -30.564  10.240  1.00  0.00     0.029 A 
ATOM     13  C   UNL     1      36.586 -30.713  11.104  1.00  0.00     0.062 A 
ATOM     14  C   UNL     1      35.276 -30.643  10.612  1.00  0.00     0.162 A 
ATOM     15  C   UNL     1      37.447 -30.381   8.869  1.00  0.00     0.062 A 
ATOM     16  C   UNL     1      35.045 -30.435   9.244  1.00  0.00     0.200 A 
ATOM     17  C   UNL     1      36.144 -30.308   8.363  1.00  0.00     0.162 A 
BRANCH  14  18
ATOM     18  O   UNL     1      34.194 -30.783  11.479  1.00  0.00    -0.504 OA
ATOM     19  H   UNL     1      34.318 -30.809  12.484  1.00  0.00     0.293 HD
ENDBRANCH  14  18
BRANCH  16  20
ATOM     20  O   UNL     1      33.720 -30.366   8.807  1.00  0.00    -0.502 OA
ATOM     21  H   UNL     1      33.213 -29.503   8.671  1.00  0.00     0.293 HD
ENDBRANCH  16  20
BRANCH  17  22
ATOM     22  O   UNL     1      35.991 -30.112   6.988  1.00  0.00    -0.504 OA
ATOM     23  H   UNL     1      35.187 -30.418   6.460  1.00  0.00     0.293 HD
ENDBRANCH  17  22
ENDBRANCH   1  12
BRANCH   2  24
ATOM     24  O   UNL     1      38.727 -28.875  12.348  1.00  0.00    -0.502 OA
ATOM     25  H   UNL     1      37.769 -29.063  12.620  1.00  0.00     0.293 HD
ENDBRANCH   2  24
BRANCH   6  26
ATOM     26  O   UNL     1      43.664 -30.713  13.125  1.00  0.00    -0.507 OA
ATOM     27  H   UNL     1      44.463 -31.109  13.596  1.00  0.00     0.293 HD
ENDBRANCH   6  26
BRANCH   8  28
ATOM     28  O   UNL     1      44.021 -33.755   9.426  1.00  0.00    -0.508 OA
ATOM     29  H   UNL     1      44.946 -34.037   9.731  1.00  0.00     0.293 HD
ENDBRANCH   8  28
TORSDOF 7
ENDMDL
MODEL 8
REMARK VINA RESULT:    -3.050      2.203      7.454
REMARK INTER + INTRA:          -4.106
REMARK INTER:                  -4.410
REMARK INTRA:                   0.304
REMARK UNBOUND:                -0.343
REMARK SMILES O=c1c(O)c(-c2cc(O)c(O)c(O)c2)oc2cc(O)cc(O)c12
REMARK SMILES IDX 5 1 3 2 2 3 1 4 23 5 21 6 20 7 18 8 17 9 16 10 15 11 6 12
REMARK SMILES IDX 7 13 8 14 14 15 10 16 12 17 9 18 11 20 13 22 4 24 22 26
REMARK SMILES IDX 19 28
REMARK H PARENT 9 19 11 21 13 23 4 25 22 27 19 29
REMARK Flexibility Score: inf
ROOT
ATOM      1  C   UNL     1      40.351 -30.814  11.617  1.00  0.00     0.180 A 
ATOM      2  C   UNL     1      40.747 -29.849  10.675  1.00  0.00     0.208 A 
ATOM      3  C   UNL     1      42.112 -29.703  10.382  1.00  0.00     0.238 A 
ATOM      4  O   UNL     1      42.455 -28.875   9.498  1.00  0.00    -0.285 OA
ATOM      5  C   UNL     1      43.065 -30.511  11.046  1.00  0.00     0.111 A 
ATOM      6  C   UNL     1      44.477 -30.421  10.856  1.00  0.00     0.134 A 
ATOM      7  C   UNL     1      45.317 -31.360  11.468  1.00  0.00     0.093 A 
ATOM      8  C   UNL     1      44.802 -32.344  12.315  1.00  0.00     0.123 A 
ATOM      9  C   UNL     1      43.431 -32.403  12.553  1.00  0.00     0.094 A 
ATOM     10  C   UNL     1      42.564 -31.504  11.929  1.00  0.00     0.146 A 
ATOM     11  O   UNL     1      41.263 -31.602  12.174  1.00  0.00    -0.452 OA
ENDROOT
BRANCH   1  12
ATOM     12  C   UNL     1      38.932 -31.009  11.996  1.00  0.00     0.029 A 
ATOM     13  C   UNL     1      38.448 -32.265  12.392  1.00  0.00     0.062 A 
ATOM     14  C   UNL     1      37.098 -32.434  12.724  1.00  0.00     0.162 A 
ATOM     15  C   UNL     1      38.038 -29.932  11.901  1.00  0.00     0.062 A 
ATOM     16  C   UNL     1      36.211 -31.350  12.651  1.00  0.00     0.200 A 
ATOM     17  C   UNL     1      36.687 -30.086  12.230  1.00  0.00     0.162 A 
BRANCH  14  18
ATOM     18  O   UNL     1      36.626 -33.683  13.125  1.00  0.00    -0.504 OA
ATOM     19  H   UNL     1      35.666 -33.819  13.418  1.00  0.00     0.293 HD
ENDBRANCH  14  18
BRANCH  16  20
ATOM     20  O   UNL     1      34.875 -31.571  13.000  1.00  0.00    -0.502 OA
ATOM     21  H   UNL     1      34.217 -32.076  12.425  1.00  0.00     0.293 HD
ENDBRANCH  16  20
BRANCH  17  22
ATOM     22  O   UNL     1      35.860 -28.966  12.122  1.00  0.00    -0.504 OA
ATOM     23  H   UNL     1      34.875 -29.008  11.903  1.00  0.00     0.293 HD
ENDBRANCH  17  22
ENDBRANCH   1  12
BRANCH   2  24
ATOM     24  O   UNL     1      39.787 -29.076  10.015  1.00  0.00    -0.502 OA
ATOM     25  H   UNL     1      39.885 -28.798   9.046  1.00  0.00     0.293 HD
ENDBRANCH   2  24
BRANCH   6  26
ATOM     26  O   UNL     1      45.101 -29.421  10.106  1.00  0.00    -0.507 OA
ATOM     27  H   UNL     1      45.519 -29.559   9.198  1.00  0.00     0.293 HD
ENDBRANCH   6  26
BRANCH   8  28
ATOM     28  O   UNL     1      45.647 -33.264  12.932  1.00  0.00    -0.508 OA
ATOM     29  H   UNL     1      45.758 -34.206  12.573  1.00  0.00     0.293 HD
ENDBRANCH   8  28
TORSDOF 7
ENDMDL
