MODEL 1
REMARK VINA RESULT:     1.738      0.000      0.000
REMARK INTER + INTRA:           6.035
REMARK INTER:                   2.652
REMARK INTRA:                   3.384
REMARK UNBOUND:                 3.384
REMARK SMILES CC(=O)CCC=C(C)CCC=C(C)CCC=C(C)C
REMARK SMILES IDX 10 1 11 2 12 3 13 4 14 5 15 6 16 7 18 8 17 9 19 10 9 11 7 12
REMARK SMILES IDX 6 13 8 14 5 15 4 16 2 17 3 18 1 19
REMARK H PARENT
REMARK Flexibility Score: inf
ROOT
ATOM      1  C   UNL     1     -29.976  37.901 -26.214  1.00  0.00     0.032 C 
ENDROOT
BRANCH   1   2
ATOM      2  C   UNL     1     -30.679  39.194 -25.871  1.00  0.00    -0.028 C 
ATOM      3  C   UNL     1     -31.413  39.403 -24.753  1.00  0.00    -0.077 C 
ATOM      4  C   UNL     1     -31.670  38.307 -23.748  1.00  0.00     0.039 C 
BRANCH   3   5
ATOM      5  C   UNL     1     -32.003  40.777 -24.508  1.00  0.00     0.034 C 
BRANCH   5   6
ATOM      6  C   UNL     1     -32.124  41.589 -25.807  1.00  0.00     0.032 C 
BRANCH   6   7
ATOM      7  C   UNL     1     -30.789  42.112 -26.282  1.00  0.00    -0.028 C 
ATOM      8  C   UNL     1     -29.674  41.794 -24.060  1.00  0.00     0.039 C 
ATOM      9  C   UNL     1     -29.675  42.181 -25.521  1.00  0.00    -0.080 C 
ATOM     10  C   UNL     1     -28.404  42.686 -26.157  1.00  0.00     0.039 C 
ENDBRANCH   6   7
ENDBRANCH   5   6
ENDBRANCH   3   5
ENDBRANCH   1   2
BRANCH   1  11
ATOM     11  C   UNL     1     -30.965  36.855 -26.744  1.00  0.00     0.034 C 
BRANCH  11  12
ATOM     12  C   UNL     1     -30.326  35.487 -26.862  1.00  0.00    -0.077 C 
ATOM     13  C   UNL     1     -28.989  35.361 -26.720  1.00  0.00    -0.028 C 
ATOM     14  C   UNL     1     -31.207  34.288 -27.125  1.00  0.00     0.039 C 
BRANCH  13  15
ATOM     15  C   UNL     1     -28.273  34.032 -26.811  1.00  0.00     0.035 C 
BRANCH  15  16
ATOM     16  C   UNL     1     -29.241  32.868 -27.075  1.00  0.00     0.079 C 
BRANCH  16  17
ATOM     17  C   UNL     1     -28.910  31.612 -26.301  1.00  0.00     0.130 C 
ATOM     18  O   UNL     1     -28.592  31.704 -25.118  1.00  0.00    -0.300 OA
ATOM     19  C   UNL     1     -29.052  30.245 -26.918  1.00  0.00     0.087 C 
ENDBRANCH  16  17
ENDBRANCH  15  16
ENDBRANCH  13  15
ENDBRANCH  11  12
ENDBRANCH   1  11
TORSDOF 9
ENDMDL
MODEL 2
REMARK VINA RESULT:     1.750      1.504      2.488
REMARK INTER + INTRA:           6.054
REMARK INTER:                   6.103
REMARK INTRA:                  -0.049
REMARK UNBOUND:                 3.384
REMARK SMILES CC(=O)CCC=C(C)CCC=C(C)CCC=C(C)C
REMARK SMILES IDX 10 1 11 2 12 3 13 4 14 5 15 6 16 7 18 8 17 9 19 10 9 11 7 12
REMARK SMILES IDX 6 13 8 14 5 15 4 16 2 17 3 18 1 19
REMARK H PARENT
REMARK Flexibility Score: inf
ROOT
ATOM      1  C   UNL     1     -29.326  37.740 -24.936  1.00  0.00     0.032 C 
ENDROOT
BRANCH   1   2
ATOM      2  C   UNL     1     -29.210  39.096 -24.278  1.00  0.00    -0.028 C 
ATOM      3  C   UNL     1     -28.227  39.994 -24.522  1.00  0.00    -0.077 C 
ATOM      4  C   UNL     1     -27.075  39.688 -25.448  1.00  0.00     0.039 C 
BRANCH   3   5
ATOM      5  C   UNL     1     -28.279  41.344 -23.837  1.00  0.00     0.034 C 
BRANCH   5   6
ATOM      6  C   UNL     1     -29.558  42.119 -24.193  1.00  0.00     0.032 C 
BRANCH   6   7
ATOM      7  C   UNL     1     -30.586  41.245 -24.872  1.00  0.00    -0.028 C 
ATOM      8  C   UNL     1     -30.639  42.628 -26.962  1.00  0.00     0.039 C 
ATOM      9  C   UNL     1     -31.057  41.442 -26.124  1.00  0.00    -0.080 C 
ATOM     10  C   UNL     1     -32.049  40.452 -26.678  1.00  0.00     0.039 C 
ENDBRANCH   6   7
ENDBRANCH   5   6
ENDBRANCH   3   5
ENDBRANCH   1   2
BRANCH   1  11
ATOM     11  C   UNL     1     -30.417  37.738 -26.014  1.00  0.00     0.034 C 
BRANCH  11  12
ATOM     12  C   UNL     1     -30.652  36.350 -26.574  1.00  0.00    -0.077 C 
ATOM     13  C   UNL     1     -29.637  35.458 -26.592  1.00  0.00    -0.028 C 
ATOM     14  C   UNL     1     -32.025  35.990 -27.089  1.00  0.00     0.039 C 
BRANCH  13  15
ATOM     15  C   UNL     1     -29.788  34.051 -27.122  1.00  0.00     0.035 C 
BRANCH  15  16
ATOM     16  C   UNL     1     -29.146  33.008 -26.192  1.00  0.00     0.079 C 
BRANCH  16  17
ATOM     17  C   UNL     1     -28.969  31.649 -26.828  1.00  0.00     0.130 C 
ATOM     18  O   UNL     1     -27.835  31.239 -27.059  1.00  0.00    -0.300 OA
ATOM     19  C   UNL     1     -30.144  30.747 -27.102  1.00  0.00     0.087 C 
ENDBRANCH  16  17
ENDBRANCH  15  16
ENDBRANCH  13  15
ENDBRANCH  11  12
ENDBRANCH   1  11
TORSDOF 9
ENDMDL
MODEL 3
REMARK VINA RESULT:     2.506      2.766      8.449
REMARK INTER + INTRA:           7.207
REMARK INTER:                   6.329
REMARK INTRA:                   0.879
REMARK UNBOUND:                 3.384
REMARK SMILES CC(=O)CCC=C(C)CCC=C(C)CCC=C(C)C
REMARK SMILES IDX 10 1 11 2 12 3 13 4 14 5 15 6 16 7 18 8 17 9 19 10 9 11 7 12
REMARK SMILES IDX 6 13 8 14 5 15 4 16 2 17 3 18 1 19
REMARK H PARENT
REMARK Flexibility Score: inf
ROOT
ATOM      1  C   UNL     1     -29.104  37.700 -25.401  1.00  0.00     0.032 C 
ENDROOT
BRANCH   1   2
ATOM      2  C   UNL     1     -28.823  36.294 -25.879  1.00  0.00    -0.028 C 
ATOM      3  C   UNL     1     -29.647  35.565 -26.667  1.00  0.00    -0.077 C 
ATOM      4  C   UNL     1     -31.001  36.074 -27.097  1.00  0.00     0.039 C 
BRANCH   3   5
ATOM      5  C   UNL     1     -29.200  34.190 -27.124  1.00  0.00     0.034 C 
BRANCH   5   6
ATOM      6  C   UNL     1     -28.791  33.298 -25.942  1.00  0.00     0.032 C 
BRANCH   6   7
ATOM      7  C   UNL     1     -28.627  31.852 -26.346  1.00  0.00    -0.028 C 
ATOM      8  C   UNL     1     -31.086  31.473 -26.647  1.00  0.00     0.039 C 
ATOM      9  C   UNL     1     -29.642  31.031 -26.695  1.00  0.00    -0.080 C 
ATOM     10  C   UNL     1     -29.308  29.623 -27.119  1.00  0.00     0.039 C 
ENDBRANCH   6   7
ENDBRANCH   5   6
ENDBRANCH   3   5
ENDBRANCH   1   2
BRANCH   1  11
ATOM     11  C   UNL     1     -30.564  37.855 -24.959  1.00  0.00     0.034 C 
BRANCH  11  12
ATOM     12  C   UNL     1     -31.119  39.218 -25.320  1.00  0.00    -0.077 C 
ATOM     13  C   UNL     1     -31.128  40.201 -24.394  1.00  0.00    -0.028 C 
ATOM     14  C   UNL     1     -31.640  39.449 -26.719  1.00  0.00     0.039 C 
BRANCH  13  15
ATOM     15  C   UNL     1     -31.652  41.591 -24.673  1.00  0.00     0.035 C 
BRANCH  15  16
ATOM     16  C   UNL     1     -31.059  42.187 -25.960  1.00  0.00     0.079 C 
BRANCH  16  17
ATOM     17  C   UNL     1     -29.571  42.443 -25.884  1.00  0.00     0.130 C 
ATOM     18  O   UNL     1     -28.957  42.712 -26.913  1.00  0.00    -0.300 OA
ATOM     19  C   UNL     1     -28.841  42.467 -24.567  1.00  0.00     0.087 C 
ENDBRANCH  16  17
ENDBRANCH  15  16
ENDBRANCH  13  15
ENDBRANCH  11  12
ENDBRANCH   1  11
TORSDOF 9
ENDMDL
MODEL 4
REMARK VINA RESULT:     3.277     18.360     21.046
REMARK INTER + INTRA:           8.384
REMARK INTER:                   8.357
REMARK INTRA:                   0.027
REMARK UNBOUND:                 3.384
REMARK SMILES CC(=O)CCC=C(C)CCC=C(C)CCC=C(C)C
REMARK SMILES IDX 10 1 11 2 12 3 13 4 14 5 15 6 16 7 18 8 17 9 19 10 9 11 7 12
REMARK SMILES IDX 6 13 8 14 5 15 4 16 2 17 3 18 1 19
REMARK H PARENT
REMARK Flexibility Score: inf
ROOT
ATOM      1  C   UNL     1     -16.695  26.865 -13.015  1.00  0.00     0.032 C 
ENDROOT
BRANCH   1   2
ATOM      2  C   UNL     1     -15.199  27.066 -12.940  1.00  0.00    -0.028 C 
ATOM      3  C   UNL     1     -14.533  28.124 -13.457  1.00  0.00    -0.077 C 
ATOM      4  C   UNL     1     -15.233  29.202 -14.248  1.00  0.00     0.039 C 
BRANCH   3   5
ATOM      5  C   UNL     1     -13.036  28.226 -13.243  1.00  0.00     0.034 C 
BRANCH   5   6
ATOM      6  C   UNL     1     -12.538  29.675 -13.354  1.00  0.00     0.032 C 
BRANCH   6   7
ATOM      7  C   UNL     1     -12.376  30.116 -14.790  1.00  0.00    -0.028 C 
ATOM      8  C   UNL     1     -11.875  32.497 -14.186  1.00  0.00     0.039 C 
ATOM      9  C   UNL     1     -12.048  31.369 -15.177  1.00  0.00    -0.080 C 
ATOM     10  C   UNL     1     -11.878  31.640 -16.650  1.00  0.00     0.039 C 
ENDBRANCH   6   7
ENDBRANCH   5   6
ENDBRANCH   3   5
ENDBRANCH   1   2
BRANCH   1  11
ATOM     11  C   UNL     1     -17.371  27.223 -11.685  1.00  0.00     0.034 C 
BRANCH  11  12
ATOM     12  C   UNL     1     -18.858  26.934 -11.714  1.00  0.00    -0.077 C 
ATOM     13  C   UNL     1     -19.460  26.656 -12.891  1.00  0.00    -0.028 C 
ATOM     14  C   UNL     1     -19.633  26.952 -10.418  1.00  0.00     0.039 C 
BRANCH  13  15
ATOM     15  C   UNL     1     -20.934  26.345 -13.008  1.00  0.00     0.035 C 
BRANCH  15  16
ATOM     16  C   UNL     1     -21.814  27.515 -12.539  1.00  0.00     0.079 C 
BRANCH  16  17
ATOM     17  C   UNL     1     -22.843  27.952 -13.556  1.00  0.00     0.130 C 
ATOM     18  O   UNL     1     -23.949  27.419 -13.556  1.00  0.00    -0.300 OA
ATOM     19  C   UNL     1     -22.577  29.088 -14.509  1.00  0.00     0.087 C 
ENDBRANCH  16  17
ENDBRANCH  15  16
ENDBRANCH  13  15
ENDBRANCH  11  12
ENDBRANCH   1  11
TORSDOF 9
ENDMDL
