MODEL 1
REMARK VINA RESULT:    90.177      0.000      0.000
REMARK INTER + INTRA:         141.278
REMARK INTER:                 142.894
REMARK INTRA:                  -1.616
REMARK UNBOUND:                -1.616
REMARK SMILES C[C@@H]1O[C@H](OC[C@@H]2O[C@@H](Oc3cc(O)c4c(c3)O[C@H](c3ccc(O)cc3)CC4=O)[C@@H](O)[C@@H](O)[C@H]2O)[C@@H](O)[C@H](O)[C@H]1O
REMARK SMILES IDX 7 1 34 2 32 3 30 4 9 5 8 6 6 7 5 8 4 9 1 10 2 11 40 12 3 13
REMARK SMILES IDX 38 14 36 15 41 16 39 18 37 20 35 22 33 24 10 26 11 27 12 28
REMARK SMILES IDX 17 29 13 30 16 31 15 32 18 33 28 34 19 35 29 36 27 37 14 38
REMARK SMILES IDX 20 40 21 41 26 42 22 43 25 44 23 45 24 46 31 48
REMARK H PARENT 41 17 39 19 37 21 35 23 33 25 14 39 24 47 31 49
REMARK Flexibility Score: inf
ROOT
ATOM      1  C   UNL     1     -32.186  29.905 -18.270  1.00  0.00     0.180 C 
ATOM      2  C   UNL     1     -31.789  31.175 -17.451  1.00  0.00     0.177 C 
ATOM      3  C   UNL     1     -32.219  32.490 -18.132  1.00  0.00     0.180 C 
ATOM      4  C   UNL     1     -33.586  32.416 -18.854  1.00  0.00     0.214 C 
ATOM      5  C   UNL     1     -33.889  31.004 -19.437  1.00  0.00     0.339 C 
ATOM      6  O   UNL     1     -32.704  30.233 -19.551  1.00  0.00    -0.332 OA
ENDROOT
BRANCH   1   7
ATOM      7  C   UNL     1     -31.052  28.866 -18.428  1.00  0.00     0.198 C 
BRANCH   7   8
ATOM      8  O   UNL     1     -30.222  28.717 -17.286  1.00  0.00    -0.347 OA
BRANCH   8   9
ATOM      9  C   UNL     1     -30.391  27.463 -16.640  1.00  0.00     0.281 C 
ATOM     10  C   UNL     1     -27.977  24.685 -16.430  1.00  0.00     0.041 C 
ATOM     11  C   UNL     1     -29.284  25.452 -16.167  1.00  0.00     0.150 C 
ATOM     12  C   UNL     1     -29.555  25.563 -14.645  1.00  0.00     0.174 C 
ATOM     13  O   UNL     1     -29.169  26.743 -16.742  1.00  0.00    -0.344 OA
ATOM     14  C   UNL     1     -30.802  26.421 -14.400  1.00  0.00     0.179 C 
ATOM     15  C   UNL     1     -30.685  27.746 -15.166  1.00  0.00     0.202 C 
BRANCH  12  16
ATOM     16  O   UNL     1     -29.772  24.284 -14.099  1.00  0.00    -0.388 OA
ATOM     17  H   UNL     1     -28.912  23.950 -13.738  1.00  0.00     0.211 HD
ENDBRANCH  12  16
BRANCH  14  18
ATOM     18  O   UNL     1     -30.924  26.677 -13.023  1.00  0.00    -0.387 OA
ATOM     19  H   UNL     1     -31.842  26.411 -12.765  1.00  0.00     0.211 HD
ENDBRANCH  14  18
BRANCH  15  20
ATOM     20  O   UNL     1     -31.875  28.474 -15.038  1.00  0.00    -0.385 OA
ATOM     21  H   UNL     1     -31.809  28.985 -14.188  1.00  0.00     0.211 HD
ENDBRANCH  15  20
ENDBRANCH   8   9
ENDBRANCH   7   8
ENDBRANCH   1   7
BRANCH   2  22
ATOM     22  O   UNL     1     -32.334  31.113 -16.158  1.00  0.00    -0.387 OA
ATOM     23  H   UNL     1     -31.558  31.140 -15.537  1.00  0.00     0.211 HD
ENDBRANCH   2  22
BRANCH   3  24
ATOM     24  O   UNL     1     -32.218  33.556 -17.217  1.00  0.00    -0.387 OA
ATOM     25  H   UNL     1     -31.902  34.364 -17.703  1.00  0.00     0.211 HD
ENDBRANCH   3  24
BRANCH   5  26
ATOM     26  O   UNL     1     -34.898  30.292 -18.687  1.00  0.00    -0.462 OA
BRANCH  26  27
ATOM     27  C   UNL     1     -35.844  29.463 -19.300  1.00  0.00     0.130 A 
ATOM     28  C   UNL     1     -35.465  28.254 -19.886  1.00  0.00     0.093 A 
ATOM     29  C   UNL     1     -37.166  29.872 -19.363  1.00  0.00     0.094 A 
ATOM     30  C   UNL     1     -36.395  27.487 -20.606  1.00  0.00     0.133 A 
ATOM     31  C   UNL     1     -38.063  29.221 -20.199  1.00  0.00     0.138 A 
ATOM     32  C   UNL     1     -37.707  28.004 -20.831  1.00  0.00     0.102 A 
ATOM     33  O   UNL     1     -39.299  29.817 -20.475  1.00  0.00    -0.484 OA
ATOM     34  C   UNL     1     -38.749  27.385 -21.717  1.00  0.00     0.174 C 
ATOM     35  C   UNL     1     -39.998  29.526 -21.684  1.00  0.00     0.211 C 
ATOM     36  O   UNL     1     -38.506  26.370 -22.412  1.00  0.00    -0.294 OA
ATOM     37  C   UNL     1     -40.127  28.000 -21.821  1.00  0.00     0.131 C 
BRANCH  30  38
ATOM     38  O   UNL     1     -35.960  26.241 -21.061  1.00  0.00    -0.507 OA
ATOM     39  H   UNL     1     -36.504  25.394 -21.039  1.00  0.00     0.293 HD
ENDBRANCH  30  38
BRANCH  35  40
ATOM     40  C   UNL     1     -41.293  30.313 -21.723  1.00  0.00    -0.007 A 
ATOM     41  C   UNL     1     -42.054  30.254 -22.906  1.00  0.00     0.011 A 
ATOM     42  C   UNL     1     -41.780  31.069 -20.640  1.00  0.00     0.011 A 
ATOM     43  C   UNL     1     -43.268  30.930 -23.007  1.00  0.00     0.046 A 
ATOM     44  C   UNL     1     -43.005  31.734 -20.741  1.00  0.00     0.046 A 
ATOM     45  C   UNL     1     -43.752  31.660 -21.922  1.00  0.00     0.115 A 
BRANCH  45  46
ATOM     46  O   UNL     1     -44.971  32.328 -22.004  1.00  0.00    -0.508 OA
ATOM     47  H   UNL     1     -45.200  33.086 -21.370  1.00  0.00     0.293 HD
ENDBRANCH  45  46
ENDBRANCH  35  40
ENDBRANCH  26  27
ENDBRANCH   5  26
BRANCH   4  48
ATOM     48  O   UNL     1     -34.595  32.834 -17.967  1.00  0.00    -0.384 OA
ATOM     49  H   UNL     1     -35.432  32.380 -18.251  1.00  0.00     0.211 HD
ENDBRANCH   4  48
TORSDOF 14
ENDMDL
MODEL 2
REMARK VINA RESULT:    91.343     11.376     15.716
REMARK INTER + INTRA:         143.126
REMARK INTER:                 144.447
REMARK INTRA:                  -1.321
REMARK UNBOUND:                -1.616
REMARK SMILES C[C@@H]1O[C@H](OC[C@@H]2O[C@@H](Oc3cc(O)c4c(c3)O[C@H](c3ccc(O)cc3)CC4=O)[C@@H](O)[C@@H](O)[C@H]2O)[C@@H](O)[C@H](O)[C@H]1O
REMARK SMILES IDX 7 1 34 2 32 3 30 4 9 5 8 6 6 7 5 8 4 9 1 10 2 11 40 12 3 13
REMARK SMILES IDX 38 14 36 15 41 16 39 18 37 20 35 22 33 24 10 26 11 27 12 28
REMARK SMILES IDX 17 29 13 30 16 31 15 32 18 33 28 34 19 35 29 36 27 37 14 38
REMARK SMILES IDX 20 40 21 41 26 42 22 43 25 44 23 45 24 46 31 48
REMARK H PARENT 41 17 39 19 37 21 35 23 33 25 14 39 24 47 31 49
REMARK Flexibility Score: inf
ROOT
ATOM      1  C   UNL     1     -43.680  25.528  -9.842  1.00  0.00     0.180 C 
ATOM      2  C   UNL     1     -45.195  25.797  -9.570  1.00  0.00     0.177 C 
ATOM      3  C   UNL     1     -45.592  25.573  -8.098  1.00  0.00     0.180 C 
ATOM      4  C   UNL     1     -44.519  26.014  -7.073  1.00  0.00     0.214 C 
ATOM      5  C   UNL     1     -43.066  25.851  -7.609  1.00  0.00     0.339 C 
ATOM      6  O   UNL     1     -43.024  24.965  -8.716  1.00  0.00    -0.332 OA
ENDROOT
BRANCH   1   7
ATOM      7  C   UNL     1     -43.400  24.653 -11.086  1.00  0.00     0.198 C 
BRANCH   7   8
ATOM      8  O   UNL     1     -42.158  23.967 -11.060  1.00  0.00    -0.347 OA
BRANCH   8   9
ATOM      9  C   UNL     1     -41.684  23.631 -12.357  1.00  0.00     0.281 C 
ATOM     10  C   UNL     1     -43.631  23.363 -15.476  1.00  0.00     0.041 C 
ATOM     11  C   UNL     1     -42.382  23.355 -14.577  1.00  0.00     0.150 C 
ATOM     12  C   UNL     1     -41.310  24.332 -15.124  1.00  0.00     0.174 C 
ATOM     13  O   UNL     1     -42.772  23.735 -13.267  1.00  0.00    -0.344 OA
ATOM     14  C   UNL     1     -40.120  24.390 -14.159  1.00  0.00     0.179 C 
ATOM     15  C   UNL     1     -40.615  24.659 -12.732  1.00  0.00     0.202 C 
BRANCH  12  16
ATOM     16  O   UNL     1     -40.852  23.890 -16.379  1.00  0.00    -0.388 OA
ATOM     17  H   UNL     1     -40.771  22.903 -16.351  1.00  0.00     0.211 HD
ENDBRANCH  12  16
BRANCH  14  18
ATOM     18  O   UNL     1     -39.248  25.417 -14.561  1.00  0.00    -0.387 OA
ATOM     19  H   UNL     1     -38.421  25.313 -14.028  1.00  0.00     0.211 HD
ENDBRANCH  14  18
BRANCH  15  20
ATOM     20  O   UNL     1     -39.540  24.592 -11.836  1.00  0.00    -0.385 OA
ATOM     21  H   UNL     1     -39.382  25.517 -11.507  1.00  0.00     0.211 HD
ENDBRANCH  15  20
ENDBRANCH   8   9
ENDBRANCH   7   8
ENDBRANCH   1   7
BRANCH   2  22
ATOM     22  O   UNL     1     -45.536  27.105  -9.957  1.00  0.00    -0.387 OA
ATOM     23  H   UNL     1     -44.902  27.343 -10.685  1.00  0.00     0.211 HD
ENDBRANCH   2  22
BRANCH   3  24
ATOM     24  O   UNL     1     -46.817  26.194  -7.805  1.00  0.00    -0.387 OA
ATOM     25  H   UNL     1     -46.755  27.136  -8.118  1.00  0.00     0.211 HD
ENDBRANCH   3  24
BRANCH   5  26
ATOM     26  O   UNL     1     -42.444  27.115  -7.936  1.00  0.00    -0.462 OA
BRANCH  26  27
ATOM     27  C   UNL     1     -41.439  27.684  -7.145  1.00  0.00     0.130 A 
ATOM     28  C   UNL     1     -41.409  29.057  -6.902  1.00  0.00     0.093 A 
ATOM     29  C   UNL     1     -40.438  26.873  -6.634  1.00  0.00     0.094 A 
ATOM     30  C   UNL     1     -40.333  29.637  -6.212  1.00  0.00     0.133 A 
ATOM     31  C   UNL     1     -39.289  27.435  -6.093  1.00  0.00     0.138 A 
ATOM     32  C   UNL     1     -39.211  28.828  -5.854  1.00  0.00     0.102 A 
ATOM     33  O   UNL     1     -38.175  26.620  -5.855  1.00  0.00    -0.484 OA
ATOM     34  C   UNL     1     -37.923  29.332  -5.271  1.00  0.00     0.174 C 
ATOM     35  C   UNL     1     -36.859  27.168  -5.844  1.00  0.00     0.211 C 
ATOM     36  O   UNL     1     -37.700  30.557  -5.122  1.00  0.00    -0.294 OA
ATOM     37  C   UNL     1     -36.832  28.362  -4.875  1.00  0.00     0.131 C 
BRANCH  30  38
ATOM     38  O   UNL     1     -40.438  30.998  -5.916  1.00  0.00    -0.507 OA
ATOM     39  H   UNL     1     -40.798  31.377  -5.057  1.00  0.00     0.293 HD
ENDBRANCH  30  38
BRANCH  35  40
ATOM     40  C   UNL     1     -35.853  26.065  -5.574  1.00  0.00    -0.007 A 
ATOM     41  C   UNL     1     -36.354  24.820  -5.146  1.00  0.00     0.011 A 
ATOM     42  C   UNL     1     -34.465  26.213  -5.754  1.00  0.00     0.011 A 
ATOM     43  C   UNL     1     -35.493  23.752  -4.904  1.00  0.00     0.046 A 
ATOM     44  C   UNL     1     -33.607  25.134  -5.524  1.00  0.00     0.046 A 
ATOM     45  C   UNL     1     -34.121  23.902  -5.104  1.00  0.00     0.115 A 
BRANCH  45  46
ATOM     46  O   UNL     1     -33.253  22.838  -4.881  1.00  0.00    -0.508 OA
ATOM     47  H   UNL     1     -32.252  22.983  -4.799  1.00  0.00     0.293 HD
ENDBRANCH  45  46
ENDBRANCH  35  40
ENDBRANCH  26  27
ENDBRANCH   5  26
BRANCH   4  48
ATOM     48  O   UNL     1     -44.778  27.340  -6.683  1.00  0.00    -0.384 OA
ATOM     49  H   UNL     1     -45.001  27.845  -7.510  1.00  0.00     0.211 HD
ENDBRANCH   4  48
TORSDOF 14
ENDMDL
