MODEL 1
REMARK VINA RESULT:    -2.268      0.000      0.000
REMARK INTER + INTRA:          -2.762
REMARK INTER:                  -2.467
REMARK INTRA:                  -0.295
REMARK UNBOUND:                -0.295
REMARK SMILES C=C1C[C@@]2(O)O[C@@]3(C[C@H]2C(C)C)[C@H](C)CC[C@@H]13
REMARK SMILES IDX 14 1 13 2 15 3 16 4 17 5 7 6 8 7 9 8 4 9 6 10 3 11 2 12 1 13
REMARK SMILES IDX 10 14 11 15 12 16 5 17
REMARK H PARENT 5 18
REMARK Flexibility Score: inf
ROOT
ATOM      1  C   UNL     1     -17.090  -8.392  -6.063  1.00  0.00     0.011 C 
ATOM      2  C   UNL     1     -18.155  -7.805  -5.114  1.00  0.00     0.019 C 
ATOM      3  C   UNL     1     -18.625  -6.435  -5.627  1.00  0.00     0.007 C 
ATOM      4  C   UNL     1     -17.826  -5.372  -4.864  1.00  0.00     0.011 C 
ATOM      5  C   UNL     1     -16.974  -6.117  -3.828  1.00  0.00     0.047 C 
ATOM      6  C   UNL     1     -17.632  -7.503  -3.699  1.00  0.00     0.081 C 
ATOM      7  C   UNL     1     -16.688  -8.547  -3.087  1.00  0.00     0.046 C 
ATOM      8  C   UNL     1     -17.045  -8.528  -1.601  1.00  0.00     0.054 C 
ATOM      9  C   UNL     1     -18.128  -7.412  -1.531  1.00  0.00     0.173 C 
ATOM     10  O   UNL     1     -18.721  -7.401  -2.808  1.00  0.00    -0.342 OA
ATOM     11  C   UNL     1     -17.593  -5.970  -1.271  1.00  0.00     0.096 C 
ATOM     12  C   UNL     1     -16.906  -5.393  -2.493  1.00  0.00    -0.066 C 
ATOM     13  C   UNL     1     -16.251  -4.228  -2.396  1.00  0.00     0.008 C 
ENDROOT
BRANCH   8  14
ATOM     14  C   UNL     1     -15.799  -8.425  -0.660  1.00  0.00    -0.009 C 
ATOM     15  C   UNL     1     -14.577  -9.125  -1.291  1.00  0.00     0.008 C 
ATOM     16  C   UNL     1     -16.056  -9.071   0.714  1.00  0.00     0.008 C 
ENDBRANCH   8  14
BRANCH   9  17
ATOM     17  O   UNL     1     -19.124  -7.750  -0.598  1.00  0.00    -0.365 OA
ATOM     18  H   UNL     1     -19.860  -8.205  -1.081  1.00  0.00     0.214 HD
ENDBRANCH   9  17
TORSDOF 2
ENDMDL
MODEL 2
REMARK VINA RESULT:     0.228      2.415      4.051
REMARK INTER + INTRA:          -0.048
REMARK INTER:                  -1.344
REMARK INTRA:                   1.296
REMARK UNBOUND:                -0.295
REMARK SMILES C=C1C[C@@]2(O)O[C@@]3(C[C@H]2C(C)C)[C@H](C)CC[C@@H]13
REMARK SMILES IDX 14 1 13 2 15 3 16 4 17 5 7 6 8 7 9 8 4 9 6 10 3 11 2 12 1 13
REMARK SMILES IDX 10 14 11 15 12 16 5 17
REMARK H PARENT 5 18
REMARK Flexibility Score: inf
ROOT
ATOM      1  C   UNL     1     -14.104  -3.864  -5.677  1.00  0.00     0.011 C 
ATOM      2  C   UNL     1     -15.646  -3.870  -5.626  1.00  0.00     0.019 C 
ATOM      3  C   UNL     1     -16.144  -2.918  -4.529  1.00  0.00     0.007 C 
ATOM      4  C   UNL     1     -16.421  -3.771  -3.286  1.00  0.00     0.011 C 
ATOM      5  C   UNL     1     -16.194  -5.233  -3.692  1.00  0.00     0.047 C 
ATOM      6  C   UNL     1     -16.252  -5.228  -5.231  1.00  0.00     0.081 C 
ATOM      7  C   UNL     1     -15.594  -6.470  -5.847  1.00  0.00     0.046 C 
ATOM      8  C   UNL     1     -16.767  -7.427  -6.066  1.00  0.00     0.054 C 
ATOM      9  C   UNL     1     -17.966  -6.625  -5.482  1.00  0.00     0.173 C 
ATOM     10  O   UNL     1     -17.605  -5.273  -5.628  1.00  0.00    -0.342 OA
ATOM     11  C   UNL     1     -18.255  -6.853  -3.966  1.00  0.00     0.096 C 
ATOM     12  C   UNL     1     -17.221  -6.177  -3.088  1.00  0.00    -0.066 C 
ATOM     13  C   UNL     1     -17.226  -6.403  -1.766  1.00  0.00     0.008 C 
ENDROOT
BRANCH   8  14
ATOM     14  C   UNL     1     -16.500  -8.874  -5.534  1.00  0.00    -0.009 C 
ATOM     15  C   UNL     1     -17.269  -9.124  -4.220  1.00  0.00     0.008 C 
ATOM     16  C   UNL     1     -15.005  -9.124  -5.261  1.00  0.00     0.008 C 
ENDBRANCH   8  14
BRANCH   9  17
ATOM     17  O   UNL     1     -19.125  -6.844  -6.249  1.00  0.00    -0.365 OA
ATOM     18  H   UNL     1     -19.505  -5.964  -6.496  1.00  0.00     0.214 HD
ENDBRANCH   9  17
TORSDOF 2
ENDMDL
MODEL 3
REMARK VINA RESULT:     0.284      9.901     11.122
REMARK INTER + INTRA:           0.013
REMARK INTER:                   0.326
REMARK INTRA:                  -0.313
REMARK UNBOUND:                -0.295
REMARK SMILES C=C1C[C@@]2(O)O[C@@]3(C[C@H]2C(C)C)[C@H](C)CC[C@@H]13
REMARK SMILES IDX 14 1 13 2 15 3 16 4 17 5 7 6 8 7 9 8 4 9 6 10 3 11 2 12 1 13
REMARK SMILES IDX 10 14 11 15 12 16 5 17
REMARK H PARENT 5 18
REMARK Flexibility Score: inf
ROOT
ATOM      1  C   UNL     1      -8.185  -7.066 -11.174  1.00  0.00     0.011 C 
ATOM      2  C   UNL     1      -7.415  -5.994 -10.377  1.00  0.00     0.019 C 
ATOM      3  C   UNL     1      -5.921  -6.345 -10.321  1.00  0.00     0.007 C 
ATOM      4  C   UNL     1      -5.676  -7.054  -8.984  1.00  0.00     0.011 C 
ATOM      5  C   UNL     1      -7.001  -7.013  -8.211  1.00  0.00     0.047 C 
ATOM      6  C   UNL     1      -7.822  -5.904  -8.896  1.00  0.00     0.081 C 
ATOM      7  C   UNL     1      -9.323  -6.016  -8.597  1.00  0.00     0.046 C 
ATOM      8  C   UNL     1      -9.525  -5.072  -7.411  1.00  0.00     0.054 C 
ATOM      9  C   UNL     1      -8.078  -4.572  -7.132  1.00  0.00     0.173 C 
ATOM     10  O   UNL     1      -7.418  -4.659  -8.371  1.00  0.00    -0.342 OA
ATOM     11  C   UNL     1      -7.252  -5.427  -6.122  1.00  0.00     0.096 C 
ATOM     12  C   UNL     1      -6.809  -6.744  -6.728  1.00  0.00    -0.066 C 
ATOM     13  C   UNL     1      -6.226  -7.668  -5.951  1.00  0.00     0.008 C 
ENDROOT
BRANCH   8  14
ATOM     14  C   UNL     1     -10.339  -5.710  -6.236  1.00  0.00    -0.009 C 
ATOM     15  C   UNL     1     -11.262  -6.832  -6.756  1.00  0.00     0.008 C 
ATOM     16  C   UNL     1     -11.219  -4.673  -5.512  1.00  0.00     0.008 C 
ENDBRANCH   8  14
BRANCH   9  17
ATOM     17  O   UNL     1      -8.090  -3.220  -6.746  1.00  0.00    -0.365 OA
ATOM     18  H   UNL     1      -8.144  -2.663  -7.564  1.00  0.00     0.214 HD
ENDBRANCH   9  17
TORSDOF 2
ENDMDL
MODEL 4
REMARK VINA RESULT:     0.353      1.788      4.743
REMARK INTER + INTRA:           0.089
REMARK INTER:                  -1.325
REMARK INTRA:                   1.414
REMARK UNBOUND:                -0.295
REMARK SMILES C=C1C[C@@]2(O)O[C@@]3(C[C@H]2C(C)C)[C@H](C)CC[C@@H]13
REMARK SMILES IDX 14 1 13 2 15 3 16 4 17 5 7 6 8 7 9 8 4 9 6 10 3 11 2 12 1 13
REMARK SMILES IDX 10 14 11 15 12 16 5 17
REMARK H PARENT 5 18
REMARK Flexibility Score: inf
ROOT
ATOM      1  C   UNL     1     -17.572  -7.533  -0.730  1.00  0.00     0.011 C 
ATOM      2  C   UNL     1     -18.556  -7.343  -1.902  1.00  0.00     0.019 C 
ATOM      3  C   UNL     1     -19.085  -8.705  -2.377  1.00  0.00     0.007 C 
ATOM      4  C   UNL     1     -18.234  -9.122  -3.581  1.00  0.00     0.011 C 
ATOM      5  C   UNL     1     -17.285  -7.954  -3.880  1.00  0.00     0.047 C 
ATOM      6  C   UNL     1     -17.914  -6.743  -3.165  1.00  0.00     0.081 C 
ATOM      7  C   UNL     1     -16.907  -5.607  -2.940  1.00  0.00     0.046 C 
ATOM      8  C   UNL     1     -17.132  -4.685  -4.139  1.00  0.00     0.054 C 
ATOM      9  C   UNL     1     -18.217  -5.451  -4.951  1.00  0.00     0.173 C 
ATOM     10  O   UNL     1     -18.921  -6.206  -3.995  1.00  0.00    -0.342 OA
ATOM     11  C   UNL     1     -17.678  -6.458  -6.013  1.00  0.00     0.096 C 
ATOM     12  C   UNL     1     -17.108  -7.706  -5.369  1.00  0.00    -0.066 C 
ATOM     13  C   UNL     1     -16.460  -8.604  -6.124  1.00  0.00     0.008 C 
ENDROOT
BRANCH   8  14
ATOM     14  C   UNL     1     -15.809  -4.266  -4.862  1.00  0.00    -0.009 C 
ATOM     15  C   UNL     1     -15.944  -2.859  -5.480  1.00  0.00     0.008 C 
ATOM     16  C   UNL     1     -15.433  -5.243  -5.992  1.00  0.00     0.008 C 
ENDBRANCH   8  14
BRANCH   9  17
ATOM     17  O   UNL     1     -19.124  -4.548  -5.535  1.00  0.00    -0.365 OA
ATOM     18  H   UNL     1     -19.013  -4.588  -6.519  1.00  0.00     0.214 HD
ENDBRANCH   9  17
TORSDOF 2
ENDMDL
MODEL 5
REMARK VINA RESULT:     0.610      2.485      4.182
REMARK INTER + INTRA:           0.368
REMARK INTER:                   0.330
REMARK INTRA:                   0.038
REMARK UNBOUND:                -0.295
REMARK SMILES C=C1C[C@@]2(O)O[C@@]3(C[C@H]2C(C)C)[C@H](C)CC[C@@H]13
REMARK SMILES IDX 14 1 13 2 15 3 16 4 17 5 7 6 8 7 9 8 4 9 6 10 3 11 2 12 1 13
REMARK SMILES IDX 10 14 11 15 12 16 5 17
REMARK H PARENT 5 18
REMARK Flexibility Score: inf
ROOT
ATOM      1  C   UNL     1     -18.798  -9.124  -2.761  1.00  0.00     0.011 C 
ATOM      2  C   UNL     1     -19.052  -8.266  -4.018  1.00  0.00     0.019 C 
ATOM      3  C   UNL     1     -18.914  -9.125  -5.284  1.00  0.00     0.007 C 
ATOM      4  C   UNL     1     -17.494  -8.910  -5.819  1.00  0.00     0.011 C 
ATOM      5  C   UNL     1     -16.843  -7.840  -4.933  1.00  0.00     0.047 C 
ATOM      6  C   UNL     1     -18.021  -7.143  -4.227  1.00  0.00     0.081 C 
ATOM      7  C   UNL     1     -17.584  -6.381  -2.968  1.00  0.00     0.046 C 
ATOM      8  C   UNL     1     -17.377  -4.951  -3.468  1.00  0.00     0.054 C 
ATOM      9  C   UNL     1     -17.668  -5.083  -4.991  1.00  0.00     0.173 C 
ATOM     10  O   UNL     1     -18.555  -6.171  -5.099  1.00  0.00    -0.342 OA
ATOM     11  C   UNL     1     -16.435  -5.418  -5.886  1.00  0.00     0.096 C 
ATOM     12  C   UNL     1     -15.994  -6.858  -5.723  1.00  0.00    -0.066 C 
ATOM     13  C   UNL     1     -14.855  -7.271  -6.297  1.00  0.00     0.008 C 
ENDROOT
BRANCH   8  14
ATOM     14  C   UNL     1     -16.019  -4.321  -3.015  1.00  0.00    -0.009 C 
ATOM     15  C   UNL     1     -16.017  -4.058  -1.495  1.00  0.00     0.008 C 
ATOM     16  C   UNL     1     -15.735  -2.983  -3.725  1.00  0.00     0.008 C 
ENDBRANCH   8  14
BRANCH   9  17
ATOM     17  O   UNL     1     -18.334  -3.939  -5.467  1.00  0.00    -0.365 OA
ATOM     18  H   UNL     1     -17.668  -3.215  -5.577  1.00  0.00     0.214 HD
ENDBRANCH   9  17
TORSDOF 2
ENDMDL
