MODEL 1
REMARK VINA RESULT:    23.555      0.000      0.000
REMARK INTER + INTRA:          28.521
REMARK INTER:                  29.064
REMARK INTRA:                  -0.542
REMARK UNBOUND:                -0.542
REMARK SMILES CC(C)=CCC[C@@H](C)c1ccc(C)cc1
REMARK SMILES IDX 6 1 7 2 8 3 9 4 13 5 12 6 11 7 14 8 10 9 15 10 5 11 4 12
REMARK SMILES IDX 2 13 1 14 3 15
REMARK H PARENT
REMARK Flexibility Score: inf
ROOT
ATOM      1  C   UNL     1      94.933 119.636 110.262  1.00  0.00     0.012 C 
ENDROOT
BRANCH   1   2
ATOM      2  C   UNL     1      94.162 118.346 110.616  1.00  0.00     0.016 C 
ATOM      3  C   UNL     1      94.760 117.137 109.884  1.00  0.00     0.013 C 
BRANCH   2   4
ATOM      4  C   UNL     1      94.125 118.098 112.115  1.00  0.00    -0.045 A 
ATOM      5  C   UNL     1      93.990 117.473 116.387  1.00  0.00     0.044 C 
ATOM      6  C   UNL     1      94.030 117.660 114.898  1.00  0.00    -0.051 A 
ATOM      7  C   UNL     1      92.876 118.054 114.204  1.00  0.00     0.004 A 
ATOM      8  C   UNL     1      95.237 117.512 114.200  1.00  0.00     0.004 A 
ATOM      9  C   UNL     1      92.922 118.265 112.824  1.00  0.00     0.004 A 
ATOM     10  C   UNL     1      95.284 117.723 112.820  1.00  0.00     0.004 A 
ENDBRANCH   2   4
ENDBRANCH   1   2
BRANCH   1  11
ATOM     11  C   UNL     1      94.551 120.808 111.179  1.00  0.00     0.028 C 
BRANCH  11  12
ATOM     12  C   UNL     1      95.671 121.816 111.251  1.00  0.00    -0.028 C 
ATOM     13  C   UNL     1      95.584 123.012 111.873  1.00  0.00    -0.080 C 
ATOM     14  C   UNL     1      96.774 123.935 111.827  1.00  0.00     0.039 C 
ATOM     15  C   UNL     1      94.341 123.438 112.620  1.00  0.00     0.039 C 
ENDBRANCH  11  12
ENDBRANCH   1  11
TORSDOF 4
ENDMDL
MODEL 2
REMARK VINA RESULT:    24.282      2.729      4.967
REMARK INTER + INTRA:          29.418
REMARK INTER:                  26.893
REMARK INTRA:                   2.525
REMARK UNBOUND:                -0.542
REMARK SMILES CC(C)=CCC[C@@H](C)c1ccc(C)cc1
REMARK SMILES IDX 6 1 7 2 8 3 9 4 13 5 12 6 11 7 14 8 10 9 15 10 5 11 4 12
REMARK SMILES IDX 2 13 1 14 3 15
REMARK H PARENT
REMARK Flexibility Score: inf
ROOT
ATOM      1  C   UNL     1      93.505 118.272 114.096  1.00  0.00     0.012 C 
ENDROOT
BRANCH   1   2
ATOM      2  C   UNL     1      94.948 117.732 113.982  1.00  0.00     0.016 C 
ATOM      3  C   UNL     1      95.402 117.700 112.517  1.00  0.00     0.013 C 
BRANCH   2   4
ATOM      4  C   UNL     1      95.924 118.532 114.827  1.00  0.00    -0.045 A 
ATOM      5  C   UNL     1      98.707 120.741 117.283  1.00  0.00     0.044 C 
ATOM      6  C   UNL     1      97.751 119.988 116.405  1.00  0.00    -0.051 A 
ATOM      7  C   UNL     1      98.112 118.741 115.874  1.00  0.00     0.004 A 
ATOM      8  C   UNL     1      96.464 120.492 116.166  1.00  0.00     0.004 A 
ATOM      9  C   UNL     1      97.209 118.023 115.087  1.00  0.00     0.004 A 
ATOM     10  C   UNL     1      95.560 119.774 115.380  1.00  0.00     0.004 A 
ENDBRANCH   2   4
ENDBRANCH   1   2
BRANCH   1  11
ATOM     11  C   UNL     1      92.879 118.541 112.719  1.00  0.00     0.028 C 
BRANCH  11  12
ATOM     12  C   UNL     1      92.954 117.311 111.850  1.00  0.00    -0.028 C 
ATOM     13  C   UNL     1      93.580 117.257 110.653  1.00  0.00    -0.080 C 
ATOM     14  C   UNL     1      93.537 115.967 109.876  1.00  0.00     0.039 C 
ATOM     15  C   UNL     1      94.327 118.442 110.087  1.00  0.00     0.039 C 
ENDBRANCH  11  12
ENDBRANCH   1  11
TORSDOF 4
ENDMDL
MODEL 3
REMARK VINA RESULT:    24.529      2.699      4.779
REMARK INTER + INTRA:          29.722
REMARK INTER:                  27.274
REMARK INTRA:                   2.448
REMARK UNBOUND:                -0.542
REMARK SMILES CC(C)=CCC[C@@H](C)c1ccc(C)cc1
REMARK SMILES IDX 6 1 7 2 8 3 9 4 13 5 12 6 11 7 14 8 10 9 15 10 5 11 4 12
REMARK SMILES IDX 2 13 1 14 3 15
REMARK H PARENT
REMARK Flexibility Score: inf
ROOT
ATOM      1  C   UNL     1      93.442 118.473 114.102  1.00  0.00     0.012 C 
ENDROOT
BRANCH   1   2
ATOM      2  C   UNL     1      94.812 117.759 114.121  1.00  0.00     0.016 C 
ATOM      3  C   UNL     1      95.308 117.497 112.693  1.00  0.00     0.013 C 
BRANCH   2   4
ATOM      4  C   UNL     1      95.848 118.537 114.913  1.00  0.00    -0.045 A 
ATOM      5  C   UNL     1      98.787 120.815 117.112  1.00  0.00     0.044 C 
ATOM      6  C   UNL     1      97.757 120.010 116.375  1.00  0.00    -0.051 A 
ATOM      7  C   UNL     1      96.470 120.528 116.168  1.00  0.00     0.004 A 
ATOM      8  C   UNL     1      98.094 118.765 115.826  1.00  0.00     0.004 A 
ATOM      9  C   UNL     1      95.523 119.796 115.449  1.00  0.00     0.004 A 
ATOM     10  C   UNL     1      97.148 118.031 115.106  1.00  0.00     0.004 A 
ENDBRANCH   2   4
ENDBRANCH   1   2
BRANCH   1  11
ATOM     11  C   UNL     1      92.950 118.740 112.671  1.00  0.00     0.028 C 
BRANCH  11  12
ATOM     12  C   UNL     1      93.059 117.493 111.829  1.00  0.00    -0.028 C 
ATOM     13  C   UNL     1      93.667 117.437 110.623  1.00  0.00    -0.080 C 
ATOM     14  C   UNL     1      93.662 116.128 109.876  1.00  0.00     0.039 C 
ATOM     15  C   UNL     1      94.357 118.636 110.017  1.00  0.00     0.039 C 
ENDBRANCH  11  12
ENDBRANCH   1  11
TORSDOF 4
ENDMDL
MODEL 4
REMARK VINA RESULT:    24.980      2.498      4.104
REMARK INTER + INTRA:          30.279
REMARK INTER:                  29.571
REMARK INTRA:                   0.708
REMARK UNBOUND:                -0.542
REMARK SMILES CC(C)=CCC[C@@H](C)c1ccc(C)cc1
REMARK SMILES IDX 6 1 7 2 8 3 9 4 13 5 12 6 11 7 14 8 10 9 15 10 5 11 4 12
REMARK SMILES IDX 2 13 1 14 3 15
REMARK H PARENT
REMARK Flexibility Score: inf
ROOT
ATOM      1  C   UNL     1      92.876 119.008 112.969  1.00  0.00     0.012 C 
ENDROOT
BRANCH   1   2
ATOM      2  C   UNL     1      93.603 117.846 113.681  1.00  0.00     0.016 C 
ATOM      3  C   UNL     1      93.860 116.688 112.708  1.00  0.00     0.013 C 
BRANCH   2   4
ATOM      4  C   UNL     1      94.900 118.299 114.328  1.00  0.00    -0.045 A 
ATOM      5  C   UNL     1      98.576 119.532 116.233  1.00  0.00     0.044 C 
ATOM      6  C   UNL     1      97.312 119.108 115.543  1.00  0.00    -0.051 A 
ATOM      7  C   UNL     1      97.093 117.757 115.237  1.00  0.00     0.004 A 
ATOM      8  C   UNL     1      96.311 120.049 115.264  1.00  0.00     0.004 A 
ATOM      9  C   UNL     1      95.900 117.357 114.630  1.00  0.00     0.004 A 
ATOM     10  C   UNL     1      95.118 119.651 114.657  1.00  0.00     0.004 A 
ENDBRANCH   2   4
ENDBRANCH   1   2
BRANCH   1  11
ATOM     11  C   UNL     1      92.937 118.877 111.439  1.00  0.00     0.028 C 
BRANCH  11  12
ATOM     12  C   UNL     1      94.354 119.035 110.947  1.00  0.00    -0.028 C 
ATOM     13  C   UNL     1      95.039 118.086 110.272  1.00  0.00    -0.080 C 
ATOM     14  C   UNL     1      96.465 118.371 109.879  1.00  0.00     0.039 C 
ATOM     15  C   UNL     1      94.413 116.764 109.891  1.00  0.00     0.039 C 
ENDBRANCH  11  12
ENDBRANCH   1  11
TORSDOF 4
ENDMDL
MODEL 5
REMARK VINA RESULT:    25.096      0.462      1.322
REMARK INTER + INTRA:          30.422
REMARK INTER:                  31.013
REMARK INTRA:                  -0.591
REMARK UNBOUND:                -0.542
REMARK SMILES CC(C)=CCC[C@@H](C)c1ccc(C)cc1
REMARK SMILES IDX 6 1 7 2 8 3 9 4 13 5 12 6 11 7 14 8 10 9 15 10 5 11 4 12
REMARK SMILES IDX 2 13 1 14 3 15
REMARK H PARENT
REMARK Flexibility Score: inf
ROOT
ATOM      1  C   UNL     1      95.349 119.893 110.557  1.00  0.00     0.012 C 
ENDROOT
BRANCH   1   2
ATOM      2  C   UNL     1      94.300 118.785 110.799  1.00  0.00     0.016 C 
ATOM      3  C   UNL     1      94.607 117.550 109.941  1.00  0.00     0.013 C 
BRANCH   2   4
ATOM      4  C   UNL     1      94.201 118.406 112.266  1.00  0.00    -0.045 A 
ATOM      5  C   UNL     1      93.962 117.257 116.424  1.00  0.00     0.044 C 
ATOM      6  C   UNL     1      94.045 117.686 114.988  1.00  0.00    -0.051 A 
ATOM      7  C   UNL     1      95.293 117.818 114.361  1.00  0.00     0.004 A 
ATOM      8  C   UNL     1      92.875 117.890 114.243  1.00  0.00     0.004 A 
ATOM      9  C   UNL     1      95.370 118.180 113.014  1.00  0.00     0.004 A 
ATOM     10  C   UNL     1      92.951 118.253 112.896  1.00  0.00     0.004 A 
ENDBRANCH   2   4
ENDBRANCH   1   2
BRANCH   1  11
ATOM     11  C   UNL     1      94.921 121.237 111.166  1.00  0.00     0.028 C 
BRANCH  11  12
ATOM     12  C   UNL     1      96.108 122.156 111.318  1.00  0.00    -0.028 C 
ATOM     13  C   UNL     1      96.056 123.383 111.880  1.00  0.00    -0.080 C 
ATOM     14  C   UNL     1      97.318 124.207 111.925  1.00  0.00     0.039 C 
ATOM     15  C   UNL     1      94.783 123.941 112.472  1.00  0.00     0.039 C 
ENDBRANCH  11  12
ENDBRANCH   1  11
TORSDOF 4
ENDMDL
MODEL 6
REMARK VINA RESULT:    26.440      1.702      3.477
REMARK INTER + INTRA:          32.080
REMARK INTER:                  32.512
REMARK INTRA:                  -0.431
REMARK UNBOUND:                -0.542
REMARK SMILES CC(C)=CCC[C@@H](C)c1ccc(C)cc1
REMARK SMILES IDX 6 1 7 2 8 3 9 4 13 5 12 6 11 7 14 8 10 9 15 10 5 11 4 12
REMARK SMILES IDX 2 13 1 14 3 15
REMARK H PARENT
REMARK Flexibility Score: inf
ROOT
ATOM      1  C   UNL     1      95.221 121.548 111.448  1.00  0.00     0.012 C 
ENDROOT
BRANCH   1   2
ATOM      2  C   UNL     1      94.307 120.665 112.326  1.00  0.00     0.016 C 
ATOM      3  C   UNL     1      92.954 121.350 112.561  1.00  0.00     0.013 C 
BRANCH   2   4
ATOM      4  C   UNL     1      94.110 119.282 111.731  1.00  0.00    -0.045 A 
ATOM      5  C   UNL     1      93.509 115.381 109.975  1.00  0.00     0.044 C 
ATOM      6  C   UNL     1      93.745 116.726 110.597  1.00  0.00    -0.051 A 
ATOM      7  C   UNL     1      94.402 117.733 109.876  1.00  0.00     0.004 A 
ATOM      8  C   UNL     1      93.247 117.009 111.877  1.00  0.00     0.004 A 
ATOM      9  C   UNL     1      94.588 118.997 110.440  1.00  0.00     0.004 A 
ATOM     10  C   UNL     1      93.432 118.273 112.443  1.00  0.00     0.004 A 
ENDBRANCH   2   4
ENDBRANCH   1   2
BRANCH   1  11
ATOM     11  C   UNL     1      95.347 122.976 111.998  1.00  0.00     0.028 C 
BRANCH  11  12
ATOM     12  C   UNL     1      96.706 123.552 111.683  1.00  0.00    -0.028 C 
ATOM     13  C   UNL     1      97.121 124.781 112.059  1.00  0.00    -0.080 C 
ATOM     14  C   UNL     1      98.493 125.238 111.636  1.00  0.00     0.039 C 
ATOM     15  C   UNL     1      96.258 125.696 112.898  1.00  0.00     0.039 C 
ENDBRANCH  11  12
ENDBRANCH   1  11
TORSDOF 4
ENDMDL
