MODEL 1
REMARK VINA RESULT:    -3.820      0.000      0.000
REMARK INTER + INTRA:          -6.118
REMARK INTER:                  -5.829
REMARK INTRA:                  -0.289
REMARK UNBOUND:                -0.289
REMARK SMILES CC1=CCC[C@H](C)C(=O)C[C@@H](C(C)C)C(=O)C1
REMARK SMILES IDX 8 1 9 2 6 3 7 4 5 5 4 6 3 7 2 8 1 9 10 11 11 12 15 13 16 14
REMARK SMILES IDX 17 15 12 17 13 18 14 19
REMARK H PARENT
REMARK Flexibility Score: 70.00
ROOT
ATOM      1  C   UNL     1       5.744   3.704 108.352  1.00  0.00     0.136 C 
ATOM      2  O   UNL     1       5.543   4.030 109.514  1.00  0.00    -0.299 OA
ENDROOT
BRANCH   1   3
ATOM      3  C   UNL     1       6.129   2.273 108.032  1.00  0.00     0.053 C 
ATOM      4  C   UNL     1       7.334   1.838 108.880  1.00  0.00     0.016 C 
BRANCH   3   5
ATOM      5  C   UNL     1       4.926   1.330 108.257  1.00  0.00     0.015 C 
BRANCH   5   6
ATOM      6  C   UNL     1       4.226   0.956 106.935  1.00  0.00     0.028 C 
BRANCH   6   7
ATOM      7  C   UNL     1       5.203   0.919 105.788  1.00  0.00    -0.028 C 
ATOM      8  C   UNL     1       5.154   1.721 104.698  1.00  0.00    -0.070 CG0
ATOM      9  C   UNL     1       6.182   1.504 103.617  1.00  0.00     0.039 C 
ATOM     10  G   UNL     1       4.114   2.814 104.509  1.00  0.00     0.000 G0
ENDBRANCH   6   7
ENDBRANCH   5   6
ENDBRANCH   3   5
ENDBRANCH   1   3
BRANCH   1  11
ATOM     11  C   UNL     1       5.601   4.739 107.261  1.00  0.00     0.087 C 
BRANCH  11  12
ATOM     12  C   UNL     1       4.277   4.587 106.467  1.00  0.00     0.066 C 
BRANCH  12  13
ATOM     13  C   UNL     1       4.550   4.160 105.029  1.00  0.00     0.140 C 
ATOM     14  O   UNL     1       5.202   4.902 104.310  1.00  0.00    -0.299 OA
BRANCH  13  15
ATOM     15  C   UNL     1       4.102   2.818 104.493  1.00  0.00     0.106 CG0
ATOM     16  G   UNL     1       5.155   1.740 104.691  1.00  0.00     0.000 G0
ENDBRANCH  13  15
ENDBRANCH  12  13
BRANCH  12  17
ATOM     17  C   UNL     1       3.378   5.865 106.526  1.00  0.00    -0.006 C 
ATOM     18  C   UNL     1       1.912   5.524 106.199  1.00  0.00     0.008 C 
ATOM     19  C   UNL     1       3.430   6.555 107.900  1.00  0.00     0.008 C 
ENDBRANCH  12  17
ENDBRANCH  11  12
ENDBRANCH   1  11
TORSDOF 1
ENDMDL
MODEL 2
REMARK VINA RESULT:    -3.711      1.574      2.018
REMARK INTER + INTRA:          -5.952
REMARK INTER:                  -5.905
REMARK INTRA:                  -0.048
REMARK UNBOUND:                -0.289
REMARK SMILES CC1=CCC[C@H](C)C(=O)C[C@@H](C(C)C)C(=O)C1
REMARK SMILES IDX 8 1 9 2 6 3 7 4 5 5 4 6 3 7 2 8 1 9 10 11 11 12 15 13 16 14
REMARK SMILES IDX 17 15 12 17 13 18 14 19
REMARK H PARENT
REMARK Flexibility Score: 70.00
ROOT
ATOM      1  C   UNL     1       5.430   3.827 109.701  1.00  0.00     0.136 C 
ATOM      2  O   UNL     1       4.631   4.339 110.473  1.00  0.00    -0.299 OA
ENDROOT
BRANCH   1   3
ATOM      3  C   UNL     1       6.090   2.513 110.072  1.00  0.00     0.053 C 
ATOM      4  C   UNL     1       5.057   1.377 110.090  1.00  0.00     0.016 C 
BRANCH   3   5
ATOM      5  C   UNL     1       7.243   2.198 109.091  1.00  0.00     0.015 C 
BRANCH   5   6
ATOM      6  C   UNL     1       6.904   1.019 108.156  1.00  0.00     0.028 C 
BRANCH   6   7
ATOM      7  C   UNL     1       7.727   1.067 106.894  1.00  0.00    -0.028 C 
ATOM      8  C   UNL     1       7.303   1.562 105.707  1.00  0.00    -0.070 CG0
ATOM      9  C   UNL     1       8.242   1.473 104.531  1.00  0.00     0.039 C 
ATOM     10  G   UNL     1       5.933   2.187 105.502  1.00  0.00     0.000 G0
ENDBRANCH   6   7
ENDBRANCH   5   6
ENDBRANCH   3   5
ENDBRANCH   1   3
BRANCH   1  11
ATOM     11  C   UNL     1       5.739   4.518 108.394  1.00  0.00     0.087 C 
BRANCH  11  12
ATOM     12  C   UNL     1       4.923   3.938 107.209  1.00  0.00     0.066 C 
BRANCH  12  13
ATOM     13  C   UNL     1       5.834   3.599 106.035  1.00  0.00     0.140 C 
ATOM     14  O   UNL     1       6.545   4.477 105.570  1.00  0.00    -0.299 OA
BRANCH  13  15
ATOM     15  C   UNL     1       5.937   2.195 105.480  1.00  0.00     0.106 CG0
ATOM     16  G   UNL     1       7.307   1.582 105.719  1.00  0.00     0.000 G0
ENDBRANCH  13  15
ENDBRANCH  12  13
BRANCH  12  17
ATOM     17  C   UNL     1       3.741   4.863 106.770  1.00  0.00    -0.006 C 
ATOM     18  C   UNL     1       2.384   4.171 106.998  1.00  0.00     0.008 C 
ATOM     19  C   UNL     1       3.740   6.209 107.517  1.00  0.00     0.008 C 
ENDBRANCH  12  17
ENDBRANCH  11  12
ENDBRANCH   1  11
TORSDOF 1
ENDMDL
MODEL 3
REMARK VINA RESULT:    -3.685      1.726      4.076
REMARK INTER + INTRA:          -5.913
REMARK INTER:                  -5.868
REMARK INTRA:                  -0.045
REMARK UNBOUND:                -0.289
REMARK SMILES CC1=CCC[C@H](C)C(=O)C[C@@H](C(C)C)C(=O)C1
REMARK SMILES IDX 8 1 9 2 6 3 7 4 5 5 4 6 3 7 2 8 1 9 10 11 11 12 15 13 16 14
REMARK SMILES IDX 17 15 12 17 13 18 14 19
REMARK H PARENT
REMARK Flexibility Score: 70.00
ROOT
ATOM      1  C   UNL     1       3.774   4.420 107.985  1.00  0.00     0.136 C 
ATOM      2  O   UNL     1       4.427   4.764 108.961  1.00  0.00    -0.299 OA
ENDROOT
BRANCH   1   3
ATOM      3  C   UNL     1       2.707   5.346 107.435  1.00  0.00     0.053 C 
ATOM      4  C   UNL     1       3.098   6.814 107.663  1.00  0.00     0.016 C 
BRANCH   3   5
ATOM      5  C   UNL     1       2.474   5.063 105.934  1.00  0.00     0.015 C 
BRANCH   5   6
ATOM      6  C   UNL     1       3.502   5.785 105.039  1.00  0.00     0.028 C 
BRANCH   6   7
ATOM      7  C   UNL     1       3.873   4.946 103.843  1.00  0.00    -0.028 C 
ATOM      8  C   UNL     1       4.993   4.194 103.737  1.00  0.00    -0.070 CG0
ATOM      9  C   UNL     1       5.233   3.465 102.439  1.00  0.00     0.039 C 
ATOM     10  G   UNL     1       6.019   4.059 104.851  1.00  0.00     0.000 G0
ENDBRANCH   6   7
ENDBRANCH   5   6
ENDBRANCH   3   5
ENDBRANCH   1   3
BRANCH   1  11
ATOM     11  C   UNL     1       4.049   3.078 107.350  1.00  0.00     0.087 C 
BRANCH  11  12
ATOM     12  C   UNL     1       5.564   2.822 107.135  1.00  0.00     0.066 C 
BRANCH  12  13
ATOM     13  C   UNL     1       5.907   2.804 105.649  1.00  0.00     0.140 C 
ATOM     14  O   UNL     1       6.015   1.726 105.084  1.00  0.00    -0.299 OA
BRANCH  13  15
ATOM     15  C   UNL     1       6.045   4.077 104.844  1.00  0.00     0.106 CG0
ATOM     16  G   UNL     1       4.984   4.190 103.761  1.00  0.00     0.000 G0
ENDBRANCH  13  15
ENDBRANCH  12  13
BRANCH  12  17
ATOM     17  C   UNL     1       6.075   1.533 107.857  1.00  0.00    -0.006 C 
ATOM     18  C   UNL     1       7.343   1.829 108.681  1.00  0.00     0.008 C 
ATOM     19  C   UNL     1       5.013   0.922 108.788  1.00  0.00     0.008 C 
ENDBRANCH  12  17
ENDBRANCH  11  12
ENDBRANCH   1  11
TORSDOF 1
ENDMDL
MODEL 4
REMARK VINA RESULT:    -3.643      1.804      4.168
REMARK INTER + INTRA:          -5.848
REMARK INTER:                  -5.583
REMARK INTRA:                  -0.265
REMARK UNBOUND:                -0.289
REMARK SMILES CC1=CCC[C@H](C)C(=O)C[C@@H](C(C)C)C(=O)C1
REMARK SMILES IDX 8 1 9 2 6 3 7 4 5 5 4 6 3 7 2 8 1 9 10 11 11 12 15 13 16 14
REMARK SMILES IDX 17 15 12 17 13 18 14 19
REMARK H PARENT
REMARK Flexibility Score: 70.00
ROOT
ATOM      1  C   UNL     1       3.696   3.858 107.245  1.00  0.00     0.136 C 
ATOM      2  O   UNL     1       4.026   4.599 108.162  1.00  0.00    -0.299 OA
ENDROOT
BRANCH   1   3
ATOM      3  C   UNL     1       3.038   4.442 106.011  1.00  0.00     0.053 C 
ATOM      4  C   UNL     1       2.013   5.516 106.404  1.00  0.00     0.016 C 
BRANCH   3   5
ATOM      5  C   UNL     1       4.107   5.021 105.057  1.00  0.00     0.015 C 
BRANCH   5   6
ATOM      6  C   UNL     1       4.566   3.991 104.004  1.00  0.00     0.028 C 
BRANCH   6   7
ATOM      7  C   UNL     1       6.053   3.759 104.075  1.00  0.00    -0.028 C 
ATOM      8  C   UNL     1       6.646   2.682 104.641  1.00  0.00    -0.070 CG0
ATOM      9  C   UNL     1       8.153   2.644 104.676  1.00  0.00     0.039 C 
ATOM     10  G   UNL     1       5.872   1.523 105.248  1.00  0.00     0.000 G0
ENDBRANCH   6   7
ENDBRANCH   5   6
ENDBRANCH   3   5
ENDBRANCH   1   3
BRANCH   1  11
ATOM     11  C   UNL     1       3.955   2.375 107.368  1.00  0.00     0.087 C 
BRANCH  11  12
ATOM     12  C   UNL     1       5.402   2.060 107.828  1.00  0.00     0.066 C 
BRANCH  12  13
ATOM     13  C   UNL     1       6.173   1.324 106.738  1.00  0.00     0.140 C 
ATOM     14  O   UNL     1       7.024   0.511 107.067  1.00  0.00    -0.299 OA
BRANCH  13  15
ATOM     15  C   UNL     1       5.864   1.517 105.269  1.00  0.00     0.106 CG0
ATOM     16  G   UNL     1       6.648   2.671 104.664  1.00  0.00     0.000 G0
ENDBRANCH  13  15
ENDBRANCH  12  13
BRANCH  12  17
ATOM     17  C   UNL     1       5.458   1.292 109.189  1.00  0.00    -0.006 C 
ATOM     18  C   UNL     1       5.440   2.272 110.377  1.00  0.00     0.008 C 
ATOM     19  C   UNL     1       4.292   0.300 109.350  1.00  0.00     0.008 C 
ENDBRANCH  12  17
ENDBRANCH  11  12
ENDBRANCH   1  11
TORSDOF 1
ENDMDL
MODEL 5
REMARK VINA RESULT:    -3.498      2.437      4.637
REMARK INTER + INTRA:          -5.627
REMARK INTER:                  -5.400
REMARK INTRA:                  -0.227
REMARK UNBOUND:                -0.289
REMARK SMILES CC1=CCC[C@H](C)C(=O)C[C@@H](C(C)C)C(=O)C1
REMARK SMILES IDX 8 1 9 2 6 3 7 4 5 5 4 6 3 7 2 8 1 9 10 11 11 12 15 13 16 14
REMARK SMILES IDX 17 15 12 17 13 18 14 19
REMARK H PARENT
REMARK Flexibility Score: 70.00
ROOT
ATOM      1  C   UNL     1       6.711   0.654 108.699  1.00  0.00     0.136 C 
ATOM      2  O   UNL     1       7.331   0.110 109.603  1.00  0.00    -0.299 OA
ENDROOT
BRANCH   1   3
ATOM      3  C   UNL     1       5.384   1.322 108.999  1.00  0.00     0.053 C 
ATOM      4  C   UNL     1       4.409   0.321 109.636  1.00  0.00     0.016 C 
BRANCH   3   5
ATOM      5  C   UNL     1       5.595   2.548 109.916  1.00  0.00     0.015 C 
BRANCH   5   6
ATOM      6  C   UNL     1       5.637   3.868 109.120  1.00  0.00     0.028 C 
BRANCH   6   7
ATOM      7  C   UNL     1       4.688   3.834 107.949  1.00  0.00    -0.028 C 
ATOM      8  C   UNL     1       5.052   3.945 106.650  1.00  0.00    -0.070 CG0
ATOM      9  C   UNL     1       3.960   3.950 105.610  1.00  0.00     0.039 C 
ATOM     10  G   UNL     1       6.496   4.076 106.194  1.00  0.00     0.000 G0
ENDBRANCH   6   7
ENDBRANCH   5   6
ENDBRANCH   3   5
ENDBRANCH   1   3
BRANCH   1  11
ATOM     11  C   UNL     1       7.287   0.647 107.303  1.00  0.00     0.087 C 
BRANCH  11  12
ATOM     12  C   UNL     1       7.951   1.998 106.928  1.00  0.00     0.066 C 
BRANCH  12  13
ATOM     13  C   UNL     1       7.127   2.737 105.879  1.00  0.00     0.140 C 
ATOM     14  O   UNL     1       6.936   2.201 104.797  1.00  0.00    -0.299 OA
BRANCH  13  15
ATOM     15  C   UNL     1       6.483   4.076 106.164  1.00  0.00     0.106 CG0
ATOM     16  G   UNL     1       5.046   3.932 106.638  1.00  0.00     0.000 G0
ENDBRANCH  13  15
ENDBRANCH  12  13
BRANCH  12  17
ATOM     17  C   UNL     1       9.442   1.843 106.483  1.00  0.00    -0.006 C 
ATOM     18  C   UNL     1      10.397   2.041 107.675  1.00  0.00     0.008 C 
ATOM     19  C   UNL     1       9.725   0.472 105.846  1.00  0.00     0.008 C 
ENDBRANCH  12  17
ENDBRANCH  11  12
ENDBRANCH   1  11
TORSDOF 1
ENDMDL
MODEL 6
REMARK VINA RESULT:    -3.469      2.037      2.867
REMARK INTER + INTRA:          -5.583
REMARK INTER:                  -5.334
REMARK INTRA:                  -0.250
REMARK UNBOUND:                -0.289
REMARK SMILES CC1=CCC[C@H](C)C(=O)C[C@@H](C(C)C)C(=O)C1
REMARK SMILES IDX 8 1 9 2 6 3 7 4 5 5 4 6 3 7 2 8 1 9 10 11 11 12 15 13 16 14
REMARK SMILES IDX 17 15 12 17 13 18 14 19
REMARK H PARENT
REMARK Flexibility Score: 70.00
ROOT
ATOM      1  C   UNL     1       4.946   4.080 107.956  1.00  0.00     0.136 C 
ATOM      2  O   UNL     1       3.833   4.514 108.219  1.00  0.00    -0.299 OA
ENDROOT
BRANCH   1   3
ATOM      3  C   UNL     1       5.491   2.897 108.733  1.00  0.00     0.053 C 
ATOM      4  C   UNL     1       5.487   3.195 110.240  1.00  0.00     0.016 C 
BRANCH   3   5
ATOM      5  C   UNL     1       4.671   1.626 108.419  1.00  0.00     0.015 C 
BRANCH   5   6
ATOM      6  C   UNL     1       5.387   0.707 107.407  1.00  0.00     0.028 C 
BRANCH   6   7
ATOM      7  C   UNL     1       6.884   0.770 107.573  1.00  0.00    -0.028 C 
ATOM      8  C   UNL     1       7.753   1.210 106.634  1.00  0.00    -0.070 CG0
ATOM      9  C   UNL     1       9.226   1.145 106.951  1.00  0.00     0.039 C 
ATOM     10  G   UNL     1       7.320   1.753 105.281  1.00  0.00     0.000 G0
ENDBRANCH   6   7
ENDBRANCH   5   6
ENDBRANCH   3   5
ENDBRANCH   1   3
BRANCH   1  11
ATOM     11  C   UNL     1       5.751   4.734 106.858  1.00  0.00     0.087 C 
BRANCH  11  12
ATOM     12  C   UNL     1       5.750   3.905 105.547  1.00  0.00     0.066 C 
BRANCH  12  13
ATOM     13  C   UNL     1       7.116   3.271 105.303  1.00  0.00     0.140 C 
ATOM     14  O   UNL     1       8.090   3.999 105.187  1.00  0.00    -0.299 OA
BRANCH  13  15
ATOM     15  C   UNL     1       7.308   1.770 105.275  1.00  0.00     0.106 CG0
ATOM     16  G   UNL     1       7.734   1.221 106.627  1.00  0.00     0.000 G0
ENDBRANCH  13  15
ENDBRANCH  12  13
BRANCH  12  17
ATOM     17  C   UNL     1       5.269   4.725 104.306  1.00  0.00    -0.006 C 
ATOM     18  C   UNL     1       5.274   3.855 103.035  1.00  0.00     0.008 C 
ATOM     19  C   UNL     1       3.858   5.307 104.500  1.00  0.00     0.008 C 
ENDBRANCH  12  17
ENDBRANCH  11  12
ENDBRANCH   1  11
TORSDOF 1
ENDMDL
MODEL 7
REMARK VINA RESULT:    -3.461      2.845      4.884
REMARK INTER + INTRA:          -5.571
REMARK INTER:                  -5.374
REMARK INTRA:                  -0.197
REMARK UNBOUND:                -0.289
REMARK SMILES CC1=CCC[C@H](C)C(=O)C[C@@H](C(C)C)C(=O)C1
REMARK SMILES IDX 8 1 9 2 6 3 7 4 5 5 4 6 3 7 2 8 1 9 10 11 11 12 15 13 16 14
REMARK SMILES IDX 17 15 12 17 13 18 14 19
REMARK H PARENT
REMARK Flexibility Score: 70.00
ROOT
ATOM      1  C   UNL     1       7.146   3.133 105.174  1.00  0.00     0.136 C 
ATOM      2  O   UNL     1       7.274   4.298 104.823  1.00  0.00    -0.299 OA
ENDROOT
BRANCH   1   3
ATOM      3  C   UNL     1       8.129   2.090 104.679  1.00  0.00     0.053 C 
ATOM      4  C   UNL     1       7.941   1.844 103.175  1.00  0.00     0.016 C 
BRANCH   3   5
ATOM      5  C   UNL     1       9.577   2.529 104.990  1.00  0.00     0.015 C 
BRANCH   5   6
ATOM      6  C   UNL     1      10.003   2.153 106.424  1.00  0.00     0.028 C 
BRANCH   6   7
ATOM      7  C   UNL     1       9.745   0.695 106.709  1.00  0.00    -0.028 C 
ATOM      8  C   UNL     1       8.948   0.225 107.696  1.00  0.00    -0.070 CG0
ATOM      9  C   UNL     1       8.854  -1.270 107.874  1.00  0.00     0.039 C 
ATOM     10  G   UNL     1       8.159   1.123 108.634  1.00  0.00     0.000 G0
ENDBRANCH   6   7
ENDBRANCH   5   6
ENDBRANCH   3   5
ENDBRANCH   1   3
BRANCH   1  11
ATOM     11  C   UNL     1       6.008   2.762 106.095  1.00  0.00     0.087 C 
BRANCH  11  12
ATOM     12  C   UNL     1       6.408   2.833 107.592  1.00  0.00     0.066 C 
BRANCH  12  13
ATOM     13  C   UNL     1       6.774   1.451 108.124  1.00  0.00     0.140 C 
ATOM     14  O   UNL     1       5.936   0.563 108.077  1.00  0.00    -0.299 OA
BRANCH  13  15
ATOM     15  C   UNL     1       8.160   1.132 108.638  1.00  0.00     0.106 CG0
ATOM     16  G   UNL     1       8.931   0.228 107.690  1.00  0.00     0.000 G0
ENDBRANCH  13  15
ENDBRANCH  12  13
BRANCH  12  17
ATOM     17  C   UNL     1       5.325   3.523 108.483  1.00  0.00    -0.006 C 
ATOM     18  C   UNL     1       5.827   3.696 109.928  1.00  0.00     0.008 C 
ATOM     19  C   UNL     1       4.907   4.900 107.937  1.00  0.00     0.008 C 
ENDBRANCH  12  17
ENDBRANCH  11  12
ENDBRANCH   1  11
TORSDOF 1
ENDMDL
MODEL 8
REMARK VINA RESULT:    -3.437      2.833      4.674
REMARK INTER + INTRA:          -5.534
REMARK INTER:                  -5.256
REMARK INTRA:                  -0.277
REMARK UNBOUND:                -0.289
REMARK SMILES CC1=CCC[C@H](C)C(=O)C[C@@H](C(C)C)C(=O)C1
REMARK SMILES IDX 8 1 9 2 6 3 7 4 5 5 4 6 3 7 2 8 1 9 10 11 11 12 15 13 16 14
REMARK SMILES IDX 17 15 12 17 13 18 14 19
REMARK H PARENT
REMARK Flexibility Score: 70.00
ROOT
ATOM      1  C   UNL     1       7.485   2.136 105.986  1.00  0.00     0.136 C 
ATOM      2  O   UNL     1       7.749   3.226 105.496  1.00  0.00    -0.299 OA
ENDROOT
BRANCH   1   3
ATOM      3  C   UNL     1       8.605   1.157 106.278  1.00  0.00     0.053 C 
ATOM      4  C   UNL     1       9.427   0.884 105.010  1.00  0.00     0.016 C 
BRANCH   3   5
ATOM      5  C   UNL     1       9.503   1.693 107.415  1.00  0.00     0.015 C 
BRANCH   5   6
ATOM      6  C   UNL     1       8.881   1.461 108.807  1.00  0.00     0.028 C 
BRANCH   6   7
ATOM      7  C   UNL     1       8.318   0.068 108.931  1.00  0.00    -0.028 C 
ATOM      8  C   UNL     1       7.075  -0.232 109.376  1.00  0.00    -0.070 CG0
ATOM      9  C   UNL     1       6.701  -1.689 109.491  1.00  0.00     0.039 C 
ATOM     10  G   UNL     1       6.051   0.819 109.771  1.00  0.00     0.000 G0
ENDBRANCH   6   7
ENDBRANCH   5   6
ENDBRANCH   3   5
ENDBRANCH   1   3
BRANCH   1  11
ATOM     11  C   UNL     1       6.046   1.794 106.290  1.00  0.00     0.087 C 
BRANCH  11  12
ATOM     12  C   UNL     1       5.575   2.363 107.654  1.00  0.00     0.066 C 
BRANCH  12  13
ATOM     13  C   UNL     1       5.173   1.240 108.603  1.00  0.00     0.140 C 
ATOM     14  O   UNL     1       4.146   0.617 108.375  1.00  0.00    -0.299 OA
BRANCH  13  15
ATOM     15  C   UNL     1       6.041   0.828 109.771  1.00  0.00     0.106 CG0
ATOM     16  G   UNL     1       7.075  -0.215 109.379  1.00  0.00     0.000 G0
ENDBRANCH  13  15
ENDBRANCH  12  13
BRANCH  12  17
ATOM     17  C   UNL     1       4.441   3.430 107.513  1.00  0.00    -0.006 C 
ATOM     18  C   UNL     1       5.007   4.857 107.634  1.00  0.00     0.008 C 
ATOM     19  C   UNL     1       3.686   3.310 106.177  1.00  0.00     0.008 C 
ENDBRANCH  12  17
ENDBRANCH  11  12
ENDBRANCH   1  11
TORSDOF 1
ENDMDL
MODEL 9
REMARK VINA RESULT:    -3.349      1.926      4.657
REMARK INTER + INTRA:          -5.400
REMARK INTER:                  -5.193
REMARK INTRA:                  -0.207
REMARK UNBOUND:                -0.289
REMARK SMILES CC1=CCC[C@H](C)C(=O)C[C@@H](C(C)C)C(=O)C1
REMARK SMILES IDX 8 1 9 2 6 3 7 4 5 5 4 6 3 7 2 8 1 9 10 11 11 12 15 13 16 14
REMARK SMILES IDX 17 15 12 17 13 18 14 19
REMARK H PARENT
REMARK Flexibility Score: 70.00
ROOT
ATOM      1  C   UNL     1       6.656   1.803 105.824  1.00  0.00     0.136 C 
ATOM      2  O   UNL     1       5.917   0.874 105.529  1.00  0.00    -0.299 OA
ENDROOT
BRANCH   1   3
ATOM      3  C   UNL     1       7.279   2.642 104.725  1.00  0.00     0.053 C 
ATOM      4  C   UNL     1       8.227   1.791 103.868  1.00  0.00     0.016 C 
BRANCH   3   5
ATOM      5  C   UNL     1       6.177   3.289 103.855  1.00  0.00     0.015 C 
BRANCH   5   6
ATOM      6  C   UNL     1       5.754   4.673 104.387  1.00  0.00     0.028 C 
BRANCH   6   7
ATOM      7  C   UNL     1       4.406   4.614 105.060  1.00  0.00    -0.028 C 
ATOM      8  C   UNL     1       4.205   4.615 106.398  1.00  0.00    -0.070 CG0
ATOM      9  C   UNL     1       2.788   4.489 106.898  1.00  0.00     0.039 C 
ATOM     10  G   UNL     1       5.331   4.726 107.414  1.00  0.00     0.000 G0
ENDBRANCH   6   7
ENDBRANCH   5   6
ENDBRANCH   3   5
ENDBRANCH   1   3
BRANCH   1  11
ATOM     11  C   UNL     1       6.930   2.093 107.281  1.00  0.00     0.087 C 
BRANCH  11  12
ATOM     12  C   UNL     1       5.631   2.176 108.124  1.00  0.00     0.066 C 
BRANCH  12  13
ATOM     13  C   UNL     1       5.293   3.625 108.462  1.00  0.00     0.140 C 
ATOM     14  O   UNL     1       5.035   3.913 109.621  1.00  0.00    -0.299 OA
BRANCH  13  15
ATOM     15  C   UNL     1       5.341   4.722 107.421  1.00  0.00     0.106 CG0
ATOM     16  G   UNL     1       4.206   4.609 106.416  1.00  0.00     0.000 G0
ENDBRANCH  13  15
ENDBRANCH  12  13
BRANCH  12  17
ATOM     17  C   UNL     1       5.676   1.283 109.406  1.00  0.00    -0.006 C 
ATOM     18  C   UNL     1       4.458   0.342 109.466  1.00  0.00     0.008 C 
ATOM     19  C   UNL     1       6.959   0.438 109.488  1.00  0.00     0.008 C 
ENDBRANCH  12  17
ENDBRANCH  11  12
ENDBRANCH   1  11
TORSDOF 1
ENDMDL
