MODEL 1
REMARK VINA RESULT:    -3.314      0.000      0.000
REMARK INTER + INTRA:          -3.531
REMARK INTER:                  -3.507
REMARK INTRA:                  -0.024
REMARK UNBOUND:                -0.024
REMARK SMILES O=C([O-])c1cccnc1
REMARK SMILES IDX 4 1 5 2 9 3 6 4 8 5 7 6 2 7 1 8 3 9
REMARK H PARENT
REMARK Flexibility Score: inf
ROOT
ATOM      1  C   UNL     1     -95.507 148.561 239.825  1.00  0.00     0.016 A 
ATOM      2  C   UNL     1     -95.926 149.899 239.911  1.00  0.00     0.013 A 
ATOM      3  C   UNL     1     -96.180 147.600 240.600  1.00  0.00     0.120 A 
ATOM      4  C   UNL     1     -96.985 150.250 240.749  1.00  0.00     0.021 A 
ATOM      5  N   UNL     1     -97.209 147.969 241.409  1.00  0.00    -0.264 NA
ATOM      6  C   UNL     1     -97.621 149.261 241.499  1.00  0.00     0.111 A 
ENDROOT
BRANCH   1   7
ATOM      7  C   UNL     1     -94.386 148.167 238.943  1.00  0.00     0.073 C 
ATOM      8  O   UNL     1     -93.879 148.999 238.144  1.00  0.00    -0.545 OA
ATOM      9  O   UNL     1     -93.878 146.875 238.984  1.00  0.00    -0.545 OA
ENDBRANCH   1   7
TORSDOF 1
ENDMDL
MODEL 2
REMARK VINA RESULT:    -3.271      2.629      3.742
REMARK INTER + INTRA:          -3.487
REMARK INTER:                  -3.464
REMARK INTRA:                  -0.023
REMARK UNBOUND:                -0.024
REMARK SMILES O=C([O-])c1cccnc1
REMARK SMILES IDX 4 1 5 2 9 3 6 4 8 5 7 6 2 7 1 8 3 9
REMARK H PARENT
REMARK Flexibility Score: inf
ROOT
ATOM      1  C   UNL     1     -95.623 148.674 239.768  1.00  0.00     0.016 A 
ATOM      2  C   UNL     1     -95.202 149.355 238.614  1.00  0.00     0.013 A 
ATOM      3  C   UNL     1     -95.065 147.413 240.041  1.00  0.00     0.120 A 
ATOM      4  C   UNL     1     -94.250 148.781 237.769  1.00  0.00     0.021 A 
ATOM      5  N   UNL     1     -94.139 146.876 239.201  1.00  0.00    -0.264 NA
ATOM      6  C   UNL     1     -93.725 147.527 238.082  1.00  0.00     0.111 A 
ENDROOT
BRANCH   1   7
ATOM      7  C   UNL     1     -96.631 149.264 240.676  1.00  0.00     0.073 C 
ATOM      8  O   UNL     1     -97.249 148.540 241.502  1.00  0.00    -0.545 OA
ATOM      9  O   UNL     1     -96.908 150.624 240.631  1.00  0.00    -0.545 OA
ENDBRANCH   1   7
TORSDOF 1
ENDMDL
MODEL 3
REMARK VINA RESULT:    -3.263      2.964      3.720
REMARK INTER + INTRA:          -3.477
REMARK INTER:                  -3.459
REMARK INTRA:                  -0.019
REMARK UNBOUND:                -0.024
REMARK SMILES O=C([O-])c1cccnc1
REMARK SMILES IDX 4 1 5 2 9 3 6 4 8 5 7 6 2 7 1 8 3 9
REMARK H PARENT
REMARK Flexibility Score: inf
ROOT
ATOM      1  C   UNL     1     -96.854 149.547 240.632  1.00  0.00     0.016 A 
ATOM      2  C   UNL     1     -95.724 149.997 239.928  1.00  0.00     0.013 A 
ATOM      3  C   UNL     1     -96.915 148.193 241.003  1.00  0.00     0.120 A 
ATOM      4  C   UNL     1     -94.696 149.107 239.612  1.00  0.00     0.021 A 
ATOM      5  N   UNL     1     -95.899 147.347 240.682  1.00  0.00    -0.264 NA
ATOM      6  C   UNL     1     -94.802 147.772 240.001  1.00  0.00     0.111 A 
ENDROOT
BRANCH   1   7
ATOM      7  C   UNL     1     -97.955 150.473 240.977  1.00  0.00     0.073 C 
ATOM      8  O   UNL     1     -98.490 151.189 240.089  1.00  0.00    -0.545 OA
ATOM      9  O   UNL     1     -98.414 150.565 242.285  1.00  0.00    -0.545 OA
ENDBRANCH   1   7
TORSDOF 1
ENDMDL
MODEL 4
REMARK VINA RESULT:    -3.193      2.934      3.898
REMARK INTER + INTRA:          -3.403
REMARK INTER:                  -3.386
REMARK INTRA:                  -0.017
REMARK UNBOUND:                -0.024
REMARK SMILES O=C([O-])c1cccnc1
REMARK SMILES IDX 4 1 5 2 9 3 6 4 8 5 7 6 2 7 1 8 3 9
REMARK H PARENT
REMARK Flexibility Score: inf
ROOT
ATOM      1  C   UNL     1     -96.130 149.459 239.312  1.00  0.00     0.016 A 
ATOM      2  C   UNL     1     -94.752 149.247 239.485  1.00  0.00     0.013 A 
ATOM      3  C   UNL     1     -96.685 149.234 238.040  1.00  0.00     0.120 A 
ATOM      4  C   UNL     1     -93.968 148.820 238.412  1.00  0.00     0.021 A 
ATOM      5  N   UNL     1     -95.898 148.819 237.011  1.00  0.00    -0.264 NA
ATOM      6  C   UNL     1     -94.565 148.610 237.169  1.00  0.00     0.111 A 
ENDROOT
BRANCH   1   7
ATOM      7  C   UNL     1     -96.979 149.911 240.435  1.00  0.00     0.073 C 
ATOM      8  O   UNL     1     -97.492 151.063 240.427  1.00  0.00    -0.545 OA
ATOM      9  O   UNL     1     -97.222 149.073 241.516  1.00  0.00    -0.545 OA
ENDBRANCH   1   7
TORSDOF 1
ENDMDL
MODEL 5
REMARK VINA RESULT:    -3.093      1.788      2.175
REMARK INTER + INTRA:          -3.298
REMARK INTER:                  -3.275
REMARK INTRA:                  -0.023
REMARK UNBOUND:                -0.024
REMARK SMILES O=C([O-])c1cccnc1
REMARK SMILES IDX 4 1 5 2 9 3 6 4 8 5 7 6 2 7 1 8 3 9
REMARK H PARENT
REMARK Flexibility Score: inf
ROOT
ATOM      1  C   UNL     1     -95.637 149.218 238.436  1.00  0.00     0.016 A 
ATOM      2  C   UNL     1     -95.454 149.745 239.725  1.00  0.00     0.013 A 
ATOM      3  C   UNL     1     -96.924 149.263 237.872  1.00  0.00     0.120 A 
ATOM      4  C   UNL     1     -96.534 150.297 240.416  1.00  0.00     0.021 A 
ATOM      5  N   UNL     1     -97.959 149.806 238.567  1.00  0.00    -0.264 NA
ATOM      6  C   UNL     1     -97.793 150.319 239.815  1.00  0.00     0.111 A 
ENDROOT
BRANCH   1   7
ATOM      7  C   UNL     1     -94.506 148.628 237.686  1.00  0.00     0.073 C 
ATOM      8  O   UNL     1     -93.470 148.241 238.290  1.00  0.00    -0.545 OA
ATOM      9  O   UNL     1     -94.572 148.493 236.305  1.00  0.00    -0.545 OA
ENDBRANCH   1   7
TORSDOF 1
ENDMDL
MODEL 6
REMARK VINA RESULT:    -2.963      2.159      2.629
REMARK INTER + INTRA:          -3.160
REMARK INTER:                  -3.139
REMARK INTRA:                  -0.021
REMARK UNBOUND:                -0.024
REMARK SMILES O=C([O-])c1cccnc1
REMARK SMILES IDX 4 1 5 2 9 3 6 4 8 5 7 6 2 7 1 8 3 9
REMARK H PARENT
REMARK Flexibility Score: inf
ROOT
ATOM      1  C   UNL     1     -95.050 148.629 237.610  1.00  0.00     0.016 A 
ATOM      2  C   UNL     1     -94.373 148.932 238.803  1.00  0.00     0.013 A 
ATOM      3  C   UNL     1     -96.423 148.918 237.530  1.00  0.00     0.120 A 
ATOM      4  C   UNL     1     -95.060 149.507 239.873  1.00  0.00     0.021 A 
ATOM      5  N   UNL     1     -97.070 149.478 238.588  1.00  0.00    -0.264 NA
ATOM      6  C   UNL     1     -96.423 149.775 239.746  1.00  0.00     0.111 A 
ENDROOT
BRANCH   1   7
ATOM      7  C   UNL     1     -94.341 148.019 236.464  1.00  0.00     0.073 C 
ATOM      8  O   UNL     1     -94.676 148.300 235.282  1.00  0.00    -0.545 OA
ATOM      9  O   UNL     1     -93.297 147.128 236.676  1.00  0.00    -0.545 OA
ENDBRANCH   1   7
TORSDOF 1
ENDMDL
MODEL 7
REMARK VINA RESULT:    -2.900      2.375      2.993
REMARK INTER + INTRA:          -3.094
REMARK INTER:                  -3.072
REMARK INTRA:                  -0.022
REMARK UNBOUND:                -0.024
REMARK SMILES O=C([O-])c1cccnc1
REMARK SMILES IDX 4 1 5 2 9 3 6 4 8 5 7 6 2 7 1 8 3 9
REMARK H PARENT
REMARK Flexibility Score: inf
ROOT
ATOM      1  C   UNL     1     -94.602 148.017 237.571  1.00  0.00     0.016 A 
ATOM      2  C   UNL     1     -95.082 149.202 238.153  1.00  0.00     0.013 A 
ATOM      3  C   UNL     1     -94.377 146.907 238.404  1.00  0.00     0.120 A 
ATOM      4  C   UNL     1     -95.325 149.261 239.526  1.00  0.00     0.021 A 
ATOM      5  N   UNL     1     -94.621 146.991 239.740  1.00  0.00    -0.264 NA
ATOM      6  C   UNL     1     -95.086 148.133 240.312  1.00  0.00     0.111 A 
ENDROOT
BRANCH   1   7
ATOM      7  C   UNL     1     -94.338 147.933 236.118  1.00  0.00     0.073 C 
ATOM      8  O   UNL     1     -93.497 147.110 235.667  1.00  0.00    -0.545 OA
ATOM      9  O   UNL     1     -95.014 148.761 235.230  1.00  0.00    -0.545 OA
ENDBRANCH   1   7
TORSDOF 1
ENDMDL
MODEL 8
REMARK VINA RESULT:    -2.862      4.017      4.729
REMARK INTER + INTRA:          -3.053
REMARK INTER:                  -3.036
REMARK INTRA:                  -0.017
REMARK UNBOUND:                -0.024
REMARK SMILES O=C([O-])c1cccnc1
REMARK SMILES IDX 4 1 5 2 9 3 6 4 8 5 7 6 2 7 1 8 3 9
REMARK H PARENT
REMARK Flexibility Score: inf
ROOT
ATOM      1  C   UNL     1     -95.229 149.116 236.367  1.00  0.00     0.016 A 
ATOM      2  C   UNL     1     -94.911 149.413 237.703  1.00  0.00     0.013 A 
ATOM      3  C   UNL     1     -94.617 148.003 235.766  1.00  0.00     0.120 A 
ATOM      4  C   UNL     1     -94.008 148.611 238.403  1.00  0.00     0.021 A 
ATOM      5  N   UNL     1     -93.740 147.238 236.470  1.00  0.00    -0.264 NA
ATOM      6  C   UNL     1     -93.426 147.516 237.763  1.00  0.00     0.111 A 
ENDROOT
BRANCH   1   7
ATOM      7  C   UNL     1     -96.183 149.953 235.607  1.00  0.00     0.073 C 
ATOM      8  O   UNL     1     -95.774 150.721 234.695  1.00  0.00    -0.545 OA
ATOM      9  O   UNL     1     -97.542 149.904 235.888  1.00  0.00    -0.545 OA
ENDBRANCH   1   7
TORSDOF 1
ENDMDL
MODEL 9
REMARK VINA RESULT:    -2.854     13.809     14.590
REMARK INTER + INTRA:          -3.044
REMARK INTER:                  -3.028
REMARK INTRA:                  -0.016
REMARK UNBOUND:                -0.024
REMARK SMILES O=C([O-])c1cccnc1
REMARK SMILES IDX 4 1 5 2 9 3 6 4 8 5 7 6 2 7 1 8 3 9
REMARK H PARENT
REMARK Flexibility Score: inf
ROOT
ATOM      1  C   UNL     1     -93.711 160.543 232.837  1.00  0.00     0.016 A 
ATOM      2  C   UNL     1     -92.507 159.827 232.931  1.00  0.00     0.013 A 
ATOM      3  C   UNL     1     -93.697 161.917 233.135  1.00  0.00     0.120 A 
ATOM      4  C   UNL     1     -91.332 160.478 233.311  1.00  0.00     0.021 A 
ATOM      5  N   UNL     1     -92.538 162.526 233.504  1.00  0.00    -0.264 NA
ATOM      6  C   UNL     1     -91.367 161.842 233.598  1.00  0.00     0.111 A 
ENDROOT
BRANCH   1   7
ATOM      7  C   UNL     1     -94.968 159.873 232.435  1.00  0.00     0.073 C 
ATOM      8  O   UNL     1     -95.633 159.206 233.273  1.00  0.00    -0.545 OA
ATOM      9  O   UNL     1     -95.432 159.970 231.129  1.00  0.00    -0.545 OA
ENDBRANCH   1   7
TORSDOF 1
ENDMDL
