MODEL 1
REMARK VINA RESULT:    -5.428      0.000      0.000
REMARK INTER + INTRA:          -5.428
REMARK INTER:                  -5.428
REMARK INTRA:                   0.000
REMARK UNBOUND:                 0.000
REMARK SMILES C=C1CCC[C@]2(C)CC(=O)C(=C(C)C)C[C@@H]12
REMARK SMILES IDX 13 1 12 2 11 3 15 4 16 5 2 6 1 7 3 8 4 9 5 10 6 11 8 12 9 13
REMARK SMILES IDX 10 14 7 15 14 16
REMARK H PARENT
REMARK Flexibility Score: inf
ROOT
ATOM      1  C   UNL     1      19.093 -48.277  -1.891  1.00  0.00     0.039 C 
ATOM      2  C   UNL     1      18.601 -48.794  -3.223  1.00  0.00    -0.070 C 
ATOM      3  C   UNL     1      17.308 -48.624  -3.628  1.00  0.00    -0.006 C 
ATOM      4  C   UNL     1      16.843 -49.096  -4.999  1.00  0.00     0.047 C 
ATOM      5  C   UNL     1      15.695 -48.229  -5.575  1.00  0.00     0.025 C 
ATOM      6  C   UNL     1      15.158 -48.682  -6.933  1.00  0.00    -0.073 C 
ATOM      7  C   UNL     1      15.616 -49.754  -7.606  1.00  0.00     0.008 C 
ATOM      8  C   UNL     1      14.081 -47.818  -7.545  1.00  0.00     0.031 C 
ATOM      9  C   UNL     1      12.930 -47.620  -6.555  1.00  0.00     0.005 C 
ATOM     10  C   UNL     1      13.436 -47.122  -5.190  1.00  0.00     0.008 C 
ATOM     11  C   UNL     1      14.520 -48.052  -4.564  1.00  0.00    -0.018 C 
ATOM     12  C   UNL     1      15.064 -47.365  -3.287  1.00  0.00     0.088 C 
ATOM     13  C   UNL     1      16.253 -48.085  -2.720  1.00  0.00     0.159 C 
ATOM     14  O   UNL     1      16.328 -48.233  -1.470  1.00  0.00    -0.295 OA
ATOM     15  C   UNL     1      13.877 -49.413  -4.180  1.00  0.00     0.012 C 
ATOM     16  C   UNL     1      19.617 -49.478  -4.109  1.00  0.00     0.039 C 
ENDROOT
TORSDOF 0
ENDMDL
MODEL 2
REMARK VINA RESULT:    -5.358     20.132     20.780
REMARK INTER + INTRA:          -5.358
REMARK INTER:                  -5.358
REMARK INTRA:                   0.000
REMARK UNBOUND:                 0.000
REMARK SMILES C=C1CCC[C@]2(C)CC(=O)C(=C(C)C)C[C@@H]12
REMARK SMILES IDX 13 1 12 2 11 3 15 4 16 5 2 6 1 7 3 8 4 9 5 10 6 11 8 12 9 13
REMARK SMILES IDX 10 14 7 15 14 16
REMARK H PARENT
REMARK Flexibility Score: inf
ROOT
ATOM      1  C   UNL     1      25.085 -31.001  -9.310  1.00  0.00     0.039 C 
ATOM      2  C   UNL     1      24.501 -31.785 -10.462  1.00  0.00    -0.070 C 
ATOM      3  C   UNL     1      25.191 -31.979 -11.624  1.00  0.00    -0.006 C 
ATOM      4  C   UNL     1      24.613 -32.823 -12.752  1.00  0.00     0.047 C 
ATOM      5  C   UNL     1      25.705 -33.535 -13.589  1.00  0.00     0.025 C 
ATOM      6  C   UNL     1      25.186 -34.366 -14.763  1.00  0.00    -0.073 C 
ATOM      7  C   UNL     1      23.884 -34.485 -15.084  1.00  0.00     0.008 C 
ATOM      8  C   UNL     1      26.225 -35.120 -15.558  1.00  0.00     0.031 C 
ATOM      9  C   UNL     1      27.332 -34.170 -16.023  1.00  0.00     0.005 C 
ATOM     10  C   UNL     1      27.906 -33.351 -14.854  1.00  0.00     0.008 C 
ATOM     11  C   UNL     1      26.817 -32.554 -14.075  1.00  0.00    -0.018 C 
ATOM     12  C   UNL     1      27.486 -31.911 -12.834  1.00  0.00     0.088 C 
ATOM     13  C   UNL     1      26.482 -31.286 -11.909  1.00  0.00     0.159 C 
ATOM     14  O   UNL     1      26.750 -30.166 -11.397  1.00  0.00    -0.295 OA
ATOM     15  C   UNL     1      26.242 -31.434 -14.986  1.00  0.00     0.012 C 
ATOM     16  C   UNL     1      23.126 -32.380 -10.257  1.00  0.00     0.039 C 
ENDROOT
TORSDOF 0
ENDMDL
MODEL 3
REMARK VINA RESULT:    -5.023      1.398      2.058
REMARK INTER + INTRA:          -5.023
REMARK INTER:                  -5.023
REMARK INTRA:                   0.000
REMARK UNBOUND:                 0.000
REMARK SMILES C=C1CCC[C@]2(C)CC(=O)C(=C(C)C)C[C@@H]12
REMARK SMILES IDX 13 1 12 2 11 3 15 4 16 5 2 6 1 7 3 8 4 9 5 10 6 11 8 12 9 13
REMARK SMILES IDX 10 14 7 15 14 16
REMARK H PARENT
REMARK Flexibility Score: inf
ROOT
ATOM      1  C   UNL     1      20.541 -48.705  -1.286  1.00  0.00     0.039 C 
ATOM      2  C   UNL     1      19.744 -48.851  -2.562  1.00  0.00    -0.070 C 
ATOM      3  C   UNL     1      18.378 -48.837  -2.563  1.00  0.00    -0.006 C 
ATOM      4  C   UNL     1      17.590 -48.924  -3.863  1.00  0.00     0.047 C 
ATOM      5  C   UNL     1      16.232 -48.182  -3.792  1.00  0.00     0.025 C 
ATOM      6  C   UNL     1      15.378 -48.270  -5.057  1.00  0.00    -0.073 C 
ATOM      7  C   UNL     1      15.740 -48.940  -6.167  1.00  0.00     0.008 C 
ATOM      8  C   UNL     1      14.076 -47.505  -5.037  1.00  0.00     0.031 C 
ATOM      9  C   UNL     1      13.251 -47.890  -3.806  1.00  0.00     0.005 C 
ATOM     10  C   UNL     1      14.072 -47.770  -2.511  1.00  0.00     0.008 C 
ATOM     11  C   UNL     1      15.392 -48.599  -2.545  1.00  0.00    -0.018 C 
ATOM     12  C   UNL     1      16.202 -48.267  -1.268  1.00  0.00     0.088 C 
ATOM     13  C   UNL     1      17.581 -48.862  -1.302  1.00  0.00     0.159 C 
ATOM     14  O   UNL     1      18.034 -49.391  -0.251  1.00  0.00    -0.295 OA
ATOM     15  C   UNL     1      15.051 -50.115  -2.558  1.00  0.00     0.012 C 
ATOM     16  C   UNL     1      20.529 -48.975  -3.848  1.00  0.00     0.039 C 
ENDROOT
TORSDOF 0
ENDMDL
MODEL 4
REMARK VINA RESULT:    -4.967      2.004      3.687
REMARK INTER + INTRA:          -4.967
REMARK INTER:                  -4.967
REMARK INTRA:                   0.000
REMARK UNBOUND:                 0.000
REMARK SMILES C=C1CCC[C@]2(C)CC(=O)C(=C(C)C)C[C@@H]12
REMARK SMILES IDX 13 1 12 2 11 3 15 4 16 5 2 6 1 7 3 8 4 9 5 10 6 11 8 12 9 13
REMARK SMILES IDX 10 14 7 15 14 16
REMARK H PARENT
REMARK Flexibility Score: inf
ROOT
ATOM      1  C   UNL     1      19.418 -49.092  -0.602  1.00  0.00     0.039 C 
ATOM      2  C   UNL     1      17.933 -49.090  -0.322  1.00  0.00    -0.070 C 
ATOM      3  C   UNL     1      17.020 -48.751  -1.279  1.00  0.00    -0.006 C 
ATOM      4  C   UNL     1      15.525 -48.813  -0.999  1.00  0.00     0.047 C 
ATOM      5  C   UNL     1      14.690 -49.134  -2.264  1.00  0.00     0.025 C 
ATOM      6  C   UNL     1      13.176 -49.168  -2.051  1.00  0.00    -0.073 C 
ATOM      7  C   UNL     1      12.575 -48.932  -0.870  1.00  0.00     0.008 C 
ATOM      8  C   UNL     1      12.342 -49.539  -3.255  1.00  0.00     0.031 C 
ATOM      9  C   UNL     1      12.695 -48.642  -4.444  1.00  0.00     0.005 C 
ATOM     10  C   UNL     1      14.210 -48.622  -4.710  1.00  0.00     0.008 C 
ATOM     11  C   UNL     1      15.044 -48.200  -3.463  1.00  0.00    -0.018 C 
ATOM     12  C   UNL     1      16.544 -48.379  -3.803  1.00  0.00     0.088 C 
ATOM     13  C   UNL     1      17.424 -48.189  -2.601  1.00  0.00     0.159 C 
ATOM     14  O   UNL     1      18.494 -47.536  -2.735  1.00  0.00    -0.295 OA
ATOM     15  C   UNL     1      14.766 -46.707  -3.134  1.00  0.00     0.012 C 
ATOM     16  C   UNL     1      17.498 -49.517   1.062  1.00  0.00     0.039 C 
ENDROOT
TORSDOF 0
ENDMDL
MODEL 5
REMARK VINA RESULT:    -4.899      2.914      5.655
REMARK INTER + INTRA:          -4.899
REMARK INTER:                  -4.899
REMARK INTRA:                   0.000
REMARK UNBOUND:                 0.000
REMARK SMILES C=C1CCC[C@]2(C)CC(=O)C(=C(C)C)C[C@@H]12
REMARK SMILES IDX 13 1 12 2 11 3 15 4 16 5 2 6 1 7 3 8 4 9 5 10 6 11 8 12 9 13
REMARK SMILES IDX 10 14 7 15 14 16
REMARK H PARENT
REMARK Flexibility Score: inf
ROOT
ATOM      1  C   UNL     1      12.534 -48.029   0.356  1.00  0.00     0.039 C 
ATOM      2  C   UNL     1      13.904 -48.627   0.579  1.00  0.00    -0.070 C 
ATOM      3  C   UNL     1      14.828 -48.703  -0.424  1.00  0.00    -0.006 C 
ATOM      4  C   UNL     1      16.226 -49.252  -0.167  1.00  0.00     0.047 C 
ATOM      5  C   UNL     1      17.298 -48.616  -1.087  1.00  0.00     0.025 C 
ATOM      6  C   UNL     1      18.715 -49.159  -0.903  1.00  0.00    -0.073 C 
ATOM      7  C   UNL     1      19.045 -50.124  -0.025  1.00  0.00     0.008 C 
ATOM      8  C   UNL     1      19.791 -48.513  -1.744  1.00  0.00     0.031 C 
ATOM      9  C   UNL     1      19.397 -48.537  -3.223  1.00  0.00     0.005 C 
ATOM     10  C   UNL     1      17.990 -47.956  -3.445  1.00  0.00     0.008 C 
ATOM     11  C   UNL     1      16.894 -48.665  -2.593  1.00  0.00    -0.018 C 
ATOM     12  C   UNL     1      15.565 -47.890  -2.775  1.00  0.00     0.088 C 
ATOM     13  C   UNL     1      14.495 -48.375  -1.841  1.00  0.00     0.159 C 
ATOM     14  O   UNL     1      13.323 -48.509  -2.285  1.00  0.00    -0.295 OA
ATOM     15  C   UNL     1      16.710 -50.125  -3.095  1.00  0.00     0.012 C 
ATOM     16  C   UNL     1      14.222 -49.106   1.978  1.00  0.00     0.039 C 
ENDROOT
TORSDOF 0
ENDMDL
MODEL 6
REMARK VINA RESULT:    -4.861     20.016     20.774
REMARK INTER + INTRA:          -4.861
REMARK INTER:                  -4.861
REMARK INTRA:                   0.000
REMARK UNBOUND:                 0.000
REMARK SMILES C=C1CCC[C@]2(C)CC(=O)C(=C(C)C)C[C@@H]12
REMARK SMILES IDX 13 1 12 2 11 3 15 4 16 5 2 6 1 7 3 8 4 9 5 10 6 11 8 12 9 13
REMARK SMILES IDX 10 14 7 15 14 16
REMARK H PARENT
REMARK Flexibility Score: inf
ROOT
ATOM      1  C   UNL     1      25.627 -34.877 -15.497  1.00  0.00     0.039 C 
ATOM      2  C   UNL     1      26.441 -33.913 -14.666  1.00  0.00    -0.070 C 
ATOM      3  C   UNL     1      25.883 -33.188 -13.652  1.00  0.00    -0.006 C 
ATOM      4  C   UNL     1      26.730 -32.266 -12.784  1.00  0.00     0.047 C 
ATOM      5  C   UNL     1      26.185 -32.133 -11.340  1.00  0.00     0.025 C 
ATOM      6  C   UNL     1      26.972 -31.187 -10.433  1.00  0.00    -0.073 C 
ATOM      7  C   UNL     1      28.057 -30.494 -10.826  1.00  0.00     0.008 C 
ATOM      8  C   UNL     1      26.497 -31.086  -9.003  1.00  0.00     0.031 C 
ATOM      9  C   UNL     1      25.004 -30.750  -8.959  1.00  0.00     0.005 C 
ATOM     10  C   UNL     1      24.180 -31.715  -9.829  1.00  0.00     0.008 C 
ATOM     11  C   UNL     1      24.667 -31.771 -11.309  1.00  0.00    -0.018 C 
ATOM     12  C   UNL     1      23.876 -32.887 -12.034  1.00  0.00     0.088 C 
ATOM     13  C   UNL     1      24.411 -33.156 -13.411  1.00  0.00     0.159 C 
ATOM     14  O   UNL     1      23.591 -33.339 -14.351  1.00  0.00    -0.295 OA
ATOM     15  C   UNL     1      24.384 -30.408 -12.000  1.00  0.00     0.012 C 
ATOM     16  C   UNL     1      27.916 -33.813 -14.983  1.00  0.00     0.039 C 
ENDROOT
TORSDOF 0
ENDMDL
MODEL 7
REMARK VINA RESULT:    -4.704      2.252      5.605
REMARK INTER + INTRA:          -4.704
REMARK INTER:                  -4.704
REMARK INTRA:                   0.000
REMARK UNBOUND:                 0.000
REMARK SMILES C=C1CCC[C@]2(C)CC(=O)C(=C(C)C)C[C@@H]12
REMARK SMILES IDX 13 1 12 2 11 3 15 4 16 5 2 6 1 7 3 8 4 9 5 10 6 11 8 12 9 13
REMARK SMILES IDX 10 14 7 15 14 16
REMARK H PARENT
REMARK Flexibility Score: inf
ROOT
ATOM      1  C   UNL     1      12.724 -45.645  -8.325  1.00  0.00     0.039 C 
ATOM      2  C   UNL     1      12.638 -45.976  -6.853  1.00  0.00    -0.070 C 
ATOM      3  C   UNL     1      13.468 -46.891  -6.271  1.00  0.00    -0.006 C 
ATOM      4  C   UNL     1      13.410 -47.169  -4.775  1.00  0.00     0.047 C 
ATOM      5  C   UNL     1      14.780 -47.591  -4.189  1.00  0.00     0.025 C 
ATOM      6  C   UNL     1      14.774 -47.922  -2.696  1.00  0.00    -0.073 C 
ATOM      7  C   UNL     1      13.677 -47.874  -1.917  1.00  0.00     0.008 C 
ATOM      8  C   UNL     1      16.110 -48.277  -2.086  1.00  0.00     0.031 C 
ATOM      9  C   UNL     1      16.777 -49.402  -2.882  1.00  0.00     0.005 C 
ATOM     10  C   UNL     1      16.837 -49.077  -4.384  1.00  0.00     0.008 C 
ATOM     11  C   UNL     1      15.440 -48.752  -4.996  1.00  0.00    -0.018 C 
ATOM     12  C   UNL     1      15.652 -48.282  -6.456  1.00  0.00     0.088 C 
ATOM     13  C   UNL     1      14.387 -47.755  -7.070  1.00  0.00     0.159 C 
ATOM     14  O   UNL     1      14.118 -48.070  -8.261  1.00  0.00    -0.295 OA
ATOM     15  C   UNL     1      14.560 -50.033  -4.990  1.00  0.00     0.012 C 
ATOM     16  C   UNL     1      11.612 -45.219  -6.040  1.00  0.00     0.039 C 
ENDROOT
TORSDOF 0
ENDMDL
MODEL 8
REMARK VINA RESULT:    -4.602      2.014      4.785
REMARK INTER + INTRA:          -4.602
REMARK INTER:                  -4.602
REMARK INTRA:                   0.000
REMARK UNBOUND:                 0.000
REMARK SMILES C=C1CCC[C@]2(C)CC(=O)C(=C(C)C)C[C@@H]12
REMARK SMILES IDX 13 1 12 2 11 3 15 4 16 5 2 6 1 7 3 8 4 9 5 10 6 11 8 12 9 13
REMARK SMILES IDX 10 14 7 15 14 16
REMARK H PARENT
REMARK Flexibility Score: inf
ROOT
ATOM      1  C   UNL     1      13.819 -49.313  -8.310  1.00  0.00     0.039 C 
ATOM      2  C   UNL     1      14.990 -49.054  -7.391  1.00  0.00    -0.070 C 
ATOM      3  C   UNL     1      14.816 -48.761  -6.068  1.00  0.00    -0.006 C 
ATOM      4  C   UNL     1      16.008 -48.563  -5.141  1.00  0.00     0.047 C 
ATOM      5  C   UNL     1      15.707 -48.978  -3.679  1.00  0.00     0.025 C 
ATOM      6  C   UNL     1      16.856 -48.763  -2.694  1.00  0.00    -0.073 C 
ATOM      7  C   UNL     1      18.051 -48.243  -3.030  1.00  0.00     0.008 C 
ATOM      8  C   UNL     1      16.610 -49.216  -1.274  1.00  0.00     0.031 C 
ATOM      9  C   UNL     1      15.317 -48.598  -0.734  1.00  0.00     0.005 C 
ATOM     10  C   UNL     1      14.133 -48.837  -1.685  1.00  0.00     0.008 C 
ATOM     11  C   UNL     1      14.399 -48.326  -3.133  1.00  0.00    -0.018 C 
ATOM     12  C   UNL     1      13.214 -48.770  -4.026  1.00  0.00     0.088 C 
ATOM     13  C   UNL     1      13.469 -48.499  -5.481  1.00  0.00     0.159 C 
ATOM     14  O   UNL     1      12.529 -48.036  -6.182  1.00  0.00    -0.295 OA
ATOM     15  C   UNL     1      14.486 -46.774  -3.128  1.00  0.00     0.012 C 
ATOM     16  C   UNL     1      16.372 -49.169  -7.994  1.00  0.00     0.039 C 
ENDROOT
TORSDOF 0
ENDMDL
MODEL 9
REMARK VINA RESULT:    -4.477     19.275     20.276
REMARK INTER + INTRA:          -4.477
REMARK INTER:                  -4.477
REMARK INTRA:                   0.000
REMARK UNBOUND:                 0.000
REMARK SMILES C=C1CCC[C@]2(C)CC(=O)C(=C(C)C)C[C@@H]12
REMARK SMILES IDX 13 1 12 2 11 3 15 4 16 5 2 6 1 7 3 8 4 9 5 10 6 11 8 12 9 13
REMARK SMILES IDX 10 14 7 15 14 16
REMARK H PARENT
REMARK Flexibility Score: inf
ROOT
ATOM      1  C   UNL     1      27.338 -40.335 -16.437  1.00  0.00     0.039 C 
ATOM      2  C   UNL     1      26.471 -39.130 -16.157  1.00  0.00    -0.070 C 
ATOM      3  C   UNL     1      26.999 -37.946 -15.729  1.00  0.00    -0.006 C 
ATOM      4  C   UNL     1      26.119 -36.723 -15.510  1.00  0.00     0.047 C 
ATOM      5  C   UNL     1      26.868 -35.391 -15.763  1.00  0.00     0.025 C 
ATOM      6  C   UNL     1      26.045 -34.126 -15.519  1.00  0.00    -0.073 C 
ATOM      7  C   UNL     1      24.764 -34.128 -15.103  1.00  0.00     0.008 C 
ATOM      8  C   UNL     1      26.733 -32.815 -15.817  1.00  0.00     0.031 C 
ATOM      9  C   UNL     1      28.070 -32.734 -15.076  1.00  0.00     0.005 C 
ATOM     10  C   UNL     1      28.940 -33.975 -15.338  1.00  0.00     0.008 C 
ATOM     11  C   UNL     1      28.220 -35.312 -14.986  1.00  0.00    -0.018 C 
ATOM     12  C   UNL     1      29.124 -36.482 -15.446  1.00  0.00     0.088 C 
ATOM     13  C   UNL     1      28.432 -37.810 -15.334  1.00  0.00     0.159 C 
ATOM     14  O   UNL     1      29.084 -38.793 -14.888  1.00  0.00    -0.295 OA
ATOM     15  C   UNL     1      28.009 -35.399 -13.449  1.00  0.00     0.012 C 
ATOM     16  C   UNL     1      24.987 -39.281 -16.409  1.00  0.00     0.039 C 
ENDROOT
TORSDOF 0
ENDMDL
