MODEL 1
REMARK VINA RESULT:    -4.633      0.000      0.000
REMARK INTER + INTRA:          -5.449
REMARK INTER:                  -5.310
REMARK INTRA:                  -0.139
REMARK UNBOUND:                -0.139
REMARK SMILES O=C([O-])C=Cc1ccc(O)cc1
REMARK SMILES IDX 6 1 7 2 12 3 8 4 11 5 9 6 5 7 4 8 2 9 1 10 3 11 10 12
REMARK H PARENT 10 13
REMARK Flexibility Score: inf
ROOT
ATOM      1  C   UNL     1      11.149   4.156 -19.113  1.00  0.00    -0.025 A 
ATOM      2  C   UNL     1      11.189   3.351 -20.264  1.00  0.00     0.012 A 
ATOM      3  C   UNL     1       9.916   4.334 -18.450  1.00  0.00     0.012 A 
ATOM      4  C   UNL     1      10.024   2.757 -20.759  1.00  0.00     0.047 A 
ATOM      5  C   UNL     1       8.754   3.736 -18.948  1.00  0.00     0.047 A 
ATOM      6  C   UNL     1       8.804   2.950 -20.102  1.00  0.00     0.115 A 
ENDROOT
BRANCH   1   7
ATOM      7  C   UNL     1      12.414   4.757 -18.623  1.00  0.00     0.010 C 
ATOM      8  C   UNL     1      13.398   4.053 -18.045  1.00  0.00     0.025 C 
BRANCH   8   9
ATOM      9  C   UNL     1      14.632   4.693 -17.564  1.00  0.00     0.064 C 
ATOM     10  O   UNL     1      15.161   5.611 -18.243  1.00  0.00    -0.545 OA
ATOM     11  O   UNL     1      15.226   4.301 -16.369  1.00  0.00    -0.545 OA
ENDBRANCH   8   9
ENDBRANCH   1   7
BRANCH   6  12
ATOM     12  O   UNL     1       7.636   2.363 -20.586  1.00  0.00    -0.508 OA
ATOM     13  H   UNL     1       6.738   2.536 -20.151  1.00  0.00     0.293 HD
ENDBRANCH   6  12
TORSDOF 3
ENDMDL
MODEL 2
REMARK VINA RESULT:    -4.624     15.303     16.203
REMARK INTER + INTRA:          -5.439
REMARK INTER:                  -5.297
REMARK INTRA:                  -0.142
REMARK UNBOUND:                -0.139
REMARK SMILES O=C([O-])C=Cc1ccc(O)cc1
REMARK SMILES IDX 6 1 7 2 12 3 8 4 11 5 9 6 5 7 4 8 2 9 1 10 3 11 10 12
REMARK H PARENT 10 13
REMARK Flexibility Score: inf
ROOT
ATOM      1  C   UNL     1       7.940  -6.550  -7.463  1.00  0.00    -0.025 A 
ATOM      2  C   UNL     1       7.679  -7.793  -6.862  1.00  0.00     0.012 A 
ATOM      3  C   UNL     1       8.121  -5.420  -6.637  1.00  0.00     0.012 A 
ATOM      4  C   UNL     1       7.575  -7.905  -5.472  1.00  0.00     0.047 A 
ATOM      5  C   UNL     1       8.018  -5.538  -5.247  1.00  0.00     0.047 A 
ATOM      6  C   UNL     1       7.743  -6.776  -4.662  1.00  0.00     0.115 A 
ENDROOT
BRANCH   1   7
ATOM      7  C   UNL     1       8.050  -6.485  -8.941  1.00  0.00     0.010 C 
ATOM      8  C   UNL     1       8.030  -5.341  -9.639  1.00  0.00     0.025 C 
BRANCH   8   9
ATOM      9  C   UNL     1       8.132  -5.325 -11.108  1.00  0.00     0.064 C 
ATOM     10  O   UNL     1       8.690  -6.284 -11.702  1.00  0.00    -0.545 OA
ATOM     11  O   UNL     1       7.621  -4.267 -11.852  1.00  0.00    -0.545 OA
ENDBRANCH   8   9
ENDBRANCH   1   7
BRANCH   6  12
ATOM     12  O   UNL     1       7.642  -6.875  -3.276  1.00  0.00    -0.508 OA
ATOM     13  H   UNL     1       7.467  -7.763  -2.820  1.00  0.00     0.293 HD
ENDBRANCH   6  12
TORSDOF 3
ENDMDL
MODEL 3
REMARK VINA RESULT:    -4.603      0.079      1.400
REMARK INTER + INTRA:          -5.415
REMARK INTER:                  -5.280
REMARK INTRA:                  -0.135
REMARK UNBOUND:                -0.139
REMARK SMILES O=C([O-])C=Cc1ccc(O)cc1
REMARK SMILES IDX 6 1 7 2 12 3 8 4 11 5 9 6 5 7 4 8 2 9 1 10 3 11 10 12
REMARK H PARENT 10 13
REMARK Flexibility Score: inf
ROOT
ATOM      1  C   UNL     1      11.166   4.049 -19.144  1.00  0.00    -0.025 A 
ATOM      2  C   UNL     1       9.951   4.233 -18.463  1.00  0.00     0.012 A 
ATOM      3  C   UNL     1      11.167   3.300 -20.340  1.00  0.00     0.012 A 
ATOM      4  C   UNL     1       8.769   3.664 -18.946  1.00  0.00     0.047 A 
ATOM      5  C   UNL     1       9.983   2.734 -20.821  1.00  0.00     0.047 A 
ATOM      6  C   UNL     1       8.784   2.911 -20.126  1.00  0.00     0.115 A 
ENDROOT
BRANCH   1   7
ATOM      7  C   UNL     1      12.391   4.681 -18.596  1.00  0.00     0.010 C 
ATOM      8  C   UNL     1      13.427   3.991 -18.099  1.00  0.00     0.025 C 
BRANCH   8   9
ATOM      9  C   UNL     1      14.619   4.661 -17.555  1.00  0.00     0.064 C 
ATOM     10  O   UNL     1      15.166   5.584 -18.212  1.00  0.00    -0.545 OA
ATOM     11  O   UNL     1      15.152   4.292 -16.325  1.00  0.00    -0.545 OA
ENDBRANCH   8   9
ENDBRANCH   1   7
BRANCH   6  12
ATOM     12  O   UNL     1       7.612   2.339 -20.618  1.00  0.00    -0.508 OA
ATOM     13  H   UNL     1       7.055   2.800 -21.328  1.00  0.00     0.293 HD
ENDBRANCH   6  12
TORSDOF 3
ENDMDL
MODEL 4
REMARK VINA RESULT:    -4.394     14.544     15.162
REMARK INTER + INTRA:          -5.176
REMARK INTER:                  -5.032
REMARK INTRA:                  -0.144
REMARK UNBOUND:                -0.139
REMARK SMILES O=C([O-])C=Cc1ccc(O)cc1
REMARK SMILES IDX 6 1 7 2 12 3 8 4 11 5 9 6 5 7 4 8 2 9 1 10 3 11 10 12
REMARK H PARENT 10 13
REMARK Flexibility Score: inf
ROOT
ATOM      1  C   UNL     1       8.049  -6.033  -9.156  1.00  0.00    -0.025 A 
ATOM      2  C   UNL     1       8.070  -5.003 -10.112  1.00  0.00     0.012 A 
ATOM      3  C   UNL     1       8.041  -7.372  -9.599  1.00  0.00     0.012 A 
ATOM      4  C   UNL     1       8.056  -5.299 -11.478  1.00  0.00     0.047 A 
ATOM      5  C   UNL     1       8.029  -7.663 -10.967  1.00  0.00     0.047 A 
ATOM      6  C   UNL     1       8.033  -6.631 -11.908  1.00  0.00     0.115 A 
ENDROOT
BRANCH   1   7
ATOM      7  C   UNL     1       8.075  -5.667  -7.718  1.00  0.00     0.010 C 
ATOM      8  C   UNL     1       7.930  -6.552  -6.722  1.00  0.00     0.025 C 
BRANCH   8   9
ATOM      9  C   UNL     1       7.951  -6.142  -5.309  1.00  0.00     0.064 C 
ATOM     10  O   UNL     1       8.201  -4.945  -5.013  1.00  0.00    -0.545 OA
ATOM     11  O   UNL     1       7.699  -7.056  -4.292  1.00  0.00    -0.545 OA
ENDBRANCH   8   9
ENDBRANCH   1   7
BRANCH   6  12
ATOM     12  O   UNL     1       8.020  -6.938 -13.267  1.00  0.00    -0.508 OA
ATOM     13  H   UNL     1       8.506  -7.749 -13.632  1.00  0.00     0.293 HD
ENDBRANCH   6  12
TORSDOF 3
ENDMDL
MODEL 5
REMARK VINA RESULT:    -4.386      1.705      2.168
REMARK INTER + INTRA:          -5.166
REMARK INTER:                  -5.032
REMARK INTRA:                  -0.135
REMARK UNBOUND:                -0.139
REMARK SMILES O=C([O-])C=Cc1ccc(O)cc1
REMARK SMILES IDX 6 1 7 2 12 3 8 4 11 5 9 6 5 7 4 8 2 9 1 10 3 11 10 12
REMARK H PARENT 10 13
REMARK Flexibility Score: inf
ROOT
ATOM      1  C   UNL     1      12.530   4.732 -18.673  1.00  0.00    -0.025 A 
ATOM      2  C   UNL     1      11.770   5.328 -19.694  1.00  0.00     0.012 A 
ATOM      3  C   UNL     1      12.371   3.352 -18.425  1.00  0.00     0.012 A 
ATOM      4  C   UNL     1      10.855   4.574 -20.434  1.00  0.00     0.047 A 
ATOM      5  C   UNL     1      11.456   2.602 -19.169  1.00  0.00     0.047 A 
ATOM      6  C   UNL     1      10.695   3.209 -20.171  1.00  0.00     0.115 A 
ENDROOT
BRANCH   1   7
ATOM      7  C   UNL     1      13.495   5.573 -17.922  1.00  0.00     0.010 C 
ATOM      8  C   UNL     1      14.787   5.702 -18.256  1.00  0.00     0.025 C 
BRANCH   8   9
ATOM      9  C   UNL     1      15.711   6.540 -17.475  1.00  0.00     0.064 C 
ATOM     10  O   UNL     1      16.455   7.364 -18.069  1.00  0.00    -0.545 OA
ATOM     11  O   UNL     1      15.777   6.439 -16.090  1.00  0.00    -0.545 OA
ENDBRANCH   8   9
ENDBRANCH   1   7
BRANCH   6  12
ATOM     12  O   UNL     1       9.785   2.447 -20.902  1.00  0.00    -0.508 OA
ATOM     13  H   UNL     1      10.006   1.505 -21.203  1.00  0.00     0.293 HD
ENDBRANCH   6  12
TORSDOF 3
ENDMDL
MODEL 6
REMARK VINA RESULT:    -4.379     11.283     12.369
REMARK INTER + INTRA:          -5.158
REMARK INTER:                  -5.017
REMARK INTRA:                  -0.141
REMARK UNBOUND:                -0.139
REMARK SMILES O=C([O-])C=Cc1ccc(O)cc1
REMARK SMILES IDX 6 1 7 2 12 3 8 4 11 5 9 6 5 7 4 8 2 9 1 10 3 11 10 12
REMARK H PARENT 10 13
REMARK Flexibility Score: inf
ROOT
ATOM      1  C   UNL     1       4.649   5.638  -9.470  1.00  0.00    -0.025 A 
ATOM      2  C   UNL     1       5.758   4.823  -9.754  1.00  0.00     0.012 A 
ATOM      3  C   UNL     1       3.914   5.399  -8.290  1.00  0.00     0.012 A 
ATOM      4  C   UNL     1       6.113   3.778  -8.896  1.00  0.00     0.047 A 
ATOM      5  C   UNL     1       4.274   4.354  -7.434  1.00  0.00     0.047 A 
ATOM      6  C   UNL     1       5.369   3.540  -7.734  1.00  0.00     0.115 A 
ENDROOT
BRANCH   1   7
ATOM      7  C   UNL     1       4.319   6.740 -10.408  1.00  0.00     0.010 C 
ATOM      8  C   UNL     1       5.133   7.776 -10.654  1.00  0.00     0.025 C 
BRANCH   8   9
ATOM      9  C   UNL     1       4.759   8.853 -11.585  1.00  0.00     0.064 C 
ATOM     10  O   UNL     1       4.192   8.566 -12.671  1.00  0.00    -0.545 OA
ATOM     11  O   UNL     1       5.023  10.185 -11.286  1.00  0.00    -0.545 OA
ENDBRANCH   8   9
ENDBRANCH   1   7
BRANCH   6  12
ATOM     12  O   UNL     1       5.713   2.502  -6.871  1.00  0.00    -0.508 OA
ATOM     13  H   UNL     1       6.655   2.400  -6.515  1.00  0.00     0.293 HD
ENDBRANCH   6  12
TORSDOF 3
ENDMDL
MODEL 7
REMARK VINA RESULT:    -4.316      8.034      9.685
REMARK INTER + INTRA:          -5.086
REMARK INTER:                  -4.945
REMARK INTRA:                  -0.141
REMARK UNBOUND:                -0.139
REMARK SMILES O=C([O-])C=Cc1ccc(O)cc1
REMARK SMILES IDX 6 1 7 2 12 3 8 4 11 5 9 6 5 7 4 8 2 9 1 10 3 11 10 12
REMARK H PARENT 10 13
REMARK Flexibility Score: inf
ROOT
ATOM      1  C   UNL     1      20.004   7.614 -20.782  1.00  0.00    -0.025 A 
ATOM      2  C   UNL     1      20.115   7.101 -22.085  1.00  0.00     0.012 A 
ATOM      3  C   UNL     1      18.720   7.892 -20.267  1.00  0.00     0.012 A 
ATOM      4  C   UNL     1      18.976   6.894 -22.869  1.00  0.00     0.047 A 
ATOM      5  C   UNL     1      17.583   7.681 -21.054  1.00  0.00     0.047 A 
ATOM      6  C   UNL     1      17.707   7.185 -22.354  1.00  0.00     0.115 A 
ENDROOT
BRANCH   1   7
ATOM      7  C   UNL     1      21.243   7.808 -19.987  1.00  0.00     0.010 C 
ATOM      8  C   UNL     1      22.117   6.828 -19.720  1.00  0.00     0.025 C 
BRANCH   8   9
ATOM      9  C   UNL     1      23.328   7.064 -18.918  1.00  0.00     0.064 C 
ATOM     10  O   UNL     1      23.790   6.137 -18.204  1.00  0.00    -0.545 OA
ATOM     11  O   UNL     1      23.973   8.296 -18.936  1.00  0.00    -0.545 OA
ENDBRANCH   8   9
ENDBRANCH   1   7
BRANCH   6  12
ATOM     12  O   UNL     1      16.564   6.982 -23.125  1.00  0.00    -0.508 OA
ATOM     13  H   UNL     1      16.155   7.730 -23.673  1.00  0.00     0.293 HD
ENDBRANCH   6  12
TORSDOF 3
ENDMDL
MODEL 8
REMARK VINA RESULT:    -4.262      5.792      8.974
REMARK INTER + INTRA:          -5.024
REMARK INTER:                  -4.873
REMARK INTRA:                  -0.151
REMARK UNBOUND:                -0.139
REMARK SMILES O=C([O-])C=Cc1ccc(O)cc1
REMARK SMILES IDX 6 1 7 2 12 3 8 4 11 5 9 6 5 7 4 8 2 9 1 10 3 11 10 12
REMARK H PARENT 10 13
REMARK Flexibility Score: inf
ROOT
ATOM      1  C   UNL     1      17.780   7.391 -21.239  1.00  0.00    -0.025 A 
ATOM      2  C   UNL     1      18.783   7.873 -20.381  1.00  0.00     0.012 A 
ATOM      3  C   UNL     1      18.053   7.303 -22.620  1.00  0.00     0.012 A 
ATOM      4  C   UNL     1      20.020   8.282 -20.889  1.00  0.00     0.047 A 
ATOM      5  C   UNL     1      19.292   7.712 -23.124  1.00  0.00     0.047 A 
ATOM      6  C   UNL     1      20.275   8.204 -22.263  1.00  0.00     0.115 A 
ENDROOT
BRANCH   1   7
ATOM      7  C   UNL     1      16.488   6.960 -20.650  1.00  0.00     0.010 C 
ATOM      8  C   UNL     1      16.135   7.195 -19.378  1.00  0.00     0.025 C 
BRANCH   8   9
ATOM      9  C   UNL     1      14.846   6.739 -18.833  1.00  0.00     0.064 C 
ATOM     10  O   UNL     1      13.909   7.565 -18.683  1.00  0.00    -0.545 OA
ATOM     11  O   UNL     1      14.645   5.410 -18.480  1.00  0.00    -0.545 OA
ENDBRANCH   8   9
ENDBRANCH   1   7
BRANCH   6  12
ATOM     12  O   UNL     1      21.504   8.609 -22.781  1.00  0.00    -0.508 OA
ATOM     13  H   UNL     1      21.600   8.904 -23.745  1.00  0.00     0.293 HD
ENDBRANCH   6  12
TORSDOF 3
ENDMDL
MODEL 9
REMARK VINA RESULT:    -3.384      7.865      9.727
REMARK INTER + INTRA:          -4.018
REMARK INTER:                  -3.864
REMARK INTRA:                  -0.154
REMARK UNBOUND:                -0.139
REMARK SMILES O=C([O-])C=Cc1ccc(O)cc1
REMARK SMILES IDX 6 1 7 2 12 3 8 4 11 5 9 6 5 7 4 8 2 9 1 10 3 11 10 12
REMARK H PARENT 10 13
REMARK Flexibility Score: inf
ROOT
ATOM      1  C   UNL     1      19.451   7.450 -21.643  1.00  0.00    -0.025 A 
ATOM      2  C   UNL     1      19.399   7.948 -20.330  1.00  0.00     0.012 A 
ATOM      3  C   UNL     1      18.295   7.532 -22.447  1.00  0.00     0.012 A 
ATOM      4  C   UNL     1      18.216   8.491 -19.820  1.00  0.00     0.047 A 
ATOM      5  C   UNL     1      17.114   8.077 -21.933  1.00  0.00     0.047 A 
ATOM      6  C   UNL     1      17.070   8.555 -20.621  1.00  0.00     0.115 A 
ENDROOT
BRANCH   1   7
ATOM      7  C   UNL     1      20.733   6.892 -22.140  1.00  0.00     0.010 C 
ATOM      8  C   UNL     1      21.752   6.543 -21.343  1.00  0.00     0.025 C 
BRANCH   8   9
ATOM      9  C   UNL     1      23.011   6.003 -21.881  1.00  0.00     0.064 C 
ATOM     10  O   UNL     1      23.205   6.004 -23.125  1.00  0.00    -0.545 OA
ATOM     11  O   UNL     1      23.992   5.491 -21.039  1.00  0.00    -0.545 OA
ENDBRANCH   8   9
ENDBRANCH   1   7
BRANCH   6  12
ATOM     12  O   UNL     1      15.885   9.094 -20.124  1.00  0.00    -0.508 OA
ATOM     13  H   UNL     1      15.464   8.750 -19.270  1.00  0.00     0.293 HD
ENDBRANCH   6  12
TORSDOF 3
ENDMDL
