MODEL 1
REMARK VINA RESULT:    -4.136      0.000      0.000
REMARK INTER + INTRA:         -13.048
REMARK INTER:                  -9.455
REMARK INTRA:                  -3.593
REMARK UNBOUND:                -3.593
REMARK SMILES CCCCCCCCCCCCCCCCCCCCCCCC(=O)[O-]
REMARK SMILES IDX 13 1 14 2 15 3 16 4 17 5 18 6 19 7 20 8 21 9 22 10 23 11
REMARK SMILES IDX 24 12 25 13 26 14 12 15 11 16 10 17 9 18 8 19 7 20 6 21 5 22
REMARK SMILES IDX 4 23 3 24 2 25 1 26
REMARK H PARENT
REMARK Flexibility Score: inf
ROOT
ATOM      1  C   UNL     1     -15.490  -5.193 -31.521  1.00  0.00     0.000 C 
ENDROOT
BRANCH   1   2
ATOM      2  C   UNL     1     -15.441  -6.572 -30.839  1.00  0.00     0.000 C 
BRANCH   2   3
ATOM      3  C   UNL     1     -14.052  -6.996 -30.316  1.00  0.00     0.000 C 
BRANCH   3   4
ATOM      4  C   UNL     1     -13.913  -8.492 -29.979  1.00  0.00     0.000 C 
BRANCH   4   5
ATOM      5  C   UNL     1     -12.862  -8.761 -28.891  1.00  0.00     0.000 C 
BRANCH   5   6
ATOM      6  C   UNL     1     -12.012  -7.509 -28.627  1.00  0.00     0.000 C 
BRANCH   6   7
ATOM      7  C   UNL     1     -10.534  -7.706 -29.003  1.00  0.00     0.000 C 
BRANCH   7   8
ATOM      8  C   UNL     1      -9.958  -6.514 -29.782  1.00  0.00     0.000 C 
BRANCH   8   9
ATOM      9  C   UNL     1     -11.051  -5.479 -30.088  1.00  0.00     0.000 C 
BRANCH   9  10
ATOM     10  C   UNL     1     -10.559  -4.341 -31.002  1.00  0.00     0.006 C 
BRANCH  10  11
ATOM     11  C   UNL     1      -9.036  -4.128 -30.988  1.00  0.00     0.053 C 
BRANCH  11  12
ATOM     12  C   UNL     1      -8.659  -2.803 -30.396  1.00  0.00     0.041 C 
ATOM     13  O   UNL     1      -8.572  -2.669 -29.147  1.00  0.00    -0.550 OA
ATOM     14  O   UNL     1      -8.438  -1.710 -31.224  1.00  0.00    -0.550 OA
ENDBRANCH  11  12
ENDBRANCH  10  11
ENDBRANCH   9  10
ENDBRANCH   8   9
ENDBRANCH   7   8
ENDBRANCH   6   7
ENDBRANCH   5   6
ENDBRANCH   4   5
ENDBRANCH   3   4
ENDBRANCH   2   3
ENDBRANCH   1   2
BRANCH   1  15
ATOM     15  C   UNL     1     -14.113  -4.723 -32.013  1.00  0.00     0.000 C 
BRANCH  15  16
ATOM     16  C   UNL     1     -14.234  -3.965 -33.344  1.00  0.00     0.000 C 
BRANCH  16  17
ATOM     17  C   UNL     1     -15.519  -3.113 -33.427  1.00  0.00     0.000 C 
BRANCH  17  18
ATOM     18  C   UNL     1     -15.343  -1.786 -34.190  1.00  0.00    -0.000 C 
BRANCH  18  19
ATOM     19  C   UNL     1     -15.232  -0.532 -33.303  1.00  0.00    -0.000 C 
BRANCH  19  20
ATOM     20  C   UNL     1     -15.275  -0.794 -31.781  1.00  0.00    -0.000 C 
BRANCH  20  21
ATOM     21  C   UNL     1     -13.960  -0.523 -31.031  1.00  0.00    -0.000 C 
BRANCH  21  22
ATOM     22  C   UNL     1     -13.513  -1.709 -30.159  1.00  0.00    -0.000 C 
BRANCH  22  23
ATOM     23  C   UNL     1     -14.666  -2.288 -29.323  1.00  0.00    -0.000 C 
BRANCH  23  24
ATOM     24  C   UNL     1     -14.205  -2.793 -27.944  1.00  0.00    -0.000 C 
BRANCH  24  25
ATOM     25  C   UNL     1     -13.356  -4.070 -28.038  1.00  0.00    -0.003 C 
ATOM     26  C   UNL     1     -12.350  -4.196 -26.894  1.00  0.00     0.004 C 
ENDBRANCH  24  25
ENDBRANCH  23  24
ENDBRANCH  22  23
ENDBRANCH  21  22
ENDBRANCH  20  21
ENDBRANCH  19  20
ENDBRANCH  18  19
ENDBRANCH  17  18
ENDBRANCH  16  17
ENDBRANCH  15  16
ENDBRANCH   1  15
TORSDOF 22
ENDMDL
MODEL 2
REMARK VINA RESULT:    -4.120     18.305     21.573
REMARK INTER + INTRA:         -13.012
REMARK INTER:                  -8.556
REMARK INTRA:                  -4.456
REMARK UNBOUND:                -3.593
REMARK SMILES CCCCCCCCCCCCCCCCCCCCCCCC(=O)[O-]
REMARK SMILES IDX 13 1 14 2 15 3 16 4 17 5 18 6 19 7 20 8 21 9 22 10 23 11
REMARK SMILES IDX 24 12 25 13 26 14 12 15 11 16 10 17 9 18 8 19 7 20 6 21 5 22
REMARK SMILES IDX 4 23 3 24 2 25 1 26
REMARK H PARENT
REMARK Flexibility Score: inf
ROOT
ATOM      1  C   UNL     1       1.531   7.263 -21.489  1.00  0.00     0.000 C 
ENDROOT
BRANCH   1   2
ATOM      2  C   UNL     1       2.194   5.877 -21.568  1.00  0.00     0.000 C 
BRANCH   2   3
ATOM      3  C   UNL     1       3.124   5.527 -20.388  1.00  0.00     0.000 C 
BRANCH   3   4
ATOM      4  C   UNL     1       3.918   4.218 -20.551  1.00  0.00     0.000 C 
BRANCH   4   5
ATOM      5  C   UNL     1       3.745   3.586 -21.940  1.00  0.00     0.000 C 
BRANCH   5   6
ATOM      6  C   UNL     1       3.588   2.062 -21.835  1.00  0.00     0.000 C 
BRANCH   6   7
ATOM      7  C   UNL     1       2.997   1.618 -20.487  1.00  0.00     0.000 C 
BRANCH   7   8
ATOM      8  C   UNL     1       1.462   1.586 -20.496  1.00  0.00     0.000 C 
BRANCH   8   9
ATOM      9  C   UNL     1       0.899   1.913 -19.104  1.00  0.00     0.000 C 
BRANCH   9  10
ATOM     10  C   UNL     1       0.618   3.415 -18.909  1.00  0.00     0.006 C 
BRANCH  10  11
ATOM     11  C   UNL     1      -0.486   3.978 -19.820  1.00  0.00     0.053 C 
BRANCH  11  12
ATOM     12  C   UNL     1      -1.750   4.257 -19.065  1.00  0.00     0.041 C 
ATOM     13  O   UNL     1      -1.943   3.733 -17.936  1.00  0.00    -0.550 OA
ATOM     14  O   UNL     1      -2.730   5.068 -19.625  1.00  0.00    -0.550 OA
ENDBRANCH  11  12
ENDBRANCH  10  11
ENDBRANCH   9  10
ENDBRANCH   8   9
ENDBRANCH   7   8
ENDBRANCH   6   7
ENDBRANCH   5   6
ENDBRANCH   4   5
ENDBRANCH   3   4
ENDBRANCH   2   3
ENDBRANCH   1   2
BRANCH   1  15
ATOM     15  C   UNL     1       2.549   8.404 -21.356  1.00  0.00     0.000 C 
BRANCH  15  16
ATOM     16  C   UNL     1       2.296   9.223 -20.081  1.00  0.00     0.000 C 
BRANCH  16  17
ATOM     17  C   UNL     1       3.493   9.190 -19.107  1.00  0.00     0.000 C 
BRANCH  17  18
ATOM     18  C   UNL     1       3.324  10.101 -17.875  1.00  0.00    -0.000 C 
BRANCH  18  19
ATOM     19  C   UNL     1       1.901  10.645 -17.655  1.00  0.00    -0.000 C 
BRANCH  19  20
ATOM     20  C   UNL     1       1.411  10.643 -16.190  1.00  0.00    -0.000 C 
BRANCH  20  21
ATOM     21  C   UNL     1       1.982   9.519 -15.309  1.00  0.00    -0.000 C 
BRANCH  21  22
ATOM     22  C   UNL     1       1.180   8.211 -15.414  1.00  0.00    -0.000 C 
BRANCH  22  23
ATOM     23  C   UNL     1       1.895   7.152 -16.270  1.00  0.00    -0.000 C 
BRANCH  23  24
ATOM     24  C   UNL     1       1.079   6.737 -17.506  1.00  0.00    -0.000 C 
BRANCH  24  25
ATOM     25  C   UNL     1      -0.374   7.233 -17.447  1.00  0.00    -0.003 C 
ATOM     26  C   UNL     1      -0.754   8.095 -18.650  1.00  0.00     0.004 C 
ENDBRANCH  24  25
ENDBRANCH  23  24
ENDBRANCH  22  23
ENDBRANCH  21  22
ENDBRANCH  20  21
ENDBRANCH  19  20
ENDBRANCH  18  19
ENDBRANCH  17  18
ENDBRANCH  16  17
ENDBRANCH  15  16
ENDBRANCH   1  15
TORSDOF 22
ENDMDL
MODEL 3
REMARK VINA RESULT:    -4.083      1.652      4.622
REMARK INTER + INTRA:         -12.927
REMARK INTER:                  -9.720
REMARK INTRA:                  -3.206
REMARK UNBOUND:                -3.593
REMARK SMILES CCCCCCCCCCCCCCCCCCCCCCCC(=O)[O-]
REMARK SMILES IDX 13 1 14 2 15 3 16 4 17 5 18 6 19 7 20 8 21 9 22 10 23 11
REMARK SMILES IDX 24 12 25 13 26 14 12 15 11 16 10 17 9 18 8 19 7 20 6 21 5 22
REMARK SMILES IDX 4 23 3 24 2 25 1 26
REMARK H PARENT
REMARK Flexibility Score: inf
ROOT
ATOM      1  C   UNL     1     -12.110  -7.627 -28.475  1.00  0.00     0.000 C 
ENDROOT
BRANCH   1   2
ATOM      2  C   UNL     1     -10.597  -7.700 -28.207  1.00  0.00     0.000 C 
BRANCH   2   3
ATOM      3  C   UNL     1      -9.841  -8.785 -29.002  1.00  0.00     0.000 C 
BRANCH   3   4
ATOM      4  C   UNL     1      -8.651  -8.274 -29.833  1.00  0.00     0.000 C 
BRANCH   4   5
ATOM      5  C   UNL     1      -8.546  -6.741 -29.842  1.00  0.00     0.000 C 
BRANCH   5   6
ATOM      6  C   UNL     1      -9.282  -6.147 -31.052  1.00  0.00     0.000 C 
BRANCH   6   7
ATOM      7  C   UNL     1      -9.953  -4.801 -30.736  1.00  0.00     0.000 C 
BRANCH   7   8
ATOM      8  C   UNL     1     -11.473  -4.833 -30.952  1.00  0.00     0.000 C 
BRANCH   8   9
ATOM      9  C   UNL     1     -12.070  -3.420 -30.855  1.00  0.00     0.000 C 
BRANCH   9  10
ATOM     10  C   UNL     1     -10.996  -2.316 -30.840  1.00  0.00     0.006 C 
BRANCH  10  11
ATOM     11  C   UNL     1     -11.287  -1.160 -29.868  1.00  0.00     0.053 C 
BRANCH  11  12
ATOM     12  C   UNL     1     -11.227  -1.601 -28.436  1.00  0.00     0.041 C 
ATOM     13  O   UNL     1     -12.224  -1.446 -27.683  1.00  0.00    -0.550 OA
ATOM     14  O   UNL     1     -10.057  -2.150 -27.927  1.00  0.00    -0.550 OA
ENDBRANCH  11  12
ENDBRANCH  10  11
ENDBRANCH   9  10
ENDBRANCH   8   9
ENDBRANCH   7   8
ENDBRANCH   6   7
ENDBRANCH   5   6
ENDBRANCH   4   5
ENDBRANCH   3   4
ENDBRANCH   2   3
ENDBRANCH   1   2
BRANCH   1  15
ATOM     15  C   UNL     1     -12.698  -8.969 -28.936  1.00  0.00     0.000 C 
BRANCH  15  16
ATOM     16  C   UNL     1     -13.889  -8.752 -29.882  1.00  0.00     0.000 C 
BRANCH  16  17
ATOM     17  C   UNL     1     -14.084  -7.268 -30.259  1.00  0.00     0.000 C 
BRANCH  17  18
ATOM     18  C   UNL     1     -15.517  -6.919 -30.708  1.00  0.00    -0.000 C 
BRANCH  18  19
ATOM     19  C   UNL     1     -15.741  -5.442 -31.083  1.00  0.00    -0.000 C 
BRANCH  19  20
ATOM     20  C   UNL     1     -15.088  -4.990 -32.407  1.00  0.00    -0.000 C 
BRANCH  20  21
ATOM     21  C   UNL     1     -15.676  -3.711 -33.027  1.00  0.00    -0.000 C 
BRANCH  21  22
ATOM     22  C   UNL     1     -14.611  -2.826 -33.696  1.00  0.00    -0.000 C 
BRANCH  22  23
ATOM     23  C   UNL     1     -15.162  -1.446 -34.096  1.00  0.00    -0.000 C 
BRANCH  23  24
ATOM     24  C   UNL     1     -15.444  -0.545 -32.881  1.00  0.00    -0.000 C 
BRANCH  24  25
ATOM     25  C   UNL     1     -14.399  -0.713 -31.767  1.00  0.00    -0.003 C 
ATOM     26  C   UNL     1     -15.022  -1.100 -30.426  1.00  0.00     0.004 C 
ENDBRANCH  24  25
ENDBRANCH  23  24
ENDBRANCH  22  23
ENDBRANCH  21  22
ENDBRANCH  20  21
ENDBRANCH  19  20
ENDBRANCH  18  19
ENDBRANCH  17  18
ENDBRANCH  16  17
ENDBRANCH  15  16
ENDBRANCH   1  15
TORSDOF 22
ENDMDL
MODEL 4
REMARK VINA RESULT:    -4.075      1.760      6.065
REMARK INTER + INTRA:         -12.908
REMARK INTER:                  -9.623
REMARK INTRA:                  -3.286
REMARK UNBOUND:                -3.593
REMARK SMILES CCCCCCCCCCCCCCCCCCCCCCCC(=O)[O-]
REMARK SMILES IDX 13 1 14 2 15 3 16 4 17 5 18 6 19 7 20 8 21 9 22 10 23 11
REMARK SMILES IDX 24 12 25 13 26 14 12 15 11 16 10 17 9 18 8 19 7 20 6 21 5 22
REMARK SMILES IDX 4 23 3 24 2 25 1 26
REMARK H PARENT
REMARK Flexibility Score: inf
ROOT
ATOM      1  C   UNL     1     -14.128  -4.629 -32.500  1.00  0.00     0.000 C 
ENDROOT
BRANCH   1   2
ATOM      2  C   UNL     1     -14.267  -3.596 -33.632  1.00  0.00     0.000 C 
BRANCH   2   3
ATOM      3  C   UNL     1     -15.559  -2.753 -33.596  1.00  0.00     0.000 C 
BRANCH   3   4
ATOM      4  C   UNL     1     -15.414  -1.315 -34.124  1.00  0.00     0.000 C 
BRANCH   4   5
ATOM      5  C   UNL     1     -15.122  -0.299 -33.010  1.00  0.00     0.000 C 
BRANCH   5   6
ATOM      6  C   UNL     1     -15.272  -0.944 -31.624  1.00  0.00     0.000 C 
BRANCH   6   7
ATOM      7  C   UNL     1     -13.971  -0.905 -30.807  1.00  0.00     0.000 C 
BRANCH   7   8
ATOM      8  C   UNL     1     -13.958  -1.933 -29.666  1.00  0.00     0.000 C 
BRANCH   8   9
ATOM      9  C   UNL     1     -12.708  -2.823 -29.744  1.00  0.00     0.000 C 
BRANCH   9  10
ATOM     10  C   UNL     1     -11.820  -2.502 -30.961  1.00  0.00     0.006 C 
BRANCH  10  11
ATOM     11  C   UNL     1     -10.400  -2.030 -30.604  1.00  0.00     0.053 C 
BRANCH  11  12
ATOM     12  C   UNL     1     -10.369  -0.581 -30.220  1.00  0.00     0.041 C 
ATOM     13  O   UNL     1     -10.454   0.311 -31.105  1.00  0.00    -0.550 OA
ATOM     14  O   UNL     1     -10.211  -0.218 -28.888  1.00  0.00    -0.550 OA
ENDBRANCH  11  12
ENDBRANCH  10  11
ENDBRANCH   9  10
ENDBRANCH   8   9
ENDBRANCH   7   8
ENDBRANCH   6   7
ENDBRANCH   5   6
ENDBRANCH   4   5
ENDBRANCH   3   4
ENDBRANCH   2   3
ENDBRANCH   1   2
BRANCH   1  15
ATOM     15  C   UNL     1     -15.483  -5.161 -32.010  1.00  0.00     0.000 C 
BRANCH  15  16
ATOM     16  C   UNL     1     -15.348  -5.819 -30.628  1.00  0.00     0.000 C 
BRANCH  16  17
ATOM     17  C   UNL     1     -15.056  -7.333 -30.718  1.00  0.00     0.000 C 
BRANCH  17  18
ATOM     18  C   UNL     1     -13.802  -7.776 -29.939  1.00  0.00    -0.000 C 
BRANCH  18  19
ATOM     19  C   UNL     1     -12.863  -6.635 -29.509  1.00  0.00    -0.000 C 
BRANCH  19  20
ATOM     20  C   UNL     1     -11.646  -7.065 -28.661  1.00  0.00    -0.000 C 
BRANCH  20  21
ATOM     21  C   UNL     1     -10.307  -6.419 -29.059  1.00  0.00    -0.000 C 
BRANCH  21  22
ATOM     22  C   UNL     1     -10.341  -5.784 -30.458  1.00  0.00    -0.000 C 
BRANCH  22  23
ATOM     23  C   UNL     1      -8.944  -5.693 -31.095  1.00  0.00    -0.000 C 
BRANCH  23  24
ATOM     24  C   UNL     1      -7.899  -6.549 -30.359  1.00  0.00    -0.000 C 
BRANCH  24  25
ATOM     25  C   UNL     1      -6.507  -5.899 -30.347  1.00  0.00    -0.003 C 
ATOM     26  C   UNL     1      -5.392  -6.896 -30.028  1.00  0.00     0.004 C 
ENDBRANCH  24  25
ENDBRANCH  23  24
ENDBRANCH  22  23
ENDBRANCH  21  22
ENDBRANCH  20  21
ENDBRANCH  19  20
ENDBRANCH  18  19
ENDBRANCH  17  18
ENDBRANCH  16  17
ENDBRANCH  15  16
ENDBRANCH   1  15
TORSDOF 22
ENDMDL
MODEL 5
REMARK VINA RESULT:    -4.074      1.115      5.467
REMARK INTER + INTRA:         -12.907
REMARK INTER:                  -9.487
REMARK INTRA:                  -3.420
REMARK UNBOUND:                -3.593
REMARK SMILES CCCCCCCCCCCCCCCCCCCCCCCC(=O)[O-]
REMARK SMILES IDX 13 1 14 2 15 3 16 4 17 5 18 6 19 7 20 8 21 9 22 10 23 11
REMARK SMILES IDX 24 12 25 13 26 14 12 15 11 16 10 17 9 18 8 19 7 20 6 21 5 22
REMARK SMILES IDX 4 23 3 24 2 25 1 26
REMARK H PARENT
REMARK Flexibility Score: inf
ROOT
ATOM      1  C   UNL     1     -14.628  -3.262 -33.480  1.00  0.00     0.000 C 
ENDROOT
BRANCH   1   2
ATOM      2  C   UNL     1     -15.321  -1.893 -33.581  1.00  0.00     0.000 C 
BRANCH   2   3
ATOM      3  C   UNL     1     -15.175  -0.990 -32.338  1.00  0.00     0.000 C 
BRANCH   3   4
ATOM      4  C   UNL     1     -14.160  -1.484 -31.291  1.00  0.00     0.000 C 
BRANCH   4   5
ATOM      5  C   UNL     1     -14.832  -2.136 -30.073  1.00  0.00     0.000 C 
BRANCH   5   6
ATOM      6  C   UNL     1     -13.852  -2.241 -28.896  1.00  0.00     0.000 C 
BRANCH   6   7
ATOM      7  C   UNL     1     -13.477  -3.694 -28.563  1.00  0.00     0.000 C 
BRANCH   7   8
ATOM      8  C   UNL     1     -12.026  -4.031 -28.937  1.00  0.00     0.000 C 
BRANCH   8   9
ATOM      9  C   UNL     1     -11.909  -4.372 -30.430  1.00  0.00     0.000 C 
BRANCH   9  10
ATOM     10  C   UNL     1     -10.925  -3.453 -31.179  1.00  0.00     0.006 C 
BRANCH  10  11
ATOM     11  C   UNL     1     -10.381  -2.286 -30.337  1.00  0.00     0.053 C 
BRANCH  11  12
ATOM     12  C   UNL     1      -8.929  -2.028 -30.606  1.00  0.00     0.041 C 
ATOM     13  O   UNL     1      -8.571  -0.975 -31.199  1.00  0.00    -0.550 OA
ATOM     14  O   UNL     1      -7.975  -2.966 -30.233  1.00  0.00    -0.550 OA
ENDBRANCH  11  12
ENDBRANCH  10  11
ENDBRANCH   9  10
ENDBRANCH   8   9
ENDBRANCH   7   8
ENDBRANCH   6   7
ENDBRANCH   5   6
ENDBRANCH   4   5
ENDBRANCH   3   4
ENDBRANCH   2   3
ENDBRANCH   1   2
BRANCH   1  15
ATOM     15  C   UNL     1     -15.534  -4.346 -32.879  1.00  0.00     0.000 C 
BRANCH  15  16
ATOM     16  C   UNL     1     -14.728  -5.310 -31.995  1.00  0.00     0.000 C 
BRANCH  16  17
ATOM     17  C   UNL     1     -15.628  -6.171 -31.083  1.00  0.00     0.000 C 
BRANCH  17  18
ATOM     18  C   UNL     1     -14.984  -7.501 -30.642  1.00  0.00    -0.000 C 
BRANCH  18  19
ATOM     19  C   UNL     1     -13.641  -7.363 -29.903  1.00  0.00    -0.000 C 
BRANCH  19  20
ATOM     20  C   UNL     1     -13.141  -8.643 -29.197  1.00  0.00    -0.000 C 
BRANCH  20  21
ATOM     21  C   UNL     1     -12.402  -8.413 -27.867  1.00  0.00    -0.000 C 
BRANCH  21  22
ATOM     22  C   UNL     1     -10.992  -7.831 -28.060  1.00  0.00    -0.000 C 
BRANCH  22  23
ATOM     23  C   UNL     1     -10.097  -8.735 -28.924  1.00  0.00    -0.000 C 
BRANCH  23  24
ATOM     24  C   UNL     1      -8.666  -8.189 -29.072  1.00  0.00    -0.000 C 
BRANCH  24  25
ATOM     25  C   UNL     1      -8.640  -6.699 -29.446  1.00  0.00    -0.003 C 
ATOM     26  C   UNL     1      -8.953  -6.455 -30.922  1.00  0.00     0.004 C 
ENDBRANCH  24  25
ENDBRANCH  23  24
ENDBRANCH  22  23
ENDBRANCH  21  22
ENDBRANCH  20  21
ENDBRANCH  19  20
ENDBRANCH  18  19
ENDBRANCH  17  18
ENDBRANCH  16  17
ENDBRANCH  15  16
ENDBRANCH   1  15
TORSDOF 22
ENDMDL
MODEL 6
REMARK VINA RESULT:    -4.061      1.357      6.114
REMARK INTER + INTRA:         -12.877
REMARK INTER:                  -9.458
REMARK INTRA:                  -3.420
REMARK UNBOUND:                -3.593
REMARK SMILES CCCCCCCCCCCCCCCCCCCCCCCC(=O)[O-]
REMARK SMILES IDX 13 1 14 2 15 3 16 4 17 5 18 6 19 7 20 8 21 9 22 10 23 11
REMARK SMILES IDX 24 12 25 13 26 14 12 15 11 16 10 17 9 18 8 19 7 20 6 21 5 22
REMARK SMILES IDX 4 23 3 24 2 25 1 26
REMARK H PARENT
REMARK Flexibility Score: inf
ROOT
ATOM      1  C   UNL     1     -13.840  -5.166 -31.732  1.00  0.00     0.000 C 
ENDROOT
BRANCH   1   2
ATOM      2  C   UNL     1     -13.879  -4.242 -32.962  1.00  0.00     0.000 C 
BRANCH   2   3
ATOM      3  C   UNL     1     -15.228  -3.535 -33.209  1.00  0.00     0.000 C 
BRANCH   3   4
ATOM      4  C   UNL     1     -15.123  -2.124 -33.816  1.00  0.00     0.000 C 
BRANCH   4   5
ATOM      5  C   UNL     1     -15.382  -1.013 -32.788  1.00  0.00     0.000 C 
BRANCH   5   6
ATOM      6  C   UNL     1     -15.775  -1.605 -31.427  1.00  0.00     0.000 C 
BRANCH   6   7
ATOM      7  C   UNL     1     -14.882  -1.102 -30.281  1.00  0.00     0.000 C 
BRANCH   7   8
ATOM      8  C   UNL     1     -13.706  -2.045 -29.989  1.00  0.00     0.000 C 
BRANCH   8   9
ATOM      9  C   UNL     1     -12.424  -1.555 -30.681  1.00  0.00     0.000 C 
BRANCH   9  10
ATOM     10  C   UNL     1     -11.145  -1.944 -29.917  1.00  0.00     0.006 C 
BRANCH  10  11
ATOM     11  C   UNL     1      -9.974  -2.374 -30.816  1.00  0.00     0.053 C 
BRANCH  11  12
ATOM     12  C   UNL     1      -8.895  -1.334 -30.871  1.00  0.00     0.041 C 
ATOM     13  O   UNL     1      -9.186  -0.130 -31.100  1.00  0.00    -0.550 OA
ATOM     14  O   UNL     1      -7.566  -1.702 -30.703  1.00  0.00    -0.550 OA
ENDBRANCH  11  12
ENDBRANCH  10  11
ENDBRANCH   9  10
ENDBRANCH   8   9
ENDBRANCH   7   8
ENDBRANCH   6   7
ENDBRANCH   5   6
ENDBRANCH   4   5
ENDBRANCH   3   4
ENDBRANCH   2   3
ENDBRANCH   1   2
BRANCH   1  15
ATOM     15  C   UNL     1     -15.194  -5.831 -31.444  1.00  0.00     0.000 C 
BRANCH  15  16
ATOM     16  C   UNL     1     -15.013  -7.114 -30.620  1.00  0.00     0.000 C 
BRANCH  16  17
ATOM     17  C   UNL     1     -13.671  -7.145 -29.857  1.00  0.00     0.000 C 
BRANCH  17  18
ATOM     18  C   UNL     1     -13.194  -8.562 -29.483  1.00  0.00    -0.000 C 
BRANCH  18  19
ATOM     19  C   UNL     1     -12.759  -8.739 -28.017  1.00  0.00    -0.000 C 
BRANCH  19  20
ATOM     20  C   UNL     1     -11.251  -8.992 -27.800  1.00  0.00    -0.000 C 
BRANCH  20  21
ATOM     21  C   UNL     1     -10.410  -9.089 -29.085  1.00  0.00    -0.000 C 
BRANCH  21  22
ATOM     22  C   UNL     1      -9.066  -8.350 -28.977  1.00  0.00    -0.000 C 
BRANCH  22  23
ATOM     23  C   UNL     1      -8.826  -7.394 -30.159  1.00  0.00    -0.000 C 
BRANCH  23  24
ATOM     24  C   UNL     1      -9.778  -6.185 -30.148  1.00  0.00    -0.000 C 
BRANCH  24  25
ATOM     25  C   UNL     1      -9.666  -5.359 -28.858  1.00  0.00    -0.003 C 
ATOM     26  C   UNL     1     -10.987  -5.276 -28.093  1.00  0.00     0.004 C 
ENDBRANCH  24  25
ENDBRANCH  23  24
ENDBRANCH  22  23
ENDBRANCH  21  22
ENDBRANCH  20  21
ENDBRANCH  19  20
ENDBRANCH  18  19
ENDBRANCH  17  18
ENDBRANCH  16  17
ENDBRANCH  15  16
ENDBRANCH   1  15
TORSDOF 22
ENDMDL
MODEL 7
REMARK VINA RESULT:    -4.049      1.620      3.799
REMARK INTER + INTRA:         -12.851
REMARK INTER:                  -8.871
REMARK INTRA:                  -3.979
REMARK UNBOUND:                -3.593
REMARK SMILES CCCCCCCCCCCCCCCCCCCCCCCC(=O)[O-]
REMARK SMILES IDX 13 1 14 2 15 3 16 4 17 5 18 6 19 7 20 8 21 9 22 10 23 11
REMARK SMILES IDX 24 12 25 13 26 14 12 15 11 16 10 17 9 18 8 19 7 20 6 21 5 22
REMARK SMILES IDX 4 23 3 24 2 25 1 26
REMARK H PARENT
REMARK Flexibility Score: inf
ROOT
ATOM      1  C   UNL     1     -13.521  -8.040 -29.517  1.00  0.00     0.000 C 
ENDROOT
BRANCH   1   2
ATOM      2  C   UNL     1     -12.442  -6.944 -29.468  1.00  0.00     0.000 C 
BRANCH   2   3
ATOM      3  C   UNL     1     -12.161  -6.363 -28.067  1.00  0.00     0.000 C 
BRANCH   3   4
ATOM      4  C   UNL     1     -12.774  -4.975 -27.803  1.00  0.00     0.000 C 
BRANCH   4   5
ATOM      5  C   UNL     1     -11.715  -3.904 -27.502  1.00  0.00     0.000 C 
BRANCH   5   6
ATOM      6  C   UNL     1     -11.741  -2.793 -28.561  1.00  0.00     0.000 C 
BRANCH   6   7
ATOM      7  C   UNL     1     -12.664  -3.122 -29.745  1.00  0.00     0.000 C 
BRANCH   7   8
ATOM      8  C   UNL     1     -11.910  -3.200 -31.080  1.00  0.00     0.000 C 
BRANCH   8   9
ATOM      9  C   UNL     1     -11.019  -4.450 -31.134  1.00  0.00     0.000 C 
BRANCH   9  10
ATOM     10  C   UNL     1      -9.516  -4.118 -31.047  1.00  0.00     0.006 C 
BRANCH  10  11
ATOM     11  C   UNL     1      -8.591  -5.345 -31.103  1.00  0.00     0.053 C 
BRANCH  11  12
ATOM     12  C   UNL     1      -8.758  -6.230 -29.904  1.00  0.00     0.041 C 
ATOM     13  O   UNL     1      -8.671  -5.747 -28.744  1.00  0.00    -0.550 OA
ATOM     14  O   UNL     1      -8.974  -7.592 -30.070  1.00  0.00    -0.550 OA
ENDBRANCH  11  12
ENDBRANCH  10  11
ENDBRANCH   9  10
ENDBRANCH   8   9
ENDBRANCH   7   8
ENDBRANCH   6   7
ENDBRANCH   5   6
ENDBRANCH   4   5
ENDBRANCH   3   4
ENDBRANCH   2   3
ENDBRANCH   1   2
BRANCH   1  15
ATOM     15  C   UNL     1     -14.662  -7.707 -30.490  1.00  0.00     0.000 C 
BRANCH  15  16
ATOM     16  C   UNL     1     -14.585  -6.244 -30.950  1.00  0.00     0.000 C 
BRANCH  16  17
ATOM     17  C   UNL     1     -15.786  -5.405 -30.465  1.00  0.00     0.000 C 
BRANCH  17  18
ATOM     18  C   UNL     1     -15.928  -4.043 -31.173  1.00  0.00    -0.000 C 
BRANCH  18  19
ATOM     19  C   UNL     1     -15.771  -4.084 -32.704  1.00  0.00    -0.000 C 
BRANCH  19  20
ATOM     20  C   UNL     1     -14.780  -3.058 -33.295  1.00  0.00    -0.000 C 
BRANCH  20  21
ATOM     21  C   UNL     1     -15.424  -1.822 -33.946  1.00  0.00    -0.000 C 
BRANCH  21  22
ATOM     22  C   UNL     1     -15.021  -0.506 -33.260  1.00  0.00    -0.000 C 
BRANCH  22  23
ATOM     23  C   UNL     1     -15.518  -0.427 -31.806  1.00  0.00    -0.000 C 
BRANCH  23  24
ATOM     24  C   UNL     1     -14.371  -0.248 -30.796  1.00  0.00    -0.000 C 
BRANCH  24  25
ATOM     25  C   UNL     1     -14.878   0.038 -29.374  1.00  0.00    -0.003 C 
ATOM     26  C   UNL     1     -15.528  -1.182 -28.722  1.00  0.00     0.004 C 
ENDBRANCH  24  25
ENDBRANCH  23  24
ENDBRANCH  22  23
ENDBRANCH  21  22
ENDBRANCH  20  21
ENDBRANCH  19  20
ENDBRANCH  18  19
ENDBRANCH  17  18
ENDBRANCH  16  17
ENDBRANCH  15  16
ENDBRANCH   1  15
TORSDOF 22
ENDMDL
MODEL 8
REMARK VINA RESULT:    -4.001      0.995      2.003
REMARK INTER + INTRA:         -12.740
REMARK INTER:                  -8.729
REMARK INTRA:                  -4.011
REMARK UNBOUND:                -3.593
REMARK SMILES CCCCCCCCCCCCCCCCCCCCCCCC(=O)[O-]
REMARK SMILES IDX 13 1 14 2 15 3 16 4 17 5 18 6 19 7 20 8 21 9 22 10 23 11
REMARK SMILES IDX 24 12 25 13 26 14 12 15 11 16 10 17 9 18 8 19 7 20 6 21 5 22
REMARK SMILES IDX 4 23 3 24 2 25 1 26
REMARK H PARENT
REMARK Flexibility Score: inf
ROOT
ATOM      1  C   UNL     1     -14.307  -4.365 -32.577  1.00  0.00     0.000 C 
ENDROOT
BRANCH   1   2
ATOM      2  C   UNL     1     -15.726  -4.872 -32.264  1.00  0.00     0.000 C 
BRANCH   2   3
ATOM      3  C   UNL     1     -15.790  -6.124 -31.364  1.00  0.00     0.000 C 
BRANCH   3   4
ATOM      4  C   UNL     1     -14.478  -6.474 -30.640  1.00  0.00     0.000 C 
BRANCH   4   5
ATOM      5  C   UNL     1     -14.382  -7.962 -30.269  1.00  0.00     0.000 C 
BRANCH   5   6
ATOM      6  C   UNL     1     -13.156  -8.229 -29.383  1.00  0.00     0.000 C 
BRANCH   6   7
ATOM      7  C   UNL     1     -12.400  -6.943 -29.011  1.00  0.00     0.000 C 
BRANCH   7   8
ATOM      8  C   UNL     1     -11.010  -7.223 -28.423  1.00  0.00     0.000 C 
BRANCH   8   9
ATOM      9  C   UNL     1      -9.941  -7.241 -29.526  1.00  0.00     0.000 C 
BRANCH   9  10
ATOM     10  C   UNL     1      -9.965  -5.975 -30.404  1.00  0.00     0.006 C 
BRANCH  10  11
ATOM     11  C   UNL     1      -8.642  -5.190 -30.424  1.00  0.00     0.053 C 
BRANCH  11  12
ATOM     12  C   UNL     1      -8.863  -3.712 -30.308  1.00  0.00     0.041 C 
ATOM     13  O   UNL     1      -8.961  -3.003 -31.344  1.00  0.00    -0.550 OA
ATOM     14  O   UNL     1      -8.925  -3.115 -29.055  1.00  0.00    -0.550 OA
ENDBRANCH  11  12
ENDBRANCH  10  11
ENDBRANCH   9  10
ENDBRANCH   8   9
ENDBRANCH   7   8
ENDBRANCH   6   7
ENDBRANCH   5   6
ENDBRANCH   4   5
ENDBRANCH   3   4
ENDBRANCH   2   3
ENDBRANCH   1   2
BRANCH   1  15
ATOM     15  C   UNL     1     -14.289  -3.290 -33.675  1.00  0.00     0.000 C 
BRANCH  15  16
ATOM     16  C   UNL     1     -15.560  -2.429 -33.624  1.00  0.00     0.000 C 
BRANCH  16  17
ATOM     17  C   UNL     1     -15.356  -1.116 -32.839  1.00  0.00     0.000 C 
BRANCH  17  18
ATOM     18  C   UNL     1     -15.807  -1.188 -31.367  1.00  0.00    -0.000 C 
BRANCH  18  19
ATOM     19  C   UNL     1     -15.110  -0.194 -30.421  1.00  0.00    -0.000 C 
BRANCH  19  20
ATOM     20  C   UNL     1     -13.625   0.090 -30.738  1.00  0.00    -0.000 C 
BRANCH  20  21
ATOM     21  C   UNL     1     -12.612  -0.784 -29.978  1.00  0.00    -0.000 C 
BRANCH  21  22
ATOM     22  C   UNL     1     -12.223  -2.056 -30.749  1.00  0.00    -0.000 C 
BRANCH  22  23
ATOM     23  C   UNL     1     -12.428  -3.332 -29.914  1.00  0.00    -0.000 C 
BRANCH  23  24
ATOM     24  C   UNL     1     -13.647  -3.241 -28.979  1.00  0.00    -0.000 C 
BRANCH  24  25
ATOM     25  C   UNL     1     -13.343  -3.756 -27.564  1.00  0.00    -0.003 C 
ATOM     26  C   UNL     1     -11.889  -3.528 -27.152  1.00  0.00     0.004 C 
ENDBRANCH  24  25
ENDBRANCH  23  24
ENDBRANCH  22  23
ENDBRANCH  21  22
ENDBRANCH  20  21
ENDBRANCH  19  20
ENDBRANCH  18  19
ENDBRANCH  17  18
ENDBRANCH  16  17
ENDBRANCH  15  16
ENDBRANCH   1  15
TORSDOF 22
ENDMDL
MODEL 9
REMARK VINA RESULT:    -3.904     18.179     21.621
REMARK INTER + INTRA:         -12.518
REMARK INTER:                  -7.809
REMARK INTRA:                  -4.708
REMARK UNBOUND:                -3.593
REMARK SMILES CCCCCCCCCCCCCCCCCCCCCCCC(=O)[O-]
REMARK SMILES IDX 13 1 14 2 15 3 16 4 17 5 18 6 19 7 20 8 21 9 22 10 23 11
REMARK SMILES IDX 24 12 25 13 26 14 12 15 11 16 10 17 9 18 8 19 7 20 6 21 5 22
REMARK SMILES IDX 4 23 3 24 2 25 1 26
REMARK H PARENT
REMARK Flexibility Score: inf
ROOT
ATOM      1  C   UNL     1       2.093   8.006 -20.711  1.00  0.00     0.000 C 
ENDROOT
BRANCH   1   2
ATOM      2  C   UNL     1       2.876   6.797 -20.170  1.00  0.00     0.000 C 
BRANCH   2   3
ATOM      3  C   UNL     1       3.720   6.040 -21.216  1.00  0.00     0.000 C 
BRANCH   3   4
ATOM      4  C   UNL     1       3.809   4.518 -21.004  1.00  0.00     0.000 C 
BRANCH   4   5
ATOM      5  C   UNL     1       3.057   4.047 -19.750  1.00  0.00     0.000 C 
BRANCH   5   6
ATOM      6  C   UNL     1       2.532   2.615 -19.930  1.00  0.00     0.000 C 
BRANCH   6   7
ATOM      7  C   UNL     1       1.099   2.438 -19.401  1.00  0.00     0.000 C 
BRANCH   7   8
ATOM      8  C   UNL     1       0.447   3.769 -19.000  1.00  0.00     0.000 C 
BRANCH   8   9
ATOM      9  C   UNL     1      -0.724   4.110 -19.934  1.00  0.00     0.000 C 
BRANCH   9  10
ATOM     10  C   UNL     1      -0.408   5.275 -20.891  1.00  0.00     0.006 C 
BRANCH  10  11
ATOM     11  C   UNL     1       0.289   4.853 -22.196  1.00  0.00     0.053 C 
BRANCH  11  12
ATOM     12  C   UNL     1       0.191   5.912 -23.253  1.00  0.00     0.041 C 
ATOM     13  O   UNL     1       1.235   6.400 -23.760  1.00  0.00    -0.550 OA
ATOM     14  O   UNL     1      -1.054   6.383 -23.651  1.00  0.00    -0.550 OA
ENDBRANCH  11  12
ENDBRANCH  10  11
ENDBRANCH   9  10
ENDBRANCH   8   9
ENDBRANCH   7   8
ENDBRANCH   6   7
ENDBRANCH   5   6
ENDBRANCH   4   5
ENDBRANCH   3   4
ENDBRANCH   2   3
ENDBRANCH   1   2
BRANCH   1  15
ATOM     15  C   UNL     1       2.229   9.250 -19.821  1.00  0.00     0.000 C 
BRANCH  15  16
ATOM     16  C   UNL     1       3.488   9.165 -18.945  1.00  0.00     0.000 C 
BRANCH  16  17
ATOM     17  C   UNL     1       3.369  10.000 -17.652  1.00  0.00     0.000 C 
BRANCH  17  18
ATOM     18  C   UNL     1       1.960  10.573 -17.404  1.00  0.00    -0.000 C 
BRANCH  18  19
ATOM     19  C   UNL     1       1.364  10.266 -16.018  1.00  0.00    -0.000 C 
BRANCH  19  20
ATOM     20  C   UNL     1       1.992   9.062 -15.281  1.00  0.00    -0.000 C 
BRANCH  20  21
ATOM     21  C   UNL     1       1.190   7.752 -15.360  1.00  0.00    -0.000 C 
BRANCH  21  22
ATOM     22  C   UNL     1       1.144   7.163 -16.780  1.00  0.00    -0.000 C 
BRANCH  22  23
ATOM     23  C   UNL     1      -0.295   6.966 -17.286  1.00  0.00    -0.000 C 
BRANCH  23  24
ATOM     24  C   UNL     1      -0.742   8.079 -18.250  1.00  0.00    -0.000 C 
BRANCH  24  25
ATOM     25  C   UNL     1      -2.094   8.693 -17.855  1.00  0.00    -0.003 C 
ATOM     26  C   UNL     1      -2.124   9.168 -16.402  1.00  0.00     0.004 C 
ENDBRANCH  24  25
ENDBRANCH  23  24
ENDBRANCH  22  23
ENDBRANCH  21  22
ENDBRANCH  20  21
ENDBRANCH  19  20
ENDBRANCH  18  19
ENDBRANCH  17  18
ENDBRANCH  16  17
ENDBRANCH  15  16
ENDBRANCH   1  15
TORSDOF 22
ENDMDL
