MODEL 1
REMARK VINA RESULT:    -4.763      0.000      0.000
REMARK INTER + INTRA:         -10.145
REMARK INTER:                  -8.940
REMARK INTRA:                  -1.205
REMARK UNBOUND:                -1.205
REMARK SMILES O=C([O-])CCCCCCCCCCCCCCC(=O)[O-]
REMARK SMILES IDX 10 1 9 2 8 3 7 4 6 5 5 6 4 7 2 8 1 9 3 10 11 11 12 12 13 13
REMARK SMILES IDX 14 14 15 15 16 16 17 17 18 18 19 19 20 20
REMARK H PARENT
REMARK Flexibility Score: inf
ROOT
ATOM      1  C   UNL     1      20.963 117.896 297.998  1.00  0.00     0.000 C 
ENDROOT
BRANCH   1   2
ATOM      2  C   UNL     1      22.271 118.526 297.487  1.00  0.00     0.000 C 
BRANCH   2   3
ATOM      3  C   UNL     1      22.026 119.732 296.566  1.00  0.00     0.000 C 
BRANCH   3   4
ATOM      4  C   UNL     1      22.893 119.697 295.298  1.00  0.00     0.000 C 
BRANCH   4   5
ATOM      5  C   UNL     1      22.600 118.441 294.468  1.00  0.00     0.000 C 
BRANCH   5   6
ATOM      6  C   UNL     1      23.885 117.641 294.207  1.00  0.00     0.006 C 
BRANCH   6   7
ATOM      7  C   UNL     1      25.132 118.537 294.183  1.00  0.00     0.053 C 
BRANCH   7   8
ATOM      8  C   UNL     1      25.757 118.584 292.822  1.00  0.00     0.041 C 
ATOM      9  O   UNL     1      25.076 118.937 291.825  1.00  0.00    -0.550 OA
ATOM     10  O   UNL     1      27.084 118.208 292.652  1.00  0.00    -0.550 OA
ENDBRANCH   7   8
ENDBRANCH   6   7
ENDBRANCH   5   6
ENDBRANCH   4   5
ENDBRANCH   3   4
ENDBRANCH   2   3
ENDBRANCH   1   2
BRANCH   1  11
ATOM     11  C   UNL     1      20.360 116.896 296.997  1.00  0.00     0.000 C 
BRANCH  11  12
ATOM     12  C   UNL     1      19.192 117.496 296.194  1.00  0.00     0.000 C 
BRANCH  12  13
ATOM     13  C   UNL     1      17.871 116.744 296.426  1.00  0.00     0.000 C 
BRANCH  13  14
ATOM     14  C   UNL     1      17.136 116.416 295.115  1.00  0.00     0.000 C 
BRANCH  14  15
ATOM     15  C   UNL     1      17.311 117.508 294.044  1.00  0.00     0.000 C 
BRANCH  15  16
ATOM     16  C   UNL     1      18.037 117.051 292.763  1.00  0.00     0.006 C 
BRANCH  16  17
ATOM     17  C   UNL     1      17.271 116.010 291.931  1.00  0.00     0.053 C 
BRANCH  17  18
ATOM     18  C   UNL     1      18.126 115.411 290.856  1.00  0.00     0.041 C 
ATOM     19  O   UNL     1      19.330 115.760 290.737  1.00  0.00    -0.550 OA
ATOM     20  O   UNL     1      17.602 114.443 290.008  1.00  0.00    -0.550 OA
ENDBRANCH  17  18
ENDBRANCH  16  17
ENDBRANCH  15  16
ENDBRANCH  14  15
ENDBRANCH  13  14
ENDBRANCH  12  13
ENDBRANCH  11  12
ENDBRANCH   1  11
TORSDOF 15
ENDMDL
MODEL 2
REMARK VINA RESULT:    -4.741      3.507      5.309
REMARK INTER + INTRA:         -10.102
REMARK INTER:                  -8.020
REMARK INTRA:                  -2.082
REMARK UNBOUND:                -1.205
REMARK SMILES O=C([O-])CCCCCCCCCCCCCCC(=O)[O-]
REMARK SMILES IDX 10 1 9 2 8 3 7 4 6 5 5 6 4 7 2 8 1 9 3 10 11 11 12 12 13 13
REMARK SMILES IDX 14 14 15 15 16 16 17 17 18 18 19 19 20 20
REMARK H PARENT
REMARK Flexibility Score: inf
ROOT
ATOM      1  C   UNL     1      20.865 118.104 296.312  1.00  0.00     0.000 C 
ENDROOT
BRANCH   1   2
ATOM      2  C   UNL     1      20.584 118.742 294.940  1.00  0.00     0.000 C 
BRANCH   2   3
ATOM      3  C   UNL     1      20.539 120.277 295.000  1.00  0.00     0.000 C 
BRANCH   3   4
ATOM      4  C   UNL     1      19.830 120.802 296.259  1.00  0.00     0.000 C 
BRANCH   4   5
ATOM      5  C   UNL     1      18.358 121.115 295.968  1.00  0.00     0.000 C 
BRANCH   5   6
ATOM      6  C   UNL     1      18.229 122.200 294.887  1.00  0.00     0.006 C 
BRANCH   6   7
ATOM      7  C   UNL     1      17.415 121.720 293.677  1.00  0.00     0.053 C 
BRANCH   7   8
ATOM      8  C   UNL     1      16.068 122.373 293.619  1.00  0.00     0.041 C 
ATOM      9  O   UNL     1      15.572 122.896 294.651  1.00  0.00    -0.550 OA
ATOM     10  O   UNL     1      15.347 122.377 292.431  1.00  0.00    -0.550 OA
ENDBRANCH   7   8
ENDBRANCH   6   7
ENDBRANCH   5   6
ENDBRANCH   4   5
ENDBRANCH   3   4
ENDBRANCH   2   3
ENDBRANCH   1   2
BRANCH   1  11
ATOM     11  C   UNL     1      19.888 116.964 296.644  1.00  0.00     0.000 C 
BRANCH  11  12
ATOM     12  C   UNL     1      18.431 117.447 296.747  1.00  0.00     0.000 C 
BRANCH  12  13
ATOM     13  C   UNL     1      17.544 116.882 295.625  1.00  0.00     0.000 C 
BRANCH  13  14
ATOM     14  C   UNL     1      16.662 117.958 294.967  1.00  0.00     0.000 C 
BRANCH  14  15
ATOM     15  C   UNL     1      16.905 118.082 293.452  1.00  0.00     0.000 C 
BRANCH  15  16
ATOM     16  C   UNL     1      17.953 117.106 292.879  1.00  0.00     0.006 C 
BRANCH  16  17
ATOM     17  C   UNL     1      17.366 115.945 292.061  1.00  0.00     0.053 C 
BRANCH  17  18
ATOM     18  C   UNL     1      18.169 115.665 290.828  1.00  0.00     0.041 C 
ATOM     19  O   UNL     1      19.420 115.804 290.842  1.00  0.00    -0.550 OA
ATOM     20  O   UNL     1      17.538 115.220 289.673  1.00  0.00    -0.550 OA
ENDBRANCH  17  18
ENDBRANCH  16  17
ENDBRANCH  15  16
ENDBRANCH  14  15
ENDBRANCH  13  14
ENDBRANCH  12  13
ENDBRANCH  11  12
ENDBRANCH   1  11
TORSDOF 15
ENDMDL
MODEL 3
REMARK VINA RESULT:    -4.702      1.259      6.608
REMARK INTER + INTRA:         -10.030
REMARK INTER:                  -9.309
REMARK INTRA:                  -0.721
REMARK UNBOUND:                -1.205
REMARK SMILES O=C([O-])CCCCCCCCCCCCCCC(=O)[O-]
REMARK SMILES IDX 10 1 9 2 8 3 7 4 6 5 5 6 4 7 2 8 1 9 3 10 11 11 12 12 13 13
REMARK SMILES IDX 14 14 15 15 16 16 17 17 18 18 19 19 20 20
REMARK H PARENT
REMARK Flexibility Score: inf
ROOT
ATOM      1  C   UNL     1      19.918 117.950 296.212  1.00  0.00     0.000 C 
ENDROOT
BRANCH   1   2
ATOM      2  C   UNL     1      18.728 118.266 297.137  1.00  0.00     0.000 C 
BRANCH   2   3
ATOM      3  C   UNL     1      17.393 117.747 296.580  1.00  0.00     0.000 C 
BRANCH   3   4
ATOM      4  C   UNL     1      17.567 116.918 295.297  1.00  0.00     0.000 C 
BRANCH   4   5
ATOM      5  C   UNL     1      17.410 117.798 294.051  1.00  0.00     0.000 C 
BRANCH   5   6
ATOM      6  C   UNL     1      18.155 117.191 292.852  1.00  0.00     0.006 C 
BRANCH   6   7
ATOM      7  C   UNL     1      17.246 116.297 291.996  1.00  0.00     0.053 C 
BRANCH   7   8
ATOM      8  C   UNL     1      18.036 115.442 291.053  1.00  0.00     0.041 C 
ATOM      9  O   UNL     1      19.231 115.731 290.785  1.00  0.00    -0.550 OA
ATOM     10  O   UNL     1      17.441 114.342 290.446  1.00  0.00    -0.550 OA
ENDBRANCH   7   8
ENDBRANCH   6   7
ENDBRANCH   5   6
ENDBRANCH   4   5
ENDBRANCH   3   4
ENDBRANCH   2   3
ENDBRANCH   1   2
BRANCH   1  11
ATOM     11  C   UNL     1      20.881 116.919 296.822  1.00  0.00     0.000 C 
BRANCH  11  12
ATOM     12  C   UNL     1      22.355 117.230 296.508  1.00  0.00     0.000 C 
BRANCH  12  13
ATOM     13  C   UNL     1      22.518 118.110 295.258  1.00  0.00     0.000 C 
BRANCH  13  14
ATOM     14  C   UNL     1      23.893 117.944 294.589  1.00  0.00     0.000 C 
BRANCH  14  15
ATOM     15  C   UNL     1      24.341 119.203 293.826  1.00  0.00     0.000 C 
BRANCH  15  16
ATOM     16  C   UNL     1      25.526 118.992 292.861  1.00  0.00     0.006 C 
BRANCH  16  17
ATOM     17  C   UNL     1      25.632 117.574 292.280  1.00  0.00     0.053 C 
BRANCH  17  18
ATOM     18  C   UNL     1      25.224 117.526 290.839  1.00  0.00     0.041 C 
ATOM     19  O   UNL     1      25.045 116.418 290.268  1.00  0.00    -0.550 OA
ATOM     20  O   UNL     1      25.011 118.706 290.137  1.00  0.00    -0.550 OA
ENDBRANCH  17  18
ENDBRANCH  16  17
ENDBRANCH  15  16
ENDBRANCH  14  15
ENDBRANCH  13  14
ENDBRANCH  12  13
ENDBRANCH  11  12
ENDBRANCH   1  11
TORSDOF 15
ENDMDL
MODEL 4
REMARK VINA RESULT:    -4.697      1.413      1.837
REMARK INTER + INTRA:         -10.021
REMARK INTER:                  -9.061
REMARK INTRA:                  -0.960
REMARK UNBOUND:                -1.205
REMARK SMILES O=C([O-])CCCCCCCCCCCCCCC(=O)[O-]
REMARK SMILES IDX 10 1 9 2 8 3 7 4 6 5 5 6 4 7 2 8 1 9 3 10 11 11 12 12 13 13
REMARK SMILES IDX 14 14 15 15 16 16 17 17 18 18 19 19 20 20
REMARK H PARENT
REMARK Flexibility Score: inf
ROOT
ATOM      1  C   UNL     1      20.487 116.890 296.890  1.00  0.00     0.000 C 
ENDROOT
BRANCH   1   2
ATOM      2  C   UNL     1      22.025 116.839 296.853  1.00  0.00     0.000 C 
BRANCH   2   3
ATOM      3  C   UNL     1      22.638 118.030 296.099  1.00  0.00     0.000 C 
BRANCH   3   4
ATOM      4  C   UNL     1      23.438 117.600 294.860  1.00  0.00     0.000 C 
BRANCH   4   5
ATOM      5  C   UNL     1      24.385 118.717 294.404  1.00  0.00     0.000 C 
BRANCH   5   6
ATOM      6  C   UNL     1      24.372 118.860 292.875  1.00  0.00     0.006 C 
BRANCH   6   7
ATOM      7  C   UNL     1      25.459 118.009 292.202  1.00  0.00     0.053 C 
BRANCH   7   8
ATOM      8  C   UNL     1      25.057 117.582 290.824  1.00  0.00     0.041 C 
ATOM      9  O   UNL     1      24.620 118.428 290.001  1.00  0.00    -0.550 OA
ATOM     10  O   UNL     1      25.137 116.243 290.459  1.00  0.00    -0.550 OA
ENDBRANCH   7   8
ENDBRANCH   6   7
ENDBRANCH   5   6
ENDBRANCH   4   5
ENDBRANCH   3   4
ENDBRANCH   2   3
ENDBRANCH   1   2
BRANCH   1  11
ATOM     11  C   UNL     1      19.956 118.154 297.586  1.00  0.00     0.000 C 
BRANCH  11  12
ATOM     12  C   UNL     1      18.626 118.645 296.987  1.00  0.00     0.000 C 
BRANCH  12  13
ATOM     13  C   UNL     1      18.817 119.375 295.648  1.00  0.00     0.000 C 
BRANCH  13  14
ATOM     14  C   UNL     1      17.750 118.994 294.607  1.00  0.00     0.000 C 
BRANCH  14  15
ATOM     15  C   UNL     1      17.750 117.491 294.275  1.00  0.00     0.000 C 
BRANCH  15  16
ATOM     16  C   UNL     1      18.227 117.140 292.851  1.00  0.00     0.006 C 
BRANCH  16  17
ATOM     17  C   UNL     1      17.323 116.148 292.101  1.00  0.00     0.053 C 
BRANCH  17  18
ATOM     18  C   UNL     1      18.047 115.466 290.981  1.00  0.00     0.041 C 
ATOM     19  O   UNL     1      19.258 115.731 290.755  1.00  0.00    -0.550 OA
ATOM     20  O   UNL     1      17.395 114.514 290.208  1.00  0.00    -0.550 OA
ENDBRANCH  17  18
ENDBRANCH  16  17
ENDBRANCH  15  16
ENDBRANCH  14  15
ENDBRANCH  13  14
ENDBRANCH  12  13
ENDBRANCH  11  12
ENDBRANCH   1  11
TORSDOF 15
ENDMDL
MODEL 5
REMARK VINA RESULT:    -4.582      1.916      7.580
REMARK INTER + INTRA:          -9.805
REMARK INTER:                  -8.871
REMARK INTRA:                  -0.934
REMARK UNBOUND:                -1.205
REMARK SMILES O=C([O-])CCCCCCCCCCCCCCC(=O)[O-]
REMARK SMILES IDX 10 1 9 2 8 3 7 4 6 5 5 6 4 7 2 8 1 9 3 10 11 11 12 12 13 13
REMARK SMILES IDX 14 14 15 15 16 16 17 17 18 18 19 19 20 20
REMARK H PARENT
REMARK Flexibility Score: inf
ROOT
ATOM      1  C   UNL     1      20.066 116.940 296.759  1.00  0.00     0.000 C 
ENDROOT
BRANCH   1   2
ATOM      2  C   UNL     1      19.009 117.895 296.175  1.00  0.00     0.000 C 
BRANCH   2   3
ATOM      3  C   UNL     1      17.575 117.375 296.363  1.00  0.00     0.000 C 
BRANCH   3   4
ATOM      4  C   UNL     1      17.030 116.671 295.111  1.00  0.00     0.000 C 
BRANCH   4   5
ATOM      5  C   UNL     1      17.091 117.597 293.891  1.00  0.00     0.000 C 
BRANCH   5   6
ATOM      6  C   UNL     1      17.977 116.997 292.788  1.00  0.00     0.006 C 
BRANCH   6   7
ATOM      7  C   UNL     1      17.267 115.873 292.020  1.00  0.00     0.053 C 
BRANCH   7   8
ATOM      8  C   UNL     1      18.058 115.428 290.828  1.00  0.00     0.041 C 
ATOM      9  O   UNL     1      19.265 115.764 290.708  1.00  0.00    -0.550 OA
ATOM     10  O   UNL     1      17.452 114.670 289.834  1.00  0.00    -0.550 OA
ENDBRANCH   7   8
ENDBRANCH   6   7
ENDBRANCH   5   6
ENDBRANCH   4   5
ENDBRANCH   3   4
ENDBRANCH   2   3
ENDBRANCH   1   2
BRANCH   1  11
ATOM     11  C   UNL     1      21.250 117.687 297.394  1.00  0.00     0.000 C 
BRANCH  11  12
ATOM     12  C   UNL     1      22.447 117.820 296.435  1.00  0.00     0.000 C 
BRANCH  12  13
ATOM     13  C   UNL     1      22.546 119.220 295.809  1.00  0.00     0.000 C 
BRANCH  13  14
ATOM     14  C   UNL     1      22.910 119.178 294.314  1.00  0.00     0.000 C 
BRANCH  14  15
ATOM     15  C   UNL     1      24.357 118.715 294.066  1.00  0.00     0.000 C 
BRANCH  15  16
ATOM     16  C   UNL     1      25.309 119.810 293.542  1.00  0.00     0.006 C 
BRANCH  16  17
ATOM     17  C   UNL     1      26.443 120.187 294.508  1.00  0.00     0.053 C 
BRANCH  17  18
ATOM     18  C   UNL     1      26.054 121.313 295.417  1.00  0.00     0.041 C 
ATOM     19  O   UNL     1      25.397 121.082 296.466  1.00  0.00    -0.550 OA
ATOM     20  O   UNL     1      26.445 122.613 295.121  1.00  0.00    -0.550 OA
ENDBRANCH  17  18
ENDBRANCH  16  17
ENDBRANCH  15  16
ENDBRANCH  14  15
ENDBRANCH  13  14
ENDBRANCH  12  13
ENDBRANCH  11  12
ENDBRANCH   1  11
TORSDOF 15
ENDMDL
MODEL 6
REMARK VINA RESULT:    -4.551      2.386      6.465
REMARK INTER + INTRA:          -9.746
REMARK INTER:                  -7.849
REMARK INTRA:                  -1.897
REMARK UNBOUND:                -1.205
REMARK SMILES O=C([O-])CCCCCCCCCCCCCCC(=O)[O-]
REMARK SMILES IDX 10 1 9 2 8 3 7 4 6 5 5 6 4 7 2 8 1 9 3 10 11 11 12 12 13 13
REMARK SMILES IDX 14 14 15 15 16 16 17 17 18 18 19 19 20 20
REMARK H PARENT
REMARK Flexibility Score: inf
ROOT
ATOM      1  C   UNL     1      17.883 120.891 294.370  1.00  0.00     0.000 C 
ENDROOT
BRANCH   1   2
ATOM      2  C   UNL     1      16.498 120.727 293.719  1.00  0.00     0.000 C 
BRANCH   2   3
ATOM      3  C   UNL     1      16.038 119.261 293.671  1.00  0.00     0.000 C 
BRANCH   3   4
ATOM      4  C   UNL     1      16.643 118.412 294.800  1.00  0.00     0.000 C 
BRANCH   4   5
ATOM      5  C   UNL     1      17.328 117.160 294.238  1.00  0.00     0.000 C 
BRANCH   5   6
ATOM      6  C   UNL     1      17.424 117.226 292.706  1.00  0.00     0.006 C 
BRANCH   6   7
ATOM      7  C   UNL     1      17.368 115.834 292.060  1.00  0.00     0.053 C 
BRANCH   7   8
ATOM      8  C   UNL     1      18.154 115.780 290.786  1.00  0.00     0.041 C 
ATOM      9  O   UNL     1      17.561 115.681 289.681  1.00  0.00    -0.550 OA
ATOM     10  O   UNL     1      19.543 115.807 290.823  1.00  0.00    -0.550 OA
ENDBRANCH   7   8
ENDBRANCH   6   7
ENDBRANCH   5   6
ENDBRANCH   4   5
ENDBRANCH   3   4
ENDBRANCH   2   3
ENDBRANCH   1   2
BRANCH   1  11
ATOM     11  C   UNL     1      17.881 121.926 295.507  1.00  0.00     0.000 C 
BRANCH  11  12
ATOM     12  C   UNL     1      18.015 121.278 296.896  1.00  0.00     0.000 C 
BRANCH  12  13
ATOM     13  C   UNL     1      19.239 120.352 296.998  1.00  0.00     0.000 C 
BRANCH  13  14
ATOM     14  C   UNL     1      18.899 118.984 297.613  1.00  0.00     0.000 C 
BRANCH  14  15
ATOM     15  C   UNL     1      19.831 117.861 297.122  1.00  0.00     0.000 C 
BRANCH  15  16
ATOM     16  C   UNL     1      20.451 118.095 295.729  1.00  0.00     0.006 C 
BRANCH  16  17
ATOM     17  C   UNL     1      21.975 117.905 295.669  1.00  0.00     0.053 C 
BRANCH  17  18
ATOM     18  C   UNL     1      22.625 118.878 294.733  1.00  0.00     0.041 C 
ATOM     19  O   UNL     1      23.271 118.461 293.735  1.00  0.00    -0.550 OA
ATOM     20  O   UNL     1      22.490 120.244 294.945  1.00  0.00    -0.550 OA
ENDBRANCH  17  18
ENDBRANCH  16  17
ENDBRANCH  15  16
ENDBRANCH  14  15
ENDBRANCH  13  14
ENDBRANCH  12  13
ENDBRANCH  11  12
ENDBRANCH   1  11
TORSDOF 15
ENDMDL
MODEL 7
REMARK VINA RESULT:    -4.512      3.163      6.923
REMARK INTER + INTRA:          -9.673
REMARK INTER:                  -7.541
REMARK INTRA:                  -2.132
REMARK UNBOUND:                -1.205
REMARK SMILES O=C([O-])CCCCCCCCCCCCCCC(=O)[O-]
REMARK SMILES IDX 10 1 9 2 8 3 7 4 6 5 5 6 4 7 2 8 1 9 3 10 11 11 12 12 13 13
REMARK SMILES IDX 14 14 15 15 16 16 17 17 18 18 19 19 20 20
REMARK H PARENT
REMARK Flexibility Score: inf
ROOT
ATOM      1  C   UNL     1      16.774 121.192 293.655  1.00  0.00     0.000 C 
ENDROOT
BRANCH   1   2
ATOM      2  C   UNL     1      15.986 119.877 293.790  1.00  0.00     0.000 C 
BRANCH   2   3
ATOM      3  C   UNL     1      15.854 119.414 295.249  1.00  0.00     0.000 C 
BRANCH   3   4
ATOM      4  C   UNL     1      16.379 117.987 295.470  1.00  0.00     0.000 C 
BRANCH   4   5
ATOM      5  C   UNL     1      17.568 117.692 294.548  1.00  0.00     0.000 C 
BRANCH   5   6
ATOM      6  C   UNL     1      17.284 116.474 293.655  1.00  0.00     0.006 C 
BRANCH   6   7
ATOM      7  C   UNL     1      17.381 116.813 292.161  1.00  0.00     0.053 C 
BRANCH   7   8
ATOM      8  C   UNL     1      17.862 115.646 291.356  1.00  0.00     0.041 C 
ATOM      9  O   UNL     1      17.135 114.628 291.219  1.00  0.00    -0.550 OA
ATOM     10  O   UNL     1      19.128 115.669 290.783  1.00  0.00    -0.550 OA
ENDBRANCH   7   8
ENDBRANCH   6   7
ENDBRANCH   5   6
ENDBRANCH   4   5
ENDBRANCH   3   4
ENDBRANCH   2   3
ENDBRANCH   1   2
BRANCH   1  11
ATOM     11  C   UNL     1      16.884 121.952 294.987  1.00  0.00     0.000 C 
BRANCH  11  12
ATOM     12  C   UNL     1      18.344 122.162 295.429  1.00  0.00     0.000 C 
BRANCH  12  13
ATOM     13  C   UNL     1      19.313 121.187 294.741  1.00  0.00     0.000 C 
BRANCH  13  14
ATOM     14  C   UNL     1      20.069 120.296 295.743  1.00  0.00     0.000 C 
BRANCH  14  15
ATOM     15  C   UNL     1      19.389 120.241 297.123  1.00  0.00     0.000 C 
BRANCH  15  16
ATOM     16  C   UNL     1      19.454 118.869 297.825  1.00  0.00     0.006 C 
BRANCH  16  17
ATOM     17  C   UNL     1      20.095 117.753 296.987  1.00  0.00     0.053 C 
BRANCH  17  18
ATOM     18  C   UNL     1      21.491 117.444 297.436  1.00  0.00     0.041 C 
ATOM     19  O   UNL     1      21.895 117.837 298.562  1.00  0.00    -0.550 OA
ATOM     20  O   UNL     1      22.334 116.695 296.625  1.00  0.00    -0.550 OA
ENDBRANCH  17  18
ENDBRANCH  16  17
ENDBRANCH  15  16
ENDBRANCH  14  15
ENDBRANCH  13  14
ENDBRANCH  12  13
ENDBRANCH  11  12
ENDBRANCH   1  11
TORSDOF 15
ENDMDL
MODEL 8
REMARK VINA RESULT:    -4.510      3.240      5.029
REMARK INTER + INTRA:          -9.670
REMARK INTER:                  -7.631
REMARK INTRA:                  -2.039
REMARK UNBOUND:                -1.205
REMARK SMILES O=C([O-])CCCCCCCCCCCCCCC(=O)[O-]
REMARK SMILES IDX 10 1 9 2 8 3 7 4 6 5 5 6 4 7 2 8 1 9 3 10 11 11 12 12 13 13
REMARK SMILES IDX 14 14 15 15 16 16 17 17 18 18 19 19 20 20
REMARK H PARENT
REMARK Flexibility Score: inf
ROOT
ATOM      1  C   UNL     1      15.722 120.272 293.146  1.00  0.00     0.000 C 
ENDROOT
BRANCH   1   2
ATOM      2  C   UNL     1      15.958 121.792 293.101  1.00  0.00     0.000 C 
BRANCH   2   3
ATOM      3  C   UNL     1      17.245 122.212 293.830  1.00  0.00     0.000 C 
BRANCH   3   4
ATOM      4  C   UNL     1      16.977 122.747 295.245  1.00  0.00     0.000 C 
BRANCH   4   5
ATOM      5  C   UNL     1      17.949 122.129 296.258  1.00  0.00     0.000 C 
BRANCH   5   6
ATOM      6  C   UNL     1      19.201 121.582 295.556  1.00  0.00     0.006 C 
BRANCH   6   7
ATOM      7  C   UNL     1      19.951 120.558 296.419  1.00  0.00     0.053 C 
BRANCH   7   8
ATOM      8  C   UNL     1      20.549 119.463 295.591  1.00  0.00     0.041 C 
ATOM      9  O   UNL     1      20.231 119.339 294.379  1.00  0.00    -0.550 OA
ATOM     10  O   UNL     1      21.434 118.559 296.165  1.00  0.00    -0.550 OA
ENDBRANCH   7   8
ENDBRANCH   6   7
ENDBRANCH   5   6
ENDBRANCH   4   5
ENDBRANCH   3   4
ENDBRANCH   2   3
ENDBRANCH   1   2
BRANCH   1  11
ATOM     11  C   UNL     1      14.742 119.860 294.257  1.00  0.00     0.000 C 
BRANCH  11  12
ATOM     12  C   UNL     1      15.309 118.755 295.166  1.00  0.00     0.000 C 
BRANCH  12  13
ATOM     13  C   UNL     1      16.845 118.779 295.233  1.00  0.00     0.000 C 
BRANCH  13  14
ATOM     14  C   UNL     1      17.451 117.382 295.453  1.00  0.00     0.000 C 
BRANCH  14  15
ATOM     15  C   UNL     1      17.220 116.437 294.260  1.00  0.00     0.000 C 
BRANCH  15  16
ATOM     16  C   UNL     1      17.907 116.867 292.948  1.00  0.00     0.006 C 
BRANCH  16  17
ATOM     17  C   UNL     1      17.190 116.404 291.670  1.00  0.00     0.053 C 
BRANCH  17  18
ATOM     18  C   UNL     1      18.089 115.598 290.783  1.00  0.00     0.041 C 
ATOM     19  O   UNL     1      19.336 115.766 290.824  1.00  0.00    -0.550 OA
ATOM     20  O   UNL     1      17.551 114.638 289.934  1.00  0.00    -0.550 OA
ENDBRANCH  17  18
ENDBRANCH  16  17
ENDBRANCH  15  16
ENDBRANCH  14  15
ENDBRANCH  13  14
ENDBRANCH  12  13
ENDBRANCH  11  12
ENDBRANCH   1  11
TORSDOF 15
ENDMDL
MODEL 9
REMARK VINA RESULT:    -4.464      3.551      7.585
REMARK INTER + INTRA:          -9.583
REMARK INTER:                  -7.651
REMARK INTRA:                  -1.931
REMARK UNBOUND:                -1.205
REMARK SMILES O=C([O-])CCCCCCCCCCCCCCC(=O)[O-]
REMARK SMILES IDX 10 1 9 2 8 3 7 4 6 5 5 6 4 7 2 8 1 9 3 10 11 11 12 12 13 13
REMARK SMILES IDX 14 14 15 15 16 16 17 17 18 18 19 19 20 20
REMARK H PARENT
REMARK Flexibility Score: inf
ROOT
ATOM      1  C   UNL     1      19.795 119.291 294.759  1.00  0.00     0.000 C 
ENDROOT
BRANCH   1   2
ATOM      2  C   UNL     1      18.881 118.993 295.962  1.00  0.00     0.000 C 
BRANCH   2   3
ATOM      3  C   UNL     1      18.838 117.497 296.314  1.00  0.00     0.000 C 
BRANCH   3   4
ATOM      4  C   UNL     1      17.446 116.879 296.109  1.00  0.00     0.000 C 
BRANCH   4   5
ATOM      5  C   UNL     1      16.882 117.243 294.731  1.00  0.00     0.000 C 
BRANCH   5   6
ATOM      6  C   UNL     1      17.270 116.189 293.682  1.00  0.00     0.006 C 
BRANCH   6   7
ATOM      7  C   UNL     1      17.618 116.820 292.326  1.00  0.00     0.053 C 
BRANCH   7   8
ATOM      8  C   UNL     1      17.967 115.783 291.303  1.00  0.00     0.041 C 
ATOM      9  O   UNL     1      19.146 115.689 290.873  1.00  0.00    -0.550 OA
ATOM     10  O   UNL     1      16.983 114.941 290.801  1.00  0.00    -0.550 OA
ENDBRANCH   7   8
ENDBRANCH   6   7
ENDBRANCH   5   6
ENDBRANCH   4   5
ENDBRANCH   3   4
ENDBRANCH   2   3
ENDBRANCH   1   2
BRANCH   1  11
ATOM     11  C   UNL     1      21.042 118.392 294.729  1.00  0.00     0.000 C 
BRANCH  11  12
ATOM     12  C   UNL     1      22.347 119.185 294.923  1.00  0.00     0.000 C 
BRANCH  12  13
ATOM     13  C   UNL     1      23.108 118.765 296.190  1.00  0.00     0.000 C 
BRANCH  13  14
ATOM     14  C   UNL     1      22.468 117.555 296.894  1.00  0.00     0.000 C 
BRANCH  14  15
ATOM     15  C   UNL     1      21.966 117.887 298.311  1.00  0.00     0.000 C 
BRANCH  15  16
ATOM     16  C   UNL     1      21.915 119.392 298.646  1.00  0.00     0.006 C 
BRANCH  16  17
ATOM     17  C   UNL     1      20.532 119.903 299.078  1.00  0.00     0.053 C 
BRANCH  17  18
ATOM     18  C   UNL     1      20.621 120.857 300.230  1.00  0.00     0.041 C 
ATOM     19  O   UNL     1      19.912 120.680 301.255  1.00  0.00    -0.550 OA
ATOM     20  O   UNL     1      21.511 121.923 300.184  1.00  0.00    -0.550 OA
ENDBRANCH  17  18
ENDBRANCH  16  17
ENDBRANCH  15  16
ENDBRANCH  14  15
ENDBRANCH  13  14
ENDBRANCH  12  13
ENDBRANCH  11  12
ENDBRANCH   1  11
TORSDOF 15
ENDMDL
