MODEL 1
REMARK VINA RESULT:    -7.163      0.000      0.000
REMARK INTER + INTRA:          -9.622
REMARK INTER:                  -9.047
REMARK INTRA:                  -0.575
REMARK UNBOUND:                -0.575
REMARK SMILES O=C(C=Cc1ccc(O)cc1)c1ccc(O)cc1O
REMARK SMILES IDX 4 1 3 2 5 3 6 4 7 5 8 6 11 7 10 8 9 9 2 11 1 12 12 13 18 14
REMARK SMILES IDX 13 15 17 16 14 17 15 18 19 19 16 21
REMARK H PARENT 9 10 19 20 16 22
REMARK Flexibility Score: inf
ROOT
ATOM      1  C   UNL     1      23.979  28.860  17.356  1.00  0.00     0.012 C 
ATOM      2  C   UNL     1      23.755  30.053  16.784  1.00  0.00     0.053 C 
ENDROOT
BRANCH   1   3
ATOM      3  C   UNL     1      25.171  28.024  17.074  1.00  0.00    -0.025 A 
ATOM      4  C   UNL     1      26.128  28.373  16.098  1.00  0.00     0.012 A 
ATOM      5  C   UNL     1      27.242  27.558  15.878  1.00  0.00     0.047 A 
ATOM      6  C   UNL     1      27.424  26.393  16.628  1.00  0.00     0.115 A 
ATOM      7  C   UNL     1      25.372  26.859  17.834  1.00  0.00     0.012 A 
ATOM      8  C   UNL     1      26.487  26.047  17.609  1.00  0.00     0.047 A 
BRANCH   6   9
ATOM      9  O   UNL     1      28.539  25.590  16.394  1.00  0.00    -0.508 OA
ATOM     10  H   UNL     1      29.440  25.991  16.163  1.00  0.00     0.293 HD
ENDBRANCH   6   9
ENDBRANCH   1   3
BRANCH   2  11
ATOM     11  C   UNL     1      22.545  30.852  17.079  1.00  0.00     0.189 C 
ATOM     12  O   UNL     1      21.592  30.879  16.253  1.00  0.00    -0.289 OA
BRANCH  11  13
ATOM     13  C   UNL     1      22.451  31.669  18.313  1.00  0.00     0.064 A 
ATOM     14  C   UNL     1      22.372  33.078  18.269  1.00  0.00     0.130 A 
ATOM     15  C   UNL     1      22.468  31.023  19.562  1.00  0.00     0.020 A 
ATOM     16  C   UNL     1      22.269  33.808  19.463  1.00  0.00     0.093 A 
ATOM     17  C   UNL     1      22.373  31.760  20.745  1.00  0.00     0.047 A 
ATOM     18  C   UNL     1      22.268  33.154  20.697  1.00  0.00     0.119 A 
BRANCH  14  19
ATOM     19  O   UNL     1      22.420  33.754  17.050  1.00  0.00    -0.507 OA
ATOM     20  H   UNL     1      21.679  33.670  16.365  1.00  0.00     0.293 HD
ENDBRANCH  14  19
BRANCH  18  21
ATOM     21  O   UNL     1      22.168  33.899  21.871  1.00  0.00    -0.508 OA
ATOM     22  H   UNL     1      22.005  34.898  21.851  1.00  0.00     0.293 HD
ENDBRANCH  18  21
ENDBRANCH  11  13
ENDBRANCH   2  11
TORSDOF 6
ENDMDL
MODEL 2
REMARK VINA RESULT:    -6.443      1.576      2.878
REMARK INTER + INTRA:          -8.713
REMARK INTER:                  -8.059
REMARK INTRA:                  -0.655
REMARK UNBOUND:                -0.575
REMARK SMILES O=C(C=Cc1ccc(O)cc1)c1ccc(O)cc1O
REMARK SMILES IDX 4 1 3 2 5 3 6 4 7 5 8 6 11 7 10 8 9 9 2 11 1 12 12 13 18 14
REMARK SMILES IDX 13 15 17 16 14 17 15 18 19 19 16 21
REMARK H PARENT 9 10 19 20 16 22
REMARK Flexibility Score: inf
ROOT
ATOM      1  C   UNL     1      24.537  29.700  18.026  1.00  0.00     0.012 C 
ATOM      2  C   UNL     1      23.532  29.675  18.914  1.00  0.00     0.053 C 
ENDROOT
BRANCH   1   3
ATOM      3  C   UNL     1      25.208  28.481  17.509  1.00  0.00    -0.025 A 
ATOM      4  C   UNL     1      24.864  27.185  17.944  1.00  0.00     0.012 A 
ATOM      5  C   UNL     1      25.516  26.067  17.417  1.00  0.00     0.047 A 
ATOM      6  C   UNL     1      26.510  26.221  16.446  1.00  0.00     0.115 A 
ATOM      7  C   UNL     1      26.197  28.625  16.521  1.00  0.00     0.012 A 
ATOM      8  C   UNL     1      26.848  27.504  15.999  1.00  0.00     0.047 A 
BRANCH   6   9
ATOM      9  O   UNL     1      27.152  25.096  15.933  1.00  0.00    -0.508 OA
ATOM     10  H   UNL     1      27.962  25.179  15.330  1.00  0.00     0.293 HD
ENDBRANCH   6   9
ENDBRANCH   1   3
BRANCH   2  11
ATOM     11  C   UNL     1      22.898  30.913  19.419  1.00  0.00     0.189 C 
ATOM     12  O   UNL     1      22.965  31.198  20.647  1.00  0.00    -0.289 OA
BRANCH  11  13
ATOM     13  C   UNL     1      22.136  31.806  18.514  1.00  0.00     0.064 A 
ATOM     14  C   UNL     1      22.143  33.209  18.672  1.00  0.00     0.130 A 
ATOM     15  C   UNL     1      21.365  31.237  17.484  1.00  0.00     0.020 A 
ATOM     16  C   UNL     1      21.418  34.015  17.781  1.00  0.00     0.093 A 
ATOM     17  C   UNL     1      20.641  32.048  16.607  1.00  0.00     0.047 A 
ATOM     18  C   UNL     1      20.670  33.439  16.751  1.00  0.00     0.119 A 
BRANCH  14  19
ATOM     19  O   UNL     1      22.842  33.802  19.723  1.00  0.00    -0.507 OA
ATOM     20  H   UNL     1      23.639  34.406  19.558  1.00  0.00     0.293 HD
ENDBRANCH  14  19
BRANCH  18  21
ATOM     21  O   UNL     1      19.955  34.258  15.879  1.00  0.00    -0.508 OA
ATOM     22  H   UNL     1      19.843  34.020  14.901  1.00  0.00     0.293 HD
ENDBRANCH  18  21
ENDBRANCH  11  13
ENDBRANCH   2  11
TORSDOF 6
ENDMDL
MODEL 3
REMARK VINA RESULT:    -6.092     17.539     19.161
REMARK INTER + INTRA:          -8.270
REMARK INTER:                  -7.701
REMARK INTRA:                  -0.569
REMARK UNBOUND:                -0.575
REMARK SMILES O=C(C=Cc1ccc(O)cc1)c1ccc(O)cc1O
REMARK SMILES IDX 4 1 3 2 5 3 6 4 7 5 8 6 11 7 10 8 9 9 2 11 1 12 12 13 18 14
REMARK SMILES IDX 13 15 17 16 14 17 15 18 19 19 16 21
REMARK H PARENT 9 10 19 20 16 22
REMARK Flexibility Score: inf
ROOT
ATOM      1  C   UNL     1      29.683  26.682  35.329  1.00  0.00     0.012 C 
ATOM      2  C   UNL     1      29.664  27.979  34.988  1.00  0.00     0.053 C 
ENDROOT
BRANCH   1   3
ATOM      3  C   UNL     1      28.466  25.839  35.427  1.00  0.00    -0.025 A 
ATOM      4  C   UNL     1      28.437  24.497  34.996  1.00  0.00     0.012 A 
ATOM      5  C   UNL     1      27.268  23.739  35.121  1.00  0.00     0.047 A 
ATOM      6  C   UNL     1      26.119  24.302  35.682  1.00  0.00     0.115 A 
ATOM      7  C   UNL     1      27.309  26.391  36.004  1.00  0.00     0.012 A 
ATOM      8  C   UNL     1      26.143  25.630  36.125  1.00  0.00     0.047 A 
BRANCH   6   9
ATOM      9  O   UNL     1      24.962  23.535  35.797  1.00  0.00    -0.508 OA
ATOM     10  H   UNL     1      24.786  22.962  36.613  1.00  0.00     0.293 HD
ENDBRANCH   6   9
ENDBRANCH   1   3
BRANCH   2  11
ATOM     11  C   UNL     1      30.898  28.792  34.917  1.00  0.00     0.189 C 
ATOM     12  O   UNL     1      30.866  30.012  35.238  1.00  0.00    -0.289 OA
BRANCH  11  13
ATOM     13  C   UNL     1      32.169  28.210  34.425  1.00  0.00     0.064 A 
ATOM     14  C   UNL     1      32.428  28.043  33.047  1.00  0.00     0.130 A 
ATOM     15  C   UNL     1      33.133  27.788  35.357  1.00  0.00     0.020 A 
ATOM     16  C   UNL     1      33.652  27.500  32.627  1.00  0.00     0.093 A 
ATOM     17  C   UNL     1      34.346  27.243  34.930  1.00  0.00     0.047 A 
ATOM     18  C   UNL     1      34.610  27.102  33.563  1.00  0.00     0.119 A 
BRANCH  14  19
ATOM     19  O   UNL     1      31.466  28.387  32.097  1.00  0.00    -0.507 OA
ATOM     20  H   UNL     1      31.717  28.591  31.136  1.00  0.00     0.293 HD
ENDBRANCH  14  19
BRANCH  18  21
ATOM     21  O   UNL     1      35.818  26.564  33.125  1.00  0.00    -0.508 OA
ATOM     22  H   UNL     1      35.891  26.080  32.238  1.00  0.00     0.293 HD
ENDBRANCH  18  21
ENDBRANCH  11  13
ENDBRANCH   2  11
TORSDOF 6
ENDMDL
MODEL 4
REMARK VINA RESULT:    -5.762      2.060      7.729
REMARK INTER + INTRA:          -7.853
REMARK INTER:                  -8.028
REMARK INTRA:                   0.175
REMARK UNBOUND:                -0.575
REMARK SMILES O=C(C=Cc1ccc(O)cc1)c1ccc(O)cc1O
REMARK SMILES IDX 4 1 3 2 5 3 6 4 7 5 8 6 11 7 10 8 9 9 2 11 1 12 12 13 18 14
REMARK SMILES IDX 13 15 17 16 14 17 15 18 19 19 16 21
REMARK H PARENT 9 10 19 20 16 22
REMARK Flexibility Score: inf
ROOT
ATOM      1  C   UNL     1      22.241  33.109  18.260  1.00  0.00     0.012 C 
ATOM      2  C   UNL     1      22.261  31.787  18.035  1.00  0.00     0.053 C 
ENDROOT
BRANCH   1   3
ATOM      3  C   UNL     1      21.383  33.756  19.284  1.00  0.00    -0.025 A 
ATOM      4  C   UNL     1      20.416  34.729  18.957  1.00  0.00     0.012 A 
ATOM      5  C   UNL     1      19.623  35.300  19.956  1.00  0.00     0.047 A 
ATOM      6  C   UNL     1      19.773  34.906  21.289  1.00  0.00     0.115 A 
ATOM      7  C   UNL     1      21.516  33.354  20.624  1.00  0.00     0.012 A 
ATOM      8  C   UNL     1      20.721  33.930  21.620  1.00  0.00     0.047 A 
BRANCH   6   9
ATOM      9  O   UNL     1      18.976  35.487  22.273  1.00  0.00    -0.508 OA
ATOM     10  H   UNL     1      19.066  36.466  22.516  1.00  0.00     0.293 HD
ENDBRANCH   6   9
ENDBRANCH   1   3
BRANCH   2  11
ATOM     11  C   UNL     1      23.119  31.179  16.994  1.00  0.00     0.189 C 
ATOM     12  O   UNL     1      23.248  31.748  15.875  1.00  0.00    -0.289 OA
BRANCH  11  13
ATOM     13  C   UNL     1      23.794  29.879  17.224  1.00  0.00     0.064 A 
ATOM     14  C   UNL     1      24.100  29.417  18.523  1.00  0.00     0.130 A 
ATOM     15  C   UNL     1      24.163  29.097  16.115  1.00  0.00     0.020 A 
ATOM     16  C   UNL     1      24.726  28.173  18.691  1.00  0.00     0.093 A 
ATOM     17  C   UNL     1      24.793  27.863  16.293  1.00  0.00     0.047 A 
ATOM     18  C   UNL     1      25.072  27.396  17.582  1.00  0.00     0.119 A 
BRANCH  14  19
ATOM     19  O   UNL     1      23.808  30.198  19.641  1.00  0.00    -0.507 OA
ATOM     20  H   UNL     1      23.326  31.086  19.559  1.00  0.00     0.293 HD
ENDBRANCH  14  19
BRANCH  18  21
ATOM     21  O   UNL     1      25.696  26.165  17.772  1.00  0.00    -0.508 OA
ATOM     22  H   UNL     1      25.579  25.405  17.114  1.00  0.00     0.293 HD
ENDBRANCH  18  21
ENDBRANCH  11  13
ENDBRANCH   2  11
TORSDOF 6
ENDMDL
MODEL 5
REMARK VINA RESULT:    -5.749      1.720      7.551
REMARK INTER + INTRA:          -7.836
REMARK INTER:                  -7.225
REMARK INTRA:                  -0.611
REMARK UNBOUND:                -0.575
REMARK SMILES O=C(C=Cc1ccc(O)cc1)c1ccc(O)cc1O
REMARK SMILES IDX 4 1 3 2 5 3 6 4 7 5 8 6 11 7 10 8 9 9 2 11 1 12 12 13 18 14
REMARK SMILES IDX 13 15 17 16 14 17 15 18 19 19 16 21
REMARK H PARENT 9 10 19 20 16 22
REMARK Flexibility Score: inf
ROOT
ATOM      1  C   UNL     1      22.624  31.950  18.056  1.00  0.00     0.012 C 
ATOM      2  C   UNL     1      23.124  30.717  18.226  1.00  0.00     0.053 C 
ENDROOT
BRANCH   1   3
ATOM      3  C   UNL     1      21.968  32.727  19.136  1.00  0.00    -0.025 A 
ATOM      4  C   UNL     1      22.086  32.381  20.498  1.00  0.00     0.012 A 
ATOM      5  C   UNL     1      21.459  33.153  21.480  1.00  0.00     0.047 A 
ATOM      6  C   UNL     1      20.717  34.283  21.124  1.00  0.00     0.115 A 
ATOM      7  C   UNL     1      21.233  33.874  18.789  1.00  0.00     0.012 A 
ATOM      8  C   UNL     1      20.607  34.642  19.775  1.00  0.00     0.047 A 
BRANCH   6   9
ATOM      9  O   UNL     1      20.097  35.040  22.115  1.00  0.00    -0.508 OA
ATOM     10  H   UNL     1      20.613  35.395  22.910  1.00  0.00     0.293 HD
ENDBRANCH   6   9
ENDBRANCH   1   3
BRANCH   2  11
ATOM     11  C   UNL     1      23.758  29.965  17.121  1.00  0.00     0.189 C 
ATOM     12  O   UNL     1      23.561  30.320  15.926  1.00  0.00    -0.289 OA
BRANCH  11  13
ATOM     13  C   UNL     1      24.584  28.764  17.389  1.00  0.00     0.064 A 
ATOM     14  C   UNL     1      25.847  28.578  16.784  1.00  0.00     0.130 A 
ATOM     15  C   UNL     1      24.084  27.770  18.248  1.00  0.00     0.020 A 
ATOM     16  C   UNL     1      26.600  27.431  17.080  1.00  0.00     0.093 A 
ATOM     17  C   UNL     1      24.838  26.628  18.530  1.00  0.00     0.047 A 
ATOM     18  C   UNL     1      26.100  26.459  17.950  1.00  0.00     0.119 A 
BRANCH  14  19
ATOM     19  O   UNL     1      26.343  29.512  15.875  1.00  0.00    -0.507 OA
ATOM     20  H   UNL     1      26.094  30.493  15.931  1.00  0.00     0.293 HD
ENDBRANCH  14  19
BRANCH  18  21
ATOM     21  O   UNL     1      26.863  25.326  18.227  1.00  0.00    -0.508 OA
ATOM     22  H   UNL     1      27.061  25.041  19.178  1.00  0.00     0.293 HD
ENDBRANCH  18  21
ENDBRANCH  11  13
ENDBRANCH   2  11
TORSDOF 6
ENDMDL
MODEL 6
REMARK VINA RESULT:    -5.708     10.970     13.308
REMARK INTER + INTRA:          -7.785
REMARK INTER:                  -7.076
REMARK INTRA:                  -0.709
REMARK UNBOUND:                -0.575
REMARK SMILES O=C(C=Cc1ccc(O)cc1)c1ccc(O)cc1O
REMARK SMILES IDX 4 1 3 2 5 3 6 4 7 5 8 6 11 7 10 8 9 9 2 11 1 12 12 13 18 14
REMARK SMILES IDX 13 15 17 16 14 17 15 18 19 19 16 21
REMARK H PARENT 9 10 19 20 16 22
REMARK Flexibility Score: inf
ROOT
ATOM      1  C   UNL     1      18.335  20.855  20.769  1.00  0.00     0.012 C 
ATOM      2  C   UNL     1      17.943  21.818  19.922  1.00  0.00     0.053 C 
ENDROOT
BRANCH   1   3
ATOM      3  C   UNL     1      18.182  20.943  22.242  1.00  0.00    -0.025 A 
ATOM      4  C   UNL     1      17.115  21.632  22.854  1.00  0.00     0.012 A 
ATOM      5  C   UNL     1      17.008  21.675  24.247  1.00  0.00     0.047 A 
ATOM      6  C   UNL     1      17.953  21.028  25.048  1.00  0.00     0.115 A 
ATOM      7  C   UNL     1      19.118  20.282  23.056  1.00  0.00     0.012 A 
ATOM      8  C   UNL     1      19.007  20.330  24.449  1.00  0.00     0.047 A 
BRANCH   6   9
ATOM      9  O   UNL     1      17.833  21.083  26.435  1.00  0.00    -0.508 OA
ATOM     10  H   UNL     1      16.933  21.203  26.884  1.00  0.00     0.293 HD
ENDBRANCH   6   9
ENDBRANCH   1   3
BRANCH   2  11
ATOM     11  C   UNL     1      18.126  21.702  18.459  1.00  0.00     0.189 C 
ATOM     12  O   UNL     1      18.331  22.737  17.766  1.00  0.00    -0.289 OA
BRANCH  11  13
ATOM     13  C   UNL     1      18.022  20.389  17.778  1.00  0.00     0.064 A 
ATOM     14  C   UNL     1      19.157  19.723  17.267  1.00  0.00     0.130 A 
ATOM     15  C   UNL     1      16.754  19.805  17.612  1.00  0.00     0.020 A 
ATOM     16  C   UNL     1      19.012  18.474  16.643  1.00  0.00     0.093 A 
ATOM     17  C   UNL     1      16.618  18.565  16.983  1.00  0.00     0.047 A 
ATOM     18  C   UNL     1      17.748  17.895  16.501  1.00  0.00     0.119 A 
BRANCH  14  19
ATOM     19  O   UNL     1      20.422  20.305  17.354  1.00  0.00    -0.507 OA
ATOM     20  H   UNL     1      20.787  20.656  18.232  1.00  0.00     0.293 HD
ENDBRANCH  14  19
BRANCH  18  21
ATOM     21  O   UNL     1      17.626  16.656  15.875  1.00  0.00    -0.508 OA
ATOM     22  H   UNL     1      17.004  16.520  15.087  1.00  0.00     0.293 HD
ENDBRANCH  18  21
ENDBRANCH  11  13
ENDBRANCH   2  11
TORSDOF 6
ENDMDL
MODEL 7
REMARK VINA RESULT:    -5.475      1.809      2.919
REMARK INTER + INTRA:          -7.490
REMARK INTER:                  -7.056
REMARK INTRA:                  -0.435
REMARK UNBOUND:                -0.575
REMARK SMILES O=C(C=Cc1ccc(O)cc1)c1ccc(O)cc1O
REMARK SMILES IDX 4 1 3 2 5 3 6 4 7 5 8 6 11 7 10 8 9 9 2 11 1 12 12 13 18 14
REMARK SMILES IDX 13 15 17 16 14 17 15 18 19 19 16 21
REMARK H PARENT 9 10 19 20 16 22
REMARK Flexibility Score: inf
ROOT
ATOM      1  C   UNL     1      22.468  30.795  17.746  1.00  0.00     0.012 C 
ATOM      2  C   UNL     1      22.681  31.964  18.368  1.00  0.00     0.053 C 
ENDROOT
BRANCH   1   3
ATOM      3  C   UNL     1      23.503  29.741  17.600  1.00  0.00    -0.025 A 
ATOM      4  C   UNL     1      23.863  28.880  18.657  1.00  0.00     0.012 A 
ATOM      5  C   UNL     1      24.835  27.894  18.465  1.00  0.00     0.047 A 
ATOM      6  C   UNL     1      25.454  27.745  17.221  1.00  0.00     0.115 A 
ATOM      7  C   UNL     1      24.119  29.573  16.348  1.00  0.00     0.012 A 
ATOM      8  C   UNL     1      25.091  28.586  16.162  1.00  0.00     0.047 A 
BRANCH   6   9
ATOM      9  O   UNL     1      26.422  26.759  17.047  1.00  0.00    -0.508 OA
ATOM     10  H   UNL     1      26.183  25.775  17.059  1.00  0.00     0.293 HD
ENDBRANCH   6   9
ENDBRANCH   1   3
BRANCH   2  11
ATOM     11  C   UNL     1      21.629  32.998  18.481  1.00  0.00     0.189 C 
ATOM     12  O   UNL     1      21.026  33.397  17.447  1.00  0.00    -0.289 OA
BRANCH  11  13
ATOM     13  C   UNL     1      21.302  33.616  19.788  1.00  0.00     0.064 A 
ATOM     14  C   UNL     1      20.266  34.565  19.926  1.00  0.00     0.130 A 
ATOM     15  C   UNL     1      22.063  33.266  20.918  1.00  0.00     0.020 A 
ATOM     16  C   UNL     1      19.983  35.112  21.187  1.00  0.00     0.093 A 
ATOM     17  C   UNL     1      21.779  33.822  22.168  1.00  0.00     0.047 A 
ATOM     18  C   UNL     1      20.735  34.743  22.305  1.00  0.00     0.119 A 
BRANCH  14  19
ATOM     19  O   UNL     1      19.536  34.985  18.814  1.00  0.00    -0.507 OA
ATOM     20  H   UNL     1      18.629  34.589  18.592  1.00  0.00     0.293 HD
ENDBRANCH  14  19
BRANCH  18  21
ATOM     21  O   UNL     1      20.439  35.300  23.547  1.00  0.00    -0.508 OA
ATOM     22  H   UNL     1      19.793  36.075  23.640  1.00  0.00     0.293 HD
ENDBRANCH  18  21
ENDBRANCH  11  13
ENDBRANCH   2  11
TORSDOF 6
ENDMDL
MODEL 8
REMARK VINA RESULT:    -5.470     18.482     19.576
REMARK INTER + INTRA:          -7.484
REMARK INTER:                  -7.005
REMARK INTRA:                  -0.478
REMARK UNBOUND:                -0.575
REMARK SMILES O=C(C=Cc1ccc(O)cc1)c1ccc(O)cc1O
REMARK SMILES IDX 4 1 3 2 5 3 6 4 7 5 8 6 11 7 10 8 9 9 2 11 1 12 12 13 18 14
REMARK SMILES IDX 13 15 17 16 14 17 15 18 19 19 16 21
REMARK H PARENT 9 10 19 20 16 22
REMARK Flexibility Score: inf
ROOT
ATOM      1  C   UNL     1      30.295  25.384  35.105  1.00  0.00     0.012 C 
ATOM      2  C   UNL     1      30.818  26.242  34.216  1.00  0.00     0.053 C 
ENDROOT
BRANCH   1   3
ATOM      3  C   UNL     1      28.837  25.211  35.320  1.00  0.00    -0.025 A 
ATOM      4  C   UNL     1      28.162  24.014  35.006  1.00  0.00     0.012 A 
ATOM      5  C   UNL     1      26.788  23.895  35.240  1.00  0.00     0.047 A 
ATOM      6  C   UNL     1      26.072  24.958  35.796  1.00  0.00     0.115 A 
ATOM      7  C   UNL     1      28.111  26.269  35.894  1.00  0.00     0.012 A 
ATOM      8  C   UNL     1      26.738  26.146  36.124  1.00  0.00     0.047 A 
BRANCH   6   9
ATOM      9  O   UNL     1      24.704  24.824  36.020  1.00  0.00    -0.508 OA
ATOM     10  H   UNL     1      24.027  25.376  35.507  1.00  0.00     0.293 HD
ENDBRANCH   6   9
ENDBRANCH   1   3
BRANCH   2  11
ATOM     11  C   UNL     1      32.278  26.399  34.040  1.00  0.00     0.189 C 
ATOM     12  O   UNL     1      32.959  25.451  33.559  1.00  0.00    -0.289 OA
BRANCH  11  13
ATOM     13  C   UNL     1      32.971  27.638  34.467  1.00  0.00     0.064 A 
ATOM     14  C   UNL     1      34.349  27.840  34.235  1.00  0.00     0.130 A 
ATOM     15  C   UNL     1      32.240  28.629  35.146  1.00  0.00     0.020 A 
ATOM     16  C   UNL     1      34.958  29.036  34.644  1.00  0.00     0.093 A 
ATOM     17  C   UNL     1      32.857  29.814  35.555  1.00  0.00     0.047 A 
ATOM     18  C   UNL     1      34.217  30.021  35.301  1.00  0.00     0.119 A 
BRANCH  14  19
ATOM     19  O   UNL     1      35.118  26.849  33.625  1.00  0.00    -0.507 OA
ATOM     20  H   UNL     1      34.804  26.371  32.788  1.00  0.00     0.293 HD
ENDBRANCH  14  19
BRANCH  18  21
ATOM     21  O   UNL     1      34.842  31.200  35.702  1.00  0.00    -0.508 OA
ATOM     22  H   UNL     1      34.846  32.024  35.113  1.00  0.00     0.293 HD
ENDBRANCH  18  21
ENDBRANCH  11  13
ENDBRANCH   2  11
TORSDOF 6
ENDMDL
MODEL 9
REMARK VINA RESULT:    -5.448      9.758     11.661
REMARK INTER + INTRA:          -7.456
REMARK INTER:                  -6.906
REMARK INTRA:                  -0.550
REMARK UNBOUND:                -0.575
REMARK SMILES O=C(C=Cc1ccc(O)cc1)c1ccc(O)cc1O
REMARK SMILES IDX 4 1 3 2 5 3 6 4 7 5 8 6 11 7 10 8 9 9 2 11 1 12 12 13 18 14
REMARK SMILES IDX 13 15 17 16 14 17 15 18 19 19 16 21
REMARK H PARENT 9 10 19 20 16 22
REMARK Flexibility Score: inf
ROOT
ATOM      1  C   UNL     1      31.776  34.927  21.074  1.00  0.00     0.012 C 
ATOM      2  C   UNL     1      30.714  35.032  20.262  1.00  0.00     0.053 C 
ENDROOT
BRANCH   1   3
ATOM      3  C   UNL     1      31.686  34.961  22.554  1.00  0.00    -0.025 A 
ATOM      4  C   UNL     1      32.040  36.099  23.309  1.00  0.00     0.012 A 
ATOM      5  C   UNL     1      31.925  36.087  24.702  1.00  0.00     0.047 A 
ATOM      6  C   UNL     1      31.449  34.950  25.361  1.00  0.00     0.115 A 
ATOM      7  C   UNL     1      31.193  33.829  23.225  1.00  0.00     0.012 A 
ATOM      8  C   UNL     1      31.081  33.821  24.619  1.00  0.00     0.047 A 
BRANCH   6   9
ATOM      9  O   UNL     1      31.343  34.953  26.750  1.00  0.00    -0.508 OA
ATOM     10  H   UNL     1      30.801  35.657  27.238  1.00  0.00     0.293 HD
ENDBRANCH   6   9
ENDBRANCH   1   3
BRANCH   2  11
ATOM     11  C   UNL     1      30.845  35.009  18.788  1.00  0.00     0.189 C 
ATOM     12  O   UNL     1      29.811  35.007  18.065  1.00  0.00    -0.289 OA
BRANCH  11  13
ATOM     13  C   UNL     1      32.176  34.936  18.141  1.00  0.00     0.064 A 
ATOM     14  C   UNL     1      32.851  33.708  17.961  1.00  0.00     0.130 A 
ATOM     15  C   UNL     1      32.795  36.125  17.717  1.00  0.00     0.020 A 
ATOM     16  C   UNL     1      34.104  33.687  17.329  1.00  0.00     0.093 A 
ATOM     17  C   UNL     1      34.046  36.094  17.095  1.00  0.00     0.047 A 
ATOM     18  C   UNL     1      34.700  34.873  16.895  1.00  0.00     0.119 A 
BRANCH  14  19
ATOM     19  O   UNL     1      32.296  32.518  18.430  1.00  0.00    -0.507 OA
ATOM     20  H   UNL     1      32.804  31.905  19.058  1.00  0.00     0.293 HD
ENDBRANCH  14  19
BRANCH  18  21
ATOM     21  O   UNL     1      35.946  34.830  16.273  1.00  0.00    -0.508 OA
ATOM     22  H   UNL     1      36.807  34.868  16.806  1.00  0.00     0.293 HD
ENDBRANCH  18  21
ENDBRANCH  11  13
ENDBRANCH   2  11
TORSDOF 6
ENDMDL
