MODEL 1
REMARK VINA RESULT:    -3.755      0.000      0.000
REMARK INTER + INTRA:          -5.610
REMARK INTER:                  -5.292
REMARK INTRA:                  -0.318
REMARK UNBOUND:                -0.318
REMARK SMILES CCCCCCCCC(=O)[O-]
REMARK SMILES IDX 6 1 7 2 8 3 9 4 10 5 11 6 5 7 4 8 3 9 2 10 1 11
REMARK H PARENT
REMARK Flexibility Score: inf
ROOT
ATOM      1  C   UNL     1      -0.074   8.804   4.710  1.00  0.00     0.000 C 
ENDROOT
BRANCH   1   2
ATOM      2  C   UNL     1       0.357   9.860   5.739  1.00  0.00     0.006 C 
BRANCH   2   3
ATOM      3  C   UNL     1       1.868  10.099   5.679  1.00  0.00     0.053 C 
BRANCH   3   4
ATOM      4  C   UNL     1       2.543   9.483   6.864  1.00  0.00     0.041 C 
ATOM      5  O   UNL     1       2.058   8.455   7.406  1.00  0.00    -0.550 OA
ATOM      6  O   UNL     1       3.737  10.012   7.339  1.00  0.00    -0.550 OA
ENDBRANCH   3   4
ENDBRANCH   2   3
ENDBRANCH   1   2
BRANCH   1   7
ATOM      7  C   UNL     1      -1.384   9.169   3.995  1.00  0.00     0.000 C 
BRANCH   7   8
ATOM      8  C   UNL     1      -2.348   9.959   4.894  1.00  0.00    -0.000 C 
BRANCH   8   9
ATOM      9  C   UNL     1      -3.808   9.690   4.501  1.00  0.00    -0.000 C 
BRANCH   9  10
ATOM     10  C   UNL     1      -4.081   8.203   4.223  1.00  0.00    -0.003 C 
ATOM     11  C   UNL     1      -5.066   7.987   3.074  1.00  0.00     0.004 C 
ENDBRANCH   9  10
ENDBRANCH   8   9
ENDBRANCH   7   8
ENDBRANCH   1   7
TORSDOF 7
ENDMDL
MODEL 2
REMARK VINA RESULT:    -3.526      0.992      1.446
REMARK INTER + INTRA:          -5.287
REMARK INTER:                  -4.999
REMARK INTRA:                  -0.288
REMARK UNBOUND:                -0.318
REMARK SMILES CCCCCCCCC(=O)[O-]
REMARK SMILES IDX 6 1 7 2 8 3 9 4 10 5 11 6 5 7 4 8 3 9 2 10 1 11
REMARK H PARENT
REMARK Flexibility Score: inf
ROOT
ATOM      1  C   UNL     1      -0.525   9.265   4.750  1.00  0.00     0.000 C 
ENDROOT
BRANCH   1   2
ATOM      2  C   UNL     1       0.885   9.798   5.045  1.00  0.00     0.006 C 
BRANCH   2   3
ATOM      3  C   UNL     1       1.156   9.825   6.552  1.00  0.00     0.053 C 
BRANCH   3   4
ATOM      4  C   UNL     1       2.348   8.985   6.887  1.00  0.00     0.041 C 
ATOM      5  O   UNL     1       3.312   9.481   7.527  1.00  0.00    -0.550 OA
ATOM      6  O   UNL     1       2.373   7.641   6.537  1.00  0.00    -0.550 OA
ENDBRANCH   3   4
ENDBRANCH   2   3
ENDBRANCH   1   2
BRANCH   1   7
ATOM      7  C   UNL     1      -1.629  10.124   5.385  1.00  0.00     0.000 C 
BRANCH   7   8
ATOM      8  C   UNL     1      -3.037   9.712   4.927  1.00  0.00    -0.000 C 
BRANCH   8   9
ATOM      9  C   UNL     1      -2.993   8.395   4.138  1.00  0.00    -0.000 C 
BRANCH   9  10
ATOM     10  C   UNL     1      -4.394   7.829   3.856  1.00  0.00    -0.003 C 
ATOM     11  C   UNL     1      -4.358   6.389   3.345  1.00  0.00     0.004 C 
ENDBRANCH   9  10
ENDBRANCH   8   9
ENDBRANCH   7   8
ENDBRANCH   1   7
TORSDOF 7
ENDMDL
MODEL 3
REMARK VINA RESULT:    -3.428     15.283     15.942
REMARK INTER + INTRA:          -5.148
REMARK INTER:                  -4.899
REMARK INTRA:                  -0.249
REMARK UNBOUND:                -0.318
REMARK SMILES CCCCCCCCC(=O)[O-]
REMARK SMILES IDX 6 1 7 2 8 3 9 4 10 5 11 6 5 7 4 8 3 9 2 10 1 11
REMARK H PARENT
REMARK Flexibility Score: inf
ROOT
ATOM      1  C   UNL     1       3.058  -1.879  -5.379  1.00  0.00     0.000 C 
ENDROOT
BRANCH   1   2
ATOM      2  C   UNL     1       3.227  -1.547  -6.869  1.00  0.00     0.006 C 
BRANCH   2   3
ATOM      3  C   UNL     1       4.590  -0.901  -7.135  1.00  0.00     0.053 C 
BRANCH   3   4
ATOM      4  C   UNL     1       4.450   0.582  -7.270  1.00  0.00     0.041 C 
ATOM      5  O   UNL     1       3.350   1.085  -7.620  1.00  0.00    -0.550 OA
ATOM      6  O   UNL     1       5.520   1.414  -6.960  1.00  0.00    -0.550 OA
ENDBRANCH   3   4
ENDBRANCH   2   3
ENDBRANCH   1   2
BRANCH   1   7
ATOM      7  C   UNL     1       1.729  -2.588  -5.076  1.00  0.00     0.000 C 
BRANCH   7   8
ATOM      8  C   UNL     1       0.534  -1.934  -5.785  1.00  0.00    -0.000 C 
BRANCH   8   9
ATOM      9  C   UNL     1      -0.662  -1.797  -4.831  1.00  0.00    -0.000 C 
BRANCH   9  10
ATOM     10  C   UNL     1      -1.984  -2.253  -5.470  1.00  0.00    -0.003 C 
ATOM     11  C   UNL     1      -2.500  -3.568  -4.887  1.00  0.00     0.004 C 
ENDBRANCH   9  10
ENDBRANCH   8   9
ENDBRANCH   7   8
ENDBRANCH   1   7
TORSDOF 7
ENDMDL
MODEL 4
REMARK VINA RESULT:    -3.403      3.838      6.319
REMARK INTER + INTRA:          -5.113
REMARK INTER:                  -4.816
REMARK INTRA:                  -0.296
REMARK UNBOUND:                -0.318
REMARK SMILES CCCCCCCCC(=O)[O-]
REMARK SMILES IDX 6 1 7 2 8 3 9 4 10 5 11 6 5 7 4 8 3 9 2 10 1 11
REMARK H PARENT
REMARK Flexibility Score: inf
ROOT
ATOM      1  C   UNL     1      -1.343   9.108   4.733  1.00  0.00     0.000 C 
ENDROOT
BRANCH   1   2
ATOM      2  C   UNL     1      -2.315   9.666   3.683  1.00  0.00     0.006 C 
BRANCH   2   3
ATOM      3  C   UNL     1      -3.651  10.054   4.325  1.00  0.00     0.053 C 
BRANCH   3   4
ATOM      4  C   UNL     1      -4.774   9.287   3.703  1.00  0.00     0.041 C 
ATOM      5  O   UNL     1      -5.715   9.895   3.129  1.00  0.00    -0.550 OA
ATOM      6  O   UNL     1      -4.757   7.897   3.712  1.00  0.00    -0.550 OA
ENDBRANCH   3   4
ENDBRANCH   2   3
ENDBRANCH   1   2
BRANCH   1   7
ATOM      7  C   UNL     1      -1.019  10.123   5.840  1.00  0.00     0.000 C 
BRANCH   7   8
ATOM      8  C   UNL     1       0.464  10.108   6.243  1.00  0.00    -0.000 C 
BRANCH   8   9
ATOM      9  C   UNL     1       1.174   8.871   5.672  1.00  0.00    -0.000 C 
BRANCH   9  10
ATOM     10  C   UNL     1       2.257   8.324   6.616  1.00  0.00    -0.003 C 
ATOM     11  C   UNL     1       2.819   6.979   6.154  1.00  0.00     0.004 C 
ENDBRANCH   9  10
ENDBRANCH   8   9
ENDBRANCH   7   8
ENDBRANCH   1   7
TORSDOF 7
ENDMDL
MODEL 5
REMARK VINA RESULT:    -3.308      4.599      5.800
REMARK INTER + INTRA:          -4.980
REMARK INTER:                  -4.678
REMARK INTRA:                  -0.302
REMARK UNBOUND:                -0.318
REMARK SMILES CCCCCCCCC(=O)[O-]
REMARK SMILES IDX 6 1 7 2 8 3 9 4 10 5 11 6 5 7 4 8 3 9 2 10 1 11
REMARK H PARENT
REMARK Flexibility Score: inf
ROOT
ATOM      1  C   UNL     1       2.236   5.677   4.784  1.00  0.00     0.000 C 
ENDROOT
BRANCH   1   2
ATOM      2  C   UNL     1       1.879   7.053   5.367  1.00  0.00     0.006 C 
BRANCH   2   3
ATOM      3  C   UNL     1       2.850   7.442   6.486  1.00  0.00     0.053 C 
BRANCH   3   4
ATOM      4  C   UNL     1       2.563   8.827   6.972  1.00  0.00     0.041 C 
ATOM      5  O   UNL     1       1.383   9.268   6.968  1.00  0.00    -0.550 OA
ATOM      6  O   UNL     1       3.590   9.616   7.476  1.00  0.00    -0.550 OA
ENDBRANCH   3   4
ENDBRANCH   2   3
ENDBRANCH   1   2
BRANCH   1   7
ATOM      7  C   UNL     1       1.636   4.516   5.591  1.00  0.00     0.000 C 
BRANCH   7   8
ATOM      8  C   UNL     1       2.670   3.821   6.489  1.00  0.00    -0.000 C 
BRANCH   8   9
ATOM      9  C   UNL     1       2.014   2.712   7.324  1.00  0.00    -0.000 C 
BRANCH   9  10
ATOM     10  C   UNL     1       0.504   2.927   7.509  1.00  0.00    -0.003 C 
ATOM     11  C   UNL     1      -0.262   1.617   7.697  1.00  0.00     0.004 C 
ENDBRANCH   9  10
ENDBRANCH   8   9
ENDBRANCH   7   8
ENDBRANCH   1   7
TORSDOF 7
ENDMDL
MODEL 6
REMARK VINA RESULT:    -3.250     11.924     13.768
REMARK INTER + INTRA:          -4.898
REMARK INTER:                  -4.058
REMARK INTRA:                  -0.839
REMARK UNBOUND:                -0.318
REMARK SMILES CCCCCCCCC(=O)[O-]
REMARK SMILES IDX 6 1 7 2 8 3 9 4 10 5 11 6 5 7 4 8 3 9 2 10 1 11
REMARK H PARENT
REMARK Flexibility Score: inf
ROOT
ATOM      1  C   UNL     1      -8.274  -2.525   9.498  1.00  0.00     0.000 C 
ENDROOT
BRANCH   1   2
ATOM      2  C   UNL     1      -7.713  -1.625   8.387  1.00  0.00     0.006 C 
BRANCH   2   3
ATOM      3  C   UNL     1      -8.790  -0.676   7.854  1.00  0.00     0.053 C 
BRANCH   3   4
ATOM      4  C   UNL     1      -8.176   0.608   7.392  1.00  0.00     0.041 C 
ATOM      5  O   UNL     1      -7.173   1.081   7.989  1.00  0.00    -0.550 OA
ATOM      6  O   UNL     1      -8.678   1.257   6.271  1.00  0.00    -0.550 OA
ENDBRANCH   3   4
ENDBRANCH   2   3
ENDBRANCH   1   2
BRANCH   1   7
ATOM      7  C   UNL     1      -9.491  -1.906  10.205  1.00  0.00     0.000 C 
BRANCH   7   8
ATOM      8  C   UNL     1      -9.123  -1.230  11.534  1.00  0.00    -0.000 C 
BRANCH   8   9
ATOM      9  C   UNL     1      -9.446   0.271  11.493  1.00  0.00    -0.000 C 
BRANCH   9  10
ATOM     10  C   UNL     1      -8.196   1.139  11.277  1.00  0.00    -0.003 C 
ATOM     11  C   UNL     1      -6.902   0.416  11.650  1.00  0.00     0.004 C 
ENDBRANCH   9  10
ENDBRANCH   8   9
ENDBRANCH   7   8
ENDBRANCH   1   7
TORSDOF 7
ENDMDL
MODEL 7
REMARK VINA RESULT:    -3.245      1.704      2.304
REMARK INTER + INTRA:          -4.890
REMARK INTER:                  -4.480
REMARK INTRA:                  -0.410
REMARK UNBOUND:                -0.318
REMARK SMILES CCCCCCCCC(=O)[O-]
REMARK SMILES IDX 6 1 7 2 8 3 9 4 10 5 11 6 5 7 4 8 3 9 2 10 1 11
REMARK H PARENT
REMARK Flexibility Score: inf
ROOT
ATOM      1  C   UNL     1       0.031  10.125   6.136  1.00  0.00     0.000 C 
ENDROOT
BRANCH   1   2
ATOM      2  C   UNL     1       1.208   9.395   5.469  1.00  0.00     0.006 C 
BRANCH   2   3
ATOM      3  C   UNL     1       1.923   8.482   6.470  1.00  0.00     0.053 C 
BRANCH   3   4
ATOM      4  C   UNL     1       2.141   7.125   5.879  1.00  0.00     0.041 C 
ATOM      5  O   UNL     1       3.096   6.408   6.276  1.00  0.00    -0.550 OA
ATOM      6  O   UNL     1       1.259   6.631   4.926  1.00  0.00    -0.550 OA
ENDBRANCH   3   4
ENDBRANCH   2   3
ENDBRANCH   1   2
BRANCH   1   7
ATOM      7  C   UNL     1      -1.288   9.947   5.369  1.00  0.00     0.000 C 
BRANCH   7   8
ATOM      8  C   UNL     1      -1.115   9.147   4.069  1.00  0.00    -0.000 C 
BRANCH   8   9
ATOM      9  C   UNL     1      -2.473   8.886   3.401  1.00  0.00    -0.000 C 
BRANCH   9  10
ATOM     10  C   UNL     1      -3.658   9.295   4.291  1.00  0.00    -0.003 C 
ATOM     11  C   UNL     1      -4.871   9.761   3.486  1.00  0.00     0.004 C 
ENDBRANCH   9  10
ENDBRANCH   8   9
ENDBRANCH   7   8
ENDBRANCH   1   7
TORSDOF 7
ENDMDL
MODEL 8
REMARK VINA RESULT:    -3.208     15.807     16.959
REMARK INTER + INTRA:          -4.839
REMARK INTER:                  -3.999
REMARK INTRA:                  -0.839
REMARK UNBOUND:                -0.318
REMARK SMILES CCCCCCCCC(=O)[O-]
REMARK SMILES IDX 6 1 7 2 8 3 9 4 10 5 11 6 5 7 4 8 3 9 2 10 1 11
REMARK H PARENT
REMARK Flexibility Score: inf
ROOT
ATOM      1  C   UNL     1       7.809  -1.723  -6.761  1.00  0.00     0.000 C 
ENDROOT
BRANCH   1   2
ATOM      2  C   UNL     1       7.150  -0.651  -7.641  1.00  0.00     0.006 C 
BRANCH   2   3
ATOM      3  C   UNL     1       5.630  -0.644  -7.450  1.00  0.00     0.053 C 
BRANCH   3   4
ATOM      4  C   UNL     1       5.118   0.758  -7.358  1.00  0.00     0.041 C 
ATOM      5  O   UNL     1       5.922   1.717  -7.213  1.00  0.00    -0.550 OA
ATOM      6  O   UNL     1       3.759   1.014  -7.485  1.00  0.00    -0.550 OA
ENDBRANCH   3   4
ENDBRANCH   2   3
ENDBRANCH   1   2
BRANCH   1   7
ATOM      7  C   UNL     1       8.242  -1.181  -5.390  1.00  0.00     0.000 C 
BRANCH   7   8
ATOM      8  C   UNL     1       8.818   0.241  -5.470  1.00  0.00    -0.000 C 
BRANCH   8   9
ATOM      9  C   UNL     1       8.035   1.201  -4.563  1.00  0.00    -0.000 C 
BRANCH   9  10
ATOM     10  C   UNL     1       7.005   0.475  -3.682  1.00  0.00    -0.003 C 
ATOM     11  C   UNL     1       5.622   1.123  -3.731  1.00  0.00     0.004 C 
ENDBRANCH   9  10
ENDBRANCH   8   9
ENDBRANCH   7   8
ENDBRANCH   1   7
TORSDOF 7
ENDMDL
MODEL 9
REMARK VINA RESULT:    -3.202      1.491      2.211
REMARK INTER + INTRA:          -4.830
REMARK INTER:                  -4.357
REMARK INTRA:                  -0.473
REMARK UNBOUND:                -0.318
REMARK SMILES CCCCCCCCC(=O)[O-]
REMARK SMILES IDX 6 1 7 2 8 3 9 4 10 5 11 6 5 7 4 8 3 9 2 10 1 11
REMARK H PARENT
REMARK Flexibility Score: inf
ROOT
ATOM      1  C   UNL     1       1.853   7.447   3.853  1.00  0.00     0.000 C 
ENDROOT
BRANCH   1   2
ATOM      2  C   UNL     1       1.756   7.087   5.343  1.00  0.00     0.006 C 
BRANCH   2   3
ATOM      3  C   UNL     1       3.003   7.552   6.101  1.00  0.00     0.053 C 
BRANCH   3   4
ATOM      4  C   UNL     1       2.694   8.761   6.927  1.00  0.00     0.041 C 
ATOM      5  O   UNL     1       1.500   9.053   7.200  1.00  0.00    -0.550 OA
ATOM      6  O   UNL     1       3.726   9.536   7.440  1.00  0.00    -0.550 OA
ENDBRANCH   3   4
ENDBRANCH   2   3
ENDBRANCH   1   2
BRANCH   1   7
ATOM      7  C   UNL     1       0.602   8.175   3.336  1.00  0.00     0.000 C 
BRANCH   7   8
ATOM      8  C   UNL     1       0.266   9.430   4.156  1.00  0.00    -0.000 C 
BRANCH   8   9
ATOM      9  C   UNL     1      -1.226   9.465   4.516  1.00  0.00    -0.000 C 
BRANCH   9  10
ATOM     10  C   UNL     1      -2.014   8.306   3.886  1.00  0.00    -0.003 C 
ATOM     11  C   UNL     1      -3.485   8.296   4.301  1.00  0.00     0.004 C 
ENDBRANCH   9  10
ENDBRANCH   8   9
ENDBRANCH   7   8
ENDBRANCH   1   7
TORSDOF 7
ENDMDL
