MODEL 1
REMARK VINA RESULT:    -3.921      0.000      0.000
REMARK INTER + INTRA:          -5.112
REMARK INTER:                  -4.724
REMARK INTRA:                  -0.389
REMARK UNBOUND:                -0.389
REMARK SMILES CCCCc1oc(O)c2ccccc12
REMARK SMILES IDX 4 1 5 2 7 3 6 4 9 5 14 6 10 7 13 8 11 9 12 10 8 11 3 13 2 14
REMARK SMILES IDX 1 15
REMARK H PARENT 8 12
REMARK Flexibility Score: inf
ROOT
ATOM      1  C   UNL     1       1.342  55.300  38.721  1.00  0.00     0.076 C 
ENDROOT
BRANCH   1   2
ATOM      2  C   UNL     1       2.794  54.942  38.815  1.00  0.00     0.116 A 
ATOM      3  C   UNL     1       4.901  54.967  38.418  1.00  0.00     0.290 A 
ATOM      4  O   UNL     1       3.749  55.536  38.121  1.00  0.00    -0.430 OA
ATOM      5  C   UNL     1       4.699  53.958  39.336  1.00  0.00     0.066 A 
ATOM      6  C   UNL     1       3.353  53.940  39.588  1.00  0.00     0.027 A 
ATOM      7  C   UNL     1       5.577  53.067  39.953  1.00  0.00     0.016 A 
ATOM      8  C   UNL     1       2.783  53.025  40.474  1.00  0.00     0.012 A 
ATOM      9  C   UNL     1       5.032  52.133  40.854  1.00  0.00     0.001 A 
ATOM     10  C   UNL     1       3.643  52.112  41.113  1.00  0.00     0.001 A 
BRANCH   3  11
ATOM     11  O   UNL     1       6.120  55.351  37.865  1.00  0.00    -0.480 OA
ATOM     12  H   UNL     1       6.989  55.220  38.368  1.00  0.00     0.297 HD
ENDBRANCH   3  11
ENDBRANCH   1   2
BRANCH   1  13
ATOM     13  C   UNL     1       0.915  56.125  39.941  1.00  0.00     0.008 C 
BRANCH  13  14
ATOM     14  C   UNL     1      -0.513  55.796  40.404  1.00  0.00    -0.003 C 
ATOM     15  C   UNL     1      -1.129  54.629  39.632  1.00  0.00     0.004 C 
ENDBRANCH  13  14
ENDBRANCH   1  13
TORSDOF 4
ENDMDL
MODEL 2
REMARK VINA RESULT:    -3.837      6.003      7.398
REMARK INTER + INTRA:          -5.011
REMARK INTER:                  -4.738
REMARK INTRA:                  -0.273
REMARK UNBOUND:                -0.389
REMARK SMILES CCCCc1oc(O)c2ccccc12
REMARK SMILES IDX 4 1 5 2 7 3 6 4 9 5 14 6 10 7 13 8 11 9 12 10 8 11 3 13 2 14
REMARK SMILES IDX 1 15
REMARK H PARENT 8 12
REMARK Flexibility Score: inf
ROOT
ATOM      1  C   UNL     1      -0.093  47.482  42.706  1.00  0.00     0.076 C 
ENDROOT
BRANCH   1   2
ATOM      2  C   UNL     1       1.334  47.742  42.330  1.00  0.00     0.116 A 
ATOM      3  C   UNL     1       3.035  48.674  41.413  1.00  0.00     0.290 A 
ATOM      4  O   UNL     1       1.728  48.750  41.571  1.00  0.00    -0.430 OA
ATOM      5  C   UNL     1       3.520  47.573  42.087  1.00  0.00     0.066 A 
ATOM      6  C   UNL     1       2.435  46.977  42.670  1.00  0.00     0.027 A 
ATOM      7  C   UNL     1       4.808  47.056  42.224  1.00  0.00     0.016 A 
ATOM      8  C   UNL     1       2.556  45.814  43.433  1.00  0.00     0.012 A 
ATOM      9  C   UNL     1       4.963  45.885  42.990  1.00  0.00     0.001 A 
ATOM     10  C   UNL     1       3.844  45.268  43.591  1.00  0.00     0.001 A 
BRANCH   3  11
ATOM     11  O   UNL     1       3.780  49.583  40.667  1.00  0.00    -0.480 OA
ATOM     12  H   UNL     1       4.155  50.424  41.088  1.00  0.00     0.297 HD
ENDBRANCH   3  11
ENDBRANCH   1   2
BRANCH   1  13
ATOM     13  C   UNL     1      -1.004  47.625  41.481  1.00  0.00     0.008 C 
BRANCH  13  14
ATOM     14  C   UNL     1      -1.932  48.846  41.578  1.00  0.00    -0.003 C 
ATOM     15  C   UNL     1      -1.384  50.064  40.835  1.00  0.00     0.004 C 
ENDBRANCH  13  14
ENDBRANCH   1  13
TORSDOF 4
ENDMDL
MODEL 3
REMARK VINA RESULT:    -3.828      5.860      8.063
REMARK INTER + INTRA:          -5.000
REMARK INTER:                  -4.490
REMARK INTRA:                  -0.509
REMARK UNBOUND:                -0.389
REMARK SMILES CCCCc1oc(O)c2ccccc12
REMARK SMILES IDX 4 1 5 2 7 3 6 4 9 5 14 6 10 7 13 8 11 9 12 10 8 11 3 13 2 14
REMARK SMILES IDX 1 15
REMARK H PARENT 8 12
REMARK Flexibility Score: inf
ROOT
ATOM      1  C   UNL     1       4.258  49.332  42.458  1.00  0.00     0.076 C 
ENDROOT
BRANCH   1   2
ATOM      2  C   UNL     1       3.159  48.331  42.647  1.00  0.00     0.116 A 
ATOM      3  C   UNL     1       2.179  46.492  43.155  1.00  0.00     0.290 A 
ATOM      4  O   UNL     1       3.337  47.122  43.150  1.00  0.00    -0.430 OA
ATOM      5  C   UNL     1       1.202  47.313  42.632  1.00  0.00     0.066 A 
ATOM      6  C   UNL     1       1.828  48.486  42.305  1.00  0.00     0.027 A 
ATOM      7  C   UNL     1      -0.162  47.120  42.415  1.00  0.00     0.016 A 
ATOM      8  C   UNL     1       1.136  49.555  41.733  1.00  0.00     0.012 A 
ATOM      9  C   UNL     1      -0.889  48.181  41.841  1.00  0.00     0.001 A 
ATOM     10  C   UNL     1      -0.243  49.391  41.502  1.00  0.00     0.001 A 
BRANCH   3  11
ATOM     11  O   UNL     1       2.005  45.193  43.623  1.00  0.00    -0.480 OA
ATOM     12  H   UNL     1       1.982  44.990  44.614  1.00  0.00     0.297 HD
ENDBRANCH   3  11
ENDBRANCH   1   2
BRANCH   1  13
ATOM     13  C   UNL     1       5.041  49.030  41.174  1.00  0.00     0.008 C 
BRANCH  13  14
ATOM     14  C   UNL     1       4.610  49.920  39.999  1.00  0.00    -0.003 C 
ATOM     15  C   UNL     1       4.306  51.355  40.426  1.00  0.00     0.004 C 
ENDBRANCH  13  14
ENDBRANCH   1  13
TORSDOF 4
ENDMDL
MODEL 4
REMARK VINA RESULT:    -3.736      6.888      8.233
REMARK INTER + INTRA:          -4.889
REMARK INTER:                  -4.519
REMARK INTRA:                  -0.370
REMARK UNBOUND:                -0.389
REMARK SMILES CCCCc1oc(O)c2ccccc12
REMARK SMILES IDX 4 1 5 2 7 3 6 4 9 5 14 6 10 7 13 8 11 9 12 10 8 11 3 13 2 14
REMARK SMILES IDX 1 15
REMARK H PARENT 8 12
REMARK Flexibility Score: inf
ROOT
ATOM      1  C   UNL     1       0.173  47.593  43.153  1.00  0.00     0.076 C 
ENDROOT
BRANCH   1   2
ATOM      2  C   UNL     1       1.518  46.937  43.076  1.00  0.00     0.116 A 
ATOM      3  C   UNL     1       3.056  45.466  43.338  1.00  0.00     0.290 A 
ATOM      4  O   UNL     1       1.780  45.728  43.540  1.00  0.00    -0.430 OA
ATOM      5  C   UNL     1       3.660  46.543  42.722  1.00  0.00     0.066 A 
ATOM      6  C   UNL     1       2.678  47.483  42.558  1.00  0.00     0.027 A 
ATOM      7  C   UNL     1       4.973  46.767  42.309  1.00  0.00     0.016 A 
ATOM      8  C   UNL     1       2.939  48.722  41.969  1.00  0.00     0.012 A 
ATOM      9  C   UNL     1       5.266  48.007  41.709  1.00  0.00     0.001 A 
ATOM     10  C   UNL     1       4.254  48.978  41.540  1.00  0.00     0.001 A 
BRANCH   3  11
ATOM     11  O   UNL     1       3.671  44.272  43.706  1.00  0.00    -0.480 OA
ATOM     12  H   UNL     1       3.214  43.381  43.561  1.00  0.00     0.297 HD
ENDBRANCH   3  11
ENDBRANCH   1   2
BRANCH   1  13
ATOM     13  C   UNL     1      -0.577  47.433  41.825  1.00  0.00     0.008 C 
BRANCH  13  14
ATOM     14  C   UNL     1      -0.738  48.765  41.076  1.00  0.00    -0.003 C 
ATOM     15  C   UNL     1      -1.977  49.544  41.518  1.00  0.00     0.004 C 
ENDBRANCH  13  14
ENDBRANCH   1  13
TORSDOF 4
ENDMDL
MODEL 5
REMARK VINA RESULT:    -3.728      5.616      8.197
REMARK INTER + INTRA:          -4.880
REMARK INTER:                  -4.458
REMARK INTRA:                  -0.422
REMARK UNBOUND:                -0.389
REMARK SMILES CCCCc1oc(O)c2ccccc12
REMARK SMILES IDX 4 1 5 2 7 3 6 4 9 5 14 6 10 7 13 8 11 9 12 10 8 11 3 13 2 14
REMARK SMILES IDX 1 15
REMARK H PARENT 8 12
REMARK Flexibility Score: inf
ROOT
ATOM      1  C   UNL     1       3.754  47.574  43.522  1.00  0.00     0.076 C 
ENDROOT
BRANCH   1   2
ATOM      2  C   UNL     1       2.789  48.511  42.862  1.00  0.00     0.116 A 
ATOM      3  C   UNL     1       1.991  50.320  42.033  1.00  0.00     0.290 A 
ATOM      4  O   UNL     1       3.057  49.774  42.584  1.00  0.00    -0.430 OA
ATOM      5  C   UNL     1       0.981  49.385  41.949  1.00  0.00     0.066 A 
ATOM      6  C   UNL     1       1.490  48.230  42.480  1.00  0.00     0.027 A 
ATOM      7  C   UNL     1      -0.323  49.460  41.461  1.00  0.00     0.016 A 
ATOM      8  C   UNL     1       0.728  47.063  42.568  1.00  0.00     0.012 A 
ATOM      9  C   UNL     1      -1.116  48.298  41.533  1.00  0.00     0.001 A 
ATOM     10  C   UNL     1      -0.592  47.107  42.083  1.00  0.00     0.001 A 
BRANCH   3  11
ATOM     11  O   UNL     1       1.928  51.646  41.613  1.00  0.00    -0.480 OA
ATOM     12  H   UNL     1       1.128  52.228  41.831  1.00  0.00     0.297 HD
ENDBRANCH   3  11
ENDBRANCH   1   2
BRANCH   1  13
ATOM     13  C   UNL     1       4.834  47.130  42.528  1.00  0.00     0.008 C 
BRANCH  13  14
ATOM     14  C   UNL     1       4.993  45.603  42.475  1.00  0.00    -0.003 C 
ATOM     15  C   UNL     1       3.905  44.869  43.258  1.00  0.00     0.004 C 
ENDBRANCH  13  14
ENDBRANCH   1  13
TORSDOF 4
ENDMDL
MODEL 6
REMARK VINA RESULT:    -3.726      5.913      7.849
REMARK INTER + INTRA:          -4.878
REMARK INTER:                  -4.385
REMARK INTRA:                  -0.492
REMARK UNBOUND:                -0.389
REMARK SMILES CCCCc1oc(O)c2ccccc12
REMARK SMILES IDX 4 1 5 2 7 3 6 4 9 5 14 6 10 7 13 8 11 9 12 10 8 11 3 13 2 14
REMARK SMILES IDX 1 15
REMARK H PARENT 8 12
REMARK Flexibility Score: inf
ROOT
ATOM      1  C   UNL     1       1.964  50.267  41.873  1.00  0.00     0.076 C 
ENDROOT
BRANCH   1   2
ATOM      2  C   UNL     1       1.705  48.916  42.468  1.00  0.00     0.116 A 
ATOM      3  C   UNL     1       0.670  47.319  43.458  1.00  0.00     0.290 A 
ATOM      4  O   UNL     1       0.555  48.553  43.007  1.00  0.00    -0.430 OA
ATOM      5  C   UNL     1       1.944  46.853  43.211  1.00  0.00     0.066 A 
ATOM      6  C   UNL     1       2.606  47.873  42.581  1.00  0.00     0.027 A 
ATOM      7  C   UNL     1       2.563  45.635  43.492  1.00  0.00     0.016 A 
ATOM      8  C   UNL     1       3.940  47.752  42.189  1.00  0.00     0.012 A 
ATOM      9  C   UNL     1       3.908  45.482  43.106  1.00  0.00     0.001 A 
ATOM     10  C   UNL     1       4.592  46.534  42.458  1.00  0.00     0.001 A 
BRANCH   3  11
ATOM     11  O   UNL     1      -0.359  46.623  44.085  1.00  0.00    -0.480 OA
ATOM     12  H   UNL     1      -1.298  46.998  44.126  1.00  0.00     0.297 HD
ENDBRANCH   3  11
ENDBRANCH   1   2
BRANCH   1  13
ATOM     13  C   UNL     1       2.799  51.123  42.833  1.00  0.00     0.008 C 
BRANCH  13  14
ATOM     14  C   UNL     1       4.147  51.542  42.226  1.00  0.00    -0.003 C 
ATOM     15  C   UNL     1       4.249  51.220  40.736  1.00  0.00     0.004 C 
ENDBRANCH  13  14
ENDBRANCH   1  13
TORSDOF 4
ENDMDL
MODEL 7
REMARK VINA RESULT:    -3.711      4.801      6.362
REMARK INTER + INTRA:          -4.859
REMARK INTER:                  -4.389
REMARK INTRA:                  -0.471
REMARK UNBOUND:                -0.389
REMARK SMILES CCCCc1oc(O)c2ccccc12
REMARK SMILES IDX 4 1 5 2 7 3 6 4 9 5 14 6 10 7 13 8 11 9 12 10 8 11 3 13 2 14
REMARK SMILES IDX 1 15
REMARK H PARENT 8 12
REMARK Flexibility Score: inf
ROOT
ATOM      1  C   UNL     1       1.352  47.464  42.793  1.00  0.00     0.076 C 
ENDROOT
BRANCH   1   2
ATOM      2  C   UNL     1       1.944  48.840  42.792  1.00  0.00     0.116 A 
ATOM      3  C   UNL     1       2.313  50.871  43.374  1.00  0.00     0.290 A 
ATOM      4  O   UNL     1       1.641  49.778  43.672  1.00  0.00    -0.430 OA
ATOM      5  C   UNL     1       3.085  50.650  42.252  1.00  0.00     0.066 A 
ATOM      6  C   UNL     1       2.848  49.354  41.879  1.00  0.00     0.027 A 
ATOM      7  C   UNL     1       3.956  51.475  41.540  1.00  0.00     0.016 A 
ATOM      8  C   UNL     1       3.462  48.786  40.762  1.00  0.00     0.012 A 
ATOM      9  C   UNL     1       4.593  50.929  40.410  1.00  0.00     0.001 A 
ATOM     10  C   UNL     1       4.348  49.593  40.023  1.00  0.00     0.001 A 
BRANCH   3  11
ATOM     11  O   UNL     1       2.231  52.056  44.101  1.00  0.00    -0.480 OA
ATOM     12  H   UNL     1       2.573  52.113  45.052  1.00  0.00     0.297 HD
ENDBRANCH   3  11
ENDBRANCH   1   2
BRANCH   1  13
ATOM     13  C   UNL     1      -0.149  47.527  42.487  1.00  0.00     0.008 C 
BRANCH  13  14
ATOM     14  C   UNL     1      -0.451  48.264  41.173  1.00  0.00    -0.003 C 
ATOM     15  C   UNL     1      -1.407  49.442  41.364  1.00  0.00     0.004 C 
ENDBRANCH  13  14
ENDBRANCH   1  13
TORSDOF 4
ENDMDL
MODEL 8
REMARK VINA RESULT:    -3.424      1.713      4.412
REMARK INTER + INTRA:          -4.514
REMARK INTER:                  -4.295
REMARK INTRA:                  -0.219
REMARK UNBOUND:                -0.389
REMARK SMILES CCCCc1oc(O)c2ccccc12
REMARK SMILES IDX 4 1 5 2 7 3 6 4 9 5 14 6 10 7 13 8 11 9 12 10 8 11 3 13 2 14
REMARK SMILES IDX 1 15
REMARK H PARENT 8 12
REMARK Flexibility Score: inf
ROOT
ATOM      1  C   UNL     1       4.110  51.734  41.213  1.00  0.00     0.076 C 
ENDROOT
BRANCH   1   2
ATOM      2  C   UNL     1       4.234  52.885  40.262  1.00  0.00     0.116 A 
ATOM      3  C   UNL     1       5.139  54.334  38.965  1.00  0.00     0.290 A 
ATOM      4  O   UNL     1       5.376  53.287  39.731  1.00  0.00    -0.430 OA
ATOM      5  C   UNL     1       3.794  54.636  38.994  1.00  0.00     0.066 A 
ATOM      6  C   UNL     1       3.217  53.714  39.824  1.00  0.00     0.027 A 
ATOM      7  C   UNL     1       3.049  55.638  38.372  1.00  0.00     0.016 A 
ATOM      8  C   UNL     1       1.847  53.726  40.097  1.00  0.00     0.012 A 
ATOM      9  C   UNL     1       1.664  55.674  38.626  1.00  0.00     0.001 A 
ATOM     10  C   UNL     1       1.068  54.724  39.484  1.00  0.00     0.001 A 
BRANCH   3  11
ATOM     11  O   UNL     1       6.124  55.009  38.249  1.00  0.00    -0.480 OA
ATOM     12  H   UNL     1       7.107  54.876  38.454  1.00  0.00     0.297 HD
ENDBRANCH   3  11
ENDBRANCH   1   2
BRANCH   1  13
ATOM     13  C   UNL     1       4.350  50.408  40.482  1.00  0.00     0.008 C 
BRANCH  13  14
ATOM     14  C   UNL     1       4.053  49.187  41.366  1.00  0.00    -0.003 C 
ATOM     15  C   UNL     1       2.644  48.633  41.153  1.00  0.00     0.004 C 
ENDBRANCH  13  14
ENDBRANCH   1  13
TORSDOF 4
ENDMDL
