MODEL 1
REMARK VINA RESULT:    -4.287      0.000      0.000
REMARK INTER + INTRA:          -7.520
REMARK INTER:                  -6.542
REMARK INTRA:                  -0.978
REMARK UNBOUND:                -0.978
REMARK SMILES CCCCCCCCCCC(=O)[O-]
REMARK SMILES IDX 7 1 8 2 9 3 10 4 11 5 12 6 13 7 6 8 5 9 4 10 3 11 2 12 1 13
REMARK H PARENT
REMARK Flexibility Score: inf
ROOT
ATOM      1  C   UNL     1     -47.418 -49.031  17.221  1.00  0.00     0.000 C 
ENDROOT
BRANCH   1   2
ATOM      2  C   UNL     1     -47.413 -50.520  17.609  1.00  0.00     0.000 C 
BRANCH   2   3
ATOM      3  C   UNL     1     -48.153 -51.423  16.600  1.00  0.00     0.006 C 
BRANCH   3   4
ATOM      4  C   UNL     1     -49.595 -50.960  16.352  1.00  0.00     0.053 C 
BRANCH   4   5
ATOM      5  C   UNL     1     -49.843 -50.783  14.888  1.00  0.00     0.041 C 
ATOM      6  O   UNL     1     -49.377 -49.783  14.283  1.00  0.00    -0.550 OA
ATOM      7  O   UNL     1     -50.550 -51.748  14.181  1.00  0.00    -0.550 OA
ENDBRANCH   4   5
ENDBRANCH   3   4
ENDBRANCH   2   3
ENDBRANCH   1   2
BRANCH   1   8
ATOM      8  C   UNL     1     -47.995 -48.128  18.323  1.00  0.00     0.000 C 
BRANCH   8   9
ATOM      9  C   UNL     1     -48.565 -48.929  19.505  1.00  0.00    -0.000 C 
BRANCH   9  10
ATOM     10  C   UNL     1     -50.109 -48.884  19.592  1.00  0.00    -0.000 C 
BRANCH  10  11
ATOM     11  C   UNL     1     -50.704 -50.035  20.424  1.00  0.00    -0.000 C 
BRANCH  11  12
ATOM     12  C   UNL     1     -51.908 -50.723  19.753  1.00  0.00    -0.003 C 
ATOM     13  C   UNL     1     -52.424 -49.955  18.536  1.00  0.00     0.004 C 
ENDBRANCH  11  12
ENDBRANCH  10  11
ENDBRANCH   9  10
ENDBRANCH   8   9
ENDBRANCH   1   8
TORSDOF 9
ENDMDL
MODEL 2
REMARK VINA RESULT:    -4.258      2.473      4.295
REMARK INTER + INTRA:          -7.477
REMARK INTER:                  -6.533
REMARK INTRA:                  -0.944
REMARK UNBOUND:                -0.978
REMARK SMILES CCCCCCCCCCC(=O)[O-]
REMARK SMILES IDX 7 1 8 2 9 3 10 4 11 5 12 6 13 7 6 8 5 9 4 10 3 11 2 12 1 13
REMARK H PARENT
REMARK Flexibility Score: inf
ROOT
ATOM      1  C   UNL     1     -48.011 -48.278  19.220  1.00  0.00     0.000 C 
ENDROOT
BRANCH   1   2
ATOM      2  C   UNL     1     -49.533 -48.491  19.282  1.00  0.00     0.000 C 
BRANCH   2   3
ATOM      3  C   UNL     1     -49.957 -49.652  20.206  1.00  0.00     0.006 C 
BRANCH   3   4
ATOM      4  C   UNL     1     -50.909 -50.633  19.508  1.00  0.00     0.053 C 
BRANCH   4   5
ATOM      5  C   UNL     1     -52.221 -49.974  19.222  1.00  0.00     0.041 C 
ATOM      6  O   UNL     1     -52.696 -49.989  18.056  1.00  0.00    -0.550 OA
ATOM      7  O   UNL     1     -52.943 -49.385  20.253  1.00  0.00    -0.550 OA
ENDBRANCH   4   5
ENDBRANCH   3   4
ENDBRANCH   2   3
ENDBRANCH   1   2
BRANCH   1   8
ATOM      8  C   UNL     1     -47.316 -49.220  18.225  1.00  0.00     0.000 C 
BRANCH   8   9
ATOM      9  C   UNL     1     -47.323 -48.674  16.788  1.00  0.00    -0.000 C 
BRANCH   9  10
ATOM     10  C   UNL     1     -47.710 -49.732  15.729  1.00  0.00    -0.000 C 
BRANCH  10  11
ATOM     11  C   UNL     1     -48.310 -51.013  16.340  1.00  0.00    -0.000 C 
BRANCH  11  12
ATOM     12  C   UNL     1     -49.836 -51.126  16.158  1.00  0.00    -0.003 C 
ATOM     13  C   UNL     1     -50.255 -51.141  14.688  1.00  0.00     0.004 C 
ENDBRANCH  11  12
ENDBRANCH  10  11
ENDBRANCH   9  10
ENDBRANCH   8   9
ENDBRANCH   1   8
TORSDOF 9
ENDMDL
MODEL 3
REMARK VINA RESULT:    -4.171      1.626      2.348
REMARK INTER + INTRA:          -7.343
REMARK INTER:                  -6.813
REMARK INTRA:                  -0.529
REMARK UNBOUND:                -0.978
REMARK SMILES CCCCCCCCCCC(=O)[O-]
REMARK SMILES IDX 7 1 8 2 9 3 10 4 11 5 12 6 13 7 6 8 5 9 4 10 3 11 2 12 1 13
REMARK H PARENT
REMARK Flexibility Score: inf
ROOT
ATOM      1  C   UNL     1     -48.879 -50.768  18.687  1.00  0.00     0.000 C 
ENDROOT
BRANCH   1   2
ATOM      2  C   UNL     1     -47.650 -50.125  18.021  1.00  0.00     0.000 C 
BRANCH   2   3
ATOM      3  C   UNL     1     -47.752 -50.045  16.483  1.00  0.00     0.006 C 
BRANCH   3   4
ATOM      4  C   UNL     1     -48.499 -51.246  15.886  1.00  0.00     0.053 C 
BRANCH   4   5
ATOM      5  C   UNL     1     -49.455 -50.794  14.829  1.00  0.00     0.041 C 
ATOM      6  O   UNL     1     -50.420 -51.529  14.491  1.00  0.00    -0.550 OA
ATOM      7  O   UNL     1     -49.310 -49.539  14.250  1.00  0.00    -0.550 OA
ENDBRANCH   4   5
ENDBRANCH   3   4
ENDBRANCH   2   3
ENDBRANCH   1   2
BRANCH   1   8
ATOM      8  C   UNL     1     -49.999 -49.757  18.977  1.00  0.00     0.000 C 
BRANCH   8   9
ATOM      9  C   UNL     1     -51.385 -50.272  18.558  1.00  0.00    -0.000 C 
BRANCH   9  10
ATOM     10  C   UNL     1     -52.545 -49.652  19.373  1.00  0.00    -0.000 C 
BRANCH  10  11
ATOM     11  C   UNL     1     -52.256 -49.584  20.884  1.00  0.00    -0.000 C 
BRANCH  11  12
ATOM     12  C   UNL     1     -53.076 -48.507  21.620  1.00  0.00    -0.003 C 
ATOM     13  C   UNL     1     -54.413 -48.216  20.940  1.00  0.00     0.004 C 
ENDBRANCH  11  12
ENDBRANCH  10  11
ENDBRANCH   9  10
ENDBRANCH   8   9
ENDBRANCH   1   8
TORSDOF 9
ENDMDL
MODEL 4
REMARK VINA RESULT:    -4.162      2.607      4.392
REMARK INTER + INTRA:          -7.329
REMARK INTER:                  -6.269
REMARK INTRA:                  -1.060
REMARK UNBOUND:                -0.978
REMARK SMILES CCCCCCCCCCC(=O)[O-]
REMARK SMILES IDX 7 1 8 2 9 3 10 4 11 5 12 6 13 7 6 8 5 9 4 10 3 11 2 12 1 13
REMARK H PARENT
REMARK Flexibility Score: inf
ROOT
ATOM      1  C   UNL     1     -47.434 -48.157  18.723  1.00  0.00     0.000 C 
ENDROOT
BRANCH   1   2
ATOM      2  C   UNL     1     -48.507 -48.812  19.610  1.00  0.00     0.000 C 
BRANCH   2   3
ATOM      3  C   UNL     1     -49.777 -49.229  18.838  1.00  0.00     0.006 C 
BRANCH   3   4
ATOM      4  C   UNL     1     -50.164 -50.690  19.100  1.00  0.00     0.053 C 
BRANCH   4   5
ATOM      5  C   UNL     1     -51.561 -50.774  19.627  1.00  0.00     0.041 C 
ATOM      6  O   UNL     1     -51.988 -51.850  20.123  1.00  0.00    -0.550 OA
ATOM      7  O   UNL     1     -52.379 -49.651  19.614  1.00  0.00    -0.550 OA
ENDBRANCH   4   5
ENDBRANCH   3   4
ENDBRANCH   2   3
ENDBRANCH   1   2
BRANCH   1   8
ATOM      8  C   UNL     1     -48.017 -47.522  17.451  1.00  0.00     0.000 C 
BRANCH   8   9
ATOM      9  C   UNL     1     -47.292 -47.980  16.175  1.00  0.00    -0.000 C 
BRANCH   9  10
ATOM     10  C   UNL     1     -48.046 -49.090  15.404  1.00  0.00    -0.000 C 
BRANCH  10  11
ATOM     11  C   UNL     1     -47.717 -50.508  15.906  1.00  0.00    -0.000 C 
BRANCH  11  12
ATOM     12  C   UNL     1     -48.885 -51.501  15.757  1.00  0.00    -0.003 C 
ATOM     13  C   UNL     1     -50.044 -50.931  14.940  1.00  0.00     0.004 C 
ENDBRANCH  11  12
ENDBRANCH  10  11
ENDBRANCH   9  10
ENDBRANCH   8   9
ENDBRANCH   1   8
TORSDOF 9
ENDMDL
MODEL 5
REMARK VINA RESULT:    -4.152     13.857     15.197
REMARK INTER + INTRA:          -7.314
REMARK INTER:                  -6.285
REMARK INTRA:                  -1.029
REMARK UNBOUND:                -0.978
REMARK SMILES CCCCCCCCCCC(=O)[O-]
REMARK SMILES IDX 7 1 8 2 9 3 10 4 11 5 12 6 13 7 6 8 5 9 4 10 3 11 2 12 1 13
REMARK H PARENT
REMARK Flexibility Score: inf
ROOT
ATOM      1  C   UNL     1     -45.229 -48.938  30.974  1.00  0.00     0.000 C 
ENDROOT
BRANCH   1   2
ATOM      2  C   UNL     1     -44.556 -50.131  30.273  1.00  0.00     0.000 C 
BRANCH   2   3
ATOM      3  C   UNL     1     -43.188 -50.511  30.879  1.00  0.00     0.006 C 
BRANCH   3   4
ATOM      4  C   UNL     1     -42.198 -51.005  29.815  1.00  0.00     0.053 C 
BRANCH   4   5
ATOM      5  C   UNL     1     -41.462 -49.852  29.211  1.00  0.00     0.041 C 
ATOM      6  O   UNL     1     -41.742 -49.461  28.047  1.00  0.00    -0.550 OA
ATOM      7  O   UNL     1     -40.498 -49.178  29.951  1.00  0.00    -0.550 OA
ENDBRANCH   4   5
ENDBRANCH   3   4
ENDBRANCH   2   3
ENDBRANCH   1   2
BRANCH   1   8
ATOM      8  C   UNL     1     -46.650 -49.256  31.462  1.00  0.00     0.000 C 
BRANCH   8   9
ATOM      9  C   UNL     1     -46.826 -49.012  32.970  1.00  0.00    -0.000 C 
BRANCH   9  10
ATOM     10  C   UNL     1     -46.488 -50.247  33.837  1.00  0.00    -0.000 C 
BRANCH  10  11
ATOM     11  C   UNL     1     -46.598 -51.578  33.068  1.00  0.00    -0.000 C 
BRANCH  11  12
ATOM     12  C   UNL     1     -45.321 -52.436  33.136  1.00  0.00    -0.003 C 
ATOM     13  C   UNL     1     -44.265 -51.851  34.074  1.00  0.00     0.004 C 
ENDBRANCH  11  12
ENDBRANCH  10  11
ENDBRANCH   9  10
ENDBRANCH   8   9
ENDBRANCH   1   8
TORSDOF 9
ENDMDL
MODEL 6
REMARK VINA RESULT:    -4.149     14.035     15.794
REMARK INTER + INTRA:          -7.310
REMARK INTER:                  -6.735
REMARK INTRA:                  -0.575
REMARK UNBOUND:                -0.978
REMARK SMILES CCCCCCCCCCC(=O)[O-]
REMARK SMILES IDX 7 1 8 2 9 3 10 4 11 5 12 6 13 7 6 8 5 9 4 10 3 11 2 12 1 13
REMARK H PARENT
REMARK Flexibility Score: inf
ROOT
ATOM      1  C   UNL     1     -41.378 -49.883  30.729  1.00  0.00     0.000 C 
ENDROOT
BRANCH   1   2
ATOM      2  C   UNL     1     -41.992 -50.783  31.815  1.00  0.00     0.000 C 
BRANCH   2   3
ATOM      3  C   UNL     1     -43.499 -51.053  31.615  1.00  0.00     0.006 C 
BRANCH   3   4
ATOM      4  C   UNL     1     -44.184 -51.513  32.909  1.00  0.00     0.053 C 
BRANCH   4   5
ATOM      5  C   UNL     1     -45.574 -51.984  32.625  1.00  0.00     0.041 C 
ATOM      6  O   UNL     1     -46.528 -51.627  33.365  1.00  0.00    -0.550 OA
ATOM      7  O   UNL     1     -45.825 -52.782  31.515  1.00  0.00    -0.550 OA
ENDBRANCH   4   5
ENDBRANCH   3   4
ENDBRANCH   2   3
ENDBRANCH   1   2
BRANCH   1   8
ATOM      8  C   UNL     1     -41.728 -50.342  29.305  1.00  0.00     0.000 C 
BRANCH   8   9
ATOM      9  C   UNL     1     -41.901 -49.166  28.330  1.00  0.00    -0.000 C 
BRANCH   9  10
ATOM     10  C   UNL     1     -40.568 -48.673  27.718  1.00  0.00    -0.000 C 
BRANCH  10  11
ATOM     11  C   UNL     1     -40.171 -47.260  28.185  1.00  0.00    -0.000 C 
BRANCH  11  12
ATOM     12  C   UNL     1     -38.906 -47.233  29.064  1.00  0.00    -0.003 C 
ATOM     13  C   UNL     1     -37.972 -48.412  28.788  1.00  0.00     0.004 C 
ENDBRANCH  11  12
ENDBRANCH  10  11
ENDBRANCH   9  10
ENDBRANCH   8   9
ENDBRANCH   1   8
TORSDOF 9
ENDMDL
MODEL 7
REMARK VINA RESULT:    -4.078      3.570      5.431
REMARK INTER + INTRA:          -7.202
REMARK INTER:                  -6.438
REMARK INTRA:                  -0.764
REMARK UNBOUND:                -0.978
REMARK SMILES CCCCCCCCCCC(=O)[O-]
REMARK SMILES IDX 7 1 8 2 9 3 10 4 11 5 12 6 13 7 6 8 5 9 4 10 3 11 2 12 1 13
REMARK H PARENT
REMARK Flexibility Score: inf
ROOT
ATOM      1  C   UNL     1     -49.828 -49.574  18.916  1.00  0.00     0.000 C 
ENDROOT
BRANCH   1   2
ATOM      2  C   UNL     1     -51.043 -50.401  18.461  1.00  0.00     0.000 C 
BRANCH   2   3
ATOM      3  C   UNL     1     -52.308 -50.161  19.313  1.00  0.00     0.006 C 
BRANCH   3   4
ATOM      4  C   UNL     1     -51.975 -49.598  20.701  1.00  0.00     0.053 C 
BRANCH   4   5
ATOM      5  C   UNL     1     -53.157 -48.881  21.271  1.00  0.00     0.041 C 
ATOM      6  O   UNL     1     -53.191 -48.589  22.496  1.00  0.00    -0.550 OA
ATOM      7  O   UNL     1     -54.201 -48.491  20.442  1.00  0.00    -0.550 OA
ENDBRANCH   4   5
ENDBRANCH   3   4
ENDBRANCH   2   3
ENDBRANCH   1   2
BRANCH   1   8
ATOM      8  C   UNL     1     -48.492 -50.295  18.679  1.00  0.00     0.000 C 
BRANCH   8   9
ATOM      9  C   UNL     1     -47.405 -49.360  18.124  1.00  0.00    -0.000 C 
BRANCH   9  10
ATOM     10  C   UNL     1     -47.439 -49.223  16.584  1.00  0.00    -0.000 C 
BRANCH  10  11
ATOM     11  C   UNL     1     -47.878 -50.515  15.868  1.00  0.00    -0.000 C 
BRANCH  11  12
ATOM     12  C   UNL     1     -48.961 -50.289  14.797  1.00  0.00    -0.003 C 
ATOM     13  C   UNL     1     -50.197 -51.163  15.013  1.00  0.00     0.004 C 
ENDBRANCH  11  12
ENDBRANCH  10  11
ENDBRANCH   9  10
ENDBRANCH   8   9
ENDBRANCH   1   8
TORSDOF 9
ENDMDL
MODEL 8
REMARK VINA RESULT:    -4.069      1.639      2.311
REMARK INTER + INTRA:          -7.187
REMARK INTER:                  -6.489
REMARK INTRA:                  -0.698
REMARK UNBOUND:                -0.978
REMARK SMILES CCCCCCCCCCC(=O)[O-]
REMARK SMILES IDX 7 1 8 2 9 3 10 4 11 5 12 6 13 7 6 8 5 9 4 10 3 11 2 12 1 13
REMARK H PARENT
REMARK Flexibility Score: inf
ROOT
ATOM      1  C   UNL     1     -49.008 -48.725  18.895  1.00  0.00     0.000 C 
ENDROOT
BRANCH   1   2
ATOM      2  C   UNL     1     -47.550 -48.887  18.431  1.00  0.00     0.000 C 
BRANCH   2   3
ATOM      3  C   UNL     1     -47.365 -49.962  17.339  1.00  0.00     0.006 C 
BRANCH   3   4
ATOM      4  C   UNL     1     -47.704 -49.434  15.939  1.00  0.00     0.053 C 
BRANCH   4   5
ATOM      5  C   UNL     1     -48.715 -50.315  15.278  1.00  0.00     0.041 C 
ATOM      6  O   UNL     1     -49.395 -49.885  14.309  1.00  0.00    -0.550 OA
ATOM      7  O   UNL     1     -48.875 -51.629  15.701  1.00  0.00    -0.550 OA
ENDBRANCH   4   5
ENDBRANCH   3   4
ENDBRANCH   2   3
ENDBRANCH   1   2
BRANCH   1   8
ATOM      8  C   UNL     1     -49.677 -50.064  19.242  1.00  0.00     0.000 C 
BRANCH   8   9
ATOM      9  C   UNL     1     -50.899 -50.362  18.359  1.00  0.00    -0.000 C 
BRANCH   9  10
ATOM     10  C   UNL     1     -52.249 -50.118  19.073  1.00  0.00    -0.000 C 
BRANCH  10  11
ATOM     11  C   UNL     1     -52.106 -49.927  20.595  1.00  0.00    -0.000 C 
BRANCH  11  12
ATOM     12  C   UNL     1     -52.658 -48.583  21.103  1.00  0.00    -0.003 C 
ATOM     13  C   UNL     1     -54.160 -48.631  21.386  1.00  0.00     0.004 C 
ENDBRANCH  11  12
ENDBRANCH  10  11
ENDBRANCH   9  10
ENDBRANCH   8   9
ENDBRANCH   1   8
TORSDOF 9
ENDMDL
MODEL 9
REMARK VINA RESULT:    -4.019      1.521      1.909
REMARK INTER + INTRA:          -7.112
REMARK INTER:                  -6.339
REMARK INTRA:                  -0.773
REMARK UNBOUND:                -0.978
REMARK SMILES CCCCCCCCCCC(=O)[O-]
REMARK SMILES IDX 7 1 8 2 9 3 10 4 11 5 12 6 13 7 6 8 5 9 4 10 3 11 2 12 1 13
REMARK H PARENT
REMARK Flexibility Score: inf
ROOT
ATOM      1  C   UNL     1     -48.307 -48.429  18.131  1.00  0.00     0.000 C 
ENDROOT
BRANCH   1   2
ATOM      2  C   UNL     1     -47.552 -49.749  17.890  1.00  0.00     0.000 C 
BRANCH   2   3
ATOM      3  C   UNL     1     -47.657 -50.264  16.439  1.00  0.00     0.006 C 
BRANCH   3   4
ATOM      4  C   UNL     1     -48.547 -51.509  16.327  1.00  0.00     0.053 C 
BRANCH   4   5
ATOM      5  C   UNL     1     -49.907 -51.136  15.829  1.00  0.00     0.041 C 
ATOM      6  O   UNL     1     -50.148 -51.123  14.594  1.00  0.00    -0.550 OA
ATOM      7  O   UNL     1     -50.923 -50.848  16.732  1.00  0.00    -0.550 OA
ENDBRANCH   4   5
ENDBRANCH   3   4
ENDBRANCH   2   3
ENDBRANCH   1   2
BRANCH   1   8
ATOM      8  C   UNL     1     -49.192 -48.467  19.386  1.00  0.00     0.000 C 
BRANCH   8   9
ATOM      9  C   UNL     1     -49.577 -49.899  19.795  1.00  0.00    -0.000 C 
BRANCH   9  10
ATOM     10  C   UNL     1     -50.879 -49.972  20.626  1.00  0.00    -0.000 C 
BRANCH  10  11
ATOM     11  C   UNL     1     -52.130 -49.546  19.833  1.00  0.00    -0.000 C 
BRANCH  11  12
ATOM     12  C   UNL     1     -53.248 -48.959  20.715  1.00  0.00    -0.003 C 
ATOM     13  C   UNL     1     -52.711 -48.273  21.971  1.00  0.00     0.004 C 
ENDBRANCH  11  12
ENDBRANCH  10  11
ENDBRANCH   9  10
ENDBRANCH   8   9
ENDBRANCH   1   8
TORSDOF 9
ENDMDL
