MODEL 1
REMARK VINA RESULT:    -3.988      0.000      0.000
REMARK INTER + INTRA:          -5.343
REMARK INTER:                  -5.153
REMARK INTRA:                  -0.190
REMARK UNBOUND:                -0.190
REMARK SMILES CCCCCCC(C)=O
REMARK SMILES IDX 4 1 3 2 2 3 1 4 5 5 6 6 7 7 9 8 8 9
REMARK H PARENT
REMARK Flexibility Score: inf
ROOT
ATOM      1  C   UNL     1      24.991  58.008  -9.148  1.00  0.00     0.000 C 
ENDROOT
BRANCH   1   2
ATOM      2  C   UNL     1      25.519  56.593  -9.429  1.00  0.00    -0.000 C 
BRANCH   2   3
ATOM      3  C   UNL     1      25.255  55.622  -8.269  1.00  0.00    -0.003 C 
ATOM      4  C   UNL     1      23.807  55.141  -8.272  1.00  0.00     0.004 C 
ENDBRANCH   2   3
ENDBRANCH   1   2
BRANCH   1   5
ATOM      5  C   UNL     1      25.902  59.105  -9.719  1.00  0.00     0.008 C 
BRANCH   5   6
ATOM      6  C   UNL     1      27.071  58.493 -10.505  1.00  0.00     0.075 C 
BRANCH   6   7
ATOM      7  C   UNL     1      28.202  59.456 -10.795  1.00  0.00     0.129 C 
ATOM      8  O   UNL     1      29.215  59.020 -11.320  1.00  0.00    -0.300 OA
ATOM      9  C   UNL     1      28.134  60.923 -10.467  1.00  0.00     0.087 C 
ENDBRANCH   6   7
ENDBRANCH   5   6
ENDBRANCH   1   5
TORSDOF 5
ENDMDL
MODEL 2
REMARK VINA RESULT:    -3.906      2.337      5.528
REMARK INTER + INTRA:          -5.238
REMARK INTER:                  -5.158
REMARK INTRA:                  -0.080
REMARK UNBOUND:                -0.190
REMARK SMILES CCCCCCC(C)=O
REMARK SMILES IDX 4 1 3 2 2 3 1 4 5 5 6 6 7 7 9 8 8 9
REMARK H PARENT
REMARK Flexibility Score: inf
ROOT
ATOM      1  C   UNL     1      26.066  58.616  -9.803  1.00  0.00     0.000 C 
ENDROOT
BRANCH   1   2
ATOM      2  C   UNL     1      27.313  58.873 -10.662  1.00  0.00    -0.000 C 
BRANCH   2   3
ATOM      3  C   UNL     1      27.814  60.322 -10.560  1.00  0.00    -0.003 C 
ATOM      4  C   UNL     1      29.330  60.391 -10.718  1.00  0.00     0.004 C 
ENDBRANCH   2   3
ENDBRANCH   1   2
BRANCH   1   5
ATOM      5  C   UNL     1      25.826  57.122  -9.537  1.00  0.00     0.008 C 
BRANCH   5   6
ATOM      6  C   UNL     1      24.523  56.907  -8.754  1.00  0.00     0.075 C 
BRANCH   6   7
ATOM      7  C   UNL     1      24.358  55.514  -8.186  1.00  0.00     0.129 C 
ATOM      8  O   UNL     1      25.347  54.800  -8.107  1.00  0.00    -0.300 OA
ATOM      9  C   UNL     1      23.037  54.971  -7.715  1.00  0.00     0.087 C 
ENDBRANCH   6   7
ENDBRANCH   5   6
ENDBRANCH   1   5
TORSDOF 5
ENDMDL
MODEL 3
REMARK VINA RESULT:    -3.768     18.160     19.966
REMARK INTER + INTRA:          -5.060
REMARK INTER:                  -4.575
REMARK INTRA:                  -0.485
REMARK UNBOUND:                -0.190
REMARK SMILES CCCCCCC(C)=O
REMARK SMILES IDX 4 1 3 2 2 3 1 4 5 5 6 6 7 7 9 8 8 9
REMARK H PARENT
REMARK Flexibility Score: inf
ROOT
ATOM      1  C   UNL     1      16.024  42.888   1.085  1.00  0.00     0.000 C 
ENDROOT
BRANCH   1   2
ATOM      2  C   UNL     1      15.825  44.316   1.615  1.00  0.00    -0.000 C 
BRANCH   2   3
ATOM      3  C   UNL     1      15.122  45.230   0.601  1.00  0.00    -0.003 C 
ATOM      4  C   UNL     1      15.911  45.314  -0.703  1.00  0.00     0.004 C 
ENDBRANCH   2   3
ENDBRANCH   1   2
BRANCH   1   5
ATOM      5  C   UNL     1      17.468  42.389   1.249  1.00  0.00     0.008 C 
BRANCH   5   6
ATOM      6  C   UNL     1      18.366  43.492   1.829  1.00  0.00     0.075 C 
BRANCH   6   7
ATOM      7  C   UNL     1      19.578  43.820   0.985  1.00  0.00     0.129 C 
ATOM      8  O   UNL     1      20.646  43.301   1.276  1.00  0.00    -0.300 OA
ATOM      9  C   UNL     1      19.528  44.752  -0.194  1.00  0.00     0.087 C 
ENDBRANCH   6   7
ENDBRANCH   5   6
ENDBRANCH   1   5
TORSDOF 5
ENDMDL
MODEL 4
REMARK VINA RESULT:    -3.706     19.123     19.753
REMARK INTER + INTRA:          -4.979
REMARK INTER:                  -4.630
REMARK INTRA:                  -0.349
REMARK UNBOUND:                -0.190
REMARK SMILES CCCCCCC(C)=O
REMARK SMILES IDX 4 1 3 2 2 3 1 4 5 5 6 6 7 7 9 8 8 9
REMARK H PARENT
REMARK Flexibility Score: inf
ROOT
ATOM      1  C   UNL     1      18.579  43.525   1.932  1.00  0.00     0.000 C 
ENDROOT
BRANCH   1   2
ATOM      2  C   UNL     1      19.811  43.918   1.102  1.00  0.00    -0.000 C 
BRANCH   2   3
ATOM      3  C   UNL     1      20.922  42.859   1.155  1.00  0.00    -0.003 C 
ATOM      4  C   UNL     1      21.052  42.132  -0.181  1.00  0.00     0.004 C 
ENDBRANCH   2   3
ENDBRANCH   1   2
BRANCH   1   5
ATOM      5  C   UNL     1      17.396  43.075   1.061  1.00  0.00     0.008 C 
BRANCH   5   6
ATOM      6  C   UNL     1      17.327  43.895  -0.236  1.00  0.00     0.075 C 
BRANCH   6   7
ATOM      7  C   UNL     1      16.223  44.929  -0.263  1.00  0.00     0.129 C 
ATOM      8  O   UNL     1      16.161  45.686  -1.221  1.00  0.00    -0.300 OA
ATOM      9  C   UNL     1      15.201  45.068   0.832  1.00  0.00     0.087 C 
ENDBRANCH   6   7
ENDBRANCH   5   6
ENDBRANCH   1   5
TORSDOF 5
ENDMDL
MODEL 5
REMARK VINA RESULT:    -3.671     18.497     20.214
REMARK INTER + INTRA:          -4.935
REMARK INTER:                  -4.439
REMARK INTRA:                  -0.496
REMARK UNBOUND:                -0.190
REMARK SMILES CCCCCCC(C)=O
REMARK SMILES IDX 4 1 3 2 2 3 1 4 5 5 6 6 7 7 9 8 8 9
REMARK H PARENT
REMARK Flexibility Score: inf
ROOT
ATOM      1  C   UNL     1      17.773  42.466   1.127  1.00  0.00     0.000 C 
ENDROOT
BRANCH   1   2
ATOM      2  C   UNL     1      18.544  43.494   1.967  1.00  0.00    -0.000 C 
BRANCH   2   3
ATOM      3  C   UNL     1      19.827  43.981   1.276  1.00  0.00    -0.003 C 
ATOM      4  C   UNL     1      19.513  44.637  -0.066  1.00  0.00     0.004 C 
ENDBRANCH   2   3
ENDBRANCH   1   2
BRANCH   1   5
ATOM      5  C   UNL     1      16.277  42.793   1.015  1.00  0.00     0.008 C 
BRANCH   5   6
ATOM      6  C   UNL     1      15.977  44.191   1.578  1.00  0.00     0.075 C 
BRANCH   6   7
ATOM      7  C   UNL     1      15.370  45.150   0.577  1.00  0.00     0.129 C 
ATOM      8  O   UNL     1      14.385  45.791   0.913  1.00  0.00    -0.300 OA
ATOM      9  C   UNL     1      15.922  45.350  -0.807  1.00  0.00     0.087 C 
ENDBRANCH   6   7
ENDBRANCH   5   6
ENDBRANCH   1   5
TORSDOF 5
ENDMDL
MODEL 6
REMARK VINA RESULT:    -3.556      3.190      5.116
REMARK INTER + INTRA:          -4.786
REMARK INTER:                  -4.526
REMARK INTRA:                  -0.260
REMARK UNBOUND:                -0.190
REMARK SMILES CCCCCCC(C)=O
REMARK SMILES IDX 4 1 3 2 2 3 1 4 5 5 6 6 7 7 9 8 8 9
REMARK H PARENT
REMARK Flexibility Score: inf
ROOT
ATOM      1  C   UNL     1      29.802  59.437 -10.767  1.00  0.00     0.000 C 
ENDROOT
BRANCH   1   2
ATOM      2  C   UNL     1      28.718  60.499 -11.003  1.00  0.00    -0.000 C 
BRANCH   2   3
ATOM      3  C   UNL     1      27.368  60.115 -10.379  1.00  0.00    -0.003 C 
ATOM      4  C   UNL     1      27.080  58.628 -10.565  1.00  0.00     0.004 C 
ENDBRANCH   2   3
ENDBRANCH   1   2
BRANCH   1   5
ATOM      5  C   UNL     1      30.670  59.188 -12.010  1.00  0.00     0.008 C 
BRANCH   5   6
ATOM      6  C   UNL     1      30.036  58.123 -12.918  1.00  0.00     0.075 C 
BRANCH   6   7
ATOM      7  C   UNL     1      31.033  57.230 -13.624  1.00  0.00     0.129 C 
ATOM      8  O   UNL     1      30.885  56.020 -13.544  1.00  0.00    -0.300 OA
ATOM      9  C   UNL     1      32.195  57.764 -14.417  1.00  0.00     0.087 C 
ENDBRANCH   6   7
ENDBRANCH   5   6
ENDBRANCH   1   5
TORSDOF 5
ENDMDL
MODEL 7
REMARK VINA RESULT:    -3.549      3.960      6.321
REMARK INTER + INTRA:          -4.777
REMARK INTER:                  -4.511
REMARK INTRA:                  -0.266
REMARK UNBOUND:                -0.190
REMARK SMILES CCCCCCC(C)=O
REMARK SMILES IDX 4 1 3 2 2 3 1 4 5 5 6 6 7 7 9 8 8 9
REMARK H PARENT
REMARK Flexibility Score: inf
ROOT
ATOM      1  C   UNL     1      29.987  57.571 -13.331  1.00  0.00     0.000 C 
ENDROOT
BRANCH   1   2
ATOM      2  C   UNL     1      31.171  56.752 -13.865  1.00  0.00    -0.000 C 
BRANCH   2   3
ATOM      3  C   UNL     1      32.335  57.635 -14.340  1.00  0.00    -0.003 C 
ATOM      4  C   UNL     1      33.667  57.130 -13.792  1.00  0.00     0.004 C 
ENDBRANCH   2   3
ENDBRANCH   1   2
BRANCH   1   5
ATOM      5  C   UNL     1      30.418  58.925 -12.747  1.00  0.00     0.008 C 
BRANCH   5   6
ATOM      6  C   UNL     1      30.122  58.993 -11.241  1.00  0.00     0.075 C 
BRANCH   6   7
ATOM      7  C   UNL     1      28.738  59.501 -10.899  1.00  0.00     0.129 C 
ATOM      8  O   UNL     1      27.876  58.684 -10.609  1.00  0.00    -0.300 OA
ATOM      9  C   UNL     1      28.376  60.961 -10.900  1.00  0.00     0.087 C 
ENDBRANCH   6   7
ENDBRANCH   5   6
ENDBRANCH   1   5
TORSDOF 5
ENDMDL
MODEL 8
REMARK VINA RESULT:    -3.541      5.205      7.128
REMARK INTER + INTRA:          -4.766
REMARK INTER:                  -4.258
REMARK INTRA:                  -0.508
REMARK UNBOUND:                -0.190
REMARK SMILES CCCCCCC(C)=O
REMARK SMILES IDX 4 1 3 2 2 3 1 4 5 5 6 6 7 7 9 8 8 9
REMARK H PARENT
REMARK Flexibility Score: inf
ROOT
ATOM      1  C   UNL     1      31.527  56.736 -14.222  1.00  0.00     0.000 C 
ENDROOT
BRANCH   1   2
ATOM      2  C   UNL     1      32.605  57.814 -14.409  1.00  0.00    -0.000 C 
BRANCH   2   3
ATOM      3  C   UNL     1      33.989  57.357 -13.927  1.00  0.00    -0.003 C 
ATOM      4  C   UNL     1      33.893  56.631 -12.588  1.00  0.00     0.004 C 
ENDBRANCH   2   3
ENDBRANCH   1   2
BRANCH   1   5
ATOM      5  C   UNL     1      30.302  57.248 -13.450  1.00  0.00     0.008 C 
BRANCH   5   6
ATOM      6  C   UNL     1      30.456  58.737 -13.103  1.00  0.00     0.075 C 
BRANCH   6   7
ATOM      7  C   UNL     1      30.417  59.040 -11.621  1.00  0.00     0.129 C 
ATOM      8  O   UNL     1      29.334  59.274 -11.105  1.00  0.00    -0.300 OA
ATOM      9  C   UNL     1      31.648  59.067 -10.757  1.00  0.00     0.087 C 
ENDBRANCH   6   7
ENDBRANCH   5   6
ENDBRANCH   1   5
TORSDOF 5
ENDMDL
MODEL 9
REMARK VINA RESULT:    -3.527     18.164     19.612
REMARK INTER + INTRA:          -4.748
REMARK INTER:                  -4.338
REMARK INTRA:                  -0.410
REMARK UNBOUND:                -0.190
REMARK SMILES CCCCCCC(C)=O
REMARK SMILES IDX 4 1 3 2 2 3 1 4 5 5 6 6 7 7 9 8 8 9
REMARK H PARENT
REMARK Flexibility Score: inf
ROOT
ATOM      1  C   UNL     1      17.208  43.447  -0.498  1.00  0.00     0.000 C 
ENDROOT
BRANCH   1   2
ATOM      2  C   UNL     1      16.070  43.228   0.510  1.00  0.00    -0.000 C 
BRANCH   2   3
ATOM      3  C   UNL     1      16.089  44.249   1.656  1.00  0.00    -0.003 C 
ATOM      4  C   UNL     1      14.744  44.959   1.782  1.00  0.00     0.004 C 
ENDBRANCH   2   3
ENDBRANCH   1   2
BRANCH   1   5
ATOM      5  C   UNL     1      17.827  44.850  -0.397  1.00  0.00     0.008 C 
BRANCH   5   6
ATOM      6  C   UNL     1      19.360  44.770  -0.344  1.00  0.00     0.075 C 
BRANCH   6   7
ATOM      7  C   UNL     1      19.901  43.828   0.708  1.00  0.00     0.129 C 
ATOM      8  O   UNL     1      19.669  44.076   1.883  1.00  0.00    -0.300 OA
ATOM      9  C   UNL     1      20.709  42.604   0.376  1.00  0.00     0.087 C 
ENDBRANCH   6   7
ENDBRANCH   5   6
ENDBRANCH   1   5
TORSDOF 5
ENDMDL
