MODEL 1
REMARK VINA RESULT:    -5.267      0.000      0.000
REMARK INTER + INTRA:          -9.072
REMARK INTER:                  -8.038
REMARK INTRA:                  -1.034
REMARK UNBOUND:                -1.034
REMARK SMILES OC[C@@H]1O[C@](CO)(O[C@H]2O[C@H](CO)[C@@H](O)[C@@H](O)[C@@H]2O)[C@H](O)[C@@H]1O
REMARK SMILES IDX 8 1 9 2 11 3 14 4 10 5 16 6 18 7 12 8 13 9 15 11 17 13 19 15
REMARK SMILES IDX 5 17 20 18 4 19 22 20 3 21 6 22 7 23 21 25 23 27 2 29 1 30
REMARK H PARENT 13 10 15 12 17 14 19 16 7 24 21 26 23 28 1 31
REMARK Flexibility Score: inf
ROOT
ATOM      1  O   UNL     1      24.576   9.687  -1.151  1.00  0.00    -0.313 OA
ENDROOT
BRANCH   1   2
ATOM      2  C   UNL     1      23.952   9.155   0.013  1.00  0.00     0.285 C 
ATOM      3  C   UNL     1      23.008   7.377  -1.201  1.00  0.00     0.178 C 
ATOM      4  C   UNL     1      23.866   6.293  -0.504  1.00  0.00     0.177 C 
ATOM      5  O   UNL     1      22.760   8.463  -0.324  1.00  0.00    -0.341 OA
ATOM      6  C   UNL     1      25.179   6.894   0.041  1.00  0.00     0.179 C 
ATOM      7  C   UNL     1      24.941   8.237   0.770  1.00  0.00     0.202 C 
BRANCH   3   8
ATOM      8  C   UNL     1      21.656   6.816  -1.662  1.00  0.00     0.191 C 
BRANCH   8   9
ATOM      9  O   UNL     1      20.876   6.446  -0.559  1.00  0.00    -0.394 OA
ATOM     10  H   UNL     1      21.250   5.588  -0.231  1.00  0.00     0.210 HD
ENDBRANCH   8   9
ENDBRANCH   3   8
BRANCH   4  11
ATOM     11  O   UNL     1      24.169   5.253  -1.401  1.00  0.00    -0.387 OA
ATOM     12  H   UNL     1      24.799   5.619  -2.076  1.00  0.00     0.211 HD
ENDBRANCH   4  11
BRANCH   6  13
ATOM     13  O   UNL     1      26.157   7.028  -0.964  1.00  0.00    -0.387 OA
ATOM     14  H   UNL     1      26.759   6.245  -0.925  1.00  0.00     0.211 HD
ENDBRANCH   6  13
BRANCH   7  15
ATOM     15  O   UNL     1      24.496   8.011   2.086  1.00  0.00    -0.385 OA
ATOM     16  H   UNL     1      23.621   8.467   2.195  1.00  0.00     0.211 HD
ENDBRANCH   7  15
ENDBRANCH   1   2
BRANCH   1  17
ATOM     17  C   UNL     1      24.602  11.113  -1.204  1.00  0.00     0.224 C 
ATOM     18  C   UNL     1      25.501  11.558  -2.392  1.00  0.00     0.208 C 
ATOM     19  O   UNL     1      25.159  11.635  -0.006  1.00  0.00    -0.337 OA
ATOM     20  C   UNL     1      26.491  12.501  -1.753  1.00  0.00     0.180 C 
ATOM     21  C   UNL     1      26.458  12.097  -0.285  1.00  0.00     0.179 C 
BRANCH  17  22
ATOM     22  C   UNL     1      23.176  11.691  -1.383  1.00  0.00     0.225 C 
BRANCH  22  23
ATOM     23  O   UNL     1      22.814  12.482  -0.281  1.00  0.00    -0.391 OA
ATOM     24  H   UNL     1      23.515  12.359   0.410  1.00  0.00     0.210 HD
ENDBRANCH  22  23
ENDBRANCH  17  22
BRANCH  18  25
ATOM     25  O   UNL     1      26.169  10.463  -2.973  1.00  0.00    -0.385 OA
ATOM     26  H   UNL     1      26.703  10.042  -2.249  1.00  0.00     0.211 HD
ENDBRANCH  18  25
BRANCH  20  27
ATOM     27  O   UNL     1      27.769  12.401  -2.328  1.00  0.00    -0.387 OA
ATOM     28  H   UNL     1      28.408  12.307  -1.573  1.00  0.00     0.211 HD
ENDBRANCH  20  27
BRANCH  21  29
ATOM     29  C   UNL     1      27.487  11.011   0.091  1.00  0.00     0.191 C 
BRANCH  29  30
ATOM     30  O   UNL     1      28.736  11.590   0.353  1.00  0.00    -0.394 OA
ATOM     31  H   UNL     1      28.885  11.511   1.333  1.00  0.00     0.210 HD
ENDBRANCH  29  30
ENDBRANCH  21  29
ENDBRANCH   1  17
TORSDOF 13
ENDMDL
MODEL 2
REMARK VINA RESULT:    -5.173     10.864     13.125
REMARK INTER + INTRA:          -8.929
REMARK INTER:                  -7.842
REMARK INTRA:                  -1.086
REMARK UNBOUND:                -1.034
REMARK SMILES OC[C@@H]1O[C@](CO)(O[C@H]2O[C@H](CO)[C@@H](O)[C@@H](O)[C@@H]2O)[C@H](O)[C@@H]1O
REMARK SMILES IDX 8 1 9 2 11 3 14 4 10 5 16 6 18 7 12 8 13 9 15 11 17 13 19 15
REMARK SMILES IDX 5 17 20 18 4 19 22 20 3 21 6 22 7 23 21 25 23 27 2 29 1 30
REMARK H PARENT 13 10 15 12 17 14 19 16 7 24 21 26 23 28 1 31
REMARK Flexibility Score: inf
ROOT
ATOM      1  O   UNL     1      33.650  16.898  -2.777  1.00  0.00    -0.313 OA
ENDROOT
BRANCH   1   2
ATOM      2  C   UNL     1      33.150  18.231  -2.763  1.00  0.00     0.285 C 
ATOM      3  C   UNL     1      32.797  18.167  -0.440  1.00  0.00     0.178 C 
ATOM      4  C   UNL     1      33.893  19.216  -0.128  1.00  0.00     0.177 C 
ATOM      5  O   UNL     1      32.215  18.410  -1.710  1.00  0.00    -0.341 OA
ATOM      6  C   UNL     1      34.959  19.248  -1.243  1.00  0.00     0.179 C 
ATOM      7  C   UNL     1      34.322  19.235  -2.652  1.00  0.00     0.202 C 
BRANCH   3   8
ATOM      8  C   UNL     1      31.678  18.191   0.611  1.00  0.00     0.191 C 
BRANCH   8   9
ATOM      9  O   UNL     1      32.182  17.847   1.872  1.00  0.00    -0.394 OA
ATOM     10  H   UNL     1      31.587  18.285   2.535  1.00  0.00     0.210 HD
ENDBRANCH   8   9
ENDBRANCH   3   8
BRANCH   4  11
ATOM     11  O   UNL     1      34.515  18.927   1.100  1.00  0.00    -0.387 OA
ATOM     12  H   UNL     1      34.975  19.755   1.400  1.00  0.00     0.211 HD
ENDBRANCH   4  11
BRANCH   6  13
ATOM     13  O   UNL     1      35.903  18.212  -1.104  1.00  0.00    -0.387 OA
ATOM     14  H   UNL     1      35.436  17.346  -1.202  1.00  0.00     0.211 HD
ENDBRANCH   6  13
BRANCH   7  15
ATOM     15  O   UNL     1      33.900  20.528  -3.015  1.00  0.00    -0.385 OA
ATOM     16  H   UNL     1      33.307  20.869  -2.295  1.00  0.00     0.211 HD
ENDBRANCH   7  15
ENDBRANCH   1   2
BRANCH   1  17
ATOM     17  C   UNL     1      33.743  16.319  -4.077  1.00  0.00     0.224 C 
ATOM     18  C   UNL     1      34.131  14.820  -3.935  1.00  0.00     0.208 C 
ATOM     19  O   UNL     1      34.756  16.971  -4.830  1.00  0.00    -0.337 OA
ATOM     20  C   UNL     1      35.350  14.686  -4.816  1.00  0.00     0.180 C 
ATOM     21  C   UNL     1      35.869  16.114  -4.912  1.00  0.00     0.179 C 
BRANCH  17  22
ATOM     22  C   UNL     1      32.400  16.440  -4.840  1.00  0.00     0.225 C 
BRANCH  22  23
ATOM     23  O   UNL     1      31.601  15.306  -4.631  1.00  0.00    -0.391 OA
ATOM     24  H   UNL     1      30.965  15.251  -5.390  1.00  0.00     0.210 HD
ENDBRANCH  22  23
ENDBRANCH  17  22
BRANCH  18  25
ATOM     25  O   UNL     1      34.448  14.492  -2.603  1.00  0.00    -0.385 OA
ATOM     26  H   UNL     1      34.185  13.543  -2.476  1.00  0.00     0.211 HD
ENDBRANCH  18  25
BRANCH  20  27
ATOM     27  O   UNL     1      36.292  13.787  -4.287  1.00  0.00    -0.387 OA
ATOM     28  H   UNL     1      35.774  13.094  -3.799  1.00  0.00     0.211 HD
ENDBRANCH  20  27
BRANCH  21  29
ATOM     29  C   UNL     1      36.892  16.485  -3.819  1.00  0.00     0.191 C 
BRANCH  29  30
ATOM     30  O   UNL     1      37.230  17.843  -3.907  1.00  0.00    -0.394 OA
ATOM     31  H   UNL     1      37.658  17.972  -4.794  1.00  0.00     0.210 HD
ENDBRANCH  29  30
ENDBRANCH  21  29
ENDBRANCH   1  17
TORSDOF 13
ENDMDL
MODEL 3
REMARK VINA RESULT:    -5.126     10.851     13.581
REMARK INTER + INTRA:          -8.857
REMARK INTER:                  -7.429
REMARK INTRA:                  -1.428
REMARK UNBOUND:                -1.034
REMARK SMILES OC[C@@H]1O[C@](CO)(O[C@H]2O[C@H](CO)[C@@H](O)[C@@H](O)[C@@H]2O)[C@H](O)[C@@H]1O
REMARK SMILES IDX 8 1 9 2 11 3 14 4 10 5 16 6 18 7 12 8 13 9 15 11 17 13 19 15
REMARK SMILES IDX 5 17 20 18 4 19 22 20 3 21 6 22 7 23 21 25 23 27 2 29 1 30
REMARK H PARENT 13 10 15 12 17 14 19 16 7 24 21 26 23 28 1 31
REMARK Flexibility Score: inf
ROOT
ATOM      1  O   UNL     1      34.942  17.226  -3.456  1.00  0.00    -0.313 OA
ENDROOT
BRANCH   1   2
ATOM      2  C   UNL     1      34.337  18.514  -3.417  1.00  0.00     0.285 C 
ATOM      3  C   UNL     1      32.488  17.705  -2.212  1.00  0.00     0.178 C 
ATOM      4  C   UNL     1      32.836  18.492  -0.924  1.00  0.00     0.177 C 
ATOM      5  O   UNL     1      32.923  18.408  -3.364  1.00  0.00    -0.341 OA
ATOM      6  C   UNL     1      34.346  18.806  -0.861  1.00  0.00     0.179 C 
ATOM      7  C   UNL     1      34.887  19.320  -2.216  1.00  0.00     0.202 C 
BRANCH   3   8
ATOM      8  C   UNL     1      30.977  17.469  -2.338  1.00  0.00     0.191 C 
BRANCH   8   9
ATOM      9  O   UNL     1      30.268  18.415  -1.585  1.00  0.00    -0.394 OA
ATOM     10  H   UNL     1      29.389  18.002  -1.380  1.00  0.00     0.210 HD
ENDBRANCH   8   9
ENDBRANCH   3   8
BRANCH   4  11
ATOM     11  O   UNL     1      32.468  17.756   0.217  1.00  0.00    -0.387 OA
ATOM     12  H   UNL     1      31.582  18.094   0.513  1.00  0.00     0.211 HD
ENDBRANCH   4  11
BRANCH   6  13
ATOM     13  O   UNL     1      35.097  17.708  -0.399  1.00  0.00    -0.387 OA
ATOM     14  H   UNL     1      36.025  18.008  -0.235  1.00  0.00     0.211 HD
ENDBRANCH   6  13
BRANCH   7  15
ATOM     15  O   UNL     1      34.606  20.690  -2.371  1.00  0.00    -0.385 OA
ATOM     16  H   UNL     1      33.947  20.948  -1.674  1.00  0.00     0.211 HD
ENDBRANCH   7  15
ENDBRANCH   1   2
BRANCH   1  17
ATOM     17  C   UNL     1      35.771  17.000  -4.596  1.00  0.00     0.224 C 
ATOM     18  C   UNL     1      35.712  15.494  -4.973  1.00  0.00     0.208 C 
ATOM     19  O   UNL     1      37.119  17.329  -4.290  1.00  0.00    -0.337 OA
ATOM     20  C   UNL     1      37.164  15.081  -5.007  1.00  0.00     0.180 C 
ATOM     21  C   UNL     1      37.846  16.133  -4.144  1.00  0.00     0.179 C 
BRANCH  17  22
ATOM     22  C   UNL     1      35.311  17.859  -5.800  1.00  0.00     0.225 C 
BRANCH  22  23
ATOM     23  O   UNL     1      34.430  17.137  -6.621  1.00  0.00    -0.391 OA
ATOM     24  H   UNL     1      34.559  17.465  -7.549  1.00  0.00     0.210 HD
ENDBRANCH  22  23
ENDBRANCH  17  22
BRANCH  18  25
ATOM     25  O   UNL     1      35.011  14.746  -4.007  1.00  0.00    -0.385 OA
ATOM     26  H   UNL     1      35.030  13.801  -4.313  1.00  0.00     0.211 HD
ENDBRANCH  18  25
BRANCH  20  27
ATOM     27  O   UNL     1      37.355  13.769  -4.538  1.00  0.00    -0.387 OA
ATOM     28  H   UNL     1      37.898  13.845  -3.711  1.00  0.00     0.211 HD
ENDBRANCH  20  27
BRANCH  21  29
ATOM     29  C   UNL     1      37.936  15.759  -2.651  1.00  0.00     0.191 C 
BRANCH  29  30
ATOM     30  O   UNL     1      37.601  16.860  -1.850  1.00  0.00    -0.394 OA
ATOM     31  H   UNL     1      37.164  17.523  -2.447  1.00  0.00     0.210 HD
ENDBRANCH  29  30
ENDBRANCH  21  29
ENDBRANCH   1  17
TORSDOF 13
ENDMDL
MODEL 4
REMARK VINA RESULT:    -4.915     10.644     13.594
REMARK INTER + INTRA:          -8.534
REMARK INTER:                  -7.182
REMARK INTRA:                  -1.352
REMARK UNBOUND:                -1.034
REMARK SMILES OC[C@@H]1O[C@](CO)(O[C@H]2O[C@H](CO)[C@@H](O)[C@@H](O)[C@@H]2O)[C@H](O)[C@@H]1O
REMARK SMILES IDX 8 1 9 2 11 3 14 4 10 5 16 6 18 7 12 8 13 9 15 11 17 13 19 15
REMARK SMILES IDX 5 17 20 18 4 19 22 20 3 21 6 22 7 23 21 25 23 27 2 29 1 30
REMARK H PARENT 13 10 15 12 17 14 19 16 7 24 21 26 23 28 1 31
REMARK Flexibility Score: inf
ROOT
ATOM      1  O   UNL     1      34.609  18.184  -3.197  1.00  0.00    -0.313 OA
ENDROOT
BRANCH   1   2
ATOM      2  C   UNL     1      34.144  16.937  -2.693  1.00  0.00     0.285 C 
ATOM      3  C   UNL     1      32.531  17.986  -1.342  1.00  0.00     0.178 C 
ATOM      4  C   UNL     1      31.329  17.428  -2.142  1.00  0.00     0.177 C 
ATOM      5  O   UNL     1      33.625  17.083  -1.381  1.00  0.00    -0.341 OA
ATOM      6  C   UNL     1      31.738  17.094  -3.592  1.00  0.00     0.179 C 
ATOM      7  C   UNL     1      33.087  16.340  -3.653  1.00  0.00     0.202 C 
BRANCH   3   8
ATOM      8  C   UNL     1      32.166  18.231   0.128  1.00  0.00     0.191 C 
BRANCH   8   9
ATOM      9  O   UNL     1      30.891  17.723   0.409  1.00  0.00    -0.394 OA
ATOM     10  H   UNL     1      30.718  17.021  -0.271  1.00  0.00     0.210 HD
ENDBRANCH   8   9
ENDBRANCH   3   8
BRANCH   4  11
ATOM     11  O   UNL     1      30.275  18.359  -2.160  1.00  0.00    -0.387 OA
ATOM     12  H   UNL     1      30.669  19.254  -1.988  1.00  0.00     0.211 HD
ENDBRANCH   4  11
BRANCH   6  13
ATOM     13  O   UNL     1      31.760  18.239  -4.413  1.00  0.00    -0.387 OA
ATOM     14  H   UNL     1      32.282  18.032  -5.228  1.00  0.00     0.211 HD
ENDBRANCH   6  13
BRANCH   7  15
ATOM     15  O   UNL     1      32.898  14.970  -3.390  1.00  0.00    -0.385 OA
ATOM     16  H   UNL     1      33.162  14.464  -4.202  1.00  0.00     0.211 HD
ENDBRANCH   7  15
ENDBRANCH   1   2
BRANCH   1  17
ATOM     17  C   UNL     1      35.993  18.196  -3.549  1.00  0.00     0.224 C 
ATOM     18  C   UNL     1      36.503  19.665  -3.539  1.00  0.00     0.208 C 
ATOM     19  O   UNL     1      36.167  17.675  -4.859  1.00  0.00    -0.337 OA
ATOM     20  C   UNL     1      37.120  19.834  -4.906  1.00  0.00     0.180 C 
ATOM     21  C   UNL     1      36.447  18.744  -5.729  1.00  0.00     0.179 C 
BRANCH  17  22
ATOM     22  C   UNL     1      36.828  17.346  -2.559  1.00  0.00     0.225 C 
BRANCH  22  23
ATOM     23  O   UNL     1      37.293  18.132  -1.493  1.00  0.00    -0.391 OA
ATOM     24  H   UNL     1      36.615  18.837  -1.331  1.00  0.00     0.210 HD
ENDBRANCH  22  23
ENDBRANCH  17  22
BRANCH  18  25
ATOM     25  O   UNL     1      35.446  20.578  -3.360  1.00  0.00    -0.385 OA
ATOM     26  H   UNL     1      35.175  20.513  -2.407  1.00  0.00     0.211 HD
ENDBRANCH  18  25
BRANCH  20  27
ATOM     27  O   UNL     1      36.919  21.125  -5.424  1.00  0.00    -0.387 OA
ATOM     28  H   UNL     1      36.249  21.561  -4.835  1.00  0.00     0.211 HD
ENDBRANCH  20  27
BRANCH  21  29
ATOM     29  C   UNL     1      35.149  19.196  -6.430  1.00  0.00     0.191 C 
BRANCH  29  30
ATOM     30  O   UNL     1      34.117  18.280  -6.187  1.00  0.00    -0.394 OA
ATOM     31  H   UNL     1      34.488  17.590  -5.575  1.00  0.00     0.210 HD
ENDBRANCH  29  30
ENDBRANCH  21  29
ENDBRANCH   1  17
TORSDOF 13
ENDMDL
MODEL 5
REMARK VINA RESULT:    -4.824     10.902     14.108
REMARK INTER + INTRA:          -8.395
REMARK INTER:                  -7.413
REMARK INTRA:                  -0.983
REMARK UNBOUND:                -1.034
REMARK SMILES OC[C@@H]1O[C@](CO)(O[C@H]2O[C@H](CO)[C@@H](O)[C@@H](O)[C@@H]2O)[C@H](O)[C@@H]1O
REMARK SMILES IDX 8 1 9 2 11 3 14 4 10 5 16 6 18 7 12 8 13 9 15 11 17 13 19 15
REMARK SMILES IDX 5 17 20 18 4 19 22 20 3 21 6 22 7 23 21 25 23 27 2 29 1 30
REMARK H PARENT 13 10 15 12 17 14 19 16 7 24 21 26 23 28 1 31
REMARK Flexibility Score: inf
ROOT
ATOM      1  O   UNL     1      35.145  17.533  -3.436  1.00  0.00    -0.313 OA
ENDROOT
BRANCH   1   2
ATOM      2  C   UNL     1      34.429  18.763  -3.409  1.00  0.00     0.285 C 
ATOM      3  C   UNL     1      32.653  17.803  -2.203  1.00  0.00     0.178 C 
ATOM      4  C   UNL     1      32.925  18.628  -0.922  1.00  0.00     0.177 C 
ATOM      5  O   UNL     1      33.029  18.532  -3.361  1.00  0.00    -0.341 OA
ATOM      6  C   UNL     1      34.401  19.075  -0.856  1.00  0.00     0.179 C 
ATOM      7  C   UNL     1      34.900  19.624  -2.214  1.00  0.00     0.202 C 
BRANCH   3   8
ATOM      8  C   UNL     1      31.169  17.434  -2.332  1.00  0.00     0.191 C 
BRANCH   8   9
ATOM      9  O   UNL     1      30.372  18.356  -1.641  1.00  0.00    -0.394 OA
ATOM     10  H   UNL     1      29.667  17.826  -1.188  1.00  0.00     0.210 HD
ENDBRANCH   8   9
ENDBRANCH   3   8
BRANCH   4  11
ATOM     11  O   UNL     1      32.619  17.873   0.224  1.00  0.00    -0.387 OA
ATOM     12  H   UNL     1      32.479  18.512   0.971  1.00  0.00     0.211 HD
ENDBRANCH   4  11
BRANCH   6  13
ATOM     13  O   UNL     1      35.245  18.051  -0.382  1.00  0.00    -0.387 OA
ATOM     14  H   UNL     1      36.063  18.036  -0.938  1.00  0.00     0.211 HD
ENDBRANCH   6  13
BRANCH   7  15
ATOM     15  O   UNL     1      34.500  20.963  -2.381  1.00  0.00    -0.385 OA
ATOM     16  H   UNL     1      35.287  21.480  -2.696  1.00  0.00     0.211 HD
ENDBRANCH   7  15
ENDBRANCH   1   2
BRANCH   1  17
ATOM     17  C   UNL     1      35.594  17.141  -4.733  1.00  0.00     0.224 C 
ATOM     18  C   UNL     1      37.068  16.659  -4.632  1.00  0.00     0.208 C 
ATOM     19  O   UNL     1      35.548  18.251  -5.619  1.00  0.00    -0.337 OA
ATOM     20  C   UNL     1      37.784  17.493  -5.667  1.00  0.00     0.180 C 
ATOM     21  C   UNL     1      36.865  18.694  -5.842  1.00  0.00     0.179 C 
BRANCH  17  22
ATOM     22  C   UNL     1      34.711  16.007  -5.310  1.00  0.00     0.225 C 
BRANCH  22  23
ATOM     23  O   UNL     1      33.357  16.377  -5.311  1.00  0.00    -0.391 OA
ATOM     24  H   UNL     1      33.308  17.309  -4.975  1.00  0.00     0.210 HD
ENDBRANCH  22  23
ENDBRANCH  17  22
BRANCH  18  25
ATOM     25  O   UNL     1      37.604  16.897  -3.352  1.00  0.00    -0.385 OA
ATOM     26  H   UNL     1      36.897  16.651  -2.700  1.00  0.00     0.211 HD
ENDBRANCH  18  25
BRANCH  20  27
ATOM     27  O   UNL     1      39.084  17.843  -5.261  1.00  0.00    -0.387 OA
ATOM     28  H   UNL     1      39.597  18.021  -6.093  1.00  0.00     0.211 HD
ENDBRANCH  20  27
BRANCH  21  29
ATOM     29  C   UNL     1      37.183  19.872  -4.899  1.00  0.00     0.191 C 
BRANCH  29  30
ATOM     30  O   UNL     1      36.317  20.946  -5.148  1.00  0.00    -0.394 OA
ATOM     31  H   UNL     1      35.711  20.658  -5.881  1.00  0.00     0.210 HD
ENDBRANCH  29  30
ENDBRANCH  21  29
ENDBRANCH   1  17
TORSDOF 13
ENDMDL
MODEL 6
REMARK VINA RESULT:    -4.818     10.538     13.393
REMARK INTER + INTRA:          -8.386
REMARK INTER:                  -7.323
REMARK INTRA:                  -1.063
REMARK UNBOUND:                -1.034
REMARK SMILES OC[C@@H]1O[C@](CO)(O[C@H]2O[C@H](CO)[C@@H](O)[C@@H](O)[C@@H]2O)[C@H](O)[C@@H]1O
REMARK SMILES IDX 8 1 9 2 11 3 14 4 10 5 16 6 18 7 12 8 13 9 15 11 17 13 19 15
REMARK SMILES IDX 5 17 20 18 4 19 22 20 3 21 6 22 7 23 21 25 23 27 2 29 1 30
REMARK H PARENT 13 10 15 12 17 14 19 16 7 24 21 26 23 28 1 31
REMARK Flexibility Score: inf
ROOT
ATOM      1  O   UNL     1      34.190  17.776  -3.333  1.00  0.00    -0.313 OA
ENDROOT
BRANCH   1   2
ATOM      2  C   UNL     1      35.600  17.874  -3.168  1.00  0.00     0.285 C 
ATOM      3  C   UNL     1      35.816  15.548  -2.900  1.00  0.00     0.178 C 
ATOM      4  C   UNL     1      36.590  15.351  -4.227  1.00  0.00     0.177 C 
ATOM      5  O   UNL     1      36.087  16.825  -2.345  1.00  0.00    -0.341 OA
ATOM      6  C   UNL     1      36.271  16.483  -5.226  1.00  0.00     0.179 C 
ATOM      7  C   UNL     1      36.296  17.874  -4.550  1.00  0.00     0.202 C 
BRANCH   3   8
ATOM      8  C   UNL     1      36.197  14.484  -1.861  1.00  0.00     0.191 C 
BRANCH   8   9
ATOM      9  O   UNL     1      37.524  14.072  -2.044  1.00  0.00    -0.394 OA
ATOM     10  H   UNL     1      37.775  13.578  -1.222  1.00  0.00     0.210 HD
ENDBRANCH   8   9
ENDBRANCH   3   8
BRANCH   4  11
ATOM     11  O   UNL     1      36.261  14.113  -4.809  1.00  0.00    -0.387 OA
ATOM     12  H   UNL     1      35.588  13.680  -4.222  1.00  0.00     0.211 HD
ENDBRANCH   4  11
BRANCH   6  13
ATOM     13  O   UNL     1      35.052  16.268  -5.898  1.00  0.00    -0.387 OA
ATOM     14  H   UNL     1      34.791  15.321  -5.782  1.00  0.00     0.211 HD
ENDBRANCH   6  13
BRANCH   7  15
ATOM     15  O   UNL     1      37.618  18.343  -4.437  1.00  0.00    -0.385 OA
ATOM     16  H   UNL     1      37.624  19.303  -4.692  1.00  0.00     0.211 HD
ENDBRANCH   7  15
ENDBRANCH   1   2
BRANCH   1  17
ATOM     17  C   UNL     1      33.451  18.822  -2.702  1.00  0.00     0.224 C 
ATOM     18  C   UNL     1      33.163  18.419  -1.229  1.00  0.00     0.208 C 
ATOM     19  O   UNL     1      32.207  19.007  -3.363  1.00  0.00    -0.337 OA
ATOM     20  C   UNL     1      31.665  18.567  -1.108  1.00  0.00     0.180 C 
ATOM     21  C   UNL     1      31.189  18.474  -2.551  1.00  0.00     0.179 C 
BRANCH  17  22
ATOM     22  C   UNL     1      34.235  20.158  -2.735  1.00  0.00     0.225 C 
BRANCH  22  23
ATOM     23  O   UNL     1      33.640  21.065  -3.626  1.00  0.00    -0.391 OA
ATOM     24  H   UNL     1      34.333  21.323  -4.288  1.00  0.00     0.210 HD
ENDBRANCH  22  23
ENDBRANCH  17  22
BRANCH  18  25
ATOM     25  O   UNL     1      33.548  17.090  -0.971  1.00  0.00    -0.385 OA
ATOM     26  H   UNL     1      33.343  16.916  -0.015  1.00  0.00     0.211 HD
ENDBRANCH  18  25
BRANCH  20  27
ATOM     27  O   UNL     1      31.100  17.587  -0.273  1.00  0.00    -0.387 OA
ATOM     28  H   UNL     1      30.116  17.702  -0.335  1.00  0.00     0.211 HD
ENDBRANCH  20  27
BRANCH  21  29
ATOM     29  C   UNL     1      30.855  17.040  -3.012  1.00  0.00     0.191 C 
BRANCH  29  30
ATOM     30  O   UNL     1      31.261  16.846  -4.339  1.00  0.00    -0.394 OA
ATOM     31  H   UNL     1      32.246  16.977  -4.357  1.00  0.00     0.210 HD
ENDBRANCH  29  30
ENDBRANCH  21  29
ENDBRANCH   1  17
TORSDOF 13
ENDMDL
MODEL 7
REMARK VINA RESULT:    -4.690     10.664     13.410
REMARK INTER + INTRA:          -8.191
REMARK INTER:                  -6.733
REMARK INTRA:                  -1.458
REMARK UNBOUND:                -1.034
REMARK SMILES OC[C@@H]1O[C@](CO)(O[C@H]2O[C@H](CO)[C@@H](O)[C@@H](O)[C@@H]2O)[C@H](O)[C@@H]1O
REMARK SMILES IDX 8 1 9 2 11 3 14 4 10 5 16 6 18 7 12 8 13 9 15 11 17 13 19 15
REMARK SMILES IDX 5 17 20 18 4 19 22 20 3 21 6 22 7 23 21 25 23 27 2 29 1 30
REMARK H PARENT 13 10 15 12 17 14 19 16 7 24 21 26 23 28 1 31
REMARK Flexibility Score: inf
ROOT
ATOM      1  O   UNL     1      34.748  16.584  -3.597  1.00  0.00    -0.313 OA
ENDROOT
BRANCH   1   2
ATOM      2  C   UNL     1      35.078  15.232  -3.299  1.00  0.00     0.285 C 
ATOM      3  C   UNL     1      36.895  15.256  -4.790  1.00  0.00     0.178 C 
ATOM      4  C   UNL     1      37.962  15.131  -3.674  1.00  0.00     0.177 C 
ATOM      5  O   UNL     1      35.694  14.604  -4.413  1.00  0.00    -0.341 OA
ATOM      6  C   UNL     1      37.421  15.669  -2.332  1.00  0.00     0.179 C 
ATOM      7  C   UNL     1      35.984  15.172  -2.047  1.00  0.00     0.202 C 
BRANCH   3   8
ATOM      8  C   UNL     1      37.382  14.637  -6.107  1.00  0.00     0.191 C 
BRANCH   8   9
ATOM      9  O   UNL     1      38.349  13.653  -5.860  1.00  0.00    -0.394 OA
ATOM     10  H   UNL     1      37.956  12.797  -6.170  1.00  0.00     0.210 HD
ENDBRANCH   8   9
ENDBRANCH   3   8
BRANCH   4  11
ATOM     11  O   UNL     1      39.125  15.841  -4.023  1.00  0.00    -0.387 OA
ATOM     12  H   UNL     1      39.117  15.955  -5.009  1.00  0.00     0.211 HD
ENDBRANCH   4  11
BRANCH   6  13
ATOM     13  O   UNL     1      37.497  17.073  -2.254  1.00  0.00    -0.387 OA
ATOM     14  H   UNL     1      38.398  17.322  -1.930  1.00  0.00     0.211 HD
ENDBRANCH   6  13
BRANCH   7  15
ATOM     15  O   UNL     1      36.009  13.868  -1.517  1.00  0.00    -0.385 OA
ATOM     16  H   UNL     1      36.960  13.607  -1.395  1.00  0.00     0.211 HD
ENDBRANCH   7  15
ENDBRANCH   1   2
BRANCH   1  17
ATOM     17  C   UNL     1      33.383  16.924  -3.352  1.00  0.00     0.224 C 
ATOM     18  C   UNL     1      32.939  18.002  -4.380  1.00  0.00     0.208 C 
ATOM     19  O   UNL     1      33.244  17.470  -2.048  1.00  0.00    -0.337 OA
ATOM     20  C   UNL     1      32.391  19.111  -3.515  1.00  0.00     0.180 C 
ATOM     21  C   UNL     1      33.051  18.858  -2.166  1.00  0.00     0.179 C 
BRANCH  17  22
ATOM     22  C   UNL     1      32.468  15.680  -3.471  1.00  0.00     0.225 C 
BRANCH  22  23
ATOM     23  O   UNL     1      31.661  15.760  -4.617  1.00  0.00    -0.391 OA
ATOM     24  H   UNL     1      32.016  16.501  -5.174  1.00  0.00     0.210 HD
ENDBRANCH  22  23
ENDBRANCH  17  22
BRANCH  18  25
ATOM     25  O   UNL     1      34.026  18.467  -5.145  1.00  0.00    -0.385 OA
ATOM     26  H   UNL     1      34.819  18.451  -4.547  1.00  0.00     0.211 HD
ENDBRANCH  18  25
BRANCH  20  27
ATOM     27  O   UNL     1      32.672  20.384  -4.040  1.00  0.00    -0.387 OA
ATOM     28  H   UNL     1      32.224  21.038  -3.442  1.00  0.00     0.211 HD
ENDBRANCH  20  27
BRANCH  21  29
ATOM     29  C   UNL     1      34.397  19.588  -1.978  1.00  0.00     0.191 C 
BRANCH  29  30
ATOM     30  O   UNL     1      35.337  18.734  -1.385  1.00  0.00    -0.394 OA
ATOM     31  H   UNL     1      35.275  17.866  -1.864  1.00  0.00     0.210 HD
ENDBRANCH  29  30
ENDBRANCH  21  29
ENDBRANCH   1  17
TORSDOF 13
ENDMDL
MODEL 8
REMARK VINA RESULT:    -4.401      8.551     11.615
REMARK INTER + INTRA:          -7.749
REMARK INTER:                  -6.549
REMARK INTRA:                  -1.200
REMARK UNBOUND:                -1.034
REMARK SMILES OC[C@@H]1O[C@](CO)(O[C@H]2O[C@H](CO)[C@@H](O)[C@@H](O)[C@@H]2O)[C@H](O)[C@@H]1O
REMARK SMILES IDX 8 1 9 2 11 3 14 4 10 5 16 6 18 7 12 8 13 9 15 11 17 13 19 15
REMARK SMILES IDX 5 17 20 18 4 19 22 20 3 21 6 22 7 23 21 25 23 27 2 29 1 30
REMARK H PARENT 13 10 15 12 17 14 19 16 7 24 21 26 23 28 1 31
REMARK Flexibility Score: inf
ROOT
ATOM      1  O   UNL     1      22.947  19.183   3.549  1.00  0.00    -0.313 OA
ENDROOT
BRANCH   1   2
ATOM      2  C   UNL     1      23.808  18.263   2.885  1.00  0.00     0.285 C 
ATOM      3  C   UNL     1      25.575  18.713   4.370  1.00  0.00     0.178 C 
ATOM      4  C   UNL     1      25.551  17.302   5.008  1.00  0.00     0.177 C 
ATOM      5  O   UNL     1      25.165  18.659   3.013  1.00  0.00    -0.341 OA
ATOM      6  C   UNL     1      24.158  16.653   4.861  1.00  0.00     0.179 C 
ATOM      7  C   UNL     1      23.583  16.836   3.437  1.00  0.00     0.202 C 
BRANCH   3   8
ATOM      8  C   UNL     1      26.978  19.332   4.421  1.00  0.00     0.191 C 
BRANCH   8   9
ATOM      9  O   UNL     1      27.354  19.587   5.747  1.00  0.00    -0.394 OA
ATOM     10  H   UNL     1      28.298  19.290   5.828  1.00  0.00     0.210 HD
ENDBRANCH   8   9
ENDBRANCH   3   8
BRANCH   4  11
ATOM     11  O   UNL     1      25.888  17.373   6.371  1.00  0.00    -0.387 OA
ATOM     12  H   UNL     1      26.069  18.327   6.582  1.00  0.00     0.211 HD
ENDBRANCH   4  11
BRANCH   6  13
ATOM     13  O   UNL     1      23.253  17.115   5.836  1.00  0.00    -0.387 OA
ATOM     14  H   UNL     1      23.716  17.779   6.405  1.00  0.00     0.211 HD
ENDBRANCH   6  13
BRANCH   7  15
ATOM     15  O   UNL     1      24.124  15.877   2.560  1.00  0.00    -0.385 OA
ATOM     16  H   UNL     1      23.547  15.841   1.753  1.00  0.00     0.211 HD
ENDBRANCH   7  15
ENDBRANCH   1   2
BRANCH   1  17
ATOM     17  C   UNL     1      21.844  19.629   2.760  1.00  0.00     0.224 C 
ATOM     18  C   UNL     1      21.206  20.871   3.443  1.00  0.00     0.208 C 
ATOM     19  O   UNL     1      20.858  18.609   2.682  1.00  0.00    -0.337 OA
ATOM     20  C   UNL     1      19.750  20.495   3.572  1.00  0.00     0.180 C 
ATOM     21  C   UNL     1      19.776  18.974   3.505  1.00  0.00     0.179 C 
BRANCH  17  22
ATOM     22  C   UNL     1      22.296  19.996   1.325  1.00  0.00     0.225 C 
BRANCH  22  23
ATOM     23  O   UNL     1      23.130  21.125   1.336  1.00  0.00    -0.391 OA
ATOM     24  H   UNL     1      22.819  21.711   2.073  1.00  0.00     0.210 HD
ENDBRANCH  22  23
ENDBRANCH  17  22
BRANCH  18  25
ATOM     25  O   UNL     1      21.766  21.109   4.712  1.00  0.00    -0.385 OA
ATOM     26  H   UNL     1      22.531  21.728   4.572  1.00  0.00     0.211 HD
ENDBRANCH  18  25
BRANCH  20  27
ATOM     27  O   UNL     1      19.175  20.988   4.756  1.00  0.00    -0.387 OA
ATOM     28  H   UNL     1      18.305  20.521   4.860  1.00  0.00     0.211 HD
ENDBRANCH  20  27
BRANCH  21  29
ATOM     29  C   UNL     1      19.915  18.287   4.879  1.00  0.00     0.191 C 
BRANCH  29  30
ATOM     30  O   UNL     1      20.445  16.997   4.730  1.00  0.00    -0.394 OA
ATOM     31  H   UNL     1      19.684  16.403   4.497  1.00  0.00     0.210 HD
ENDBRANCH  29  30
ENDBRANCH  21  29
ENDBRANCH   1  17
TORSDOF 13
ENDMDL
