MODEL 1
REMARK VINA RESULT:    -4.090      0.000      0.000
REMARK INTER + INTRA:          -5.183
REMARK INTER:                  -5.046
REMARK INTRA:                  -0.137
REMARK UNBOUND:                -0.137
REMARK SMILES CCCCCC(=O)[O-]
REMARK SMILES IDX 4 1 5 2 6 3 7 4 8 5 3 6 2 7 1 8
REMARK H PARENT
REMARK Flexibility Score: inf
ROOT
ATOM      1  C   UNL     1     -13.564   2.234  -9.119  1.00  0.00     0.006 C 
ENDROOT
BRANCH   1   2
ATOM      2  C   UNL     1     -12.368   2.918  -9.796  1.00  0.00     0.053 C 
BRANCH   2   3
ATOM      3  C   UNL     1     -11.067   2.300  -9.385  1.00  0.00     0.041 C 
ATOM      4  O   UNL     1     -10.205   2.986  -8.776  1.00  0.00    -0.550 OA
ATOM      5  O   UNL     1     -10.822   0.957  -9.644  1.00  0.00    -0.550 OA
ENDBRANCH   2   3
ENDBRANCH   1   2
BRANCH   1   6
ATOM      6  C   UNL     1     -14.337   1.324 -10.085  1.00  0.00     0.000 C 
BRANCH   6   7
ATOM      7  C   UNL     1     -14.273  -0.138  -9.631  1.00  0.00    -0.003 C 
ATOM      8  C   UNL     1     -15.526  -0.529  -8.851  1.00  0.00     0.004 C 
ENDBRANCH   6   7
ENDBRANCH   1   6
TORSDOF 4
ENDMDL
MODEL 2
REMARK VINA RESULT:    -3.951      3.005      4.387
REMARK INTER + INTRA:          -5.012
REMARK INTER:                  -4.899
REMARK INTRA:                  -0.113
REMARK UNBOUND:                -0.137
REMARK SMILES CCCCCC(=O)[O-]
REMARK SMILES IDX 4 1 5 2 6 3 7 4 8 5 3 6 2 7 1 8
REMARK H PARENT
REMARK Flexibility Score: inf
ROOT
ATOM      1  C   UNL     1     -13.416   1.053  -9.664  1.00  0.00     0.006 C 
ENDROOT
BRANCH   1   2
ATOM      2  C   UNL     1     -14.870   0.648  -9.942  1.00  0.00     0.053 C 
BRANCH   2   3
ATOM      3  C   UNL     1     -15.502  -0.007  -8.752  1.00  0.00     0.041 C 
ATOM      4  O   UNL     1     -16.043   0.694  -7.856  1.00  0.00    -0.550 OA
ATOM      5  O   UNL     1     -15.524  -1.392  -8.650  1.00  0.00    -0.550 OA
ENDBRANCH   2   3
ENDBRANCH   1   2
BRANCH   1   6
ATOM      6  C   UNL     1     -13.260   2.571  -9.488  1.00  0.00     0.000 C 
BRANCH   6   7
ATOM      7  C   UNL     1     -11.789   2.950  -9.280  1.00  0.00    -0.003 C 
ATOM      8  C   UNL     1     -10.865   1.789  -9.640  1.00  0.00     0.004 C 
ENDBRANCH   6   7
ENDBRANCH   1   6
TORSDOF 4
ENDMDL
MODEL 3
REMARK VINA RESULT:    -3.781      1.457      1.952
REMARK INTER + INTRA:          -4.803
REMARK INTER:                  -4.759
REMARK INTRA:                  -0.044
REMARK UNBOUND:                -0.137
REMARK SMILES CCCCCC(=O)[O-]
REMARK SMILES IDX 4 1 5 2 6 3 7 4 8 5 3 6 2 7 1 8
REMARK H PARENT
REMARK Flexibility Score: inf
ROOT
ATOM      1  C   UNL     1     -14.186   1.281  -9.422  1.00  0.00     0.006 C 
ENDROOT
BRANCH   1   2
ATOM      2  C   UNL     1     -12.717   1.641  -9.684  1.00  0.00     0.053 C 
BRANCH   2   3
ATOM      3  C   UNL     1     -12.359   2.975  -9.104  1.00  0.00     0.041 C 
ATOM      4  O   UNL     1     -11.191   3.193  -8.689  1.00  0.00    -0.550 OA
ATOM      5  O   UNL     1     -13.308   3.989  -9.055  1.00  0.00    -0.550 OA
ENDBRANCH   2   3
ENDBRANCH   1   2
BRANCH   1   6
ATOM      6  C   UNL     1     -14.460  -0.219  -9.611  1.00  0.00     0.000 C 
BRANCH   6   7
ATOM      7  C   UNL     1     -15.680  -0.660  -8.795  1.00  0.00    -0.003 C 
ATOM      8  C   UNL     1     -15.835  -2.178  -8.814  1.00  0.00     0.004 C 
ENDBRANCH   6   7
ENDBRANCH   1   6
TORSDOF 4
ENDMDL
MODEL 4
REMARK VINA RESULT:    -3.657     15.635     16.255
REMARK INTER + INTRA:          -4.649
REMARK INTER:                  -4.468
REMARK INTRA:                  -0.181
REMARK UNBOUND:                -0.137
REMARK SMILES CCCCCC(=O)[O-]
REMARK SMILES IDX 4 1 5 2 6 3 7 4 8 5 3 6 2 7 1 8
REMARK H PARENT
REMARK Flexibility Score: inf
ROOT
ATOM      1  C   UNL     1     -13.017   3.062   6.828  1.00  0.00     0.006 C 
ENDROOT
BRANCH   1   2
ATOM      2  C   UNL     1     -13.069   4.335   5.972  1.00  0.00     0.053 C 
BRANCH   2   3
ATOM      3  C   UNL     1     -12.832   4.041   4.522  1.00  0.00     0.041 C 
ATOM      4  O   UNL     1     -13.657   4.429   3.654  1.00  0.00    -0.550 OA
ATOM      5  O   UNL     1     -11.682   3.367   4.128  1.00  0.00    -0.550 OA
ENDBRANCH   2   3
ENDBRANCH   1   2
BRANCH   1   6
ATOM      6  C   UNL     1     -11.773   3.020   7.730  1.00  0.00     0.000 C 
BRANCH   6   7
ATOM      7  C   UNL     1     -11.163   4.417   7.889  1.00  0.00    -0.003 C 
ATOM      8  C   UNL     1     -11.209   4.876   9.343  1.00  0.00     0.004 C 
ENDBRANCH   6   7
ENDBRANCH   1   6
TORSDOF 4
ENDMDL
MODEL 5
REMARK VINA RESULT:    -3.629     15.819     16.440
REMARK INTER + INTRA:          -4.615
REMARK INTER:                  -4.482
REMARK INTRA:                  -0.133
REMARK UNBOUND:                -0.137
REMARK SMILES CCCCCC(=O)[O-]
REMARK SMILES IDX 4 1 5 2 6 3 7 4 8 5 3 6 2 7 1 8
REMARK H PARENT
REMARK Flexibility Score: inf
ROOT
ATOM      1  C   UNL     1     -12.833   3.057   6.884  1.00  0.00     0.006 C 
ENDROOT
BRANCH   1   2
ATOM      2  C   UNL     1     -12.104   2.673   5.590  1.00  0.00     0.053 C 
BRANCH   2   3
ATOM      3  C   UNL     1     -12.077   3.804   4.609  1.00  0.00     0.041 C 
ATOM      4  O   UNL     1     -12.946   3.878   3.701  1.00  0.00    -0.550 OA
ATOM      5  O   UNL     1     -11.111   4.798   4.720  1.00  0.00    -0.550 OA
ENDBRANCH   2   3
ENDBRANCH   1   2
BRANCH   1   6
ATOM      6  C   UNL     1     -11.914   2.978   8.113  1.00  0.00     0.000 C 
BRANCH   6   7
ATOM      7  C   UNL     1     -11.192   4.310   8.344  1.00  0.00    -0.003 C 
ATOM      8  C   UNL     1     -11.443   4.836   9.755  1.00  0.00     0.004 C 
ENDBRANCH   6   7
ENDBRANCH   1   6
TORSDOF 4
ENDMDL
MODEL 6
REMARK VINA RESULT:    -3.615     15.812     16.402
REMARK INTER + INTRA:          -4.598
REMARK INTER:                  -4.469
REMARK INTRA:                  -0.129
REMARK UNBOUND:                -0.137
REMARK SMILES CCCCCC(=O)[O-]
REMARK SMILES IDX 4 1 5 2 6 3 7 4 8 5 3 6 2 7 1 8
REMARK H PARENT
REMARK Flexibility Score: inf
ROOT
ATOM      1  C   UNL     1     -12.881   3.028   6.865  1.00  0.00     0.006 C 
ENDROOT
BRANCH   1   2
ATOM      2  C   UNL     1     -12.053   2.631   5.635  1.00  0.00     0.053 C 
BRANCH   2   3
ATOM      3  C   UNL     1     -11.974   3.743   4.635  1.00  0.00     0.041 C 
ATOM      4  O   UNL     1     -10.971   4.503   4.610  1.00  0.00    -0.550 OA
ATOM      5  O   UNL     1     -12.994   3.917   3.706  1.00  0.00    -0.550 OA
ENDBRANCH   2   3
ENDBRANCH   1   2
BRANCH   1   6
ATOM      6  C   UNL     1     -12.053   2.993   8.159  1.00  0.00     0.000 C 
BRANCH   6   7
ATOM      7  C   UNL     1     -11.237   4.280   8.322  1.00  0.00    -0.003 C 
ATOM      8  C   UNL     1     -11.315   4.804   9.754  1.00  0.00     0.004 C 
ENDBRANCH   6   7
ENDBRANCH   1   6
TORSDOF 4
ENDMDL
MODEL 7
REMARK VINA RESULT:    -3.512     15.881     16.443
REMARK INTER + INTRA:          -4.471
REMARK INTER:                  -4.287
REMARK INTRA:                  -0.184
REMARK UNBOUND:                -0.137
REMARK SMILES CCCCCC(=O)[O-]
REMARK SMILES IDX 4 1 5 2 6 3 7 4 8 5 3 6 2 7 1 8
REMARK H PARENT
REMARK Flexibility Score: inf
ROOT
ATOM      1  C   UNL     1     -10.524   4.656   6.709  1.00  0.00     0.006 C 
ENDROOT
BRANCH   1   2
ATOM      2  C   UNL     1     -10.774   4.823   5.204  1.00  0.00     0.053 C 
BRANCH   2   3
ATOM      3  C   UNL     1     -12.228   4.700   4.865  1.00  0.00     0.041 C 
ATOM      4  O   UNL     1     -13.059   5.525   5.327  1.00  0.00    -0.550 OA
ATOM      5  O   UNL     1     -12.660   3.693   4.010  1.00  0.00    -0.550 OA
ENDBRANCH   2   3
ENDBRANCH   1   2
BRANCH   1   6
ATOM      6  C   UNL     1     -11.163   3.374   7.266  1.00  0.00     0.000 C 
BRANCH   6   7
ATOM      7  C   UNL     1     -11.859   3.646   8.603  1.00  0.00    -0.003 C 
ATOM      8  C   UNL     1     -11.237   4.843   9.316  1.00  0.00     0.004 C 
ENDBRANCH   6   7
ENDBRANCH   1   6
TORSDOF 4
ENDMDL
MODEL 8
REMARK VINA RESULT:    -3.450     15.138     15.907
REMARK INTER + INTRA:          -4.395
REMARK INTER:                  -4.146
REMARK INTRA:                  -0.249
REMARK UNBOUND:                -0.137
REMARK SMILES CCCCCC(=O)[O-]
REMARK SMILES IDX 4 1 5 2 6 3 7 4 8 5 3 6 2 7 1 8
REMARK H PARENT
REMARK Flexibility Score: inf
ROOT
ATOM      1  C   UNL     1     -11.534   3.558   6.911  1.00  0.00     0.006 C 
ENDROOT
BRANCH   1   2
ATOM      2  C   UNL     1     -12.913   3.782   6.276  1.00  0.00     0.053 C 
BRANCH   2   3
ATOM      3  C   UNL     1     -12.826   3.909   4.786  1.00  0.00     0.041 C 
ATOM      4  O   UNL     1     -13.725   4.517   4.148  1.00  0.00    -0.550 OA
ATOM      5  O   UNL     1     -11.732   3.386   4.106  1.00  0.00    -0.550 OA
ENDBRANCH   2   3
ENDBRANCH   1   2
BRANCH   1   6
ATOM      6  C   UNL     1     -10.868   4.876   7.333  1.00  0.00     0.000 C 
BRANCH   6   7
ATOM      7  C   UNL     1      -9.747   5.260   6.360  1.00  0.00    -0.003 C 
ATOM      8  C   UNL     1     -10.139   6.472   5.519  1.00  0.00     0.004 C 
ENDBRANCH   6   7
ENDBRANCH   1   6
TORSDOF 4
ENDMDL
MODEL 9
REMARK VINA RESULT:    -3.447     16.700     17.199
REMARK INTER + INTRA:          -4.391
REMARK INTER:                  -4.298
REMARK INTRA:                  -0.093
REMARK UNBOUND:                -0.137
REMARK SMILES CCCCCC(=O)[O-]
REMARK SMILES IDX 4 1 5 2 6 3 7 4 8 5 3 6 2 7 1 8
REMARK H PARENT
REMARK Flexibility Score: inf
ROOT
ATOM      1  C   UNL     1     -11.269   4.030   7.736  1.00  0.00     0.006 C 
ENDROOT
BRANCH   1   2
ATOM      2  C   UNL     1     -10.466   4.991   6.849  1.00  0.00     0.053 C 
BRANCH   2   3
ATOM      3  C   UNL     1     -10.895   4.917   5.416  1.00  0.00     0.041 C 
ATOM      4  O   UNL     1     -10.038   4.797   4.502  1.00  0.00    -0.550 OA
ATOM      5  O   UNL     1     -12.247   4.945   5.093  1.00  0.00    -0.550 OA
ENDBRANCH   2   3
ENDBRANCH   1   2
BRANCH   1   6
ATOM      6  C   UNL     1     -11.599   4.642   9.106  1.00  0.00     0.000 C 
BRANCH   6   7
ATOM      7  C   UNL     1     -11.944   3.551  10.125  1.00  0.00    -0.003 C 
ATOM      8  C   UNL     1     -12.337   2.251   9.428  1.00  0.00     0.004 C 
ENDBRANCH   6   7
ENDBRANCH   1   6
TORSDOF 4
ENDMDL
