MODEL 1
REMARK VINA RESULT:    -3.464      0.000      0.000
REMARK INTER + INTRA:          -5.505
REMARK INTER:                  -5.084
REMARK INTRA:                  -0.420
REMARK UNBOUND:                -0.420
REMARK SMILES O=C([O-])CCCCCCCC(=O)[O-]
REMARK SMILES IDX 7 1 6 2 5 3 4 4 2 5 1 6 3 7 8 8 9 9 10 10 11 11 12 12 13 13
REMARK H PARENT
REMARK Flexibility Score: inf
ROOT
ATOM      1  C   UNL     1      27.713  20.995  15.727  1.00  0.00     0.000 C 
ENDROOT
BRANCH   1   2
ATOM      2  C   UNL     1      29.004  20.179  15.563  1.00  0.00     0.000 C 
BRANCH   2   3
ATOM      3  C   UNL     1      29.693  20.416  14.207  1.00  0.00     0.006 C 
BRANCH   3   4
ATOM      4  C   UNL     1      29.517  21.836  13.647  1.00  0.00     0.053 C 
BRANCH   4   5
ATOM      5  C   UNL     1      28.783  21.839  12.341  1.00  0.00     0.041 C 
ATOM      6  O   UNL     1      29.307  22.362  11.322  1.00  0.00    -0.550 OA
ATOM      7  O   UNL     1      27.508  21.296  12.257  1.00  0.00    -0.550 OA
ENDBRANCH   4   5
ENDBRANCH   3   4
ENDBRANCH   2   3
ENDBRANCH   1   2
BRANCH   1   8
ATOM      8  C   UNL     1      26.995  20.631  17.032  1.00  0.00     0.000 C 
BRANCH   8   9
ATOM      9  C   UNL     1      25.532  20.243  16.766  1.00  0.00     0.006 C 
BRANCH   9  10
ATOM     10  C   UNL     1      25.287  19.875  15.298  1.00  0.00     0.053 C 
BRANCH  10  11
ATOM     11  C   UNL     1      23.868  20.125  14.891  1.00  0.00     0.041 C 
ATOM     12  O   UNL     1      23.015  20.473  15.750  1.00  0.00    -0.550 OA
ATOM     13  O   UNL     1      23.479  19.941  13.570  1.00  0.00    -0.550 OA
ENDBRANCH  10  11
ENDBRANCH   9  10
ENDBRANCH   8   9
ENDBRANCH   1   8
TORSDOF 8
ENDMDL
MODEL 2
REMARK VINA RESULT:    -2.921      2.469      3.663
REMARK INTER + INTRA:          -4.707
REMARK INTER:                  -4.352
REMARK INTRA:                  -0.355
REMARK UNBOUND:                -0.420
REMARK SMILES O=C([O-])CCCCCCCC(=O)[O-]
REMARK SMILES IDX 7 1 6 2 5 3 4 4 2 5 1 6 3 7 8 8 9 9 10 10 11 11 12 12 13 13
REMARK H PARENT
REMARK Flexibility Score: inf
ROOT
ATOM      1  C   UNL     1      29.073  22.313  13.346  1.00  0.00     0.000 C 
ENDROOT
BRANCH   1   2
ATOM      2  C   UNL     1      28.703  22.180  11.861  1.00  0.00     0.000 C 
BRANCH   2   3
ATOM      3  C   UNL     1      29.936  22.071  10.946  1.00  0.00     0.006 C 
BRANCH   3   4
ATOM      4  C   UNL     1      30.104  20.700  10.272  1.00  0.00     0.053 C 
BRANCH   4   5
ATOM      5  C   UNL     1      29.468  20.658   8.916  1.00  0.00     0.041 C 
ATOM      6  O   UNL     1      30.125  21.000   7.897  1.00  0.00    -0.550 OA
ATOM      7  O   UNL     1      28.139  20.276   8.782  1.00  0.00    -0.550 OA
ENDBRANCH   4   5
ENDBRANCH   3   4
ENDBRANCH   2   3
ENDBRANCH   1   2
BRANCH   1   8
ATOM      8  C   UNL     1      29.747  21.035  13.860  1.00  0.00     0.000 C 
BRANCH   8   9
ATOM      9  C   UNL     1      28.935  20.405  15.002  1.00  0.00     0.006 C 
BRANCH   9  10
ATOM     10  C   UNL     1      27.785  21.308  15.463  1.00  0.00     0.053 C 
BRANCH  10  11
ATOM     11  C   UNL     1      26.785  20.560  16.290  1.00  0.00     0.041 C 
ATOM     12  O   UNL     1      26.965  20.422  17.529  1.00  0.00    -0.550 OA
ATOM     13  O   UNL     1      25.673  19.985  15.688  1.00  0.00    -0.550 OA
ENDBRANCH  10  11
ENDBRANCH   9  10
ENDBRANCH   8   9
ENDBRANCH   1   8
TORSDOF 8
ENDMDL
MODEL 3
REMARK VINA RESULT:    -2.916      1.515      5.170
REMARK INTER + INTRA:          -4.700
REMARK INTER:                  -4.436
REMARK INTRA:                  -0.265
REMARK UNBOUND:                -0.420
REMARK SMILES O=C([O-])CCCCCCCC(=O)[O-]
REMARK SMILES IDX 7 1 6 2 5 3 4 4 2 5 1 6 3 7 8 8 9 9 10 10 11 11 12 12 13 13
REMARK H PARENT
REMARK Flexibility Score: inf
ROOT
ATOM      1  C   UNL     1      25.848  21.053  16.482  1.00  0.00     0.000 C 
ENDROOT
BRANCH   1   2
ATOM      2  C   UNL     1      24.882  19.875  16.289  1.00  0.00     0.000 C 
BRANCH   2   3
ATOM      3  C   UNL     1      23.609  20.266  15.516  1.00  0.00     0.006 C 
BRANCH   3   4
ATOM      4  C   UNL     1      23.629  19.882  14.029  1.00  0.00     0.053 C 
BRANCH   4   5
ATOM      5  C   UNL     1      22.277  20.006  13.397  1.00  0.00     0.041 C 
ATOM      6  O   UNL     1      21.242  20.033  14.116  1.00  0.00    -0.550 OA
ATOM      7  O   UNL     1      22.155  20.057  12.015  1.00  0.00    -0.550 OA
ENDBRANCH   4   5
ENDBRANCH   3   4
ENDBRANCH   2   3
ENDBRANCH   1   2
BRANCH   1   8
ATOM      8  C   UNL     1      27.184  20.577  17.069  1.00  0.00     0.000 C 
BRANCH   8   9
ATOM      9  C   UNL     1      28.296  20.621  16.010  1.00  0.00     0.006 C 
BRANCH   9  10
ATOM     10  C   UNL     1      27.861  19.985  14.684  1.00  0.00     0.053 C 
BRANCH  10  11
ATOM     11  C   UNL     1      27.889  20.971  13.557  1.00  0.00     0.041 C 
ATOM     12  O   UNL     1      27.004  20.934  12.662  1.00  0.00    -0.550 OA
ATOM     13  O   UNL     1      28.911  21.909  13.477  1.00  0.00    -0.550 OA
ENDBRANCH  10  11
ENDBRANCH   9  10
ENDBRANCH   8   9
ENDBRANCH   1   8
TORSDOF 8
ENDMDL
MODEL 4
REMARK VINA RESULT:    -2.730     12.048     15.291
REMARK INTER + INTRA:          -4.427
REMARK INTER:                  -3.909
REMARK INTRA:                  -0.518
REMARK UNBOUND:                -0.420
REMARK SMILES O=C([O-])CCCCCCCC(=O)[O-]
REMARK SMILES IDX 7 1 6 2 5 3 4 4 2 5 1 6 3 7 8 8 9 9 10 10 11 11 12 12 13 13
REMARK H PARENT
REMARK Flexibility Score: inf
ROOT
ATOM      1  C   UNL     1      11.521  21.132  19.476  1.00  0.00     0.000 C 
ENDROOT
BRANCH   1   2
ATOM      2  C   UNL     1      10.694  22.132  18.656  1.00  0.00     0.000 C 
BRANCH   2   3
ATOM      3  C   UNL     1      10.395  21.633  17.230  1.00  0.00     0.006 C 
BRANCH   3   4
ATOM      4  C   UNL     1      10.186  22.754  16.199  1.00  0.00     0.053 C 
BRANCH   4   5
ATOM      5  C   UNL     1      10.874  22.460  14.902  1.00  0.00     0.041 C 
ATOM      6  O   UNL     1      12.130  22.366  14.857  1.00  0.00    -0.550 OA
ATOM      7  O   UNL     1      10.133  22.325  13.735  1.00  0.00    -0.550 OA
ENDBRANCH   4   5
ENDBRANCH   3   4
ENDBRANCH   2   3
ENDBRANCH   1   2
BRANCH   1   8
ATOM      8  C   UNL     1      11.956  19.941  18.613  1.00  0.00     0.000 C 
BRANCH   8   9
ATOM      9  C   UNL     1      13.476  19.953  18.384  1.00  0.00     0.006 C 
BRANCH   9  10
ATOM     10  C   UNL     1      13.838  20.069  16.899  1.00  0.00     0.053 C 
BRANCH  10  11
ATOM     11  C   UNL     1      15.249  20.532  16.704  1.00  0.00     0.041 C 
ATOM     12  O   UNL     1      16.204  19.876  17.198  1.00  0.00    -0.550 OA
ATOM     13  O   UNL     1      15.508  21.705  16.006  1.00  0.00    -0.550 OA
ENDBRANCH  10  11
ENDBRANCH   9  10
ENDBRANCH   8   9
ENDBRANCH   1   8
TORSDOF 8
ENDMDL
MODEL 5
REMARK VINA RESULT:    -2.630     12.298     15.492
REMARK INTER + INTRA:          -4.280
REMARK INTER:                  -3.836
REMARK INTRA:                  -0.443
REMARK UNBOUND:                -0.420
REMARK SMILES O=C([O-])CCCCCCCC(=O)[O-]
REMARK SMILES IDX 7 1 6 2 5 3 4 4 2 5 1 6 3 7 8 8 9 9 10 10 11 11 12 12 13 13
REMARK H PARENT
REMARK Flexibility Score: inf
ROOT
ATOM      1  C   UNL     1      11.177  21.930  18.961  1.00  0.00     0.000 C 
ENDROOT
BRANCH   1   2
ATOM      2  C   UNL     1      11.757  21.462  17.619  1.00  0.00     0.000 C 
BRANCH   2   3
ATOM      3  C   UNL     1      12.879  20.421  17.783  1.00  0.00     0.006 C 
BRANCH   3   4
ATOM      4  C   UNL     1      13.687  20.154  16.504  1.00  0.00     0.053 C 
BRANCH   4   5
ATOM      5  C   UNL     1      15.107  20.615  16.628  1.00  0.00     0.041 C 
ATOM      6  O   UNL     1      15.489  21.657  16.030  1.00  0.00    -0.550 OA
ATOM      7  O   UNL     1      16.017  19.878  17.374  1.00  0.00    -0.550 OA
ENDBRANCH   4   5
ENDBRANCH   3   4
ENDBRANCH   2   3
ENDBRANCH   1   2
BRANCH   1   8
ATOM      8  C   UNL     1      10.021  21.024  19.405  1.00  0.00     0.000 C 
BRANCH   8   9
ATOM      9  C   UNL     1      10.257  20.486  20.824  1.00  0.00     0.006 C 
BRANCH   9  10
ATOM     10  C   UNL     1      11.694  20.725  21.304  1.00  0.00     0.053 C 
BRANCH  10  11
ATOM     11  C   UNL     1      11.730  21.395  22.643  1.00  0.00     0.041 C 
ATOM     12  O   UNL     1      11.506  20.731  23.690  1.00  0.00    -0.550 OA
ATOM     13  O   UNL     1      11.976  22.760  22.733  1.00  0.00    -0.550 OA
ENDBRANCH  10  11
ENDBRANCH   9  10
ENDBRANCH   8   9
ENDBRANCH   1   8
TORSDOF 8
ENDMDL
MODEL 6
REMARK VINA RESULT:    -2.617     15.617     16.785
REMARK INTER + INTRA:          -4.261
REMARK INTER:                  -3.817
REMARK INTRA:                  -0.443
REMARK UNBOUND:                -0.420
REMARK SMILES O=C([O-])CCCCCCCC(=O)[O-]
REMARK SMILES IDX 7 1 6 2 5 3 4 4 2 5 1 6 3 7 8 8 9 9 10 10 11 11 12 12 13 13
REMARK H PARENT
REMARK Flexibility Score: inf
ROOT
ATOM      1  C   UNL     1      10.809  22.570  19.480  1.00  0.00     0.000 C 
ENDROOT
BRANCH   1   2
ATOM      2  C   UNL     1       9.875  22.966  18.328  1.00  0.00     0.000 C 
BRANCH   2   3
ATOM      3  C   UNL     1       9.909  21.964  17.160  1.00  0.00     0.006 C 
BRANCH   3   4
ATOM      4  C   UNL     1      10.069  22.611  15.775  1.00  0.00     0.053 C 
BRANCH   4   5
ATOM      5  C   UNL     1      11.311  22.148  15.078  1.00  0.00     0.041 C 
ATOM      6  O   UNL     1      11.377  22.169  13.820  1.00  0.00    -0.550 OA
ATOM      7  O   UNL     1      12.382  21.659  15.814  1.00  0.00    -0.550 OA
ENDBRANCH   4   5
ENDBRANCH   3   4
ENDBRANCH   2   3
ENDBRANCH   1   2
BRANCH   1   8
ATOM      8  C   UNL     1      11.373  21.159  19.270  1.00  0.00     0.000 C 
BRANCH   8   9
ATOM      9  C   UNL     1      11.091  20.266  20.488  1.00  0.00     0.006 C 
BRANCH   9  10
ATOM     10  C   UNL     1      12.226  20.314  21.518  1.00  0.00     0.053 C 
BRANCH  10  11
ATOM     11  C   UNL     1      11.876  21.177  22.692  1.00  0.00     0.041 C 
ATOM     12  O   UNL     1      12.181  22.399  22.692  1.00  0.00    -0.550 OA
ATOM     13  O   UNL     1      11.245  20.625  23.799  1.00  0.00    -0.550 OA
ENDBRANCH  10  11
ENDBRANCH   9  10
ENDBRANCH   8   9
ENDBRANCH   1   8
TORSDOF 8
ENDMDL
MODEL 7
REMARK VINA RESULT:    -2.602     15.266     17.062
REMARK INTER + INTRA:          -4.239
REMARK INTER:                  -3.847
REMARK INTRA:                  -0.392
REMARK UNBOUND:                -0.420
REMARK SMILES O=C([O-])CCCCCCCC(=O)[O-]
REMARK SMILES IDX 7 1 6 2 5 3 4 4 2 5 1 6 3 7 8 8 9 9 10 10 11 11 12 12 13 13
REMARK H PARENT
REMARK Flexibility Score: inf
ROOT
ATOM      1  C   UNL     1      12.088  20.998  18.396  1.00  0.00     0.000 C 
ENDROOT
BRANCH   1   2
ATOM      2  C   UNL     1      12.539  20.030  19.500  1.00  0.00     0.000 C 
BRANCH   2   3
ATOM      3  C   UNL     1      11.578  20.006  20.702  1.00  0.00     0.006 C 
BRANCH   3   4
ATOM      4  C   UNL     1      12.195  20.511  22.016  1.00  0.00     0.053 C 
BRANCH   4   5
ATOM      5  C   UNL     1      11.406  21.634  22.613  1.00  0.00     0.041 C 
ATOM      6  O   UNL     1      10.294  21.406  23.161  1.00  0.00    -0.550 OA
ATOM      7  O   UNL     1      11.879  22.938  22.534  1.00  0.00    -0.550 OA
ENDBRANCH   4   5
ENDBRANCH   3   4
ENDBRANCH   2   3
ENDBRANCH   1   2
BRANCH   1   8
ATOM      8  C   UNL     1      10.640  21.452  18.622  1.00  0.00     0.000 C 
BRANCH   8   9
ATOM      9  C   UNL     1       9.875  21.534  17.292  1.00  0.00     0.006 C 
BRANCH   9  10
ATOM     10  C   UNL     1      10.282  22.758  16.462  1.00  0.00     0.053 C 
BRANCH  10  11
ATOM     11  C   UNL     1      10.763  22.371  15.098  1.00  0.00     0.041 C 
ATOM     12  O   UNL     1       9.943  21.986  14.223  1.00  0.00    -0.550 OA
ATOM     13  O   UNL     1      12.120  22.402  14.803  1.00  0.00    -0.550 OA
ENDBRANCH  10  11
ENDBRANCH   9  10
ENDBRANCH   8   9
ENDBRANCH   1   8
TORSDOF 8
ENDMDL
MODEL 8
REMARK VINA RESULT:    -2.434     13.676     16.832
REMARK INTER + INTRA:          -3.993
REMARK INTER:                  -3.434
REMARK INTRA:                  -0.559
REMARK UNBOUND:                -0.420
REMARK SMILES O=C([O-])CCCCCCCC(=O)[O-]
REMARK SMILES IDX 7 1 6 2 5 3 4 4 2 5 1 6 3 7 8 8 9 9 10 10 11 11 12 12 13 13
REMARK H PARENT
REMARK Flexibility Score: inf
ROOT
ATOM      1  C   UNL     1      10.921  22.361  19.564  1.00  0.00     0.000 C 
ENDROOT
BRANCH   1   2
ATOM      2  C   UNL     1       9.876  21.788  20.532  1.00  0.00     0.000 C 
BRANCH   2   3
ATOM      3  C   UNL     1      10.170  20.331  20.935  1.00  0.00     0.006 C 
BRANCH   3   4
ATOM      4  C   UNL     1      11.560  20.114  21.552  1.00  0.00     0.053 C 
BRANCH   4   5
ATOM      5  C   UNL     1      11.718  20.837  22.854  1.00  0.00     0.041 C 
ATOM      6  O   UNL     1      12.365  21.917  22.904  1.00  0.00    -0.550 OA
ATOM      7  O   UNL     1      11.182  20.302  24.018  1.00  0.00    -0.550 OA
ENDBRANCH   4   5
ENDBRANCH   3   4
ENDBRANCH   2   3
ENDBRANCH   1   2
BRANCH   1   8
ATOM      8  C   UNL     1      10.424  22.289  18.115  1.00  0.00     0.000 C 
BRANCH   8   9
ATOM      9  C   UNL     1      11.229  21.259  17.307  1.00  0.00     0.006 C 
BRANCH   9  10
ATOM     10  C   UNL     1      12.425  20.711  18.094  1.00  0.00     0.053 C 
BRANCH  10  11
ATOM     11  C   UNL     1      13.619  20.497  17.216  1.00  0.00     0.041 C 
ATOM     12  O   UNL     1      14.624  19.875  17.653  1.00  0.00    -0.550 OA
ATOM     13  O   UNL     1      13.637  21.012  15.926  1.00  0.00    -0.550 OA
ENDBRANCH  10  11
ENDBRANCH   9  10
ENDBRANCH   8   9
ENDBRANCH   1   8
TORSDOF 8
ENDMDL
