MODEL 1
REMARK VINA RESULT:    39.903      0.000      0.000
REMARK INTER + INTRA:          44.255
REMARK INTER:                  43.402
REMARK INTRA:                   0.853
REMARK UNBOUND:                 0.853
REMARK SMILES CC(=O)[C@H]1CC[C@H]2[C@H]3CC=C4C[C@H](O)CC[C@]4(C)[C@H]3CC[C@@]12C
REMARK SMILES IDX 4 1 5 2 6 3 7 4 22 5 21 6 20 7 19 8 8 9 9 10 10 11 11 12
REMARK SMILES IDX 17 13 16 14 15 15 13 16 12 17 18 18 23 19 2 20 1 21 3 22
REMARK SMILES IDX 14 23
REMARK H PARENT 14 24
REMARK Flexibility Score: inf
ROOT
ATOM      1  C   UNL     1     -31.933  25.462   5.745  1.00  0.00     0.062 C 
ATOM      2  C   UNL     1     -31.817  24.223   4.852  1.00  0.00     0.012 C 
ATOM      3  C   UNL     1     -33.141  23.503   4.995  1.00  0.00     0.005 C 
ATOM      4  C   UNL     1     -34.180  24.621   5.091  1.00  0.00    -0.001 C 
ATOM      5  C   UNL     1     -33.463  25.835   5.768  1.00  0.00    -0.020 C 
ATOM      6  C   UNL     1     -34.029  26.096   7.192  1.00  0.00     0.008 C 
ATOM      7  C   UNL     1     -35.568  26.207   7.264  1.00  0.00     0.005 C 
ATOM      8  C   UNL     1     -36.355  25.441   6.152  1.00  0.00     0.003 C 
ATOM      9  C   UNL     1     -35.564  24.197   5.691  1.00  0.00     0.000 C 
ATOM     10  C   UNL     1     -35.528  23.146   6.822  1.00  0.00     0.031 C 
ATOM     11  C   UNL     1     -36.891  22.896   7.411  1.00  0.00    -0.027 C 
ATOM     12  C   UNL     1     -37.922  23.770   7.339  1.00  0.00    -0.065 C 
ATOM     13  C   UNL     1     -37.843  25.080   6.549  1.00  0.00    -0.008 C 
ATOM     14  C   UNL     1     -38.708  24.883   5.259  1.00  0.00     0.014 C 
ATOM     15  C   UNL     1     -40.125  24.321   5.530  1.00  0.00     0.033 C 
ATOM     16  C   UNL     1     -40.110  23.053   6.407  1.00  0.00     0.118 C 
ATOM     17  C   UNL     1     -39.305  23.277   7.700  1.00  0.00     0.063 C 
ATOM     18  C   UNL     1     -38.466  26.244   7.374  1.00  0.00     0.016 C 
ATOM     19  C   UNL     1     -33.648  27.125   4.922  1.00  0.00     0.012 C 
ENDROOT
BRANCH   1  20
ATOM     20  C   UNL     1     -31.296  25.215   7.107  1.00  0.00     0.133 C 
ATOM     21  C   UNL     1     -29.993  24.482   7.226  1.00  0.00     0.088 C 
ATOM     22  O   UNL     1     -31.837  25.623   8.125  1.00  0.00    -0.300 OA
ENDBRANCH   1  20
BRANCH  16  23
ATOM     23  O   UNL     1     -39.564  21.987   5.672  1.00  0.00    -0.393 OA
ATOM     24  H   UNL     1     -38.966  21.488   6.290  1.00  0.00     0.210 HD
ENDBRANCH  16  23
TORSDOF 2
ENDMDL
