MODEL 1
REMARK VINA RESULT:    -3.758      0.000      0.000
REMARK INTER + INTRA:          -5.201
REMARK INTER:                  -5.295
REMARK INTRA:                   0.094
REMARK UNBOUND:                 0.094
REMARK SMILES CC1=CCC(=C(C)C)C(=O)CC(C)=CCC1
REMARK SMILES IDX 12 1 14 2 13 3 15 4 16 5 2 6 1 7 3 8 11 10 9 11 10 12 5 13
REMARK SMILES IDX 6 14 7 15 8 16 4 17
REMARK H PARENT
REMARK Flexibility Score: 60.00
ROOT
ATOM      1  C   UNL     1      15.200 -18.133  21.851  1.00  0.00    -0.070 C 
ATOM      2  C   UNL     1      15.748 -19.155  22.545  1.00  0.00    -0.027 C 
ATOM      3  C   UNL     1      15.454 -18.073  20.366  1.00  0.00     0.039 C 
ENDROOT
BRANCH   2   4
ATOM      4  C   UNL     1      15.531 -19.440  24.016  1.00  0.00     0.032 C 
BRANCH   4   5
ATOM      5  C   UNL     1      14.243 -20.225  24.342  1.00  0.00     0.034 C 
BRANCH   5   6
ATOM      6  C   UNL     1      13.457 -19.629  25.496  1.00  0.00    -0.077 C 
ATOM      7  C   UNL     1      14.053 -19.731  26.877  1.00  0.00     0.039 C 
ATOM      8  C   UNL     1      12.291 -18.952  25.357  1.00  0.00    -0.023 CG0
ATOM      9  G   UNL     1      11.503 -18.741  24.080  1.00  0.00     0.000 G0
ENDBRANCH   5   6
ENDBRANCH   4   5
ENDBRANCH   2   4
BRANCH   1  10
ATOM     10  C   UNL     1      14.274 -17.108  22.473  1.00  0.00     0.111 C 
BRANCH  10  11
ATOM     11  C   UNL     1      12.827 -17.470  22.268  1.00  0.00     0.163 C 
ATOM     12  O   UNL     1      12.473 -17.882  21.130  1.00  0.00    -0.294 OA
BRANCH  11  13
ATOM     13  C   UNL     1      11.824 -17.420  23.373  1.00  0.00    -0.002 C 
ATOM     14  C   UNL     1      11.182 -16.253  23.681  1.00  0.00    -0.069 C 
ATOM     15  C   UNL     1      11.574 -14.946  23.028  1.00  0.00     0.039 C 
ATOM     16  C   UNL     1      10.051 -16.203  24.685  1.00  0.00     0.039 C 
BRANCH  13  17
ATOM     17  C   UNL     1      11.485 -18.731  24.065  1.00  0.00     0.066 CG0
ATOM     18  G   UNL     1      12.274 -18.928  25.344  1.00  0.00     0.000 G0
ENDBRANCH  13  17
ENDBRANCH  11  13
ENDBRANCH  10  11
ENDBRANCH   1  10
TORSDOF 0
ENDMDL
MODEL 2
REMARK VINA RESULT:    -3.686      7.525     10.049
REMARK INTER + INTRA:          -5.100
REMARK INTER:                  -5.336
REMARK INTRA:                   0.236
REMARK UNBOUND:                 0.094
REMARK SMILES CC1=CCC(=C(C)C)C(=O)CC(C)=CCC1
REMARK SMILES IDX 12 1 14 2 13 3 15 4 16 5 2 6 1 7 3 8 11 10 9 11 10 12 5 13
REMARK SMILES IDX 6 14 7 15 8 16 4 17
REMARK H PARENT
REMARK Flexibility Score: 60.00
ROOT
ATOM      1  C   UNL     1      17.977 -22.266  23.540  1.00  0.00    -0.070 C 
ATOM      2  C   UNL     1      18.902 -21.311  23.786  1.00  0.00    -0.027 C 
ATOM      3  C   UNL     1      16.523 -21.896  23.691  1.00  0.00     0.039 C 
ENDROOT
BRANCH   2   4
ATOM      4  C   UNL     1      20.396 -21.459  23.598  1.00  0.00     0.032 C 
BRANCH   4   5
ATOM      5  C   UNL     1      21.146 -22.062  24.804  1.00  0.00     0.034 C 
BRANCH   5   6
ATOM      6  C   UNL     1      22.034 -23.235  24.429  1.00  0.00    -0.077 C 
ATOM      7  C   UNL     1      23.338 -22.933  23.735  1.00  0.00     0.039 C 
ATOM      8  C   UNL     1      21.764 -24.527  24.737  1.00  0.00    -0.023 CG0
ATOM      9  G   UNL     1      20.517 -25.066  25.409  1.00  0.00     0.000 G0
ENDBRANCH   5   6
ENDBRANCH   4   5
ENDBRANCH   2   4
BRANCH   1  10
ATOM     10  C   UNL     1      18.327 -23.650  23.033  1.00  0.00     0.111 C 
BRANCH  10  11
ATOM     11  C   UNL     1      18.320 -24.666  24.145  1.00  0.00     0.163 C 
ATOM     12  O   UNL     1      17.270 -24.786  24.833  1.00  0.00    -0.294 OA
BRANCH  11  13
ATOM     13  C   UNL     1      19.478 -25.568  24.414  1.00  0.00    -0.002 C 
ATOM     14  C   UNL     1      19.629 -26.739  23.723  1.00  0.00    -0.069 C 
ATOM     15  C   UNL     1      18.555 -27.237  22.781  1.00  0.00     0.039 C 
ATOM     16  C   UNL     1      20.869 -27.595  23.859  1.00  0.00     0.039 C 
BRANCH  13  17
ATOM     17  C   UNL     1      20.519 -25.085  25.411  1.00  0.00     0.066 CG0
ATOM     18  G   UNL     1      21.760 -24.542  24.732  1.00  0.00     0.000 G0
ENDBRANCH  13  17
ENDBRANCH  11  13
ENDBRANCH  10  11
ENDBRANCH   1  10
TORSDOF 0
ENDMDL
MODEL 3
REMARK VINA RESULT:    -3.678      4.743      6.351
REMARK INTER + INTRA:          -5.089
REMARK INTER:                  -5.264
REMARK INTRA:                   0.175
REMARK UNBOUND:                 0.094
REMARK SMILES CC1=CCC(=C(C)C)C(=O)CC(C)=CCC1
REMARK SMILES IDX 12 1 14 2 13 3 15 4 16 5 2 6 1 7 3 8 11 10 9 11 10 12 5 13
REMARK SMILES IDX 6 14 7 15 8 16 4 17
REMARK H PARENT
REMARK Flexibility Score: 60.00
ROOT
ATOM      1  C   UNL     1       7.098 -15.623  21.056  1.00  0.00    -0.070 C 
ATOM      2  C   UNL     1       7.088 -16.474  20.005  1.00  0.00    -0.027 C 
ATOM      3  C   UNL     1       6.072 -14.518  21.079  1.00  0.00     0.039 C 
ENDROOT
BRANCH   2   4
ATOM      4  C   UNL     1       7.970 -17.694  19.849  1.00  0.00     0.032 C 
BRANCH   4   5
ATOM      5  C   UNL     1       7.534 -18.919  20.679  1.00  0.00     0.034 C 
BRANCH   5   6
ATOM      6  C   UNL     1       8.683 -19.568  21.433  1.00  0.00    -0.077 C 
ATOM      7  C   UNL     1       9.798 -20.176  20.621  1.00  0.00     0.039 C 
ATOM      8  C   UNL     1       8.803 -19.575  22.783  1.00  0.00    -0.023 CG0
ATOM      9  G   UNL     1       7.805 -19.045  23.793  1.00  0.00     0.000 G0
ENDBRANCH   5   6
ENDBRANCH   4   5
ENDBRANCH   2   4
BRANCH   1  10
ATOM     10  C   UNL     1       8.023 -15.782  22.245  1.00  0.00     0.111 C 
BRANCH  10  11
ATOM     11  C   UNL     1       7.364 -16.548  23.362  1.00  0.00     0.163 C 
ATOM     12  O   UNL     1       6.141 -16.336  23.586  1.00  0.00    -0.294 OA
BRANCH  11  13
ATOM     13  C   UNL     1       8.085 -17.583  24.160  1.00  0.00    -0.002 C 
ATOM     14  C   UNL     1       8.883 -17.224  25.211  1.00  0.00    -0.069 C 
ATOM     15  C   UNL     1       9.187 -15.772  25.506  1.00  0.00     0.039 C 
ATOM     16  C   UNL     1       9.500 -18.252  26.134  1.00  0.00     0.039 C 
BRANCH  13  17
ATOM     17  C   UNL     1       7.820 -19.039  23.813  1.00  0.00     0.066 CG0
ATOM     18  G   UNL     1       8.812 -19.581  22.803  1.00  0.00     0.000 G0
ENDBRANCH  13  17
ENDBRANCH  11  13
ENDBRANCH  10  11
ENDBRANCH   1  10
TORSDOF 0
ENDMDL
MODEL 4
REMARK VINA RESULT:    -3.623      3.416      5.884
REMARK INTER + INTRA:          -5.012
REMARK INTER:                  -5.219
REMARK INTRA:                   0.207
REMARK UNBOUND:                 0.094
REMARK SMILES CC1=CCC(=C(C)C)C(=O)CC(C)=CCC1
REMARK SMILES IDX 12 1 14 2 13 3 15 4 16 5 2 6 1 7 3 8 11 10 9 11 10 12 5 13
REMARK SMILES IDX 6 14 7 15 8 16 4 17
REMARK H PARENT
REMARK Flexibility Score: 60.00
ROOT
ATOM      1  C   UNL     1       7.057 -15.438  22.095  1.00  0.00    -0.070 C 
ATOM      2  C   UNL     1       7.406 -14.588  23.086  1.00  0.00    -0.027 C 
ATOM      3  C   UNL     1       6.304 -14.876  20.916  1.00  0.00     0.039 C 
ENDROOT
BRANCH   2   4
ATOM      4  C   UNL     1       8.242 -14.939  24.298  1.00  0.00     0.032 C 
BRANCH   4   5
ATOM      5  C   UNL     1       9.746 -15.133  24.015  1.00  0.00     0.034 C 
BRANCH   5   6
ATOM      6  C   UNL     1      10.300 -16.427  24.586  1.00  0.00    -0.077 C 
ATOM      7  C   UNL     1      10.223 -16.623  26.079  1.00  0.00     0.039 C 
ATOM      8  C   UNL     1      10.794 -17.442  23.837  1.00  0.00    -0.023 CG0
ATOM      9  G   UNL     1      10.985 -17.461  22.333  1.00  0.00     0.000 G0
ENDBRANCH   5   6
ENDBRANCH   4   5
ENDBRANCH   2   4
BRANCH   1  10
ATOM     10  C   UNL     1       7.465 -16.898  22.071  1.00  0.00     0.111 C 
BRANCH  10  11
ATOM     11  C   UNL     1       8.685 -17.118  21.216  1.00  0.00     0.163 C 
ATOM     12  O   UNL     1       8.803 -16.436  20.162  1.00  0.00    -0.294 OA
BRANCH  11  13
ATOM     13  C   UNL     1       9.776 -18.060  21.605  1.00  0.00    -0.002 C 
ATOM     14  C   UNL     1       9.721 -19.379  21.249  1.00  0.00    -0.069 C 
ATOM     15  C   UNL     1       8.489 -19.963  20.593  1.00  0.00     0.039 C 
ATOM     16  C   UNL     1      10.879 -20.322  21.489  1.00  0.00     0.039 C 
BRANCH  13  17
ATOM     17  C   UNL     1      10.981 -17.471  22.321  1.00  0.00     0.066 CG0
ATOM     18  G   UNL     1      10.800 -17.442  23.826  1.00  0.00     0.000 G0
ENDBRANCH  13  17
ENDBRANCH  11  13
ENDBRANCH  10  11
ENDBRANCH   1  10
TORSDOF 0
ENDMDL
MODEL 5
REMARK VINA RESULT:    -3.617      3.509      5.646
REMARK INTER + INTRA:          -5.003
REMARK INTER:                  -5.227
REMARK INTRA:                   0.224
REMARK UNBOUND:                 0.094
REMARK SMILES CC1=CCC(=C(C)C)C(=O)CC(C)=CCC1
REMARK SMILES IDX 12 1 14 2 13 3 15 4 16 5 2 6 1 7 3 8 11 10 9 11 10 12 5 13
REMARK SMILES IDX 6 14 7 15 8 16 4 17
REMARK H PARENT
REMARK Flexibility Score: 60.00
ROOT
ATOM      1  C   UNL     1       8.290 -20.131  21.225  1.00  0.00    -0.070 C 
ATOM      2  C   UNL     1       7.075 -20.290  21.795  1.00  0.00    -0.027 C 
ATOM      3  C   UNL     1       8.444 -20.508  19.774  1.00  0.00     0.039 C 
ENDROOT
BRANCH   2   4
ATOM      4  C   UNL     1       6.700 -19.881  23.203  1.00  0.00     0.032 C 
BRANCH   4   5
ATOM      5  C   UNL     1       6.307 -18.398  23.366  1.00  0.00     0.034 C 
BRANCH   5   6
ATOM      6  C   UNL     1       7.122 -17.678  24.426  1.00  0.00    -0.077 C 
ATOM      7  C   UNL     1       6.843 -18.008  25.870  1.00  0.00     0.039 C 
ATOM      8  C   UNL     1       8.129 -16.811  24.156  1.00  0.00    -0.023 CG0
ATOM      9  G   UNL     1       8.571 -16.318  22.793  1.00  0.00     0.000 G0
ENDBRANCH   5   6
ENDBRANCH   4   5
ENDBRANCH   2   4
BRANCH   1  10
ATOM     10  C   UNL     1       9.470 -19.509  21.945  1.00  0.00     0.111 C 
BRANCH  10  11
ATOM     11  C   UNL     1       9.776 -18.130  21.421  1.00  0.00     0.163 C 
ATOM     12  O   UNL     1       9.888 -17.980  20.174  1.00  0.00    -0.294 OA
BRANCH  11  13
ATOM     13  C   UNL     1       9.885 -16.939  22.315  1.00  0.00    -0.002 C 
ATOM     14  C   UNL     1      11.105 -16.403  22.619  1.00  0.00    -0.069 C 
ATOM     15  C   UNL     1      12.388 -17.082  22.194  1.00  0.00     0.039 C 
ATOM     16  C   UNL     1      11.241 -15.108  23.389  1.00  0.00     0.039 C 
BRANCH  13  17
ATOM     17  C   UNL     1       8.587 -16.303  22.788  1.00  0.00     0.066 CG0
ATOM     18  G   UNL     1       8.152 -16.820  24.144  1.00  0.00     0.000 G0
ENDBRANCH  13  17
ENDBRANCH  11  13
ENDBRANCH  10  11
ENDBRANCH   1  10
TORSDOF 0
ENDMDL
MODEL 6
REMARK VINA RESULT:    -3.608      4.186      6.328
REMARK INTER + INTRA:          -4.990
REMARK INTER:                  -5.541
REMARK INTRA:                   0.552
REMARK UNBOUND:                 0.094
REMARK SMILES CC1=CCC(=C(C)C)C(=O)CC(C)=CCC1
REMARK SMILES IDX 12 1 14 2 13 3 15 4 16 5 2 6 1 7 3 8 11 10 9 11 10 12 5 13
REMARK SMILES IDX 6 14 7 15 8 16 4 17
REMARK H PARENT
REMARK Flexibility Score: 60.00
ROOT
ATOM      1  C   UNL     1       7.103 -18.812  24.870  1.00  0.00    -0.070 C 
ATOM      2  C   UNL     1       7.908 -18.311  25.834  1.00  0.00    -0.027 C 
ATOM      3  C   UNL     1       6.715 -20.266  24.960  1.00  0.00     0.039 C 
ENDROOT
BRANCH   2   4
ATOM      4  C   UNL     1       8.327 -16.863  25.969  1.00  0.00     0.032 C 
BRANCH   4   5
ATOM      5  C   UNL     1       9.753 -16.551  25.469  1.00  0.00     0.034 C 
BRANCH   5   6
ATOM      6  C   UNL     1       9.779 -15.977  24.062  1.00  0.00    -0.077 C 
ATOM      7  C   UNL     1       9.755 -14.477  23.916  1.00  0.00     0.039 C 
ATOM      8  C   UNL     1       9.892 -16.723  22.936  1.00  0.00    -0.023 CG0
ATOM      9  G   UNL     1       9.915 -18.236  22.839  1.00  0.00     0.000 G0
ENDBRANCH   5   6
ENDBRANCH   4   5
ENDBRANCH   2   4
BRANCH   1  10
ATOM     10  C   UNL     1       6.504 -17.965  23.765  1.00  0.00     0.111 C 
BRANCH  10  11
ATOM     11  C   UNL     1       7.375 -17.958  22.536  1.00  0.00     0.163 C 
ATOM     12  O   UNL     1       7.094 -17.147  21.613  1.00  0.00    -0.294 OA
BRANCH  11  13
ATOM     13  C   UNL     1       8.583 -18.826  22.405  1.00  0.00    -0.002 C 
ATOM     14  C   UNL     1       8.496 -20.063  21.829  1.00  0.00    -0.069 C 
ATOM     15  C   UNL     1       7.158 -20.658  21.448  1.00  0.00     0.039 C 
ATOM     16  C   UNL     1       9.723 -20.899  21.539  1.00  0.00     0.039 C 
BRANCH  13  17
ATOM     17  C   UNL     1       9.912 -18.240  22.851  1.00  0.00     0.066 CG0
ATOM     18  G   UNL     1       9.875 -16.727  22.938  1.00  0.00     0.000 G0
ENDBRANCH  13  17
ENDBRANCH  11  13
ENDBRANCH  10  11
ENDBRANCH   1  10
TORSDOF 0
ENDMDL
MODEL 7
REMARK VINA RESULT:    -3.552      4.046      6.460
REMARK INTER + INTRA:          -4.912
REMARK INTER:                  -5.608
REMARK INTRA:                   0.696
REMARK UNBOUND:                 0.094
REMARK SMILES CC1=CCC(=C(C)C)C(=O)CC(C)=CCC1
REMARK SMILES IDX 12 1 14 2 13 3 15 4 16 5 2 6 1 7 3 8 11 10 9 11 10 12 5 13
REMARK SMILES IDX 6 14 7 15 8 16 4 17
REMARK H PARENT
REMARK Flexibility Score: 60.00
ROOT
ATOM      1  C   UNL     1       6.782 -19.213  24.101  1.00  0.00    -0.070 C 
ATOM      2  C   UNL     1       6.824 -20.318  23.324  1.00  0.00    -0.027 C 
ATOM      3  C   UNL     1       7.125 -19.362  25.561  1.00  0.00     0.039 C 
ENDROOT
BRANCH   2   4
ATOM      4  C   UNL     1       6.608 -20.355  21.827  1.00  0.00     0.032 C 
BRANCH   4   5
ATOM      5  C   UNL     1       7.745 -21.018  21.023  1.00  0.00     0.034 C 
BRANCH   5   6
ATOM      6  C   UNL     1       8.608 -20.018  20.274  1.00  0.00    -0.077 C 
ATOM      7  C   UNL     1       8.536 -20.019  18.768  1.00  0.00     0.039 C 
ATOM      8  C   UNL     1       9.385 -19.083  20.872  1.00  0.00    -0.023 CG0
ATOM      9  G   UNL     1       9.626 -18.907  22.357  1.00  0.00     0.000 G0
ENDBRANCH   5   6
ENDBRANCH   4   5
ENDBRANCH   2   4
BRANCH   1  10
ATOM     10  C   UNL     1       6.501 -17.826  23.557  1.00  0.00     0.111 C 
BRANCH  10  11
ATOM     11  C   UNL     1       7.599 -17.357  22.639  1.00  0.00     0.163 C 
ATOM     12  O   UNL     1       7.277 -16.673  21.630  1.00  0.00    -0.294 OA
BRANCH  11  13
ATOM     13  C   UNL     1       9.042 -17.618  22.917  1.00  0.00    -0.002 C 
ATOM     14  C   UNL     1       9.766 -16.771  23.709  1.00  0.00    -0.069 C 
ATOM     15  C   UNL     1       9.182 -15.465  24.200  1.00  0.00     0.039 C 
ATOM     16  C   UNL     1      11.182 -17.089  24.137  1.00  0.00     0.039 C 
BRANCH  13  17
ATOM     17  C   UNL     1       9.635 -18.904  22.363  1.00  0.00     0.066 CG0
ATOM     18  G   UNL     1       9.378 -19.065  20.879  1.00  0.00     0.000 G0
ENDBRANCH  13  17
ENDBRANCH  11  13
ENDBRANCH  10  11
ENDBRANCH   1  10
TORSDOF 0
ENDMDL
MODEL 8
REMARK VINA RESULT:    -3.543      3.246      4.949
REMARK INTER + INTRA:          -4.899
REMARK INTER:                  -5.129
REMARK INTRA:                   0.230
REMARK UNBOUND:                 0.094
REMARK SMILES CC1=CCC(=C(C)C)C(=O)CC(C)=CCC1
REMARK SMILES IDX 12 1 14 2 13 3 15 4 16 5 2 6 1 7 3 8 11 10 9 11 10 12 5 13
REMARK SMILES IDX 6 14 7 15 8 16 4 17
REMARK H PARENT
REMARK Flexibility Score: 60.00
ROOT
ATOM      1  C   UNL     1      10.846 -15.946  24.399  1.00  0.00    -0.070 C 
ATOM      2  C   UNL     1      12.027 -16.375  23.900  1.00  0.00    -0.027 C 
ATOM      3  C   UNL     1      10.501 -16.323  25.817  1.00  0.00     0.039 C 
ENDROOT
BRANCH   2   4
ATOM      4  C   UNL     1      12.592 -16.022  22.540  1.00  0.00     0.032 C 
BRANCH   4   5
ATOM      5  C   UNL     1      11.821 -16.618  21.344  1.00  0.00     0.034 C 
BRANCH   5   6
ATOM      6  C   UNL     1      11.362 -18.046  21.581  1.00  0.00    -0.077 C 
ATOM      7  C   UNL     1      12.420 -19.116  21.675  1.00  0.00     0.039 C 
ATOM      8  C   UNL     1      10.072 -18.410  21.781  1.00  0.00    -0.023 CG0
ATOM      9  G   UNL     1       8.849 -17.517  21.714  1.00  0.00     0.000 G0
ENDBRANCH   5   6
ENDBRANCH   4   5
ENDBRANCH   2   4
BRANCH   1  10
ATOM     10  C   UNL     1       9.905 -15.035  23.637  1.00  0.00     0.111 C 
BRANCH  10  11
ATOM     11  C   UNL     1       8.543 -15.657  23.472  1.00  0.00     0.163 C 
ATOM     12  O   UNL     1       7.531 -14.917  23.603  1.00  0.00    -0.294 OA
BRANCH  11  13
ATOM     13  C   UNL     1       8.357 -17.091  23.100  1.00  0.00    -0.002 C 
ATOM     14  C   UNL     1       7.702 -17.951  23.937  1.00  0.00    -0.069 C 
ATOM     15  C   UNL     1       7.282 -17.526  25.327  1.00  0.00     0.039 C 
ATOM     16  C   UNL     1       7.359 -19.366  23.523  1.00  0.00     0.039 C 
BRANCH  13  17
ATOM     17  C   UNL     1       8.841 -17.521  21.724  1.00  0.00     0.066 CG0
ATOM     18  G   UNL     1      10.075 -18.397  21.795  1.00  0.00     0.000 G0
ENDBRANCH  13  17
ENDBRANCH  11  13
ENDBRANCH  10  11
ENDBRANCH   1  10
TORSDOF 0
ENDMDL
MODEL 9
REMARK VINA RESULT:    -3.442      5.089      6.671
REMARK INTER + INTRA:          -4.756
REMARK INTER:                  -5.014
REMARK INTRA:                   0.258
REMARK UNBOUND:                 0.094
REMARK SMILES CC1=CCC(=C(C)C)C(=O)CC(C)=CCC1
REMARK SMILES IDX 12 1 14 2 13 3 15 4 16 5 2 6 1 7 3 8 11 10 9 11 10 12 5 13
REMARK SMILES IDX 6 14 7 15 8 16 4 17
REMARK H PARENT
REMARK Flexibility Score: 60.00
ROOT
ATOM      1  C   UNL     1       8.090 -20.990  20.358  1.00  0.00    -0.070 C 
ATOM      2  C   UNL     1       8.614 -20.792  19.128  1.00  0.00    -0.027 C 
ATOM      3  C   UNL     1       8.256 -22.351  20.985  1.00  0.00     0.039 C 
ENDROOT
BRANCH   2   4
ATOM      4  C   UNL     1       8.636 -19.478  18.378  1.00  0.00     0.032 C 
BRANCH   4   5
ATOM      5  C   UNL     1       9.616 -18.426  18.939  1.00  0.00     0.034 C 
BRANCH   5   6
ATOM      6  C   UNL     1       8.982 -17.058  19.121  1.00  0.00    -0.077 C 
ATOM      7  C   UNL     1       8.387 -16.394  17.906  1.00  0.00     0.039 C 
ATOM      8  C   UNL     1       8.858 -16.428  20.315  1.00  0.00    -0.023 CG0
ATOM      9  G   UNL     1       9.392 -16.891  21.655  1.00  0.00     0.000 G0
ENDBRANCH   5   6
ENDBRANCH   4   5
ENDBRANCH   2   4
BRANCH   1  10
ATOM     10  C   UNL     1       7.434 -19.890  21.168  1.00  0.00     0.111 C 
BRANCH  10  11
ATOM     11  C   UNL     1       8.410 -19.237  22.112  1.00  0.00     0.163 C 
ATOM     12  O   UNL     1       9.312 -19.955  22.624  1.00  0.00    -0.294 OA
BRANCH  11  13
ATOM     13  C   UNL     1       8.384 -17.774  22.407  1.00  0.00    -0.002 C 
ATOM     14  C   UNL     1       7.552 -17.269  23.367  1.00  0.00    -0.069 C 
ATOM     15  C   UNL     1       6.522 -18.142  24.050  1.00  0.00     0.039 C 
ATOM     16  C   UNL     1       7.614 -15.821  23.798  1.00  0.00     0.039 C 
BRANCH  13  17
ATOM     17  C   UNL     1       9.382 -16.897  21.666  1.00  0.00     0.066 CG0
ATOM     18  G   UNL     1       8.857 -16.437  20.321  1.00  0.00     0.000 G0
ENDBRANCH  13  17
ENDBRANCH  11  13
ENDBRANCH  10  11
ENDBRANCH   1  10
TORSDOF 0
ENDMDL
