MODEL 1
REMARK VINA RESULT:    -2.205      0.000      0.000
REMARK INTER + INTRA:          -4.097
REMARK INTER:                  -3.495
REMARK INTRA:                  -0.603
REMARK UNBOUND:                -0.603
REMARK SMILES CCCCCCCCCCCC(=O)[O-]
REMARK SMILES IDX 7 1 8 2 9 3 10 4 11 5 12 6 13 7 14 8 6 9 5 10 4 11 3 12 2 13
REMARK SMILES IDX 1 14
REMARK H PARENT
REMARK Flexibility Score: inf
ROOT
ATOM      1  C   UNL     1     -28.214 -20.694 -23.840  1.00  0.00     0.000 C 
ENDROOT
BRANCH   1   2
ATOM      2  C   UNL     1     -29.409 -21.273 -24.614  1.00  0.00     0.000 C 
BRANCH   2   3
ATOM      3  C   UNL     1     -30.110 -20.227 -25.493  1.00  0.00     0.000 C 
BRANCH   3   4
ATOM      4  C   UNL     1     -31.363 -19.675 -24.797  1.00  0.00     0.006 C 
BRANCH   4   5
ATOM      5  C   UNL     1     -32.015 -20.707 -23.868  1.00  0.00     0.053 C 
BRANCH   5   6
ATOM      6  C   UNL     1     -32.258 -20.149 -22.500  1.00  0.00     0.041 C 
ATOM      7  O   UNL     1     -32.407 -18.909 -22.339  1.00  0.00    -0.550 OA
ATOM      8  O   UNL     1     -32.353 -21.001 -21.407  1.00  0.00    -0.550 OA
ENDBRANCH   5   6
ENDBRANCH   4   5
ENDBRANCH   3   4
ENDBRANCH   2   3
ENDBRANCH   1   2
BRANCH   1   9
ATOM      9  C   UNL     1     -27.919 -21.462 -22.542  1.00  0.00     0.000 C 
BRANCH   9  10
ATOM     10  C   UNL     1     -28.991 -21.175 -21.480  1.00  0.00    -0.000 C 
BRANCH  10  11
ATOM     11  C   UNL     1     -28.808 -22.021 -20.210  1.00  0.00    -0.000 C 
BRANCH  11  12
ATOM     12  C   UNL     1     -27.880 -21.354 -19.183  1.00  0.00    -0.000 C 
BRANCH  12  13
ATOM     13  C   UNL     1     -27.888 -22.124 -17.857  1.00  0.00    -0.003 C 
ATOM     14  C   UNL     1     -26.506 -22.121 -17.210  1.00  0.00     0.004 C 
ENDBRANCH  12  13
ENDBRANCH  11  12
ENDBRANCH  10  11
ENDBRANCH   9  10
ENDBRANCH   1   9
TORSDOF 10
ENDMDL
MODEL 2
REMARK VINA RESULT:    -1.657      2.304      2.947
REMARK INTER + INTRA:          -3.228
REMARK INTER:                  -3.593
REMARK INTRA:                   0.365
REMARK UNBOUND:                -0.603
REMARK SMILES CCCCCCCCCCCC(=O)[O-]
REMARK SMILES IDX 7 1 8 2 9 3 10 4 11 5 12 6 13 7 14 8 6 9 5 10 4 11 3 12 2 13
REMARK SMILES IDX 1 14
REMARK H PARENT
REMARK Flexibility Score: inf
ROOT
ATOM      1  C   UNL     1     -30.542 -22.055 -22.595  1.00  0.00     0.000 C 
ENDROOT
BRANCH   1   2
ATOM      2  C   UNL     1     -31.809 -21.301 -22.160  1.00  0.00     0.000 C 
BRANCH   2   3
ATOM      3  C   UNL     1     -31.845 -19.855 -22.677  1.00  0.00     0.000 C 
BRANCH   3   4
ATOM      4  C   UNL     1     -31.121 -19.735 -24.026  1.00  0.00     0.006 C 
BRANCH   4   5
ATOM      5  C   UNL     1     -31.605 -20.781 -25.040  1.00  0.00     0.053 C 
BRANCH   5   6
ATOM      6  C   UNL     1     -30.651 -20.926 -26.187  1.00  0.00     0.041 C 
ATOM      7  O   UNL     1     -30.776 -21.882 -26.997  1.00  0.00    -0.550 OA
ATOM      8  O   UNL     1     -29.645 -19.988 -26.379  1.00  0.00    -0.550 OA
ENDBRANCH   5   6
ENDBRANCH   4   5
ENDBRANCH   3   4
ENDBRANCH   2   3
ENDBRANCH   1   2
BRANCH   1   9
ATOM      9  C   UNL     1     -29.251 -21.366 -22.123  1.00  0.00     0.000 C 
BRANCH   9  10
ATOM     10  C   UNL     1     -28.625 -22.125 -20.943  1.00  0.00    -0.000 C 
BRANCH  10  11
ATOM     11  C   UNL     1     -29.189 -21.678 -19.585  1.00  0.00    -0.000 C 
BRANCH  11  12
ATOM     12  C   UNL     1     -28.122 -21.041 -18.682  1.00  0.00    -0.000 C 
BRANCH  12  13
ATOM     13  C   UNL     1     -27.701 -22.006 -17.567  1.00  0.00    -0.003 C 
ATOM     14  C   UNL     1     -26.182 -22.107 -17.469  1.00  0.00     0.004 C 
ENDBRANCH  12  13
ENDBRANCH  11  12
ENDBRANCH  10  11
ENDBRANCH   9  10
ENDBRANCH   1   9
TORSDOF 10
ENDMDL
MODEL 3
REMARK VINA RESULT:    -1.496      2.115      2.913
REMARK INTER + INTRA:          -2.973
REMARK INTER:                  -3.232
REMARK INTRA:                   0.258
REMARK UNBOUND:                -0.603
REMARK SMILES CCCCCCCCCCCC(=O)[O-]
REMARK SMILES IDX 7 1 8 2 9 3 10 4 11 5 12 6 13 7 14 8 6 9 5 10 4 11 3 12 2 13
REMARK SMILES IDX 1 14
REMARK H PARENT
REMARK Flexibility Score: inf
ROOT
ATOM      1  C   UNL     1     -31.106 -20.959 -21.363  1.00  0.00     0.000 C 
ENDROOT
BRANCH   1   2
ATOM      2  C   UNL     1     -31.675 -19.822 -22.228  1.00  0.00     0.000 C 
BRANCH   2   3
ATOM      3  C   UNL     1     -31.773 -20.199 -23.714  1.00  0.00     0.000 C 
BRANCH   3   4
ATOM      4  C   UNL     1     -30.913 -19.263 -24.576  1.00  0.00     0.006 C 
BRANCH   4   5
ATOM      5  C   UNL     1     -30.649 -19.839 -25.974  1.00  0.00     0.053 C 
BRANCH   5   6
ATOM      6  C   UNL     1     -30.571 -21.335 -25.953  1.00  0.00     0.041 C 
ATOM      7  O   UNL     1     -29.950 -21.923 -25.028  1.00  0.00    -0.550 OA
ATOM      8  O   UNL     1     -31.210 -22.080 -26.935  1.00  0.00    -0.550 OA
ENDBRANCH   5   6
ENDBRANCH   4   5
ENDBRANCH   3   4
ENDBRANCH   2   3
ENDBRANCH   1   2
BRANCH   1   9
ATOM      9  C   UNL     1     -30.098 -21.834 -22.124  1.00  0.00     0.000 C 
BRANCH   9  10
ATOM     10  C   UNL     1     -28.655 -21.435 -21.777  1.00  0.00    -0.000 C 
BRANCH  10  11
ATOM     11  C   UNL     1     -28.155 -22.094 -20.482  1.00  0.00    -0.000 C 
BRANCH  11  12
ATOM     12  C   UNL     1     -28.362 -21.205 -19.246  1.00  0.00    -0.000 C 
BRANCH  12  13
ATOM     13  C   UNL     1     -28.088 -21.987 -17.956  1.00  0.00    -0.003 C 
ATOM     14  C   UNL     1     -26.598 -22.004 -17.628  1.00  0.00     0.004 C 
ENDBRANCH  12  13
ENDBRANCH  11  12
ENDBRANCH  10  11
ENDBRANCH   9  10
ENDBRANCH   1   9
TORSDOF 10
ENDMDL
MODEL 4
REMARK VINA RESULT:    -1.358      1.701      4.819
REMARK INTER + INTRA:          -2.754
REMARK INTER:                  -1.878
REMARK INTRA:                  -0.876
REMARK UNBOUND:                -0.603
REMARK SMILES CCCCCCCCCCCC(=O)[O-]
REMARK SMILES IDX 7 1 8 2 9 3 10 4 11 5 12 6 13 7 14 8 6 9 5 10 4 11 3 12 2 13
REMARK SMILES IDX 1 14
REMARK H PARENT
REMARK Flexibility Score: inf
ROOT
ATOM      1  C   UNL     1     -28.127 -21.336 -21.014  1.00  0.00     0.000 C 
ENDROOT
BRANCH   1   2
ATOM      2  C   UNL     1     -29.119 -22.124 -20.143  1.00  0.00     0.000 C 
BRANCH   2   3
ATOM      3  C   UNL     1     -30.549 -22.100 -20.703  1.00  0.00     0.000 C 
BRANCH   3   4
ATOM      4  C   UNL     1     -30.891 -20.718 -21.278  1.00  0.00     0.006 C 
BRANCH   4   5
ATOM      5  C   UNL     1     -31.987 -20.789 -22.349  1.00  0.00     0.053 C 
BRANCH   5   6
ATOM      6  C   UNL     1     -32.519 -19.431 -22.693  1.00  0.00     0.041 C 
ATOM      7  O   UNL     1     -32.457 -18.496 -21.852  1.00  0.00    -0.550 OA
ATOM      8  O   UNL     1     -33.052 -19.190 -23.952  1.00  0.00    -0.550 OA
ENDBRANCH   5   6
ENDBRANCH   4   5
ENDBRANCH   3   4
ENDBRANCH   2   3
ENDBRANCH   1   2
BRANCH   1   9
ATOM      9  C   UNL     1     -27.742 -22.085 -22.299  1.00  0.00     0.000 C 
BRANCH   9  10
ATOM     10  C   UNL     1     -27.893 -21.176 -23.529  1.00  0.00    -0.000 C 
BRANCH  10  11
ATOM     11  C   UNL     1     -29.258 -21.333 -24.218  1.00  0.00    -0.000 C 
BRANCH  11  12
ATOM     12  C   UNL     1     -29.670 -20.081 -25.007  1.00  0.00    -0.000 C 
BRANCH  12  13
ATOM     13  C   UNL     1     -30.635 -20.444 -26.143  1.00  0.00    -0.003 C 
ATOM     14  C   UNL     1     -30.650 -21.949 -26.395  1.00  0.00     0.004 C 
ENDBRANCH  12  13
ENDBRANCH  11  12
ENDBRANCH  10  11
ENDBRANCH   9  10
ENDBRANCH   1   9
TORSDOF 10
ENDMDL
MODEL 5
REMARK VINA RESULT:    -0.642      2.006      2.981
REMARK INTER + INTRA:          -1.620
REMARK INTER:                  -2.825
REMARK INTRA:                   1.205
REMARK UNBOUND:                -0.603
REMARK SMILES CCCCCCCCCCCC(=O)[O-]
REMARK SMILES IDX 7 1 8 2 9 3 10 4 11 5 12 6 13 7 14 8 6 9 5 10 4 11 3 12 2 13
REMARK SMILES IDX 1 14
REMARK H PARENT
REMARK Flexibility Score: inf
ROOT
ATOM      1  C   UNL     1     -31.927 -20.721 -22.341  1.00  0.00     0.000 C 
ENDROOT
BRANCH   1   2
ATOM      2  C   UNL     1     -31.903 -20.708 -23.877  1.00  0.00     0.000 C 
BRANCH   2   3
ATOM      3  C   UNL     1     -31.241 -21.960 -24.472  1.00  0.00     0.000 C 
BRANCH   3   4
ATOM      4  C   UNL     1     -31.274 -21.923 -26.007  1.00  0.00     0.006 C 
BRANCH   4   5
ATOM      5  C   UNL     1     -30.208 -20.985 -26.589  1.00  0.00     0.053 C 
BRANCH   5   6
ATOM      6  C   UNL     1     -29.721 -19.998 -25.573  1.00  0.00     0.041 C 
ATOM      7  O   UNL     1     -28.768 -20.298 -24.805  1.00  0.00    -0.550 OA
ATOM      8  O   UNL     1     -30.296 -18.737 -25.495  1.00  0.00    -0.550 OA
ENDBRANCH   5   6
ENDBRANCH   4   5
ENDBRANCH   3   4
ENDBRANCH   2   3
ENDBRANCH   1   2
BRANCH   1   9
ATOM      9  C   UNL     1     -30.976 -21.770 -21.743  1.00  0.00     0.000 C 
BRANCH   9  10
ATOM     10  C   UNL     1     -29.512 -21.328 -21.889  1.00  0.00    -0.000 C 
BRANCH  10  11
ATOM     11  C   UNL     1     -28.566 -22.094 -20.951  1.00  0.00    -0.000 C 
BRANCH  11  12
ATOM     12  C   UNL     1     -29.062 -22.116 -19.497  1.00  0.00    -0.000 C 
BRANCH  12  13
ATOM     13  C   UNL     1     -28.172 -21.245 -18.602  1.00  0.00    -0.003 C 
ATOM     14  C   UNL     1     -27.277 -22.103 -17.713  1.00  0.00     0.004 C 
ENDBRANCH  12  13
ENDBRANCH  11  12
ENDBRANCH  10  11
ENDBRANCH   9  10
ENDBRANCH   1   9
TORSDOF 10
ENDMDL
MODEL 6
REMARK VINA RESULT:    -0.276      2.364      4.497
REMARK INTER + INTRA:          -1.040
REMARK INTER:                  -0.806
REMARK INTRA:                  -0.234
REMARK UNBOUND:                -0.603
REMARK SMILES CCCCCCCCCCCC(=O)[O-]
REMARK SMILES IDX 7 1 8 2 9 3 10 4 11 5 12 6 13 7 14 8 6 9 5 10 4 11 3 12 2 13
REMARK SMILES IDX 1 14
REMARK H PARENT
REMARK Flexibility Score: inf
ROOT
ATOM      1  C   UNL     1     -27.728 -22.122 -20.847  1.00  0.00     0.000 C 
ENDROOT
BRANCH   1   2
ATOM      2  C   UNL     1     -27.773 -21.042 -21.940  1.00  0.00     0.000 C 
BRANCH   2   3
ATOM      3  C   UNL     1     -27.673 -21.627 -23.357  1.00  0.00     0.000 C 
BRANCH   3   4
ATOM      4  C   UNL     1     -29.058 -21.708 -24.017  1.00  0.00     0.006 C 
BRANCH   4   5
ATOM      5  C   UNL     1     -29.360 -20.480 -24.886  1.00  0.00     0.053 C 
BRANCH   5   6
ATOM      6  C   UNL     1     -30.381 -20.782 -25.940  1.00  0.00     0.041 C 
ATOM      7  O   UNL     1     -31.059 -21.842 -25.879  1.00  0.00    -0.550 OA
ATOM      8  O   UNL     1     -30.608 -19.879 -26.970  1.00  0.00    -0.550 OA
ENDBRANCH   5   6
ENDBRANCH   4   5
ENDBRANCH   3   4
ENDBRANCH   2   3
ENDBRANCH   1   2
BRANCH   1   9
ATOM      9  C   UNL     1     -28.987 -22.125 -19.965  1.00  0.00     0.000 C 
BRANCH   9  10
ATOM     10  C   UNL     1     -30.033 -21.136 -20.501  1.00  0.00    -0.000 C 
BRANCH  10  11
ATOM     11  C   UNL     1     -31.249 -21.839 -21.124  1.00  0.00    -0.000 C 
BRANCH  11  12
ATOM     12  C   UNL     1     -31.543 -21.359 -22.553  1.00  0.00    -0.000 C 
BRANCH  12  13
ATOM     13  C   UNL     1     -32.709 -20.363 -22.567  1.00  0.00    -0.003 C 
ATOM     14  C   UNL     1     -32.258 -18.980 -22.108  1.00  0.00     0.004 C 
ENDBRANCH  12  13
ENDBRANCH  11  12
ENDBRANCH  10  11
ENDBRANCH   9  10
ENDBRANCH   1   9
TORSDOF 10
ENDMDL
MODEL 7
REMARK VINA RESULT:     0.134      2.610      5.732
REMARK INTER + INTRA:          -0.390
REMARK INTER:                  -0.255
REMARK INTRA:                  -0.136
REMARK UNBOUND:                -0.603
REMARK SMILES CCCCCCCCCCCC(=O)[O-]
REMARK SMILES IDX 7 1 8 2 9 3 10 4 11 5 12 6 13 7 14 8 6 9 5 10 4 11 3 12 2 13
REMARK SMILES IDX 1 14
REMARK H PARENT
REMARK Flexibility Score: inf
ROOT
ATOM      1  C   UNL     1     -29.337 -20.821 -23.155  1.00  0.00     0.000 C 
ENDROOT
BRANCH   1   2
ATOM      2  C   UNL     1     -30.006 -21.836 -22.213  1.00  0.00     0.000 C 
BRANCH   2   3
ATOM      3  C   UNL     1     -29.168 -22.125 -20.959  1.00  0.00     0.000 C 
BRANCH   3   4
ATOM      4  C   UNL     1     -28.241 -20.944 -20.633  1.00  0.00     0.006 C 
BRANCH   4   5
ATOM      5  C   UNL     1     -28.420 -20.445 -19.193  1.00  0.00     0.053 C 
BRANCH   5   6
ATOM      6  C   UNL     1     -27.811 -21.386 -18.199  1.00  0.00     0.041 C 
ATOM      7  O   UNL     1     -26.559 -21.489 -18.109  1.00  0.00    -0.550 OA
ATOM      8  O   UNL     1     -28.625 -22.125 -17.349  1.00  0.00    -0.550 OA
ENDBRANCH   5   6
ENDBRANCH   4   5
ENDBRANCH   3   4
ENDBRANCH   2   3
ENDBRANCH   1   2
BRANCH   1   9
ATOM      9  C   UNL     1     -28.943 -21.438 -24.506  1.00  0.00     0.000 C 
BRANCH   9  10
ATOM     10  C   UNL     1     -29.760 -20.818 -25.650  1.00  0.00    -0.000 C 
BRANCH  10  11
ATOM     11  C   UNL     1     -30.457 -19.512 -25.239  1.00  0.00    -0.000 C 
BRANCH  11  12
ATOM     12  C   UNL     1     -31.832 -19.751 -24.596  1.00  0.00    -0.000 C 
BRANCH  12  13
ATOM     13  C   UNL     1     -31.970 -18.961 -23.289  1.00  0.00    -0.003 C 
ATOM     14  C   UNL     1     -32.858 -19.698 -22.290  1.00  0.00     0.004 C 
ENDBRANCH  12  13
ENDBRANCH  11  12
ENDBRANCH  10  11
ENDBRANCH   9  10
ENDBRANCH   1   9
TORSDOF 10
ENDMDL
MODEL 8
REMARK VINA RESULT:     0.211      2.535      3.651
REMARK INTER + INTRA:          -0.268
REMARK INTER:                   0.275
REMARK INTRA:                  -0.543
REMARK UNBOUND:                -0.603
REMARK SMILES CCCCCCCCCCCC(=O)[O-]
REMARK SMILES IDX 7 1 8 2 9 3 10 4 11 5 12 6 13 7 14 8 6 9 5 10 4 11 3 12 2 13
REMARK SMILES IDX 1 14
REMARK H PARENT
REMARK Flexibility Score: inf
ROOT
ATOM      1  C   UNL     1     -31.454 -19.928 -22.127  1.00  0.00     0.000 C 
ENDROOT
BRANCH   1   2
ATOM      2  C   UNL     1     -32.152 -19.455 -23.413  1.00  0.00     0.000 C 
BRANCH   2   3
ATOM      3  C   UNL     1     -31.162 -18.959 -24.478  1.00  0.00     0.000 C 
BRANCH   3   4
ATOM      4  C   UNL     1     -29.777 -19.590 -24.277  1.00  0.00     0.006 C 
BRANCH   4   5
ATOM      5  C   UNL     1     -29.492 -20.702 -25.295  1.00  0.00     0.053 C 
BRANCH   5   6
ATOM      6  C   UNL     1     -30.682 -20.981 -26.162  1.00  0.00     0.041 C 
ATOM      7  O   UNL     1     -30.979 -20.195 -27.100  1.00  0.00    -0.550 OA
ATOM      8  O   UNL     1     -31.442 -22.125 -25.955  1.00  0.00    -0.550 OA
ENDBRANCH   5   6
ENDBRANCH   4   5
ENDBRANCH   3   4
ENDBRANCH   2   3
ENDBRANCH   1   2
BRANCH   1   9
ATOM      9  C   UNL     1     -31.637 -21.432 -21.873  1.00  0.00     0.000 C 
BRANCH   9  10
ATOM     10  C   UNL     1     -30.278 -22.124 -21.686  1.00  0.00    -0.000 C 
BRANCH  10  11
ATOM     11  C   UNL     1     -29.290 -21.278 -20.868  1.00  0.00    -0.000 C 
BRANCH  11  12
ATOM     12  C   UNL     1     -27.823 -21.605 -21.189  1.00  0.00    -0.000 C 
BRANCH  12  13
ATOM     13  C   UNL     1     -27.626 -21.817 -22.695  1.00  0.00    -0.003 C 
ATOM     14  C   UNL     1     -26.168 -22.124 -23.023  1.00  0.00     0.004 C 
ENDBRANCH  12  13
ENDBRANCH  11  12
ENDBRANCH  10  11
ENDBRANCH   9  10
ENDBRANCH   1   9
TORSDOF 10
ENDMDL
