MODEL 1
REMARK VINA RESULT:    -4.238      0.000      0.000
REMARK INTER + INTRA:          -9.317
REMARK INTER:                  -7.831
REMARK INTRA:                  -1.486
REMARK UNBOUND:                -1.486
REMARK SMILES CCCCCCCCCCCCCCCCO
REMARK SMILES IDX 9 1 8 2 7 3 6 4 5 5 4 6 3 7 2 8 1 9 10 10 11 11 12 12 13 13
REMARK SMILES IDX 14 14 15 15 16 16 17 17
REMARK H PARENT 17 18
REMARK Flexibility Score: inf
ROOT
ATOM      1  C   UNL     1       0.200  22.506  24.510  1.00  0.00     0.000 C 
ENDROOT
BRANCH   1   2
ATOM      2  C   UNL     1      -0.260  23.132  25.837  1.00  0.00    -0.000 C 
BRANCH   2   3
ATOM      3  C   UNL     1      -1.542  22.494  26.386  1.00  0.00    -0.000 C 
BRANCH   3   4
ATOM      4  C   UNL     1      -1.305  21.031  26.779  1.00  0.00    -0.000 C 
BRANCH   4   5
ATOM      5  C   UNL     1      -2.607  20.225  26.708  1.00  0.00    -0.000 C 
BRANCH   5   6
ATOM      6  C   UNL     1      -3.710  21.020  25.993  1.00  0.00    -0.000 C 
BRANCH   6   7
ATOM      7  C   UNL     1      -4.015  20.461  24.587  1.00  0.00    -0.000 C 
BRANCH   7   8
ATOM      8  C   UNL     1      -3.311  21.229  23.455  1.00  0.00    -0.003 C 
ATOM      9  C   UNL     1      -3.731  22.695  23.374  1.00  0.00     0.004 C 
ENDBRANCH   7   8
ENDBRANCH   6   7
ENDBRANCH   5   6
ENDBRANCH   4   5
ENDBRANCH   3   4
ENDBRANCH   2   3
ENDBRANCH   1   2
BRANCH   1  10
ATOM     10  C   UNL     1       0.092  23.465  23.304  1.00  0.00     0.000 C 
BRANCH  10  11
ATOM     11  C   UNL     1      -0.305  22.728  22.012  1.00  0.00     0.000 C 
BRANCH  11  12
ATOM     12  C   UNL     1      -0.051  23.565  20.747  1.00  0.00     0.000 C 
BRANCH  12  13
ATOM     13  C   UNL     1       0.369  25.009  21.069  1.00  0.00     0.000 C 
BRANCH  13  14
ATOM     14  C   UNL     1       1.258  25.631  19.977  1.00  0.00     0.002 C 
BRANCH  14  15
ATOM     15  C   UNL     1       2.706  25.109  19.937  1.00  0.00     0.028 C 
BRANCH  15  16
ATOM     16  C   UNL     1       3.451  25.500  18.655  1.00  0.00     0.156 C 
BRANCH  16  17
ATOM     17  O   UNL     1       4.793  25.108  18.739  1.00  0.00    -0.396 OA
ATOM     18  H   UNL     1       5.280  25.610  18.034  1.00  0.00     0.210 HD
ENDBRANCH  16  17
ENDBRANCH  15  16
ENDBRANCH  14  15
ENDBRANCH  13  14
ENDBRANCH  12  13
ENDBRANCH  11  12
ENDBRANCH  10  11
ENDBRANCH   1  10
TORSDOF 15
ENDMDL
MODEL 2
REMARK VINA RESULT:    -4.114      1.066      2.433
REMARK INTER + INTRA:          -9.086
REMARK INTER:                  -8.037
REMARK INTRA:                  -1.049
REMARK UNBOUND:                -1.486
REMARK SMILES CCCCCCCCCCCCCCCCO
REMARK SMILES IDX 9 1 8 2 7 3 6 4 5 5 4 6 3 7 2 8 1 9 10 10 11 11 12 12 13 13
REMARK SMILES IDX 14 14 15 15 16 16 17 17
REMARK H PARENT 17 18
REMARK Flexibility Score: inf
ROOT
ATOM      1  C   UNL     1      -2.066  22.177  22.442  1.00  0.00     0.000 C 
ENDROOT
BRANCH   1   2
ATOM      2  C   UNL     1      -1.011  21.715  23.462  1.00  0.00    -0.000 C 
BRANCH   2   3
ATOM      3  C   UNL     1       0.045  22.788  23.758  1.00  0.00    -0.000 C 
BRANCH   3   4
ATOM      4  C   UNL     1       0.031  23.180  25.241  1.00  0.00    -0.000 C 
BRANCH   4   5
ATOM      5  C   UNL     1      -0.504  22.034  26.108  1.00  0.00    -0.000 C 
BRANCH   5   6
ATOM      6  C   UNL     1      -1.858  22.401  26.734  1.00  0.00    -0.000 C 
BRANCH   6   7
ATOM      7  C   UNL     1      -2.499  21.210  27.476  1.00  0.00    -0.000 C 
BRANCH   7   8
ATOM      8  C   UNL     1      -2.655  19.954  26.603  1.00  0.00    -0.003 C 
ATOM      9  C   UNL     1      -3.705  20.114  25.504  1.00  0.00     0.004 C 
ENDBRANCH   7   8
ENDBRANCH   6   7
ENDBRANCH   5   6
ENDBRANCH   4   5
ENDBRANCH   3   4
ENDBRANCH   2   3
ENDBRANCH   1   2
BRANCH   1  10
ATOM     10  C   UNL     1      -1.520  22.305  21.004  1.00  0.00     0.000 C 
BRANCH  10  11
ATOM     11  C   UNL     1      -1.430  23.771  20.546  1.00  0.00     0.000 C 
BRANCH  11  12
ATOM     12  C   UNL     1       0.006  24.201  20.200  1.00  0.00     0.000 C 
BRANCH  12  13
ATOM     13  C   UNL     1       0.223  25.716  20.353  1.00  0.00     0.000 C 
BRANCH  13  14
ATOM     14  C   UNL     1       1.458  26.224  19.588  1.00  0.00     0.002 C 
BRANCH  14  15
ATOM     15  C   UNL     1       2.652  25.253  19.554  1.00  0.00     0.028 C 
BRANCH  15  16
ATOM     16  C   UNL     1       3.711  25.638  18.515  1.00  0.00     0.156 C 
BRANCH  16  17
ATOM     17  O   UNL     1       4.922  24.996  18.799  1.00  0.00    -0.396 OA
ATOM     18  H   UNL     1       5.214  25.320  19.691  1.00  0.00     0.210 HD
ENDBRANCH  16  17
ENDBRANCH  15  16
ENDBRANCH  14  15
ENDBRANCH  13  14
ENDBRANCH  12  13
ENDBRANCH  11  12
ENDBRANCH  10  11
ENDBRANCH   1  10
TORSDOF 15
ENDMDL
MODEL 3
REMARK VINA RESULT:    -4.088      1.291      2.606
REMARK INTER + INTRA:          -9.040
REMARK INTER:                  -7.882
REMARK INTRA:                  -1.158
REMARK UNBOUND:                -1.486
REMARK SMILES CCCCCCCCCCCCCCCCO
REMARK SMILES IDX 9 1 8 2 7 3 6 4 5 5 4 6 3 7 2 8 1 9 10 10 11 11 12 12 13 13
REMARK SMILES IDX 14 14 15 15 16 16 17 17
REMARK H PARENT 17 18
REMARK Flexibility Score: inf
ROOT
ATOM      1  C   UNL     1      -0.295  22.589  21.928  1.00  0.00     0.000 C 
ENDROOT
BRANCH   1   2
ATOM      2  C   UNL     1       0.067  23.557  23.068  1.00  0.00    -0.000 C 
BRANCH   2   3
ATOM      3  C   UNL     1      -0.447  23.089  24.436  1.00  0.00    -0.000 C 
BRANCH   3   4
ATOM      4  C   UNL     1      -1.946  22.771  24.382  1.00  0.00    -0.000 C 
BRANCH   4   5
ATOM      5  C   UNL     1      -2.240  21.398  24.997  1.00  0.00    -0.000 C 
BRANCH   5   6
ATOM      6  C   UNL     1      -1.322  21.124  26.199  1.00  0.00    -0.000 C 
BRANCH   6   7
ATOM      7  C   UNL     1      -1.980  21.523  27.537  1.00  0.00    -0.000 C 
BRANCH   7   8
ATOM      8  C   UNL     1      -3.510  21.653  27.454  1.00  0.00    -0.003 C 
ATOM      9  C   UNL     1      -4.017  23.032  27.874  1.00  0.00     0.004 C 
ENDBRANCH   7   8
ENDBRANCH   6   7
ENDBRANCH   5   6
ENDBRANCH   4   5
ENDBRANCH   3   4
ENDBRANCH   2   3
ENDBRANCH   1   2
BRANCH   1  10
ATOM     10  C   UNL     1      -0.151  23.209  20.522  1.00  0.00     0.000 C 
BRANCH  10  11
ATOM     11  C   UNL     1      -1.309  24.169  20.191  1.00  0.00     0.000 C 
BRANCH  11  12
ATOM     12  C   UNL     1      -0.870  25.642  20.158  1.00  0.00     0.000 C 
BRANCH  12  13
ATOM     13  C   UNL     1       0.259  25.901  19.146  1.00  0.00     0.000 C 
BRANCH  13  14
ATOM     14  C   UNL     1       1.523  26.491  19.796  1.00  0.00     0.002 C 
BRANCH  14  15
ATOM     15  C   UNL     1       2.748  25.558  19.809  1.00  0.00     0.028 C 
BRANCH  15  16
ATOM     16  C   UNL     1       3.463  25.485  18.455  1.00  0.00     0.156 C 
BRANCH  16  17
ATOM     17  O   UNL     1       4.830  25.244  18.644  1.00  0.00    -0.396 OA
ATOM     18  H   UNL     1       5.170  24.855  17.796  1.00  0.00     0.210 HD
ENDBRANCH  16  17
ENDBRANCH  15  16
ENDBRANCH  14  15
ENDBRANCH  13  14
ENDBRANCH  12  13
ENDBRANCH  11  12
ENDBRANCH  10  11
ENDBRANCH   1  10
TORSDOF 15
ENDMDL
MODEL 4
REMARK VINA RESULT:    -4.063      1.315      2.977
REMARK INTER + INTRA:          -8.992
REMARK INTER:                  -7.026
REMARK INTRA:                  -1.966
REMARK UNBOUND:                -1.486
REMARK SMILES CCCCCCCCCCCCCCCCO
REMARK SMILES IDX 9 1 8 2 7 3 6 4 5 5 4 6 3 7 2 8 1 9 10 10 11 11 12 12 13 13
REMARK SMILES IDX 14 14 15 15 16 16 17 17
REMARK H PARENT 17 18
REMARK Flexibility Score: inf
ROOT
ATOM      1  C   UNL     1      -2.305  20.694  22.786  1.00  0.00     0.000 C 
ENDROOT
BRANCH   1   2
ATOM      2  C   UNL     1      -2.156  19.759  23.998  1.00  0.00    -0.000 C 
BRANCH   2   3
ATOM      3  C   UNL     1      -3.353  19.826  24.956  1.00  0.00    -0.000 C 
BRANCH   3   4
ATOM      4  C   UNL     1      -2.960  19.356  26.362  1.00  0.00    -0.000 C 
BRANCH   4   5
ATOM      5  C   UNL     1      -1.848  20.235  26.945  1.00  0.00    -0.000 C 
BRANCH   5   6
ATOM      6  C   UNL     1      -2.357  21.658  27.221  1.00  0.00    -0.000 C 
BRANCH   6   7
ATOM      7  C   UNL     1      -1.641  22.712  26.350  1.00  0.00    -0.000 C 
BRANCH   7   8
ATOM      8  C   UNL     1      -0.273  22.246  25.823  1.00  0.00    -0.003 C 
ATOM      9  C   UNL     1       0.154  22.968  24.546  1.00  0.00     0.004 C 
ENDBRANCH   7   8
ENDBRANCH   6   7
ENDBRANCH   5   6
ENDBRANCH   4   5
ENDBRANCH   3   4
ENDBRANCH   2   3
ENDBRANCH   1   2
BRANCH   1  10
ATOM     10  C   UNL     1      -3.172  21.940  23.069  1.00  0.00     0.000 C 
BRANCH  10  11
ATOM     11  C   UNL     1      -2.806  23.121  22.152  1.00  0.00     0.000 C 
BRANCH  11  12
ATOM     12  C   UNL     1      -1.715  22.764  21.128  1.00  0.00     0.000 C 
BRANCH  12  13
ATOM     13  C   UNL     1      -1.458  23.897  20.120  1.00  0.00     0.000 C 
BRANCH  13  14
ATOM     14  C   UNL     1      -0.618  25.045  20.710  1.00  0.00     0.002 C 
BRANCH  14  15
ATOM     15  C   UNL     1       0.792  24.647  21.183  1.00  0.00     0.028 C 
BRANCH  15  16
ATOM     16  C   UNL     1       1.860  24.813  20.096  1.00  0.00     0.156 C 
BRANCH  16  17
ATOM     17  O   UNL     1       2.756  25.830  20.452  1.00  0.00    -0.396 OA
ATOM     18  H   UNL     1       3.392  25.925  19.696  1.00  0.00     0.210 HD
ENDBRANCH  16  17
ENDBRANCH  15  16
ENDBRANCH  14  15
ENDBRANCH  13  14
ENDBRANCH  12  13
ENDBRANCH  11  12
ENDBRANCH  10  11
ENDBRANCH   1  10
TORSDOF 15
ENDMDL
MODEL 5
REMARK VINA RESULT:    -4.044      1.704      3.730
REMARK INTER + INTRA:          -8.958
REMARK INTER:                  -7.645
REMARK INTRA:                  -1.313
REMARK UNBOUND:                -1.486
REMARK SMILES CCCCCCCCCCCCCCCCO
REMARK SMILES IDX 9 1 8 2 7 3 6 4 5 5 4 6 3 7 2 8 1 9 10 10 11 11 12 12 13 13
REMARK SMILES IDX 14 14 15 15 16 16 17 17
REMARK H PARENT 17 18
REMARK Flexibility Score: inf
ROOT
ATOM      1  C   UNL     1      -2.971  23.885  20.484  1.00  0.00     0.000 C 
ENDROOT
BRANCH   1   2
ATOM      2  C   UNL     1      -2.159  22.695  19.945  1.00  0.00    -0.000 C 
BRANCH   2   3
ATOM      3  C   UNL     1      -1.714  21.725  21.047  1.00  0.00    -0.000 C 
BRANCH   3   4
ATOM      4  C   UNL     1      -1.817  22.379  22.431  1.00  0.00    -0.000 C 
BRANCH   4   5
ATOM      5  C   UNL     1      -0.613  22.010  23.304  1.00  0.00    -0.000 C 
BRANCH   5   6
ATOM      6  C   UNL     1      -1.019  21.032  24.418  1.00  0.00    -0.000 C 
BRANCH   6   7
ATOM      7  C   UNL     1      -0.730  21.598  25.824  1.00  0.00    -0.000 C 
BRANCH   7   8
ATOM      8  C   UNL     1      -1.494  20.875  26.947  1.00  0.00    -0.003 C 
ATOM      9  C   UNL     1      -2.808  21.560  27.315  1.00  0.00     0.004 C 
ENDBRANCH   7   8
ENDBRANCH   6   7
ENDBRANCH   5   6
ENDBRANCH   4   5
ENDBRANCH   3   4
ENDBRANCH   2   3
ENDBRANCH   1   2
BRANCH   1  10
ATOM     10  C   UNL     1      -2.660  25.219  19.772  1.00  0.00     0.000 C 
BRANCH  10  11
ATOM     11  C   UNL     1      -1.158  25.382  19.478  1.00  0.00     0.000 C 
BRANCH  11  12
ATOM     12  C   UNL     1      -0.346  25.773  20.725  1.00  0.00     0.000 C 
BRANCH  12  13
ATOM     13  C   UNL     1       0.690  24.705  21.114  1.00  0.00     0.000 C 
BRANCH  13  14
ATOM     14  C   UNL     1       1.713  24.428  19.999  1.00  0.00     0.002 C 
BRANCH  14  15
ATOM     15  C   UNL     1       2.936  25.364  19.987  1.00  0.00     0.028 C 
BRANCH  15  16
ATOM     16  C   UNL     1       3.580  25.495  18.602  1.00  0.00     0.156 C 
BRANCH  16  17
ATOM     17  O   UNL     1       4.933  25.139  18.663  1.00  0.00    -0.396 OA
ATOM     18  H   UNL     1       4.964  24.150  18.746  1.00  0.00     0.210 HD
ENDBRANCH  16  17
ENDBRANCH  15  16
ENDBRANCH  14  15
ENDBRANCH  13  14
ENDBRANCH  12  13
ENDBRANCH  11  12
ENDBRANCH  10  11
ENDBRANCH   1  10
TORSDOF 15
ENDMDL
MODEL 6
REMARK VINA RESULT:    -4.021      1.435      2.190
REMARK INTER + INTRA:          -8.916
REMARK INTER:                  -6.893
REMARK INTRA:                  -2.023
REMARK UNBOUND:                -1.486
REMARK SMILES CCCCCCCCCCCCCCCCO
REMARK SMILES IDX 9 1 8 2 7 3 6 4 5 5 4 6 3 7 2 8 1 9 10 10 11 11 12 12 13 13
REMARK SMILES IDX 14 14 15 15 16 16 17 17
REMARK H PARENT 17 18
REMARK Flexibility Score: inf
ROOT
ATOM      1  C   UNL     1      -0.740  22.006  23.917  1.00  0.00     0.000 C 
ENDROOT
BRANCH   1   2
ATOM      2  C   UNL     1       0.143  22.773  24.915  1.00  0.00    -0.000 C 
BRANCH   2   3
ATOM      3  C   UNL     1      -0.435  22.789  26.336  1.00  0.00    -0.000 C 
BRANCH   3   4
ATOM      4  C   UNL     1      -1.060  21.434  26.692  1.00  0.00    -0.000 C 
BRANCH   4   5
ATOM      5  C   UNL     1      -2.404  21.619  27.406  1.00  0.00    -0.000 C 
BRANCH   5   6
ATOM      6  C   UNL     1      -3.516  20.828  26.701  1.00  0.00    -0.000 C 
BRANCH   6   7
ATOM      7  C   UNL     1      -2.971  19.590  25.959  1.00  0.00    -0.000 C 
BRANCH   7   8
ATOM      8  C   UNL     1      -3.508  19.446  24.525  1.00  0.00    -0.003 C 
ATOM      9  C   UNL     1      -2.509  18.790  23.574  1.00  0.00     0.004 C 
ENDBRANCH   7   8
ENDBRANCH   6   7
ENDBRANCH   5   6
ENDBRANCH   4   5
ENDBRANCH   3   4
ENDBRANCH   2   3
ENDBRANCH   1   2
BRANCH   1  10
ATOM     10  C   UNL     1      -2.063  22.728  23.582  1.00  0.00     0.000 C 
BRANCH  10  11
ATOM     11  C   UNL     1      -2.525  22.452  22.140  1.00  0.00     0.000 C 
BRANCH  11  12
ATOM     12  C   UNL     1      -1.390  21.933  21.240  1.00  0.00     0.000 C 
BRANCH  12  13
ATOM     13  C   UNL     1      -1.070  22.893  20.081  1.00  0.00     0.000 C 
BRANCH  13  14
ATOM     14  C   UNL     1      -0.764  24.325  20.556  1.00  0.00     0.002 C 
BRANCH  14  15
ATOM     15  C   UNL     1       0.612  24.512  21.221  1.00  0.00     0.028 C 
BRANCH  15  16
ATOM     16  C   UNL     1       1.698  24.966  20.240  1.00  0.00     0.156 C 
BRANCH  16  17
ATOM     17  O   UNL     1       2.315  23.852  19.655  1.00  0.00    -0.396 OA
ATOM     18  H   UNL     1       3.292  23.965  19.789  1.00  0.00     0.210 HD
ENDBRANCH  16  17
ENDBRANCH  15  16
ENDBRANCH  14  15
ENDBRANCH  13  14
ENDBRANCH  12  13
ENDBRANCH  11  12
ENDBRANCH  10  11
ENDBRANCH   1  10
TORSDOF 15
ENDMDL
MODEL 7
REMARK VINA RESULT:    -4.001      1.093      2.792
REMARK INTER + INTRA:          -8.879
REMARK INTER:                  -7.574
REMARK INTRA:                  -1.305
REMARK UNBOUND:                -1.486
REMARK SMILES CCCCCCCCCCCCCCCCO
REMARK SMILES IDX 9 1 8 2 7 3 6 4 5 5 4 6 3 7 2 8 1 9 10 10 11 11 12 12 13 13
REMARK SMILES IDX 14 14 15 15 16 16 17 17
REMARK H PARENT 17 18
REMARK Flexibility Score: inf
ROOT
ATOM      1  C   UNL     1      -0.922  23.175  22.110  1.00  0.00     0.000 C 
ENDROOT
BRANCH   1   2
ATOM      2  C   UNL     1      -1.751  22.012  22.683  1.00  0.00    -0.000 C 
BRANCH   2   3
ATOM      3  C   UNL     1      -3.230  22.370  22.875  1.00  0.00    -0.000 C 
BRANCH   3   4
ATOM      4  C   UNL     1      -3.470  23.003  24.251  1.00  0.00    -0.000 C 
BRANCH   4   5
ATOM      5  C   UNL     1      -3.693  21.928  25.321  1.00  0.00    -0.000 C 
BRANCH   5   6
ATOM      6  C   UNL     1      -3.038  22.329  26.651  1.00  0.00    -0.000 C 
BRANCH   6   7
ATOM      7  C   UNL     1      -1.861  21.404  27.024  1.00  0.00    -0.000 C 
BRANCH   7   8
ATOM      8  C   UNL     1      -0.659  21.524  26.072  1.00  0.00    -0.003 C 
ATOM      9  C   UNL     1      -0.113  22.948  25.972  1.00  0.00     0.004 C 
ENDBRANCH   7   8
ENDBRANCH   6   7
ENDBRANCH   5   6
ENDBRANCH   4   5
ENDBRANCH   3   4
ENDBRANCH   2   3
ENDBRANCH   1   2
BRANCH   1  10
ATOM     10  C   UNL     1      -0.789  23.140  20.573  1.00  0.00     0.000 C 
BRANCH  10  11
ATOM     11  C   UNL     1      -1.420  24.377  19.908  1.00  0.00     0.000 C 
BRANCH  11  12
ATOM     12  C   UNL     1      -0.778  25.695  20.374  1.00  0.00     0.000 C 
BRANCH  12  13
ATOM     13  C   UNL     1       0.223  26.258  19.351  1.00  0.00     0.000 C 
BRANCH  13  14
ATOM     14  C   UNL     1       1.668  26.292  19.882  1.00  0.00     0.002 C 
BRANCH  14  15
ATOM     15  C   UNL     1       2.570  25.143  19.395  1.00  0.00     0.028 C 
BRANCH  15  16
ATOM     16  C   UNL     1       3.688  25.612  18.457  1.00  0.00     0.156 C 
BRANCH  16  17
ATOM     17  O   UNL     1       4.901  25.010  18.814  1.00  0.00    -0.396 OA
ATOM     18  H   UNL     1       5.612  25.682  18.647  1.00  0.00     0.210 HD
ENDBRANCH  16  17
ENDBRANCH  15  16
ENDBRANCH  14  15
ENDBRANCH  13  14
ENDBRANCH  12  13
ENDBRANCH  11  12
ENDBRANCH  10  11
ENDBRANCH   1  10
TORSDOF 15
ENDMDL
MODEL 8
REMARK VINA RESULT:    -3.936      2.594      6.490
REMARK INTER + INTRA:          -8.759
REMARK INTER:                  -6.977
REMARK INTRA:                  -1.782
REMARK UNBOUND:                -1.486
REMARK SMILES CCCCCCCCCCCCCCCCO
REMARK SMILES IDX 9 1 8 2 7 3 6 4 5 5 4 6 3 7 2 8 1 9 10 10 11 11 12 12 13 13
REMARK SMILES IDX 14 14 15 15 16 16 17 17
REMARK H PARENT 17 18
REMARK Flexibility Score: inf
ROOT
ATOM      1  C   UNL     1      -2.415  19.311  23.757  1.00  0.00     0.000 C 
ENDROOT
BRANCH   1   2
ATOM      2  C   UNL     1      -1.868  20.587  23.094  1.00  0.00    -0.000 C 
BRANCH   2   3
ATOM      3  C   UNL     1      -2.888  21.733  23.070  1.00  0.00    -0.000 C 
BRANCH   3   4
ATOM      4  C   UNL     1      -2.286  22.993  22.437  1.00  0.00    -0.000 C 
BRANCH   4   5
ATOM      5  C   UNL     1      -0.851  22.738  21.963  1.00  0.00    -0.000 C 
BRANCH   5   6
ATOM      6  C   UNL     1       0.015  23.998  22.122  1.00  0.00    -0.000 C 
BRANCH   6   7
ATOM      7  C   UNL     1       0.531  24.525  20.767  1.00  0.00    -0.000 C 
BRANCH   7   8
ATOM      8  C   UNL     1      -0.204  25.785  20.277  1.00  0.00    -0.003 C 
ATOM      9  C   UNL     1      -1.537  25.474  19.598  1.00  0.00     0.004 C 
ENDBRANCH   7   8
ENDBRANCH   6   7
ENDBRANCH   5   6
ENDBRANCH   4   5
ENDBRANCH   3   4
ENDBRANCH   2   3
ENDBRANCH   1   2
BRANCH   1  10
ATOM     10  C   UNL     1      -3.690  19.548  24.595  1.00  0.00     0.000 C 
BRANCH  10  11
ATOM     11  C   UNL     1      -3.511  19.111  26.060  1.00  0.00     0.000 C 
BRANCH  11  12
ATOM     12  C   UNL     1      -2.407  19.898  26.785  1.00  0.00     0.000 C 
BRANCH  12  13
ATOM     13  C   UNL     1      -2.872  21.295  27.231  1.00  0.00     0.000 C 
BRANCH  13  14
ATOM     14  C   UNL     1      -2.065  22.431  26.578  1.00  0.00     0.002 C 
BRANCH  14  15
ATOM     15  C   UNL     1      -0.610  22.077  26.218  1.00  0.00     0.028 C 
BRANCH  15  16
ATOM     16  C   UNL     1       0.143  23.234  25.553  1.00  0.00     0.156 C 
BRANCH  16  17
ATOM     17  O   UNL     1       0.615  24.125  26.525  1.00  0.00    -0.396 OA
ATOM     18  H   UNL     1       1.156  24.807  26.047  1.00  0.00     0.210 HD
ENDBRANCH  16  17
ENDBRANCH  15  16
ENDBRANCH  14  15
ENDBRANCH  13  14
ENDBRANCH  12  13
ENDBRANCH  11  12
ENDBRANCH  10  11
ENDBRANCH   1  10
TORSDOF 15
ENDMDL
MODEL 9
REMARK VINA RESULT:    -3.877      1.273      1.866
REMARK INTER + INTRA:          -8.650
REMARK INTER:                  -7.242
REMARK INTRA:                  -1.408
REMARK UNBOUND:                -1.486
REMARK SMILES CCCCCCCCCCCCCCCCO
REMARK SMILES IDX 9 1 8 2 7 3 6 4 5 5 4 6 3 7 2 8 1 9 10 10 11 11 12 12 13 13
REMARK SMILES IDX 14 14 15 15 16 16 17 17
REMARK H PARENT 17 18
REMARK Flexibility Score: inf
ROOT
ATOM      1  C   UNL     1      -0.075  22.958  26.022  1.00  0.00     0.000 C 
ENDROOT
BRANCH   1   2
ATOM      2  C   UNL     1      -1.484  22.410  26.303  1.00  0.00    -0.000 C 
BRANCH   2   3
ATOM      3  C   UNL     1      -1.467  21.054  27.021  1.00  0.00    -0.000 C 
BRANCH   3   4
ATOM      4  C   UNL     1      -2.675  20.201  26.615  1.00  0.00    -0.000 C 
BRANCH   4   5
ATOM      5  C   UNL     1      -3.472  20.874  25.492  1.00  0.00    -0.000 C 
BRANCH   5   6
ATOM      6  C   UNL     1      -3.682  19.913  24.312  1.00  0.00    -0.000 C 
BRANCH   6   7
ATOM      7  C   UNL     1      -2.348  19.459  23.685  1.00  0.00    -0.000 C 
BRANCH   7   8
ATOM      8  C   UNL     1      -2.458  19.114  22.189  1.00  0.00    -0.003 C 
ATOM      9  C   UNL     1      -2.862  20.309  21.327  1.00  0.00     0.004 C 
ENDBRANCH   7   8
ENDBRANCH   6   7
ENDBRANCH   5   6
ENDBRANCH   4   5
ENDBRANCH   3   4
ENDBRANCH   2   3
ENDBRANCH   1   2
BRANCH   1  10
ATOM     10  C   UNL     1       0.367  22.800  24.551  1.00  0.00     0.000 C 
BRANCH  10  11
ATOM     11  C   UNL     1      -0.832  22.768  23.586  1.00  0.00     0.000 C 
BRANCH  11  12
ATOM     12  C   UNL     1      -0.422  22.978  22.119  1.00  0.00     0.000 C 
BRANCH  12  13
ATOM     13  C   UNL     1       0.268  24.332  21.887  1.00  0.00     0.000 C 
BRANCH  13  14
ATOM     14  C   UNL     1       0.354  24.713  20.398  1.00  0.00     0.002 C 
BRANCH  14  15
ATOM     15  C   UNL     1       1.352  25.838  20.067  1.00  0.00     0.028 C 
BRANCH  15  16
ATOM     16  C   UNL     1       2.720  25.314  19.615  1.00  0.00     0.156 C 
BRANCH  16  17
ATOM     17  O   UNL     1       2.766  23.919  19.734  1.00  0.00    -0.396 OA
ATOM     18  H   UNL     1       1.871  23.631  20.054  1.00  0.00     0.210 HD
ENDBRANCH  16  17
ENDBRANCH  15  16
ENDBRANCH  14  15
ENDBRANCH  13  14
ENDBRANCH  12  13
ENDBRANCH  11  12
ENDBRANCH  10  11
ENDBRANCH   1  10
TORSDOF 15
ENDMDL
