MODEL 1
REMARK VINA RESULT:    -3.493      0.000      0.000
REMARK INTER + INTRA:          -4.537
REMARK INTER:                  -4.309
REMARK INTRA:                  -0.227
REMARK UNBOUND:                -0.227
REMARK SMILES CCCCCC(=O)[O-]
REMARK SMILES IDX 4 1 5 2 6 3 7 4 8 5 3 6 2 7 1 8
REMARK H PARENT
REMARK Flexibility Score: inf
ROOT
ATOM      1  C   UNL     1      18.847  20.625  -5.758  1.00  0.00     0.006 C 
ENDROOT
BRANCH   1   2
ATOM      2  C   UNL     1      18.566  21.317  -7.099  1.00  0.00     0.053 C 
BRANCH   2   3
ATOM      3  C   UNL     1      19.813  21.945  -7.633  1.00  0.00     0.041 C 
ATOM      4  O   UNL     1      20.716  22.332  -6.844  1.00  0.00    -0.550 OA
ATOM      5  O   UNL     1      20.003  22.061  -9.005  1.00  0.00    -0.550 OA
ENDBRANCH   2   3
ENDBRANCH   1   2
BRANCH   1   6
ATOM      6  C   UNL     1      19.336  19.178  -5.931  1.00  0.00     0.000 C 
BRANCH   6   7
ATOM      7  C   UNL     1      20.694  18.928  -5.259  1.00  0.00    -0.003 C 
ATOM      8  C   UNL     1      21.789  18.711  -6.299  1.00  0.00     0.004 C 
ENDBRANCH   6   7
ENDBRANCH   1   6
TORSDOF 4
ENDMDL
MODEL 2
REMARK VINA RESULT:    -3.472      2.129      2.703
REMARK INTER + INTRA:          -4.511
REMARK INTER:                  -4.287
REMARK INTRA:                  -0.224
REMARK UNBOUND:                -0.227
REMARK SMILES CCCCCC(=O)[O-]
REMARK SMILES IDX 4 1 5 2 6 3 7 4 8 5 3 6 2 7 1 8
REMARK H PARENT
REMARK Flexibility Score: inf
ROOT
ATOM      1  C   UNL     1      20.340  20.329  -5.320  1.00  0.00     0.006 C 
ENDROOT
BRANCH   1   2
ATOM      2  C   UNL     1      19.738  20.894  -6.614  1.00  0.00     0.053 C 
BRANCH   2   3
ATOM      3  C   UNL     1      18.251  20.737  -6.608  1.00  0.00     0.041 C 
ATOM      4  O   UNL     1      17.681  20.068  -7.511  1.00  0.00    -0.550 OA
ATOM      5  O   UNL     1      17.496  21.288  -5.579  1.00  0.00    -0.550 OA
ENDBRANCH   2   3
ENDBRANCH   1   2
BRANCH   1   6
ATOM      6  C   UNL     1      20.663  18.830  -5.424  1.00  0.00     0.000 C 
BRANCH   6   7
ATOM      7  C   UNL     1      19.591  17.947  -4.769  1.00  0.00    -0.003 C 
ATOM      8  C   UNL     1      18.929  17.034  -5.796  1.00  0.00     0.004 C 
ENDBRANCH   6   7
ENDBRANCH   1   6
TORSDOF 4
ENDMDL
MODEL 3
REMARK VINA RESULT:    -3.448      2.073      2.403
REMARK INTER + INTRA:          -4.481
REMARK INTER:                  -4.225
REMARK INTRA:                  -0.256
REMARK UNBOUND:                -0.227
REMARK SMILES CCCCCC(=O)[O-]
REMARK SMILES IDX 4 1 5 2 6 3 7 4 8 5 3 6 2 7 1 8
REMARK H PARENT
REMARK Flexibility Score: inf
ROOT
ATOM      1  C   UNL     1      20.610  20.878  -6.551  1.00  0.00     0.006 C 
ENDROOT
BRANCH   1   2
ATOM      2  C   UNL     1      19.392  21.304  -7.382  1.00  0.00     0.053 C 
BRANCH   2   3
ATOM      3  C   UNL     1      18.136  20.751  -6.787  1.00  0.00     0.041 C 
ATOM      4  O   UNL     1      17.693  21.212  -5.702  1.00  0.00    -0.550 OA
ATOM      5  O   UNL     1      17.428  19.758  -7.453  1.00  0.00    -0.550 OA
ENDBRANCH   2   3
ENDBRANCH   1   2
BRANCH   1   6
ATOM      6  C   UNL     1      20.747  19.351  -6.444  1.00  0.00     0.000 C 
BRANCH   6   7
ATOM      7  C   UNL     1      20.755  18.858  -4.990  1.00  0.00    -0.003 C 
ATOM      8  C   UNL     1      19.512  18.027  -4.685  1.00  0.00     0.004 C 
ENDBRANCH   6   7
ENDBRANCH   1   6
TORSDOF 4
ENDMDL
MODEL 4
REMARK VINA RESULT:    -3.429      1.375      1.923
REMARK INTER + INTRA:          -4.458
REMARK INTER:                  -4.245
REMARK INTRA:                  -0.213
REMARK UNBOUND:                -0.227
REMARK SMILES CCCCCC(=O)[O-]
REMARK SMILES IDX 4 1 5 2 6 3 7 4 8 5 3 6 2 7 1 8
REMARK H PARENT
REMARK Flexibility Score: inf
ROOT
ATOM      1  C   UNL     1      21.109  20.735  -5.517  1.00  0.00     0.006 C 
ENDROOT
BRANCH   1   2
ATOM      2  C   UNL     1      21.069  21.886  -6.532  1.00  0.00     0.053 C 
BRANCH   2   3
ATOM      3  C   UNL     1      19.850  21.779  -7.393  1.00  0.00     0.041 C 
ATOM      4  O   UNL     1      18.726  21.547  -6.874  1.00  0.00    -0.550 OA
ATOM      5  O   UNL     1      19.947  21.982  -8.764  1.00  0.00    -0.550 OA
ENDBRANCH   2   3
ENDBRANCH   1   2
BRANCH   1   6
ATOM      6  C   UNL     1      21.530  19.401  -6.155  1.00  0.00     0.000 C 
BRANCH   6   7
ATOM      7  C   UNL     1      20.494  18.289  -5.939  1.00  0.00    -0.003 C 
ATOM      8  C   UNL     1      19.823  18.420  -4.575  1.00  0.00     0.004 C 
ENDBRANCH   6   7
ENDBRANCH   1   6
TORSDOF 4
ENDMDL
MODEL 5
REMARK VINA RESULT:    -3.401      2.310      3.687
REMARK INTER + INTRA:          -4.424
REMARK INTER:                  -4.250
REMARK INTRA:                  -0.174
REMARK UNBOUND:                -0.227
REMARK SMILES CCCCCC(=O)[O-]
REMARK SMILES IDX 4 1 5 2 6 3 7 4 8 5 3 6 2 7 1 8
REMARK H PARENT
REMARK Flexibility Score: inf
ROOT
ATOM      1  C   UNL     1      18.828  20.648  -5.877  1.00  0.00     0.006 C 
ENDROOT
BRANCH   1   2
ATOM      2  C   UNL     1      18.989  19.125  -5.984  1.00  0.00     0.053 C 
BRANCH   2   3
ATOM      3  C   UNL     1      20.176  18.671  -5.196  1.00  0.00     0.041 C 
ATOM      4  O   UNL     1      20.025  18.185  -4.044  1.00  0.00    -0.550 OA
ATOM      5  O   UNL     1      21.448  18.739  -5.752  1.00  0.00    -0.550 OA
ENDBRANCH   2   3
ENDBRANCH   1   2
BRANCH   1   6
ATOM      6  C   UNL     1      18.568  21.311  -7.239  1.00  0.00     0.000 C 
BRANCH   6   7
ATOM      7  C   UNL     1      19.820  21.986  -7.817  1.00  0.00    -0.003 C 
ATOM      8  C   UNL     1      20.889  22.170  -6.745  1.00  0.00     0.004 C 
ENDBRANCH   6   7
ENDBRANCH   1   6
TORSDOF 4
ENDMDL
MODEL 6
REMARK VINA RESULT:    -3.383      9.256     10.932
REMARK INTER + INTRA:          -4.401
REMARK INTER:                  -4.252
REMARK INTRA:                  -0.149
REMARK UNBOUND:                -0.227
REMARK SMILES CCCCCC(=O)[O-]
REMARK SMILES IDX 4 1 5 2 6 3 7 4 8 5 3 6 2 7 1 8
REMARK H PARENT
REMARK Flexibility Score: inf
ROOT
ATOM      1  C   UNL     1      28.221  15.612 -10.566  1.00  0.00     0.006 C 
ENDROOT
BRANCH   1   2
ATOM      2  C   UNL     1      28.706  14.603  -9.515  1.00  0.00     0.053 C 
BRANCH   2   3
ATOM      3  C   UNL     1      28.737  13.224 -10.093  1.00  0.00     0.041 C 
ATOM      4  O   UNL     1      28.269  12.253  -9.441  1.00  0.00    -0.550 OA
ATOM      5  O   UNL     1      29.239  13.016 -11.372  1.00  0.00    -0.550 OA
ENDBRANCH   2   3
ENDBRANCH   1   2
BRANCH   1   6
ATOM      6  C   UNL     1      26.690  15.729 -10.610  1.00  0.00     0.000 C 
BRANCH   6   7
ATOM      7  C   UNL     1      26.043  15.564  -9.227  1.00  0.00    -0.003 C 
ATOM      8  C   UNL     1      24.654  16.194  -9.191  1.00  0.00     0.004 C 
ENDBRANCH   6   7
ENDBRANCH   1   6
TORSDOF 4
ENDMDL
MODEL 7
REMARK VINA RESULT:    -3.375      2.460      3.572
REMARK INTER + INTRA:          -4.392
REMARK INTER:                  -4.129
REMARK INTRA:                  -0.263
REMARK UNBOUND:                -0.227
REMARK SMILES CCCCCC(=O)[O-]
REMARK SMILES IDX 4 1 5 2 6 3 7 4 8 5 3 6 2 7 1 8
REMARK H PARENT
REMARK Flexibility Score: inf
ROOT
ATOM      1  C   UNL     1      19.101  17.414  -5.453  1.00  0.00     0.006 C 
ENDROOT
BRANCH   1   2
ATOM      2  C   UNL     1      19.968  18.402  -4.660  1.00  0.00     0.053 C 
BRANCH   2   3
ATOM      3  C   UNL     1      20.036  19.718  -5.367  1.00  0.00     0.041 C 
ATOM      4  O   UNL     1      18.997  20.414  -5.512  1.00  0.00    -0.550 OA
ATOM      5  O   UNL     1      21.256  20.201  -5.825  1.00  0.00    -0.550 OA
ENDBRANCH   2   3
ENDBRANCH   1   2
BRANCH   1   6
ATOM      6  C   UNL     1      19.705  17.066  -6.823  1.00  0.00     0.000 C 
BRANCH   6   7
ATOM      7  C   UNL     1      18.658  17.058  -7.946  1.00  0.00    -0.003 C 
ATOM      8  C   UNL     1      17.437  17.890  -7.565  1.00  0.00     0.004 C 
ENDBRANCH   6   7
ENDBRANCH   1   6
TORSDOF 4
ENDMDL
MODEL 8
REMARK VINA RESULT:    -3.331      2.130      3.475
REMARK INTER + INTRA:          -4.338
REMARK INTER:                  -4.100
REMARK INTRA:                  -0.237
REMARK UNBOUND:                -0.227
REMARK SMILES CCCCCC(=O)[O-]
REMARK SMILES IDX 4 1 5 2 6 3 7 4 8 5 3 6 2 7 1 8
REMARK H PARENT
REMARK Flexibility Score: inf
ROOT
ATOM      1  C   UNL     1      20.222  20.511  -5.420  1.00  0.00     0.006 C 
ENDROOT
BRANCH   1   2
ATOM      2  C   UNL     1      20.686  19.051  -5.332  1.00  0.00     0.053 C 
BRANCH   2   3
ATOM      3  C   UNL     1      21.514  18.695  -6.526  1.00  0.00     0.041 C 
ATOM      4  O   UNL     1      22.770  18.684  -6.446  1.00  0.00    -0.550 OA
ATOM      5  O   UNL     1      20.897  18.328  -7.716  1.00  0.00    -0.550 OA
ENDBRANCH   2   3
ENDBRANCH   1   2
BRANCH   1   6
ATOM      6  C   UNL     1      18.742  20.637  -5.814  1.00  0.00     0.000 C 
BRANCH   6   7
ATOM      7  C   UNL     1      18.547  21.322  -7.174  1.00  0.00    -0.003 C 
ATOM      8  C   UNL     1      19.827  22.020  -7.626  1.00  0.00     0.004 C 
ENDBRANCH   6   7
ENDBRANCH   1   6
TORSDOF 4
ENDMDL
MODEL 9
REMARK VINA RESULT:    -3.284      2.030      2.802
REMARK INTER + INTRA:          -4.279
REMARK INTER:                  -4.061
REMARK INTRA:                  -0.218
REMARK UNBOUND:                -0.227
REMARK SMILES CCCCCC(=O)[O-]
REMARK SMILES IDX 4 1 5 2 6 3 7 4 8 5 3 6 2 7 1 8
REMARK H PARENT
REMARK Flexibility Score: inf
ROOT
ATOM      1  C   UNL     1      18.346  20.340  -7.325  1.00  0.00     0.006 C 
ENDROOT
BRANCH   1   2
ATOM      2  C   UNL     1      18.701  20.828  -5.914  1.00  0.00     0.053 C 
BRANCH   2   3
ATOM      3  C   UNL     1      20.133  20.529  -5.605  1.00  0.00     0.041 C 
ATOM      4  O   UNL     1      20.440  19.485  -4.969  1.00  0.00    -0.550 OA
ATOM      5  O   UNL     1      21.135  21.377  -6.059  1.00  0.00    -0.550 OA
ENDBRANCH   2   3
ENDBRANCH   1   2
BRANCH   1   6
ATOM      6  C   UNL     1      17.662  18.964  -7.320  1.00  0.00     0.000 C 
BRANCH   6   7
ATOM      7  C   UNL     1      18.642  17.815  -7.596  1.00  0.00    -0.003 C 
ATOM      8  C   UNL     1      18.558  16.748  -6.509  1.00  0.00     0.004 C 
ENDBRANCH   6   7
ENDBRANCH   1   6
TORSDOF 4
ENDMDL
