MODEL 1
REMARK VINA RESULT:    -3.455      0.000      0.000
REMARK INTER + INTRA:          -5.489
REMARK INTER:                  -5.273
REMARK INTRA:                  -0.216
REMARK UNBOUND:                -0.216
REMARK SMILES CC1=CCC[C@@H](C)C(=O)C[C@@H](C(C)C)C(=O)C1
REMARK SMILES IDX 8 1 9 2 6 3 7 4 5 5 4 6 3 7 2 8 1 9 10 11 11 12 15 13 16 14
REMARK SMILES IDX 17 15 12 17 13 18 14 19
REMARK H PARENT
REMARK Flexibility Score: 70.00
ROOT
ATOM      1  C   UNL     1       0.894  10.819  19.257  1.00  0.00     0.136 C 
ATOM      2  O   UNL     1       0.618  10.679  20.439  1.00  0.00    -0.299 OA
ENDROOT
BRANCH   1   3
ATOM      3  C   UNL     1       0.605   9.704  18.275  1.00  0.00     0.053 C 
ATOM      4  C   UNL     1      -0.061   8.538  19.015  1.00  0.00     0.016 C 
BRANCH   3   5
ATOM      5  C   UNL     1       1.874   9.214  17.539  1.00  0.00     0.015 C 
BRANCH   5   6
ATOM      6  C   UNL     1       1.824   9.423  16.013  1.00  0.00     0.028 C 
BRANCH   6   7
ATOM      7  C   UNL     1       2.871  10.412  15.552  1.00  0.00    -0.028 C 
ATOM      8  C   UNL     1       2.663  11.709  15.223  1.00  0.00    -0.070 CG0
ATOM      9  C   UNL     1       3.848  12.515  14.753  1.00  0.00     0.039 C 
ATOM     10  G   UNL     1       1.329  12.412  15.366  1.00  0.00     0.000 G0
ENDBRANCH   6   7
ENDBRANCH   5   6
ENDBRANCH   3   5
ENDBRANCH   1   3
BRANCH   1  11
ATOM     11  C   UNL     1       1.493  12.122  18.782  1.00  0.00     0.087 C 
BRANCH  11  12
ATOM     12  C   UNL     1       0.545  12.882  17.824  1.00  0.00     0.066 C 
BRANCH  12  13
ATOM     13  C   UNL     1       1.284  13.306  16.569  1.00  0.00     0.140 C 
ATOM     14  O   UNL     1       1.890  14.368  16.548  1.00  0.00    -0.299 OA
BRANCH  13  15
ATOM     15  C   UNL     1       1.317  12.428  15.347  1.00  0.00     0.106 CG0
ATOM     16  G   UNL     1       2.663  11.742  15.237  1.00  0.00     0.000 G0
ENDBRANCH  13  15
ENDBRANCH  12  13
BRANCH  12  17
ATOM     17  C   UNL     1      -0.181  14.095  18.487  1.00  0.00    -0.006 C 
ATOM     18  C   UNL     1       0.402  14.507  19.850  1.00  0.00     0.008 C 
ATOM     19  C   UNL     1      -1.691  13.844  18.621  1.00  0.00     0.008 C 
ENDBRANCH  12  17
ENDBRANCH  11  12
ENDBRANCH   1  11
TORSDOF 1
ENDMDL
MODEL 2
REMARK VINA RESULT:    -3.369      3.658      6.640
REMARK INTER + INTRA:          -5.357
REMARK INTER:                  -5.054
REMARK INTRA:                  -0.303
REMARK UNBOUND:                -0.216
REMARK SMILES CC1=CCC[C@@H](C)C(=O)C[C@@H](C(C)C)C(=O)C1
REMARK SMILES IDX 8 1 9 2 6 3 7 4 5 5 4 6 3 7 2 8 1 9 10 11 11 12 15 13 16 14
REMARK SMILES IDX 17 15 12 17 13 18 14 19
REMARK H PARENT
REMARK Flexibility Score: 70.00
ROOT
ATOM      1  C   UNL     1       1.772  16.196  19.104  1.00  0.00     0.136 C 
ATOM      2  O   UNL     1       2.596  17.087  18.960  1.00  0.00    -0.299 OA
ENDROOT
BRANCH   1   3
ATOM      3  C   UNL     1       0.418  16.506  19.703  1.00  0.00     0.053 C 
ATOM      4  C   UNL     1      -0.383  17.372  18.723  1.00  0.00     0.016 C 
BRANCH   3   5
ATOM      5  C   UNL     1       0.520  17.210  21.077  1.00  0.00     0.015 C 
BRANCH   5   6
ATOM      6  C   UNL     1       0.505  16.239  22.273  1.00  0.00     0.028 C 
BRANCH   6   7
ATOM      7  C   UNL     1       1.897  15.995  22.810  1.00  0.00    -0.028 C 
ATOM      8  C   UNL     1       2.563  14.816  22.815  1.00  0.00    -0.070 CG0
ATOM      9  C   UNL     1       3.938  14.785  23.434  1.00  0.00     0.039 C 
ATOM     10  G   UNL     1       2.037  13.547  22.174  1.00  0.00     0.000 G0
ENDBRANCH   6   7
ENDBRANCH   5   6
ENDBRANCH   3   5
ENDBRANCH   1   3
BRANCH   1  11
ATOM     11  C   UNL     1       2.106  14.795  18.649  1.00  0.00     0.087 C 
BRANCH  11  12
ATOM     12  C   UNL     1       1.521  13.720  19.596  1.00  0.00     0.066 C 
BRANCH  12  13
ATOM     13  C   UNL     1       2.478  13.438  20.739  1.00  0.00     0.140 C 
ATOM     14  O   UNL     1       3.644  13.154  20.501  1.00  0.00    -0.299 OA
BRANCH  13  15
ATOM     15  C   UNL     1       2.033  13.531  22.173  1.00  0.00     0.106 CG0
ATOM     16  G   UNL     1       2.556  14.809  22.797  1.00  0.00     0.000 G0
ENDBRANCH  13  15
ENDBRANCH  12  13
BRANCH  12  17
ATOM     17  C   UNL     1       1.104  12.402  18.872  1.00  0.00    -0.006 C 
ATOM     18  C   UNL     1       1.858  12.143  17.556  1.00  0.00     0.008 C 
ATOM     19  C   UNL     1      -0.412  12.350  18.622  1.00  0.00     0.008 C 
ENDBRANCH  12  17
ENDBRANCH  11  12
ENDBRANCH   1  11
TORSDOF 1
ENDMDL
MODEL 3
REMARK VINA RESULT:    -3.330      3.889      6.697
REMARK INTER + INTRA:          -5.298
REMARK INTER:                  -5.153
REMARK INTRA:                  -0.146
REMARK UNBOUND:                -0.216
REMARK SMILES CC1=CCC[C@@H](C)C(=O)C[C@@H](C(C)C)C(=O)C1
REMARK SMILES IDX 8 1 9 2 6 3 7 4 5 5 4 6 3 7 2 8 1 9 10 11 11 12 15 13 16 14
REMARK SMILES IDX 17 15 12 17 13 18 14 19
REMARK H PARENT
REMARK Flexibility Score: 70.00
ROOT
ATOM      1  C   UNL     1       2.161  15.537  20.520  1.00  0.00     0.136 C 
ATOM      2  O   UNL     1       2.083  16.427  19.686  1.00  0.00    -0.299 OA
ENDROOT
BRANCH   1   3
ATOM      3  C   UNL     1       1.730  15.796  21.947  1.00  0.00     0.053 C 
ATOM      4  C   UNL     1       0.730  16.958  21.971  1.00  0.00     0.016 C 
BRANCH   3   5
ATOM      5  C   UNL     1       2.923  16.099  22.884  1.00  0.00     0.015 C 
BRANCH   5   6
ATOM      6  C   UNL     1       3.567  14.839  23.493  1.00  0.00     0.028 C 
BRANCH   6   7
ATOM      7  C   UNL     1       2.523  13.856  23.975  1.00  0.00    -0.028 C 
ATOM      8  C   UNL     1       2.184  12.687  23.382  1.00  0.00    -0.070 CG0
ATOM      9  C   UNL     1       1.087  11.869  24.015  1.00  0.00     0.039 C 
ATOM     10  G   UNL     1       2.888  12.123  22.164  1.00  0.00     0.000 G0
ENDBRANCH   6   7
ENDBRANCH   5   6
ENDBRANCH   3   5
ENDBRANCH   1   3
BRANCH   1  11
ATOM     11  C   UNL     1       2.657  14.172  20.105  1.00  0.00     0.087 C 
BRANCH  11  12
ATOM     12  C   UNL     1       1.533  13.109  20.139  1.00  0.00     0.066 C 
BRANCH  12  13
ATOM     13  C   UNL     1       1.927  11.944  21.026  1.00  0.00     0.140 C 
ATOM     14  O   UNL     1       1.475  10.829  20.805  1.00  0.00    -0.299 OA
BRANCH  13  15
ATOM     15  C   UNL     1       2.898  12.119  22.162  1.00  0.00     0.106 CG0
ATOM     16  G   UNL     1       2.183  12.684  23.373  1.00  0.00     0.000 G0
ENDBRANCH  13  15
ENDBRANCH  12  13
BRANCH  12  17
ATOM     17  C   UNL     1       1.090  12.617  18.725  1.00  0.00    -0.006 C 
ATOM     18  C   UNL     1       2.136  12.852  17.621  1.00  0.00     0.008 C 
ATOM     19  C   UNL     1      -0.254  13.234  18.308  1.00  0.00     0.008 C 
ENDBRANCH  12  17
ENDBRANCH  11  12
ENDBRANCH   1  11
TORSDOF 1
ENDMDL
MODEL 4
REMARK VINA RESULT:    -3.325      4.900      6.543
REMARK INTER + INTRA:          -5.290
REMARK INTER:                  -5.068
REMARK INTRA:                  -0.223
REMARK UNBOUND:                -0.216
REMARK SMILES CC1=CCC[C@@H](C)C(=O)C[C@@H](C(C)C)C(=O)C1
REMARK SMILES IDX 8 1 9 2 6 3 7 4 5 5 4 6 3 7 2 8 1 9 10 11 11 12 15 13 16 14
REMARK SMILES IDX 17 15 12 17 13 18 14 19
REMARK H PARENT
REMARK Flexibility Score: 70.00
ROOT
ATOM      1  C   UNL     1       3.082  14.606  23.502  1.00  0.00     0.136 C 
ATOM      2  O   UNL     1       2.955  15.692  24.049  1.00  0.00    -0.299 OA
ENDROOT
BRANCH   1   3
ATOM      3  C   UNL     1       3.676  13.440  24.262  1.00  0.00     0.053 C 
ATOM      4  C   UNL     1       4.605  12.651  23.334  1.00  0.00     0.016 C 
BRANCH   3   5
ATOM      5  C   UNL     1       2.598  12.506  24.860  1.00  0.00     0.015 C 
BRANCH   5   6
ATOM      6  C   UNL     1       2.403  11.199  24.067  1.00  0.00     0.028 C 
BRANCH   6   7
ATOM      7  C   UNL     1       0.948  10.964  23.729  1.00  0.00    -0.028 C 
ATOM      8  C   UNL     1       0.303  11.380  22.614  1.00  0.00    -0.070 CG0
ATOM      9  C   UNL     1      -1.166  11.065  22.490  1.00  0.00     0.039 C 
ATOM     10  G   UNL     1       0.986  12.080  21.456  1.00  0.00     0.000 G0
ENDBRANCH   6   7
ENDBRANCH   5   6
ENDBRANCH   3   5
ENDBRANCH   1   3
BRANCH   1  11
ATOM     11  C   UNL     1       2.610  14.431  22.078  1.00  0.00     0.087 C 
BRANCH  11  12
ATOM     12  C   UNL     1       1.093  14.697  21.931  1.00  0.00     0.066 C 
BRANCH  12  13
ATOM     13  C   UNL     1       0.397  13.496  21.320  1.00  0.00     0.140 C 
ATOM     14  O   UNL     1      -0.636  13.648  20.683  1.00  0.00    -0.299 OA
BRANCH  13  15
ATOM     15  C   UNL     1       0.970  12.110  21.450  1.00  0.00     0.106 CG0
ATOM     16  G   UNL     1       0.308  11.381  22.601  1.00  0.00     0.000 G0
ENDBRANCH  13  15
ENDBRANCH  12  13
BRANCH  12  17
ATOM     17  C   UNL     1       0.756  16.003  21.145  1.00  0.00    -0.006 C 
ATOM     18  C   UNL     1       1.926  16.554  20.310  1.00  0.00     0.008 C 
ATOM     19  C   UNL     1       0.220  17.101  22.077  1.00  0.00     0.008 C 
ENDBRANCH  12  17
ENDBRANCH  11  12
ENDBRANCH   1  11
TORSDOF 1
ENDMDL
MODEL 5
REMARK VINA RESULT:    -3.300      2.139      4.252
REMARK INTER + INTRA:          -5.253
REMARK INTER:                  -5.121
REMARK INTRA:                  -0.132
REMARK UNBOUND:                -0.216
REMARK SMILES CC1=CCC[C@@H](C)C(=O)C[C@@H](C(C)C)C(=O)C1
REMARK SMILES IDX 8 1 9 2 6 3 7 4 5 5 4 6 3 7 2 8 1 9 10 11 11 12 15 13 16 14
REMARK SMILES IDX 17 15 12 17 13 18 14 19
REMARK H PARENT
REMARK Flexibility Score: 70.00
ROOT
ATOM      1  C   UNL     1       2.255   9.333  17.293  1.00  0.00     0.136 C 
ATOM      2  O   UNL     1       3.198   8.769  16.757  1.00  0.00    -0.299 OA
ENDROOT
BRANCH   1   3
ATOM      3  C   UNL     1       1.614   8.732  18.525  1.00  0.00     0.053 C 
ATOM      4  C   UNL     1       0.200   8.253  18.176  1.00  0.00     0.016 C 
BRANCH   3   5
ATOM      5  C   UNL     1       1.565   9.719  19.714  1.00  0.00     0.015 C 
BRANCH   5   6
ATOM      6  C   UNL     1       0.137  10.127  20.123  1.00  0.00     0.028 C 
BRANCH   6   7
ATOM      7  C   UNL     1       0.079  11.565  20.587  1.00  0.00    -0.028 C 
ATOM      8  C   UNL     1       0.093  12.666  19.798  1.00  0.00    -0.070 CG0
ATOM      9  C   UNL     1       0.060  14.015  20.472  1.00  0.00     0.039 C 
ATOM     10  G   UNL     1       0.069  12.620  18.284  1.00  0.00     0.000 G0
ENDBRANCH   6   7
ENDBRANCH   5   6
ENDBRANCH   3   5
ENDBRANCH   1   3
BRANCH   1  11
ATOM     11  C   UNL     1       1.762  10.647  16.736  1.00  0.00     0.087 C 
BRANCH  11  12
ATOM     12  C   UNL     1       2.432  11.859  17.425  1.00  0.00     0.066 C 
BRANCH  12  13
ATOM     13  C   UNL     1       1.413  12.949  17.700  1.00  0.00     0.140 C 
ATOM     14  O   UNL     1       1.677  14.112  17.431  1.00  0.00    -0.299 OA
BRANCH  13  15
ATOM     15  C   UNL     1       0.058  12.626  18.269  1.00  0.00     0.106 CG0
ATOM     16  G   UNL     1       0.109  12.659  19.782  1.00  0.00     0.000 G0
ENDBRANCH  13  15
ENDBRANCH  12  13
BRANCH  12  17
ATOM     17  C   UNL     1       3.663  12.424  16.648  1.00  0.00    -0.006 C 
ATOM     18  C   UNL     1       3.652  12.111  15.141  1.00  0.00     0.008 C 
ATOM     19  C   UNL     1       4.988  11.950  17.268  1.00  0.00     0.008 C 
ENDBRANCH  12  17
ENDBRANCH  11  12
ENDBRANCH   1  11
TORSDOF 1
ENDMDL
MODEL 6
REMARK VINA RESULT:    -3.275      2.219      2.828
REMARK INTER + INTRA:          -5.214
REMARK INTER:                  -4.963
REMARK INTRA:                  -0.251
REMARK UNBOUND:                -0.216
REMARK SMILES CC1=CCC[C@@H](C)C(=O)C[C@@H](C(C)C)C(=O)C1
REMARK SMILES IDX 8 1 9 2 6 3 7 4 5 5 4 6 3 7 2 8 1 9 10 11 11 12 15 13 16 14
REMARK SMILES IDX 17 15 12 17 13 18 14 19
REMARK H PARENT
REMARK Flexibility Score: 70.00
ROOT
ATOM      1  C   UNL     1       0.189  10.072  19.965  1.00  0.00     0.136 C 
ATOM      2  O   UNL     1      -0.873  10.677  19.921  1.00  0.00    -0.299 OA
ENDROOT
BRANCH   1   3
ATOM      3  C   UNL     1       0.335   8.745  19.253  1.00  0.00     0.053 C 
ATOM      4  C   UNL     1       1.400   7.903  19.965  1.00  0.00     0.016 C 
BRANCH   3   5
ATOM      5  C   UNL     1       0.692   8.906  17.757  1.00  0.00     0.015 C 
BRANCH   5   6
ATOM      6  C   UNL     1       2.196   9.119  17.500  1.00  0.00     0.028 C 
BRANCH   6   7
ATOM      7  C   UNL     1       2.474  10.485  16.914  1.00  0.00    -0.028 C 
ATOM      8  C   UNL     1       3.048  11.533  17.552  1.00  0.00    -0.070 CG0
ATOM      9  C   UNL     1       3.203  12.824  16.788  1.00  0.00     0.039 C 
ATOM     10  G   UNL     1       3.604  11.461  18.959  1.00  0.00     0.000 G0
ENDBRANCH   6   7
ENDBRANCH   5   6
ENDBRANCH   3   5
ENDBRANCH   1   3
BRANCH   1  11
ATOM     11  C   UNL     1       1.358  10.677  20.705  1.00  0.00     0.087 C 
BRANCH  11  12
ATOM     12  C   UNL     1       1.526  12.184  20.396  1.00  0.00     0.066 C 
BRANCH  12  13
ATOM     13  C   UNL     1       2.910  12.465  19.845  1.00  0.00     0.140 C 
ATOM     14  O   UNL     1       3.487  13.501  20.144  1.00  0.00    -0.299 OA
BRANCH  13  15
ATOM     15  C   UNL     1       3.614  11.475  18.956  1.00  0.00     0.106 CG0
ATOM     16  G   UNL     1       3.046  11.542  17.553  1.00  0.00     0.000 G0
ENDBRANCH  13  15
ENDBRANCH  12  13
BRANCH  12  17
ATOM     17  C   UNL     1       1.202  13.115  21.607  1.00  0.00    -0.006 C 
ATOM     18  C   UNL     1       1.458  12.471  22.980  1.00  0.00     0.008 C 
ATOM     19  C   UNL     1      -0.239  13.646  21.542  1.00  0.00     0.008 C 
ENDBRANCH  12  17
ENDBRANCH  11  12
ENDBRANCH   1  11
TORSDOF 1
ENDMDL
MODEL 7
REMARK VINA RESULT:    -3.266      2.053      5.154
REMARK INTER + INTRA:          -5.201
REMARK INTER:                  -5.019
REMARK INTRA:                  -0.182
REMARK UNBOUND:                -0.216
REMARK SMILES CC1=CCC[C@@H](C)C(=O)C[C@@H](C(C)C)C(=O)C1
REMARK SMILES IDX 8 1 9 2 6 3 7 4 5 5 4 6 3 7 2 8 1 9 10 11 11 12 15 13 16 14
REMARK SMILES IDX 17 15 12 17 13 18 14 19
REMARK H PARENT
REMARK Flexibility Score: 70.00
ROOT
ATOM      1  C   UNL     1       2.838  12.320  16.205  1.00  0.00     0.136 C 
ATOM      2  O   UNL     1       3.529  12.259  15.198  1.00  0.00    -0.299 OA
ENDROOT
BRANCH   1   3
ATOM      3  C   UNL     1       1.541  13.099  16.187  1.00  0.00     0.053 C 
ATOM      4  C   UNL     1       0.766  12.762  14.909  1.00  0.00     0.016 C 
BRANCH   3   5
ATOM      5  C   UNL     1       1.761  14.626  16.291  1.00  0.00     0.015 C 
BRANCH   5   6
ATOM      6  C   UNL     1       1.766  15.154  17.739  1.00  0.00     0.028 C 
BRANCH   6   7
ATOM      7  C   UNL     1       0.624  14.579  18.545  1.00  0.00    -0.028 C 
ATOM      8  C   UNL     1       0.708  13.594  19.472  1.00  0.00    -0.070 CG0
ATOM      9  C   UNL     1      -0.567  13.145  20.140  1.00  0.00     0.039 C 
ATOM     10  G   UNL     1       2.013  12.971  19.923  1.00  0.00     0.000 G0
ENDBRANCH   6   7
ENDBRANCH   5   6
ENDBRANCH   3   5
ENDBRANCH   1   3
BRANCH   1  11
ATOM     11  C   UNL     1       3.273  11.584  17.450  1.00  0.00     0.087 C 
BRANCH  11  12
ATOM     12  C   UNL     1       2.074  10.971  18.212  1.00  0.00     0.066 C 
BRANCH  12  13
ATOM     13  C   UNL     1       2.027  11.487  19.637  1.00  0.00     0.140 C 
ATOM     14  O   UNL     1       2.018  10.698  20.572  1.00  0.00    -0.299 OA
BRANCH  13  15
ATOM     15  C   UNL     1       2.025  12.962  19.935  1.00  0.00     0.106 CG0
ATOM     16  G   UNL     1       0.728  13.586  19.460  1.00  0.00     0.000 G0
ENDBRANCH  13  15
ENDBRANCH  12  13
BRANCH  12  17
ATOM     17  C   UNL     1       2.037   9.411  18.177  1.00  0.00    -0.006 C 
ATOM     18  C   UNL     1       2.807   8.790  16.999  1.00  0.00     0.008 C 
ATOM     19  C   UNL     1       0.594   8.879  18.193  1.00  0.00     0.008 C 
ENDBRANCH  12  17
ENDBRANCH  11  12
ENDBRANCH   1  11
TORSDOF 1
ENDMDL
MODEL 8
REMARK VINA RESULT:    -3.229      2.856      5.208
REMARK INTER + INTRA:          -5.143
REMARK INTER:                  -4.823
REMARK INTRA:                  -0.321
REMARK UNBOUND:                -0.216
REMARK SMILES CC1=CCC[C@@H](C)C(=O)C[C@@H](C(C)C)C(=O)C1
REMARK SMILES IDX 8 1 9 2 6 3 7 4 5 5 4 6 3 7 2 8 1 9 10 11 11 12 15 13 16 14
REMARK SMILES IDX 17 15 12 17 13 18 14 19
REMARK H PARENT
REMARK Flexibility Score: 70.00
ROOT
ATOM      1  C   UNL     1       2.164  11.922  15.197  1.00  0.00     0.136 C 
ATOM      2  O   UNL     1       2.067  10.710  15.064  1.00  0.00    -0.299 OA
ENDROOT
BRANCH   1   3
ATOM      3  C   UNL     1       1.702  12.582  16.478  1.00  0.00     0.053 C 
ATOM      4  C   UNL     1       1.951  11.633  17.655  1.00  0.00     0.016 C 
BRANCH   3   5
ATOM      5  C   UNL     1       0.213  12.997  16.432  1.00  0.00     0.015 C 
BRANCH   5   6
ATOM      6  C   UNL     1      -0.095  14.082  15.382  1.00  0.00     0.028 C 
BRANCH   6   7
ATOM      7  C   UNL     1       0.496  15.418  15.771  1.00  0.00    -0.028 C 
ATOM      8  C   UNL     1       1.481  16.082  15.121  1.00  0.00    -0.070 CG0
ATOM      9  C   UNL     1       1.949  17.393  15.701  1.00  0.00     0.039 C 
ATOM     10  G   UNL     1       2.089  15.620  13.812  1.00  0.00     0.000 G0
ENDBRANCH   6   7
ENDBRANCH   5   6
ENDBRANCH   3   5
ENDBRANCH   1   3
BRANCH   1  11
ATOM     11  C   UNL     1       2.778  12.744  14.089  1.00  0.00     0.087 C 
BRANCH  11  12
ATOM     12  C   UNL     1       3.789  13.784  14.628  1.00  0.00     0.066 C 
BRANCH  12  13
ATOM     13  C   UNL     1       3.508  15.155  14.042  1.00  0.00     0.140 C 
ATOM     14  O   UNL     1       4.437  15.880  13.715  1.00  0.00    -0.299 OA
BRANCH  13  15
ATOM     15  C   UNL     1       2.100  15.636  13.818  1.00  0.00     0.106 CG0
ATOM     16  G   UNL     1       1.491  16.089  15.129  1.00  0.00     0.000 G0
ENDBRANCH  13  15
ENDBRANCH  12  13
BRANCH  12  17
ATOM     17  C   UNL     1       5.282  13.378  14.421  1.00  0.00    -0.006 C 
ATOM     18  C   UNL     1       5.542  12.580  13.131  1.00  0.00     0.008 C 
ATOM     19  C   UNL     1       5.831  12.605  15.630  1.00  0.00     0.008 C 
ENDBRANCH  12  17
ENDBRANCH  11  12
ENDBRANCH   1  11
TORSDOF 1
ENDMDL
MODEL 9
REMARK VINA RESULT:    -3.126      2.918      5.277
REMARK INTER + INTRA:          -4.987
REMARK INTER:                  -4.932
REMARK INTRA:                  -0.055
REMARK UNBOUND:                -0.216
REMARK SMILES CC1=CCC[C@@H](C)C(=O)C[C@@H](C(C)C)C(=O)C1
REMARK SMILES IDX 8 1 9 2 6 3 7 4 5 5 4 6 3 7 2 8 1 9 10 11 11 12 15 13 16 14
REMARK SMILES IDX 17 15 12 17 13 18 14 19
REMARK H PARENT
REMARK Flexibility Score: 70.00
ROOT
ATOM      1  C   UNL     1       0.637  15.000  19.532  1.00  0.00     0.136 C 
ATOM      2  O   UNL     1      -0.393  15.274  18.933  1.00  0.00    -0.299 OA
ENDROOT
BRANCH   1   3
ATOM      3  C   UNL     1       1.980  15.261  18.886  1.00  0.00     0.053 C 
ATOM      4  C   UNL     1       2.125  16.761  18.606  1.00  0.00     0.016 C 
BRANCH   3   5
ATOM      5  C   UNL     1       2.183  14.453  17.583  1.00  0.00     0.015 C 
BRANCH   5   6
ATOM      6  C   UNL     1       2.904  13.108  17.795  1.00  0.00     0.028 C 
BRANCH   6   7
ATOM      7  C   UNL     1       1.949  12.031  18.259  1.00  0.00    -0.028 C 
ATOM      8  C   UNL     1       1.955  11.415  19.465  1.00  0.00    -0.070 CG0
ATOM      9  C   UNL     1       0.928  10.339  19.712  1.00  0.00     0.039 C 
ATOM     10  G   UNL     1       2.886  11.791  20.600  1.00  0.00     0.000 G0
ENDBRANCH   6   7
ENDBRANCH   5   6
ENDBRANCH   3   5
ENDBRANCH   1   3
BRANCH   1  11
ATOM     11  C   UNL     1       0.556  14.433  20.929  1.00  0.00     0.087 C 
BRANCH  11  12
ATOM     12  C   UNL     1       1.953  14.096  21.503  1.00  0.00     0.066 C 
BRANCH  12  13
ATOM     13  C   UNL     1       2.127  12.595  21.637  1.00  0.00     0.140 C 
ATOM     14  O   UNL     1       1.630  12.006  22.586  1.00  0.00    -0.299 OA
BRANCH  13  15
ATOM     15  C   UNL     1       2.876  11.800  20.602  1.00  0.00     0.106 CG0
ATOM     16  G   UNL     1       1.944  11.408  19.473  1.00  0.00     0.000 G0
ENDBRANCH  13  15
ENDBRANCH  12  13
BRANCH  12  17
ATOM     17  C   UNL     1       2.273  14.822  22.847  1.00  0.00    -0.006 C 
ATOM     18  C   UNL     1       2.516  16.334  22.702  1.00  0.00     0.008 C 
ATOM     19  C   UNL     1       3.463  14.171  23.570  1.00  0.00     0.008 C 
ENDBRANCH  12  17
ENDBRANCH  11  12
ENDBRANCH   1  11
TORSDOF 1
ENDMDL
