MODEL 1
REMARK VINA RESULT:    -2.866      0.000      0.000
REMARK INTER + INTRA:          -4.758
REMARK INTER:                  -4.374
REMARK INTRA:                  -0.384
REMARK UNBOUND:                -0.384
REMARK SMILES CC1=CCC[C@H](C)C(=O)C[C@@H](C(C)C)C(=O)C1
REMARK SMILES IDX 8 1 9 2 6 3 7 4 5 5 4 6 3 7 2 8 1 9 10 11 11 12 15 13 16 14
REMARK SMILES IDX 17 15 12 17 13 18 14 19
REMARK H PARENT
REMARK Flexibility Score: 70.00
ROOT
ATOM      1  C   UNL     1     -28.163 -17.753  20.242  1.00  0.00     0.136 C 
ATOM      2  O   UNL     1     -28.153 -17.723  19.020  1.00  0.00    -0.299 OA
ENDROOT
BRANCH   1   3
ATOM      3  C   UNL     1     -26.985 -17.146  20.988  1.00  0.00     0.053 C 
ATOM      4  C   UNL     1     -27.114 -15.619  21.071  1.00  0.00     0.016 C 
BRANCH   3   5
ATOM      5  C   UNL     1     -26.790 -17.760  22.388  1.00  0.00     0.015 C 
BRANCH   5   6
ATOM      6  C   UNL     1     -27.120 -16.770  23.531  1.00  0.00     0.028 C 
BRANCH   6   7
ATOM      7  C   UNL     1     -27.770 -17.485  24.693  1.00  0.00    -0.028 C 
ATOM      8  C   UNL     1     -29.093 -17.461  24.987  1.00  0.00    -0.070 CG0
ATOM      9  C   UNL     1     -29.547 -18.128  26.261  1.00  0.00     0.039 C 
ATOM     10  G   UNL     1     -30.134 -16.805  24.092  1.00  0.00     0.000 G0
ENDBRANCH   6   7
ENDBRANCH   5   6
ENDBRANCH   3   5
ENDBRANCH   1   3
BRANCH   1  11
ATOM     11  C   UNL     1     -29.347 -18.396  20.938  1.00  0.00     0.087 C 
BRANCH  11  12
ATOM     12  C   UNL     1     -30.364 -17.364  21.499  1.00  0.00     0.066 C 
BRANCH  12  13
ATOM     13  C   UNL     1     -30.694 -17.623  22.966  1.00  0.00     0.140 C 
ATOM     14  O   UNL     1     -31.435 -18.555  23.246  1.00  0.00    -0.299 OA
BRANCH  13  15
ATOM     15  C   UNL     1     -30.152 -16.794  24.115  1.00  0.00     0.106 CG0
ATOM     16  G   UNL     1     -29.087 -17.465  24.969  1.00  0.00     0.000 G0
ENDBRANCH  13  15
ENDBRANCH  12  13
BRANCH  12  17
ATOM     17  C   UNL     1     -31.666 -17.227  20.648  1.00  0.00    -0.006 C 
ATOM     18  C   UNL     1     -32.017 -18.470  19.811  1.00  0.00     0.008 C 
ATOM     19  C   UNL     1     -31.625 -15.986  19.743  1.00  0.00     0.008 C 
ENDBRANCH  12  17
ENDBRANCH  11  12
ENDBRANCH   1  11
TORSDOF 1
ENDMDL
MODEL 2
REMARK VINA RESULT:    -2.788      3.218      6.490
REMARK INTER + INTRA:          -4.639
REMARK INTER:                  -4.343
REMARK INTRA:                  -0.296
REMARK UNBOUND:                -0.384
REMARK SMILES CC1=CCC[C@H](C)C(=O)C[C@@H](C(C)C)C(=O)C1
REMARK SMILES IDX 8 1 9 2 6 3 7 4 5 5 4 6 3 7 2 8 1 9 10 11 11 12 15 13 16 14
REMARK SMILES IDX 17 15 12 17 13 18 14 19
REMARK H PARENT
REMARK Flexibility Score: 70.00
ROOT
ATOM      1  C   UNL     1     -32.683 -15.324  27.276  1.00  0.00     0.136 C 
ATOM      2  O   UNL     1     -32.603 -14.697  28.323  1.00  0.00    -0.299 OA
ENDROOT
BRANCH   1   3
ATOM      3  C   UNL     1     -33.728 -14.894  26.257  1.00  0.00     0.053 C 
ATOM      4  C   UNL     1     -33.277 -13.636  25.503  1.00  0.00     0.016 C 
BRANCH   3   5
ATOM      5  C   UNL     1     -34.096 -16.024  25.274  1.00  0.00     0.015 C 
BRANCH   5   6
ATOM      6  C   UNL     1     -33.511 -15.805  23.859  1.00  0.00     0.028 C 
BRANCH   6   7
ATOM      7  C   UNL     1     -33.032 -17.110  23.265  1.00  0.00    -0.028 C 
ATOM      8  C   UNL     1     -31.736 -17.484  23.139  1.00  0.00    -0.070 CG0
ATOM      9  C   UNL     1     -31.439 -18.767  22.403  1.00  0.00     0.039 C 
ATOM     10  G   UNL     1     -30.576 -16.680  23.707  1.00  0.00     0.000 G0
ENDBRANCH   6   7
ENDBRANCH   5   6
ENDBRANCH   3   5
ENDBRANCH   1   3
BRANCH   1  11
ATOM     11  C   UNL     1     -31.738 -16.489  27.059  1.00  0.00     0.087 C 
BRANCH  11  12
ATOM     12  C   UNL     1     -30.434 -16.092  26.314  1.00  0.00     0.066 C 
BRANCH  12  13
ATOM     13  C   UNL     1     -30.155 -17.002  25.121  1.00  0.00     0.140 C 
ATOM     14  O   UNL     1     -29.567 -18.057  25.313  1.00  0.00    -0.299 OA
BRANCH  13  15
ATOM     15  C   UNL     1     -30.569 -16.684  23.697  1.00  0.00     0.106 CG0
ATOM     16  G   UNL     1     -31.726 -17.504  23.146  1.00  0.00     0.000 G0
ENDBRANCH  13  15
ENDBRANCH  12  13
BRANCH  12  17
ATOM     17  C   UNL     1     -29.181 -15.981  27.239  1.00  0.00    -0.006 C 
ATOM     18  C   UNL     1     -29.486 -16.087  28.744  1.00  0.00     0.008 C 
ATOM     19  C   UNL     1     -28.381 -14.699  26.960  1.00  0.00     0.008 C 
ENDBRANCH  12  17
ENDBRANCH  11  12
ENDBRANCH   1  11
TORSDOF 1
ENDMDL
MODEL 3
REMARK VINA RESULT:    -2.726      2.297      4.425
REMARK INTER + INTRA:          -4.544
REMARK INTER:                  -4.510
REMARK INTRA:                  -0.034
REMARK UNBOUND:                -0.384
REMARK SMILES CC1=CCC[C@H](C)C(=O)C[C@@H](C(C)C)C(=O)C1
REMARK SMILES IDX 8 1 9 2 6 3 7 4 5 5 4 6 3 7 2 8 1 9 10 11 11 12 15 13 16 14
REMARK SMILES IDX 17 15 12 17 13 18 14 19
REMARK H PARENT
REMARK Flexibility Score: 70.00
ROOT
ATOM      1  C   UNL     1     -26.965 -16.805  21.377  1.00  0.00     0.136 C 
ATOM      2  O   UNL     1     -26.622 -17.908  21.778  1.00  0.00    -0.299 OA
ENDROOT
BRANCH   1   3
ATOM      3  C   UNL     1     -28.140 -16.722  20.414  1.00  0.00     0.053 C 
ATOM      4  C   UNL     1     -27.717 -17.117  18.994  1.00  0.00     0.016 C 
BRANCH   3   5
ATOM      5  C   UNL     1     -29.349 -17.556  20.882  1.00  0.00     0.015 C 
BRANCH   5   6
ATOM      6  C   UNL     1     -30.088 -16.924  22.084  1.00  0.00     0.028 C 
BRANCH   6   7
ATOM      7  C   UNL     1     -29.641 -17.552  23.384  1.00  0.00    -0.028 C 
ATOM      8  C   UNL     1     -29.093 -16.884  24.429  1.00  0.00    -0.070 CG0
ATOM      9  C   UNL     1     -28.587 -17.692  25.597  1.00  0.00     0.039 C 
ATOM     10  G   UNL     1     -28.973 -15.368  24.479  1.00  0.00     0.000 G0
ENDBRANCH   6   7
ENDBRANCH   5   6
ENDBRANCH   3   5
ENDBRANCH   1   3
BRANCH   1  11
ATOM     11  C   UNL     1     -26.198 -15.591  21.863  1.00  0.00     0.087 C 
BRANCH  11  12
ATOM     12  C   UNL     1     -26.527 -15.205  23.332  1.00  0.00     0.066 C 
BRANCH  12  13
ATOM     13  C   UNL     1     -27.974 -14.749  23.495  1.00  0.00     0.140 C 
ATOM     14  O   UNL     1     -28.388 -13.843  22.786  1.00  0.00    -0.299 OA
BRANCH  13  15
ATOM     15  C   UNL     1     -28.946 -15.356  24.488  1.00  0.00     0.106 CG0
ATOM     16  G   UNL     1     -29.087 -16.870  24.434  1.00  0.00     0.000 G0
ENDBRANCH  13  15
ENDBRANCH  12  13
BRANCH  12  17
ATOM     17  C   UNL     1     -25.539 -14.166  23.952  1.00  0.00    -0.006 C 
ATOM     18  C   UNL     1     -24.366 -13.774  23.036  1.00  0.00     0.008 C 
ATOM     19  C   UNL     1     -25.001 -14.636  25.312  1.00  0.00     0.008 C 
ENDBRANCH  12  17
ENDBRANCH  11  12
ENDBRANCH   1  11
TORSDOF 1
ENDMDL
MODEL 4
REMARK VINA RESULT:    -2.691      1.505      2.117
REMARK INTER + INTRA:          -4.492
REMARK INTER:                  -4.432
REMARK INTRA:                  -0.059
REMARK UNBOUND:                -0.384
REMARK SMILES CC1=CCC[C@H](C)C(=O)C[C@@H](C(C)C)C(=O)C1
REMARK SMILES IDX 8 1 9 2 6 3 7 4 5 5 4 6 3 7 2 8 1 9 10 11 11 12 15 13 16 14
REMARK SMILES IDX 17 15 12 17 13 18 14 19
REMARK H PARENT
REMARK Flexibility Score: 70.00
ROOT
ATOM      1  C   UNL     1     -28.782 -17.980  20.476  1.00  0.00     0.136 C 
ATOM      2  O   UNL     1     -28.094 -17.877  19.471  1.00  0.00    -0.299 OA
ENDROOT
BRANCH   1   3
ATOM      3  C   UNL     1     -28.270 -17.361  21.767  1.00  0.00     0.053 C 
ATOM      4  C   UNL     1     -26.840 -17.823  22.071  1.00  0.00     0.016 C 
BRANCH   3   5
ATOM      5  C   UNL     1     -28.363 -15.822  21.763  1.00  0.00     0.015 C 
BRANCH   5   6
ATOM      6  C   UNL     1     -29.665 -15.294  22.410  1.00  0.00     0.028 C 
BRANCH   6   7
ATOM      7  C   UNL     1     -29.915 -15.962  23.743  1.00  0.00    -0.028 C 
ATOM      8  C   UNL     1     -31.031 -16.657  24.073  1.00  0.00    -0.070 CG0
ATOM      9  C   UNL     1     -31.164 -17.146  25.494  1.00  0.00     0.039 C 
ATOM     10  G   UNL     1     -32.142 -16.970  23.083  1.00  0.00     0.000 G0
ENDBRANCH   6   7
ENDBRANCH   5   6
ENDBRANCH   3   5
ENDBRANCH   1   3
BRANCH   1  11
ATOM     11  C   UNL     1     -30.102 -18.720  20.373  1.00  0.00     0.087 C 
BRANCH  11  12
ATOM     12  C   UNL     1     -31.334 -17.825  20.683  1.00  0.00     0.066 C 
BRANCH  12  13
ATOM     13  C   UNL     1     -31.889 -18.078  22.081  1.00  0.00     0.140 C 
ATOM     14  O   UNL     1     -32.120 -19.230  22.423  1.00  0.00    -0.299 OA
BRANCH  13  15
ATOM     15  C   UNL     1     -32.173 -16.982  23.091  1.00  0.00     0.106 CG0
ATOM     16  G   UNL     1     -31.039 -16.662  24.054  1.00  0.00     0.000 G0
ENDBRANCH  13  15
ENDBRANCH  12  13
BRANCH  12  17
ATOM     17  C   UNL     1     -32.464 -17.906  19.608  1.00  0.00    -0.006 C 
ATOM     18  C   UNL     1     -33.737 -17.115  19.959  1.00  0.00     0.008 C 
ATOM     19  C   UNL     1     -32.831 -19.362  19.279  1.00  0.00     0.008 C 
ENDBRANCH  12  17
ENDBRANCH  11  12
ENDBRANCH   1  11
TORSDOF 1
ENDMDL
MODEL 5
REMARK VINA RESULT:    -2.682      2.842      5.524
REMARK INTER + INTRA:          -4.477
REMARK INTER:                  -4.466
REMARK INTRA:                  -0.010
REMARK UNBOUND:                -0.384
REMARK SMILES CC1=CCC[C@H](C)C(=O)C[C@@H](C(C)C)C(=O)C1
REMARK SMILES IDX 8 1 9 2 6 3 7 4 5 5 4 6 3 7 2 8 1 9 10 11 11 12 15 13 16 14
REMARK SMILES IDX 17 15 12 17 13 18 14 19
REMARK H PARENT
REMARK Flexibility Score: 70.00
ROOT
ATOM      1  C   UNL     1     -28.922 -17.335  24.854  1.00  0.00     0.136 C 
ATOM      2  O   UNL     1     -28.011 -18.151  24.829  1.00  0.00    -0.299 OA
ENDROOT
BRANCH   1   3
ATOM      3  C   UNL     1     -29.737 -17.126  23.587  1.00  0.00     0.053 C 
ATOM      4  C   UNL     1     -28.825 -16.995  22.361  1.00  0.00     0.016 C 
BRANCH   3   5
ATOM      5  C   UNL     1     -30.793 -18.229  23.374  1.00  0.00     0.015 C 
BRANCH   5   6
ATOM      6  C   UNL     1     -32.243 -17.705  23.489  1.00  0.00     0.028 C 
BRANCH   6   7
ATOM      7  C   UNL     1     -32.293 -16.206  23.299  1.00  0.00    -0.028 C 
ATOM      8  C   UNL     1     -32.591 -15.304  24.266  1.00  0.00    -0.070 CG0
ATOM      9  C   UNL     1     -32.720 -13.856  23.865  1.00  0.00     0.039 C 
ATOM     10  G   UNL     1     -32.791 -15.681  25.726  1.00  0.00     0.000 G0
ENDBRANCH   6   7
ENDBRANCH   5   6
ENDBRANCH   3   5
ENDBRANCH   1   3
BRANCH   1  11
ATOM     11  C   UNL     1     -29.181 -16.584  26.145  1.00  0.00     0.087 C 
BRANCH  11  12
ATOM     12  C   UNL     1     -30.589 -16.857  26.743  1.00  0.00     0.066 C 
BRANCH  12  13
ATOM     13  C   UNL     1     -31.521 -15.659  26.584  1.00  0.00     0.140 C 
ATOM     14  O   UNL     1     -31.248 -14.621  27.170  1.00  0.00    -0.299 OA
BRANCH  13  15
ATOM     15  C   UNL     1     -32.777 -15.670  25.733  1.00  0.00     0.106 CG0
ATOM     16  G   UNL     1     -32.585 -15.310  24.268  1.00  0.00     0.000 G0
ENDBRANCH  13  15
ENDBRANCH  12  13
BRANCH  12  17
ATOM     17  C   UNL     1     -30.565 -17.356  28.223  1.00  0.00    -0.006 C 
ATOM     18  C   UNL     1     -31.814 -16.984  29.042  1.00  0.00     0.008 C 
ATOM     19  C   UNL     1     -29.302 -16.886  28.960  1.00  0.00     0.008 C 
ENDBRANCH  12  17
ENDBRANCH  11  12
ENDBRANCH   1  11
TORSDOF 1
ENDMDL
MODEL 6
REMARK VINA RESULT:    -2.668      2.614      3.776
REMARK INTER + INTRA:          -4.456
REMARK INTER:                  -4.152
REMARK INTRA:                  -0.304
REMARK UNBOUND:                -0.384
REMARK SMILES CC1=CCC[C@H](C)C(=O)C[C@@H](C(C)C)C(=O)C1
REMARK SMILES IDX 8 1 9 2 6 3 7 4 5 5 4 6 3 7 2 8 1 9 10 11 11 12 15 13 16 14
REMARK SMILES IDX 17 15 12 17 13 18 14 19
REMARK H PARENT
REMARK Flexibility Score: 70.00
ROOT
ATOM      1  C   UNL     1     -28.540 -17.424  20.944  1.00  0.00     0.136 C 
ATOM      2  O   UNL     1     -28.188 -18.424  20.335  1.00  0.00    -0.299 OA
ENDROOT
BRANCH   1   3
ATOM      3  C   UNL     1     -27.736 -16.147  20.758  1.00  0.00     0.053 C 
ATOM      4  C   UNL     1     -26.300 -16.320  21.269  1.00  0.00     0.016 C 
BRANCH   3   5
ATOM      5  C   UNL     1     -27.745 -15.648  19.299  1.00  0.00     0.015 C 
BRANCH   5   6
ATOM      6  C   UNL     1     -28.850 -14.600  19.028  1.00  0.00     0.028 C 
BRANCH   6   7
ATOM      7  C   UNL     1     -29.131 -13.778  20.264  1.00  0.00    -0.028 C 
ATOM      8  C   UNL     1     -30.308 -13.750  20.935  1.00  0.00    -0.070 CG0
ATOM      9  C   UNL     1     -30.449 -12.772  22.075  1.00  0.00     0.039 C 
ATOM     10  G   UNL     1     -31.482 -14.658  20.599  1.00  0.00     0.000 G0
ENDBRANCH   6   7
ENDBRANCH   5   6
ENDBRANCH   3   5
ENDBRANCH   1   3
BRANCH   1  11
ATOM     11  C   UNL     1     -29.755 -17.521  21.846  1.00  0.00     0.087 C 
BRANCH  11  12
ATOM     12  C   UNL     1     -31.093 -17.256  21.105  1.00  0.00     0.066 C 
BRANCH  12  13
ATOM     13  C   UNL     1     -31.681 -15.891  21.453  1.00  0.00     0.140 C 
ATOM     14  O   UNL     1     -32.330 -15.776  22.483  1.00  0.00    -0.299 OA
BRANCH  13  15
ATOM     15  C   UNL     1     -31.509 -14.651  20.596  1.00  0.00     0.106 CG0
ATOM     16  G   UNL     1     -30.316 -13.771  20.940  1.00  0.00     0.000 G0
ENDBRANCH  13  15
ENDBRANCH  12  13
BRANCH  12  17
ATOM     17  C   UNL     1     -32.156 -18.386  21.287  1.00  0.00    -0.006 C 
ATOM     18  C   UNL     1     -31.975 -19.234  22.558  1.00  0.00     0.008 C 
ATOM     19  C   UNL     1     -32.225 -19.303  20.056  1.00  0.00     0.008 C 
ENDBRANCH  12  17
ENDBRANCH  11  12
ENDBRANCH   1  11
TORSDOF 1
ENDMDL
MODEL 7
REMARK VINA RESULT:    -2.554      2.028      4.251
REMARK INTER + INTRA:          -4.283
REMARK INTER:                  -3.943
REMARK INTRA:                  -0.339
REMARK UNBOUND:                -0.384
REMARK SMILES CC1=CCC[C@H](C)C(=O)C[C@@H](C(C)C)C(=O)C1
REMARK SMILES IDX 8 1 9 2 6 3 7 4 5 5 4 6 3 7 2 8 1 9 10 11 11 12 15 13 16 14
REMARK SMILES IDX 17 15 12 17 13 18 14 19
REMARK H PARENT
REMARK Flexibility Score: 70.00
ROOT
ATOM      1  C   UNL     1     -30.227 -17.983  20.726  1.00  0.00     0.136 C 
ATOM      2  O   UNL     1     -29.528 -18.641  19.968  1.00  0.00    -0.299 OA
ENDROOT
BRANCH   1   3
ATOM      3  C   UNL     1     -31.613 -18.509  21.067  1.00  0.00     0.053 C 
ATOM      4  C   UNL     1     -31.538 -19.603  22.139  1.00  0.00     0.016 C 
BRANCH   3   5
ATOM      5  C   UNL     1     -32.584 -17.388  21.490  1.00  0.00     0.015 C 
BRANCH   5   6
ATOM      6  C   UNL     1     -32.891 -17.397  23.006  1.00  0.00     0.028 C 
BRANCH   6   7
ATOM      7  C   UNL     1     -32.875 -15.995  23.568  1.00  0.00    -0.028 C 
ATOM      8  C   UNL     1     -31.893 -15.473  24.343  1.00  0.00    -0.070 CG0
ATOM      9  C   UNL     1     -32.106 -14.097  24.923  1.00  0.00     0.039 C 
ATOM     10  G   UNL     1     -30.593 -16.203  24.646  1.00  0.00     0.000 G0
ENDBRANCH   6   7
ENDBRANCH   5   6
ENDBRANCH   3   5
ENDBRANCH   1   3
BRANCH   1  11
ATOM     11  C   UNL     1     -29.669 -16.686  21.277  1.00  0.00     0.087 C 
BRANCH  11  12
ATOM     12  C   UNL     1     -28.937 -16.860  22.636  1.00  0.00     0.066 C 
BRANCH  12  13
ATOM     13  C   UNL     1     -29.448 -15.885  23.692  1.00  0.00     0.140 C 
ATOM     14  O   UNL     1     -28.920 -14.785  23.781  1.00  0.00    -0.299 OA
BRANCH  13  15
ATOM     15  C   UNL     1     -30.585 -16.191  24.648  1.00  0.00     0.106 CG0
ATOM     16  G   UNL     1     -31.895 -15.469  24.370  1.00  0.00     0.000 G0
ENDBRANCH  13  15
ENDBRANCH  12  13
BRANCH  12  17
ATOM     17  C   UNL     1     -27.379 -16.806  22.530  1.00  0.00    -0.006 C 
ATOM     18  C   UNL     1     -26.843 -16.562  21.109  1.00  0.00     0.008 C 
ATOM     19  C   UNL     1     -26.726 -18.064  23.123  1.00  0.00     0.008 C 
ENDBRANCH  12  17
ENDBRANCH  11  12
ENDBRANCH   1  11
TORSDOF 1
ENDMDL
MODEL 8
REMARK VINA RESULT:    -2.534      5.162      7.264
REMARK INTER + INTRA:          -4.251
REMARK INTER:                  -3.943
REMARK INTRA:                  -0.308
REMARK UNBOUND:                -0.384
REMARK SMILES CC1=CCC[C@H](C)C(=O)C[C@@H](C(C)C)C(=O)C1
REMARK SMILES IDX 8 1 9 2 6 3 7 4 5 5 4 6 3 7 2 8 1 9 10 11 11 12 15 13 16 14
REMARK SMILES IDX 17 15 12 17 13 18 14 19
REMARK H PARENT
REMARK Flexibility Score: 70.00
ROOT
ATOM      1  C   UNL     1     -29.295 -16.413  28.026  1.00  0.00     0.136 C 
ATOM      2  O   UNL     1     -28.789 -16.712  29.098  1.00  0.00    -0.299 OA
ENDROOT
BRANCH   1   3
ATOM      3  C   UNL     1     -30.684 -16.946  27.711  1.00  0.00     0.053 C 
ATOM      4  C   UNL     1     -30.689 -18.480  27.665  1.00  0.00     0.016 C 
BRANCH   3   5
ATOM      5  C   UNL     1     -31.756 -16.421  28.687  1.00  0.00     0.015 C 
BRANCH   5   6
ATOM      6  C   UNL     1     -32.361 -15.067  28.246  1.00  0.00     0.028 C 
BRANCH   6   7
ATOM      7  C   UNL     1     -32.667 -15.069  26.766  1.00  0.00    -0.028 C 
ATOM      8  C   UNL     1     -32.187 -14.177  25.865  1.00  0.00    -0.070 CG0
ATOM      9  C   UNL     1     -32.702 -14.254  24.450  1.00  0.00     0.039 C 
ATOM     10  G   UNL     1     -31.155 -13.115  26.213  1.00  0.00     0.000 G0
ENDBRANCH   6   7
ENDBRANCH   5   6
ENDBRANCH   3   5
ENDBRANCH   1   3
BRANCH   1  11
ATOM     11  C   UNL     1     -28.506 -15.531  27.078  1.00  0.00     0.087 C 
BRANCH  11  12
ATOM     12  C   UNL     1     -28.843 -14.022  27.219  1.00  0.00     0.066 C 
BRANCH  12  13
ATOM     13  C   UNL     1     -29.699 -13.514  26.062  1.00  0.00     0.140 C 
ATOM     14  O   UNL     1     -29.196 -13.435  24.950  1.00  0.00    -0.299 OA
BRANCH  13  15
ATOM     15  C   UNL     1     -31.152 -13.100  26.201  1.00  0.00     0.106 CG0
ATOM     16  G   UNL     1     -32.179 -14.174  25.877  1.00  0.00     0.000 G0
ENDBRANCH  13  15
ENDBRANCH  12  13
BRANCH  12  17
ATOM     17  C   UNL     1     -27.594 -13.109  27.434  1.00  0.00    -0.006 C 
ATOM     18  C   UNL     1     -26.307 -13.619  26.764  1.00  0.00     0.008 C 
ATOM     19  C   UNL     1     -27.334 -12.846  28.926  1.00  0.00     0.008 C 
ENDBRANCH  12  17
ENDBRANCH  11  12
ENDBRANCH   1  11
TORSDOF 1
ENDMDL
MODEL 9
REMARK VINA RESULT:    -2.504      2.160      4.354
REMARK INTER + INTRA:          -4.206
REMARK INTER:                  -3.931
REMARK INTRA:                  -0.275
REMARK UNBOUND:                -0.384
REMARK SMILES CC1=CCC[C@H](C)C(=O)C[C@@H](C(C)C)C(=O)C1
REMARK SMILES IDX 8 1 9 2 6 3 7 4 5 5 4 6 3 7 2 8 1 9 10 11 11 12 15 13 16 14
REMARK SMILES IDX 17 15 12 17 13 18 14 19
REMARK H PARENT
REMARK Flexibility Score: 70.00
ROOT
ATOM      1  C   UNL     1     -28.028 -16.582  24.032  1.00  0.00     0.136 C 
ATOM      2  O   UNL     1     -27.332 -17.400  24.618  1.00  0.00    -0.299 OA
ENDROOT
BRANCH   1   3
ATOM      3  C   UNL     1     -27.687 -16.251  22.587  1.00  0.00     0.053 C 
ATOM      4  C   UNL     1     -26.243 -15.746  22.463  1.00  0.00     0.016 C 
BRANCH   3   5
ATOM      5  C   UNL     1     -27.942 -17.434  21.632  1.00  0.00     0.015 C 
BRANCH   5   6
ATOM      6  C   UNL     1     -29.155 -17.205  20.700  1.00  0.00     0.028 C 
BRANCH   6   7
ATOM      7  C   UNL     1     -30.276 -18.165  21.028  1.00  0.00    -0.028 C 
ATOM      8  C   UNL     1     -31.270 -17.932  21.920  1.00  0.00    -0.070 CG0
ATOM      9  C   UNL     1     -32.232 -19.055  22.215  1.00  0.00     0.039 C 
ATOM     10  G   UNL     1     -31.463 -16.597  22.624  1.00  0.00     0.000 G0
ENDBRANCH   6   7
ENDBRANCH   5   6
ENDBRANCH   3   5
ENDBRANCH   1   3
BRANCH   1  11
ATOM     11  C   UNL     1     -29.185 -15.951  24.781  1.00  0.00     0.087 C 
BRANCH  11  12
ATOM     12  C   UNL     1     -30.356 -16.936  25.046  1.00  0.00     0.066 C 
BRANCH  12  13
ATOM     13  C   UNL     1     -31.554 -16.658  24.144  1.00  0.00     0.140 C 
ATOM     14  O   UNL     1     -32.647 -16.471  24.660  1.00  0.00    -0.299 OA
BRANCH  13  15
ATOM     15  C   UNL     1     -31.478 -16.594  22.630  1.00  0.00     0.106 CG0
ATOM     16  G   UNL     1     -31.271 -17.924  21.922  1.00  0.00     0.000 G0
ENDBRANCH  13  15
ENDBRANCH  12  13
BRANCH  12  17
ATOM     17  C   UNL     1     -30.790 -17.019  26.545  1.00  0.00    -0.006 C 
ATOM     18  C   UNL     1     -30.297 -15.852  27.418  1.00  0.00     0.008 C 
ATOM     19  C   UNL     1     -30.378 -18.355  27.182  1.00  0.00     0.008 C 
ENDBRANCH  12  17
ENDBRANCH  11  12
ENDBRANCH   1  11
TORSDOF 1
ENDMDL
