MODEL 1
REMARK VINA RESULT:    -3.686      0.000      0.000
REMARK INTER + INTRA:          -4.846
REMARK INTER:                  -4.764
REMARK INTRA:                  -0.082
REMARK UNBOUND:                -0.082
REMARK SMILES CCCCCCC(=O)[O-]
REMARK SMILES IDX 5 1 6 2 7 3 8 4 9 5 4 6 3 7 2 8 1 9
REMARK H PARENT
REMARK Flexibility Score: inf
ROOT
ATOM      1  C   UNL     1      12.852  -9.031  -3.772  1.00  0.00     0.006 C 
ENDROOT
BRANCH   1   2
ATOM      2  C   UNL     1      13.195  -7.720  -3.055  1.00  0.00     0.053 C 
BRANCH   2   3
ATOM      3  C   UNL     1      14.433  -7.884  -2.230  1.00  0.00     0.041 C 
ATOM      4  O   UNL     1      15.531  -8.161  -2.782  1.00  0.00    -0.550 OA
ATOM      5  O   UNL     1      14.363  -7.781  -0.847  1.00  0.00    -0.550 OA
ENDBRANCH   2   3
ENDBRANCH   1   2
BRANCH   1   6
ATOM      6  C   UNL     1      12.081  -8.803  -5.083  1.00  0.00     0.000 C 
BRANCH   6   7
ATOM      7  C   UNL     1      12.203  -9.990  -6.054  1.00  0.00    -0.000 C 
BRANCH   7   8
ATOM      8  C   UNL     1      12.047  -9.567  -7.523  1.00  0.00    -0.003 C 
ATOM      9  C   UNL     1      10.602  -9.656  -8.013  1.00  0.00     0.004 C 
ENDBRANCH   7   8
ENDBRANCH   6   7
ENDBRANCH   1   6
TORSDOF 5
ENDMDL
MODEL 2
REMARK VINA RESULT:    -3.669      4.045      5.884
REMARK INTER + INTRA:          -4.824
REMARK INTER:                  -4.697
REMARK INTRA:                  -0.126
REMARK UNBOUND:                -0.082
REMARK SMILES CCCCCCC(=O)[O-]
REMARK SMILES IDX 5 1 6 2 7 3 8 4 9 5 4 6 3 7 2 8 1 9
REMARK H PARENT
REMARK Flexibility Score: inf
ROOT
ATOM      1  C   UNL     1      12.198 -10.021  -6.274  1.00  0.00     0.006 C 
ENDROOT
BRANCH   1   2
ATOM      2  C   UNL     1      11.872  -9.711  -7.740  1.00  0.00     0.053 C 
BRANCH   2   3
ATOM      3  C   UNL     1      10.433 -10.003  -8.028  1.00  0.00     0.041 C 
ATOM      4  O   UNL     1       9.678  -9.097  -8.468  1.00  0.00    -0.550 OA
ATOM      5  O   UNL     1       9.914 -11.264  -7.762  1.00  0.00    -0.550 OA
ENDBRANCH   2   3
ENDBRANCH   1   2
BRANCH   1   6
ATOM      6  C   UNL     1      11.796  -8.879  -5.326  1.00  0.00     0.000 C 
BRANCH   6   7
ATOM      7  C   UNL     1      12.598  -8.891  -4.013  1.00  0.00    -0.000 C 
BRANCH   7   8
ATOM      8  C   UNL     1      12.715  -7.495  -3.382  1.00  0.00    -0.003 C 
ATOM      9  C   UNL     1      13.880  -7.387  -2.399  1.00  0.00     0.004 C 
ENDBRANCH   7   8
ENDBRANCH   6   7
ENDBRANCH   1   6
TORSDOF 5
ENDMDL
MODEL 3
REMARK VINA RESULT:    -3.660     13.245     13.944
REMARK INTER + INTRA:          -4.813
REMARK INTER:                  -4.672
REMARK INTRA:                  -0.140
REMARK UNBOUND:                -0.082
REMARK SMILES CCCCCCC(=O)[O-]
REMARK SMILES IDX 5 1 6 2 7 3 8 4 9 5 4 6 3 7 2 8 1 9
REMARK H PARENT
REMARK Flexibility Score: inf
ROOT
ATOM      1  C   UNL     1       6.528 -15.453   4.755  1.00  0.00     0.006 C 
ENDROOT
BRANCH   1   2
ATOM      2  C   UNL     1       7.460 -15.956   5.865  1.00  0.00     0.053 C 
BRANCH   2   3
ATOM      3  C   UNL     1       8.033 -14.804   6.627  1.00  0.00     0.041 C 
ATOM      4  O   UNL     1       7.576 -13.642   6.460  1.00  0.00    -0.550 OA
ATOM      5  O   UNL     1       9.105 -15.005   7.487  1.00  0.00    -0.550 OA
ENDBRANCH   2   3
ENDBRANCH   1   2
BRANCH   1   6
ATOM      6  C   UNL     1       5.801 -16.598   4.031  1.00  0.00     0.000 C 
BRANCH   6   7
ATOM      7  C   UNL     1       4.282 -16.579   4.272  1.00  0.00    -0.000 C 
BRANCH   7   8
ATOM      8  C   UNL     1       3.579 -17.819   3.698  1.00  0.00    -0.003 C 
ATOM      9  C   UNL     1       4.517 -19.018   3.561  1.00  0.00     0.004 C 
ENDBRANCH   7   8
ENDBRANCH   6   7
ENDBRANCH   1   6
TORSDOF 5
ENDMDL
MODEL 4
REMARK VINA RESULT:    -3.638     10.054     11.474
REMARK INTER + INTRA:          -4.784
REMARK INTER:                  -4.657
REMARK INTRA:                  -0.127
REMARK UNBOUND:                -0.082
REMARK SMILES CCCCCCC(=O)[O-]
REMARK SMILES IDX 5 1 6 2 7 3 8 4 9 5 4 6 3 7 2 8 1 9
REMARK H PARENT
REMARK Flexibility Score: inf
ROOT
ATOM      1  C   UNL     1      10.124 -11.541   5.378  1.00  0.00     0.006 C 
ENDROOT
BRANCH   1   2
ATOM      2  C   UNL     1       9.664 -12.996   5.530  1.00  0.00     0.053 C 
BRANCH   2   3
ATOM      3  C   UNL     1       8.585 -13.098   6.562  1.00  0.00     0.041 C 
ATOM      4  O   UNL     1       7.887 -12.090   6.852  1.00  0.00    -0.550 OA
ATOM      5  O   UNL     1       8.385 -14.293   7.241  1.00  0.00    -0.550 OA
ENDBRANCH   2   3
ENDBRANCH   1   2
BRANCH   1   6
ATOM      6  C   UNL     1      11.470 -11.421   4.646  1.00  0.00     0.000 C 
BRANCH   6   7
ATOM      7  C   UNL     1      12.456 -10.490   5.372  1.00  0.00    -0.000 C 
BRANCH   7   8
ATOM      8  C   UNL     1      13.129  -9.488   4.420  1.00  0.00    -0.003 C 
ATOM      9  C   UNL     1      12.186  -8.368   3.981  1.00  0.00     0.004 C 
ENDBRANCH   7   8
ENDBRANCH   6   7
ENDBRANCH   1   6
TORSDOF 5
ENDMDL
MODEL 5
REMARK VINA RESULT:    -3.634     11.210     12.536
REMARK INTER + INTRA:          -4.779
REMARK INTER:                  -4.661
REMARK INTRA:                  -0.118
REMARK UNBOUND:                -0.082
REMARK SMILES CCCCCCC(=O)[O-]
REMARK SMILES IDX 5 1 6 2 7 3 8 4 9 5 4 6 3 7 2 8 1 9
REMARK H PARENT
REMARK Flexibility Score: inf
ROOT
ATOM      1  C   UNL     1       4.418 -16.151  -5.783  1.00  0.00     0.006 C 
ENDROOT
BRANCH   1   2
ATOM      2  C   UNL     1       5.677 -15.739  -6.555  1.00  0.00     0.053 C 
BRANCH   2   3
ATOM      3  C   UNL     1       5.311 -14.909  -7.746  1.00  0.00     0.041 C 
ATOM      4  O   UNL     1       4.195 -14.327  -7.795  1.00  0.00    -0.550 OA
ATOM      5  O   UNL     1       6.182 -14.819  -8.824  1.00  0.00    -0.550 OA
ENDBRANCH   2   3
ENDBRANCH   1   2
BRANCH   1   6
ATOM      6  C   UNL     1       4.693 -17.261  -4.756  1.00  0.00     0.000 C 
BRANCH   6   7
ATOM      7  C   UNL     1       3.625 -18.368  -4.782  1.00  0.00    -0.000 C 
BRANCH   7   8
ATOM      8  C   UNL     1       3.208 -18.818  -3.373  1.00  0.00    -0.003 C 
ATOM      9  C   UNL     1       2.113 -17.937  -2.772  1.00  0.00     0.004 C 
ENDBRANCH   7   8
ENDBRANCH   6   7
ENDBRANCH   1   6
TORSDOF 5
ENDMDL
MODEL 6
REMARK VINA RESULT:    -3.621      9.542     11.041
REMARK INTER + INTRA:          -4.761
REMARK INTER:                  -4.647
REMARK INTRA:                  -0.115
REMARK UNBOUND:                -0.082
REMARK SMILES CCCCCCC(=O)[O-]
REMARK SMILES IDX 5 1 6 2 7 3 8 4 9 5 4 6 3 7 2 8 1 9
REMARK H PARENT
REMARK Flexibility Score: inf
ROOT
ATOM      1  C   UNL     1      10.651 -11.155   4.863  1.00  0.00     0.006 C 
ENDROOT
BRANCH   1   2
ATOM      2  C   UNL     1      12.063 -11.002   5.440  1.00  0.00     0.053 C 
BRANCH   2   3
ATOM      3  C   UNL     1      12.799  -9.906   4.735  1.00  0.00     0.041 C 
ATOM      4  O   UNL     1      14.045  -9.984   4.567  1.00  0.00    -0.550 OA
ATOM      5  O   UNL     1      12.116  -8.774   4.309  1.00  0.00    -0.550 OA
ENDBRANCH   2   3
ENDBRANCH   1   2
BRANCH   1   6
ATOM      6  C   UNL     1       9.955 -12.441   5.340  1.00  0.00     0.000 C 
BRANCH   6   7
ATOM      7  C   UNL     1       8.760 -12.156   6.266  1.00  0.00    -0.000 C 
BRANCH   7   8
ATOM      8  C   UNL     1       7.997 -13.433   6.652  1.00  0.00    -0.003 C 
ATOM      9  C   UNL     1       8.927 -14.571   7.072  1.00  0.00     0.004 C 
ENDBRANCH   7   8
ENDBRANCH   6   7
ENDBRANCH   1   6
TORSDOF 5
ENDMDL
MODEL 7
REMARK VINA RESULT:    -3.611      7.113      8.587
REMARK INTER + INTRA:          -4.749
REMARK INTER:                  -4.626
REMARK INTRA:                  -0.123
REMARK UNBOUND:                -0.082
REMARK SMILES CCCCCCC(=O)[O-]
REMARK SMILES IDX 5 1 6 2 7 3 8 4 9 5 4 6 3 7 2 8 1 9
REMARK H PARENT
REMARK Flexibility Score: inf
ROOT
ATOM      1  C   UNL     1       8.009 -12.599  -7.635  1.00  0.00     0.006 C 
ENDROOT
BRANCH   1   2
ATOM      2  C   UNL     1       8.158 -14.082  -7.995  1.00  0.00     0.053 C 
BRANCH   2   3
ATOM      3  C   UNL     1       6.850 -14.642  -8.456  1.00  0.00     0.041 C 
ATOM      4  O   UNL     1       6.822 -15.616  -9.254  1.00  0.00    -0.550 OA
ATOM      5  O   UNL     1       5.660 -14.055  -8.044  1.00  0.00    -0.550 OA
ENDBRANCH   2   3
ENDBRANCH   1   2
BRANCH   1   6
ATOM      6  C   UNL     1       9.361 -11.872  -7.557  1.00  0.00     0.000 C 
BRANCH   6   7
ATOM      7  C   UNL     1       9.257 -10.387  -7.947  1.00  0.00    -0.000 C 
BRANCH   7   8
ATOM      8  C   UNL     1      10.628  -9.696  -8.005  1.00  0.00    -0.003 C 
ATOM      9  C   UNL     1      11.766 -10.667  -8.318  1.00  0.00     0.004 C 
ENDBRANCH   7   8
ENDBRANCH   6   7
ENDBRANCH   1   6
TORSDOF 5
ENDMDL
MODEL 8
REMARK VINA RESULT:    -3.565     13.972     14.481
REMARK INTER + INTRA:          -4.689
REMARK INTER:                  -4.609
REMARK INTRA:                  -0.080
REMARK UNBOUND:                -0.082
REMARK SMILES CCCCCCC(=O)[O-]
REMARK SMILES IDX 5 1 6 2 7 3 8 4 9 5 4 6 3 7 2 8 1 9
REMARK H PARENT
REMARK Flexibility Score: inf
ROOT
ATOM      1  C   UNL     1       4.369 -18.420   0.954  1.00  0.00     0.006 C 
ENDROOT
BRANCH   1   2
ATOM      2  C   UNL     1       3.506 -19.008   2.076  1.00  0.00     0.053 C 
BRANCH   2   3
ATOM      3  C   UNL     1       4.135 -18.750   3.409  1.00  0.00     0.041 C 
ATOM      4  O   UNL     1       3.986 -17.635   3.976  1.00  0.00    -0.550 OA
ATOM      5  O   UNL     1       4.928 -19.723   4.002  1.00  0.00    -0.550 OA
ENDBRANCH   2   3
ENDBRANCH   1   2
BRANCH   1   6
ATOM      6  C   UNL     1       3.528 -17.821  -0.186  1.00  0.00     0.000 C 
BRANCH   6   7
ATOM      7  C   UNL     1       3.996 -18.289  -1.574  1.00  0.00    -0.000 C 
BRANCH   7   8
ATOM      8  C   UNL     1       2.874 -18.236  -2.623  1.00  0.00    -0.003 C 
ATOM      9  C   UNL     1       3.210 -19.025  -3.888  1.00  0.00     0.004 C 
ENDBRANCH   7   8
ENDBRANCH   6   7
ENDBRANCH   1   6
TORSDOF 5
ENDMDL
MODEL 9
REMARK VINA RESULT:    -3.533     14.200     15.046
REMARK INTER + INTRA:          -4.648
REMARK INTER:                  -4.528
REMARK INTRA:                  -0.120
REMARK UNBOUND:                -0.082
REMARK SMILES CCCCCCC(=O)[O-]
REMARK SMILES IDX 5 1 6 2 7 3 8 4 9 5 4 6 3 7 2 8 1 9
REMARK H PARENT
REMARK Flexibility Score: inf
ROOT
ATOM      1  C   UNL     1       4.278 -18.174  -0.255  1.00  0.00     0.006 C 
ENDROOT
BRANCH   1   2
ATOM      2  C   UNL     1       3.233 -17.868  -1.335  1.00  0.00     0.053 C 
BRANCH   2   3
ATOM      3  C   UNL     1       3.525 -18.646  -2.579  1.00  0.00     0.041 C 
ATOM      4  O   UNL     1       4.528 -19.406  -2.632  1.00  0.00    -0.550 OA
ATOM      5  O   UNL     1       2.717 -18.494  -3.699  1.00  0.00    -0.550 OA
ENDBRANCH   2   3
ENDBRANCH   1   2
BRANCH   1   6
ATOM      6  C   UNL     1       3.793 -17.804   1.157  1.00  0.00     0.000 C 
BRANCH   6   7
ATOM      7  C   UNL     1       3.884 -18.983   2.140  1.00  0.00    -0.000 C 
BRANCH   7   8
ATOM      8  C   UNL     1       3.949 -18.524   3.605  1.00  0.00    -0.003 C 
ATOM      9  C   UNL     1       3.436 -17.097   3.800  1.00  0.00     0.004 C 
ENDBRANCH   7   8
ENDBRANCH   6   7
ENDBRANCH   1   6
TORSDOF 5
ENDMDL
