MODEL 1
REMARK VINA RESULT:    -7.814      0.000      0.000
REMARK INTER + INTRA:         -11.258
REMARK INTER:                 -10.327
REMARK INTRA:                  -0.931
REMARK UNBOUND:                -0.931
REMARK SMILES CC[C@@H](C=C[C@@H](C)[C@H]1CC[C@H]2[C@@H]3CC=C4C[C@H](O)CC[C@]4(C)[C@@H]3CC[C@]12C)C(C)C
REMARK SMILES IDX 6 1 7 2 5 3 4 4 3 5 2 6 1 7 28 8 29 9 30 10 8 11 9 12 26 13
REMARK SMILES IDX 10 14 11 15 25 16 27 17 12 18 24 19 23 20 13 21 21 22 14 23
REMARK SMILES IDX 15 24 20 25 22 26 16 27 19 28 17 29 18 30
REMARK H PARENT 18 31
REMARK Flexibility Score: inf
ROOT
ATOM      1  C   UNL     1     177.701 180.465 175.541  1.00  0.00     0.012 C 
ATOM      2  C   UNL     1     177.858 181.879 174.963  1.00  0.00     0.012 C 
ENDROOT
BRANCH   1   3
ATOM      3  C   UNL     1     178.904 180.111 176.393  1.00  0.00    -0.028 C 
ATOM      4  C   UNL     1     179.787 181.033 176.819  1.00  0.00    -0.027 C 
BRANCH   4   5
ATOM      5  C   UNL     1     181.008 180.639 177.627  1.00  0.00     0.014 C 
BRANCH   5   6
ATOM      6  C   UNL     1     181.717 179.369 177.066  1.00  0.00     0.004 C 
ATOM      7  C   UNL     1     182.588 179.593 175.821  1.00  0.00     0.004 C 
ENDBRANCH   5   6
BRANCH   5   8
ATOM      8  C   UNL     1     180.676 180.581 179.153  1.00  0.00    -0.011 C 
ATOM      9  C   UNL     1     179.528 181.509 179.579  1.00  0.00     0.008 C 
ATOM     10  C   UNL     1     180.402 179.146 179.626  1.00  0.00     0.008 C 
ENDBRANCH   5   8
ENDBRANCH   4   5
ENDBRANCH   1   3
BRANCH   1  11
ATOM     11  C   UNL     1     177.460 179.370 174.451  1.00  0.00     0.002 C 
ATOM     12  C   UNL     1     176.570 179.884 173.292  1.00  0.00     0.005 C 
ATOM     13  C   UNL     1     178.678 178.711 173.726  1.00  0.00    -0.026 C 
ATOM     14  C   UNL     1     176.957 179.078 172.042  1.00  0.00     0.005 C 
ATOM     15  C   UNL     1     177.944 178.038 172.556  1.00  0.00    -0.001 C 
ATOM     16  C   UNL     1     179.377 177.571 174.536  1.00  0.00     0.007 C 
ATOM     17  C   UNL     1     179.711 179.789 173.236  1.00  0.00     0.012 C 
ATOM     18  C   UNL     1     178.863 177.331 171.510  1.00  0.00     0.000 C 
ATOM     19  C   UNL     1     179.931 176.405 173.654  1.00  0.00     0.005 C 
ATOM     20  C   UNL     1     180.188 176.824 172.173  1.00  0.00     0.003 C 
ATOM     21  C   UNL     1     178.065 176.176 170.872  1.00  0.00     0.031 C 
ATOM     22  C   UNL     1     181.024 175.839 171.245  1.00  0.00    -0.008 C 
ATOM     23  C   UNL     1     178.886 175.217 170.078  1.00  0.00    -0.027 C 
ATOM     24  C   UNL     1     180.156 174.911 170.387  1.00  0.00    -0.065 C 
ATOM     25  C   UNL     1     182.000 174.958 172.083  1.00  0.00     0.014 C 
ATOM     26  C   UNL     1     181.852 176.718 170.267  1.00  0.00     0.016 C 
ATOM     27  C   UNL     1     180.831 173.789 169.616  1.00  0.00     0.063 C 
ATOM     28  C   UNL     1     182.760 173.906 171.258  1.00  0.00     0.033 C 
ATOM     29  C   UNL     1     181.796 172.985 170.503  1.00  0.00     0.118 C 
BRANCH  29  30
ATOM     30  O   UNL     1     181.071 172.206 171.421  1.00  0.00    -0.393 OA
ATOM     31  H   UNL     1     181.352 171.263 171.288  1.00  0.00     0.210 HD
ENDBRANCH  29  30
ENDBRANCH   1  11
TORSDOF 6
ENDMDL
MODEL 2
REMARK VINA RESULT:    -7.780      5.078      8.150
REMARK INTER + INTRA:         -11.213
REMARK INTER:                 -10.304
REMARK INTRA:                  -0.908
REMARK UNBOUND:                -0.931
REMARK SMILES CC[C@@H](C=C[C@@H](C)[C@H]1CC[C@H]2[C@@H]3CC=C4C[C@H](O)CC[C@]4(C)[C@@H]3CC[C@]12C)C(C)C
REMARK SMILES IDX 6 1 7 2 5 3 4 4 3 5 2 6 1 7 28 8 29 9 30 10 8 11 9 12 26 13
REMARK SMILES IDX 10 14 11 15 25 16 27 17 12 18 24 19 23 20 13 21 21 22 14 23
REMARK SMILES IDX 15 24 20 25 22 26 16 27 19 28 17 29 18 30
REMARK H PARENT 18 31
REMARK Flexibility Score: inf
ROOT
ATOM      1  C   UNL     1     182.916 180.228 175.550  1.00  0.00     0.012 C 
ATOM      2  C   UNL     1     182.712 178.829 174.951  1.00  0.00     0.012 C 
ENDROOT
BRANCH   1   3
ATOM      3  C   UNL     1     181.728 180.607 176.411  1.00  0.00    -0.028 C 
ATOM      4  C   UNL     1     180.803 179.713 176.805  1.00  0.00    -0.027 C 
BRANCH   4   5
ATOM      5  C   UNL     1     179.598 180.134 177.623  1.00  0.00     0.014 C 
BRANCH   5   6
ATOM      6  C   UNL     1     178.901 181.408 177.057  1.00  0.00     0.004 C 
ATOM      7  C   UNL     1     178.090 181.202 175.770  1.00  0.00     0.004 C 
ENDBRANCH   5   6
BRANCH   5   8
ATOM      8  C   UNL     1     179.950 180.203 179.144  1.00  0.00    -0.011 C 
ATOM      9  C   UNL     1     181.066 179.239 179.573  1.00  0.00     0.008 C 
ATOM     10  C   UNL     1     180.283 181.635 179.591  1.00  0.00     0.008 C 
ENDBRANCH   5   8
ENDBRANCH   4   5
ENDBRANCH   1   3
BRANCH   1  11
ATOM     11  C   UNL     1     183.189 181.332 174.476  1.00  0.00     0.002 C 
ATOM     12  C   UNL     1     184.106 180.824 173.336  1.00  0.00     0.005 C 
ATOM     13  C   UNL     1     181.992 182.001 173.725  1.00  0.00    -0.026 C 
ATOM     14  C   UNL     1     183.754 181.642 172.082  1.00  0.00     0.005 C 
ATOM     15  C   UNL     1     182.758 182.681 172.580  1.00  0.00    -0.001 C 
ATOM     16  C   UNL     1     181.276 183.138 174.527  1.00  0.00     0.007 C 
ATOM     17  C   UNL     1     180.968 180.932 173.200  1.00  0.00     0.012 C 
ATOM     18  C   UNL     1     181.868 183.400 171.517  1.00  0.00     0.000 C 
ATOM     19  C   UNL     1     180.750 184.313 173.641  1.00  0.00     0.005 C 
ATOM     20  C   UNL     1     180.530 183.907 172.150  1.00  0.00     0.003 C 
ATOM     21  C   UNL     1     182.687 184.558 170.909  1.00  0.00     0.031 C 
ATOM     22  C   UNL     1     179.721 184.903 171.209  1.00  0.00    -0.008 C 
ATOM     23  C   UNL     1     181.890 185.526 170.103  1.00  0.00    -0.027 C 
ATOM     24  C   UNL     1     180.614 185.834 170.382  1.00  0.00    -0.065 C 
ATOM     25  C   UNL     1     178.727 185.780 172.029  1.00  0.00     0.014 C 
ATOM     26  C   UNL     1     178.915 184.035 170.203  1.00  0.00     0.016 C 
ATOM     27  C   UNL     1     179.963 186.965 169.603  1.00  0.00     0.063 C 
ATOM     28  C   UNL     1     177.993 186.842 171.194  1.00  0.00     0.033 C 
ATOM     29  C   UNL     1     178.979 187.766 170.472  1.00  0.00     0.118 C 
BRANCH  29  30
ATOM     30  O   UNL     1     179.683 188.534 171.414  1.00  0.00    -0.393 OA
ATOM     31  H   UNL     1     179.195 188.457 172.277  1.00  0.00     0.210 HD
ENDBRANCH  29  30
ENDBRANCH   1  11
TORSDOF 6
ENDMDL
MODEL 3
REMARK VINA RESULT:    -7.348      6.360      8.284
REMARK INTER + INTRA:         -10.642
REMARK INTER:                  -9.500
REMARK INTRA:                  -1.141
REMARK UNBOUND:                -0.931
REMARK SMILES CC[C@@H](C=C[C@@H](C)[C@H]1CC[C@H]2[C@@H]3CC=C4C[C@H](O)CC[C@]4(C)[C@@H]3CC[C@]12C)C(C)C
REMARK SMILES IDX 6 1 7 2 5 3 4 4 3 5 2 6 1 7 28 8 29 9 30 10 8 11 9 12 26 13
REMARK SMILES IDX 10 14 11 15 25 16 27 17 12 18 24 19 23 20 13 21 21 22 14 23
REMARK SMILES IDX 15 24 20 25 22 26 16 27 19 28 17 29 18 30
REMARK H PARENT 18 31
REMARK Flexibility Score: inf
ROOT
ATOM      1  C   UNL     1     182.336 181.385 175.008  1.00  0.00     0.012 C 
ATOM      2  C   UNL     1     182.671 179.947 174.585  1.00  0.00     0.012 C 
ENDROOT
BRANCH   1   3
ATOM      3  C   UNL     1     181.257 181.381 176.071  1.00  0.00    -0.028 C 
ATOM      4  C   UNL     1     180.651 180.253 176.485  1.00  0.00    -0.027 C 
BRANCH   4   5
ATOM      5  C   UNL     1     179.538 180.289 177.515  1.00  0.00     0.014 C 
BRANCH   5   6
ATOM      6  C   UNL     1     178.591 181.514 177.335  1.00  0.00     0.004 C 
ATOM      7  C   UNL     1     177.665 181.461 176.111  1.00  0.00     0.004 C 
ENDBRANCH   5   6
BRANCH   5   8
ATOM      8  C   UNL     1     180.104 180.107 178.959  1.00  0.00    -0.011 C 
ATOM      9  C   UNL     1     181.357 179.220 179.033  1.00  0.00     0.008 C 
ATOM     10  C   UNL     1     180.367 181.456 179.646  1.00  0.00     0.008 C 
ENDBRANCH   5   8
ENDBRANCH   4   5
ENDBRANCH   1   3
BRANCH   1  11
ATOM     11  C   UNL     1     181.924 182.306 173.813  1.00  0.00     0.002 C 
ATOM     12  C   UNL     1     180.985 183.454 174.257  1.00  0.00     0.005 C 
ATOM     13  C   UNL     1     183.026 183.027 172.970  1.00  0.00    -0.026 C 
ATOM     14  C   UNL     1     181.207 184.617 173.275  1.00  0.00     0.005 C 
ATOM     15  C   UNL     1     182.150 184.046 172.225  1.00  0.00    -0.001 C 
ATOM     16  C   UNL     1     183.701 182.130 171.880  1.00  0.00     0.007 C 
ATOM     17  C   UNL     1     184.094 183.723 173.888  1.00  0.00     0.012 C 
ATOM     18  C   UNL     1     182.926 185.057 171.321  1.00  0.00     0.000 C 
ATOM     19  C   UNL     1     184.090 182.894 170.573  1.00  0.00     0.005 C 
ATOM     20  C   UNL     1     184.257 184.431 170.787  1.00  0.00     0.003 C 
ATOM     21  C   UNL     1     181.992 185.484 170.169  1.00  0.00     0.031 C 
ATOM     22  C   UNL     1     184.938 185.283 169.628  1.00  0.00    -0.008 C 
ATOM     23  C   UNL     1     182.671 186.206 169.055  1.00  0.00    -0.027 C 
ATOM     24  C   UNL     1     183.936 185.952 168.681  1.00  0.00    -0.065 C 
ATOM     25  C   UNL     1     185.910 184.412 168.776  1.00  0.00     0.014 C 
ATOM     26  C   UNL     1     185.748 186.421 170.309  1.00  0.00     0.016 C 
ATOM     27  C   UNL     1     184.459 186.620 167.421  1.00  0.00     0.063 C 
ATOM     28  C   UNL     1     186.518 185.148 167.571  1.00  0.00     0.033 C 
ATOM     29  C   UNL     1     185.429 185.709 166.651  1.00  0.00     0.118 C 
BRANCH  29  30
ATOM     30  O   UNL     1     184.724 184.650 166.053  1.00  0.00    -0.393 OA
ATOM     31  H   UNL     1     185.228 184.388 165.238  1.00  0.00     0.210 HD
ENDBRANCH  29  30
ENDBRANCH   1  11
TORSDOF 6
ENDMDL
MODEL 4
REMARK VINA RESULT:    -7.327      2.613      4.269
REMARK INTER + INTRA:         -10.614
REMARK INTER:                  -9.460
REMARK INTRA:                  -1.154
REMARK UNBOUND:                -0.931
REMARK SMILES CC[C@@H](C=C[C@@H](C)[C@H]1CC[C@H]2[C@@H]3CC=C4C[C@H](O)CC[C@]4(C)[C@@H]3CC[C@]12C)C(C)C
REMARK SMILES IDX 6 1 7 2 5 3 4 4 3 5 2 6 1 7 28 8 29 9 30 10 8 11 9 12 26 13
REMARK SMILES IDX 10 14 11 15 25 16 27 17 12 18 24 19 23 20 13 21 21 22 14 23
REMARK SMILES IDX 15 24 20 25 22 26 16 27 19 28 17 29 18 30
REMARK H PARENT 18 31
REMARK Flexibility Score: inf
ROOT
ATOM      1  C   UNL     1     178.355 179.442 175.010  1.00  0.00     0.012 C 
ATOM      2  C   UNL     1     178.059 180.891 174.597  1.00  0.00     0.012 C 
ENDROOT
BRANCH   1   3
ATOM      3  C   UNL     1     179.432 179.410 176.076  1.00  0.00    -0.028 C 
ATOM      4  C   UNL     1     180.092 180.514 176.472  1.00  0.00    -0.027 C 
BRANCH   4   5
ATOM      5  C   UNL     1     181.200 180.440 177.505  1.00  0.00     0.014 C 
BRANCH   5   6
ATOM      6  C   UNL     1     182.090 179.171 177.344  1.00  0.00     0.004 C 
ATOM      7  C   UNL     1     183.016 179.163 176.119  1.00  0.00     0.004 C 
ENDBRANCH   5   6
BRANCH   5   8
ATOM      8  C   UNL     1     180.640 180.667 178.945  1.00  0.00    -0.011 C 
ATOM      9  C   UNL     1     179.354 181.507 178.992  1.00  0.00     0.008 C 
ATOM     10  C   UNL     1     180.436 179.342 179.696  1.00  0.00     0.008 C 
ENDBRANCH   5   8
ENDBRANCH   4   5
ENDBRANCH   1   3
BRANCH   1  11
ATOM     11  C   UNL     1     178.746 178.519 173.809  1.00  0.00     0.002 C 
ATOM     12  C   UNL     1     179.685 177.365 174.240  1.00  0.00     0.005 C 
ATOM     13  C   UNL     1     177.630 177.806 172.980  1.00  0.00    -0.026 C 
ATOM     14  C   UNL     1     179.443 176.205 173.260  1.00  0.00     0.005 C 
ATOM     15  C   UNL     1     178.490 176.782 172.223  1.00  0.00    -0.001 C 
ATOM     16  C   UNL     1     176.946 178.707 171.899  1.00  0.00     0.007 C 
ATOM     17  C   UNL     1     176.569 177.115 173.911  1.00  0.00     0.012 C 
ATOM     18  C   UNL     1     177.697 175.777 171.328  1.00  0.00     0.000 C 
ATOM     19  C   UNL     1     176.536 177.947 170.597  1.00  0.00     0.005 C 
ATOM     20  C   UNL     1     176.363 176.411 170.812  1.00  0.00     0.003 C 
ATOM     21  C   UNL     1     178.613 175.345 170.164  1.00  0.00     0.031 C 
ATOM     22  C   UNL     1     175.662 175.563 169.662  1.00  0.00    -0.008 C 
ATOM     23  C   UNL     1     177.916 174.628 169.058  1.00  0.00    -0.027 C 
ATOM     24  C   UNL     1     176.648 174.889 168.701  1.00  0.00    -0.065 C 
ATOM     25  C   UNL     1     174.685 176.441 168.822  1.00  0.00     0.014 C 
ATOM     26  C   UNL     1     174.854 174.429 170.352  1.00  0.00     0.016 C 
ATOM     27  C   UNL     1     176.105 174.225 167.447  1.00  0.00     0.063 C 
ATOM     28  C   UNL     1     174.057 175.709 167.624  1.00  0.00     0.033 C 
ATOM     29  C   UNL     1     175.131 175.143 166.690  1.00  0.00     0.118 C 
BRANCH  29  30
ATOM     30  O   UNL     1     175.834 176.198 166.084  1.00  0.00    -0.393 OA
ATOM     31  H   UNL     1     175.306 177.025 166.236  1.00  0.00     0.210 HD
ENDBRANCH  29  30
ENDBRANCH   1  11
TORSDOF 6
ENDMDL
MODEL 5
REMARK VINA RESULT:    -7.291      2.533      4.049
REMARK INTER + INTRA:         -10.567
REMARK INTER:                  -9.400
REMARK INTRA:                  -1.167
REMARK UNBOUND:                -0.931
REMARK SMILES CC[C@@H](C=C[C@@H](C)[C@H]1CC[C@H]2[C@@H]3CC=C4C[C@H](O)CC[C@]4(C)[C@@H]3CC[C@]12C)C(C)C
REMARK SMILES IDX 6 1 7 2 5 3 4 4 3 5 2 6 1 7 28 8 29 9 30 10 8 11 9 12 26 13
REMARK SMILES IDX 10 14 11 15 25 16 27 17 12 18 24 19 23 20 13 21 21 22 14 23
REMARK SMILES IDX 15 24 20 25 22 26 16 27 19 28 17 29 18 30
REMARK H PARENT 18 31
REMARK Flexibility Score: inf
ROOT
ATOM      1  C   UNL     1     181.615 179.761 175.391  1.00  0.00     0.012 C 
ATOM      2  C   UNL     1     182.524 179.364 176.564  1.00  0.00     0.012 C 
ENDROOT
BRANCH   1   3
ATOM      3  C   UNL     1     181.199 181.212 175.518  1.00  0.00    -0.028 C 
ATOM      4  C   UNL     1     181.549 182.149 174.618  1.00  0.00    -0.027 C 
BRANCH   4   5
ATOM      5  C   UNL     1     181.160 183.603 174.801  1.00  0.00     0.014 C 
BRANCH   5   6
ATOM      6  C   UNL     1     179.907 184.001 173.964  1.00  0.00     0.004 C 
ATOM      7  C   UNL     1     180.184 184.879 172.736  1.00  0.00     0.004 C 
ENDBRANCH   5   6
BRANCH   5   8
ATOM      8  C   UNL     1     182.395 184.541 174.615  1.00  0.00    -0.011 C 
ATOM      9  C   UNL     1     182.634 185.502 175.790  1.00  0.00     0.008 C 
ATOM     10  C   UNL     1     183.675 183.749 174.309  1.00  0.00     0.008 C 
ENDBRANCH   5   8
ENDBRANCH   4   5
ENDBRANCH   1   3
BRANCH   1  11
ATOM     11  C   UNL     1     180.360 178.841 175.237  1.00  0.00     0.002 C 
ATOM     12  C   UNL     1     179.054 179.560 175.660  1.00  0.00     0.005 C 
ATOM     13  C   UNL     1     180.013 178.223 173.844  1.00  0.00    -0.026 C 
ATOM     14  C   UNL     1     177.911 178.915 174.860  1.00  0.00     0.005 C 
ATOM     15  C   UNL     1     178.575 177.760 174.121  1.00  0.00    -0.001 C 
ATOM     16  C   UNL     1     180.836 176.944 173.479  1.00  0.00     0.007 C 
ATOM     17  C   UNL     1     180.079 179.299 172.701  1.00  0.00     0.012 C 
ATOM     18  C   UNL     1     177.821 177.155 172.895  1.00  0.00     0.000 C 
ATOM     19  C   UNL     1     180.038 175.883 172.654  1.00  0.00     0.005 C 
ATOM     20  C   UNL     1     178.819 176.488 171.891  1.00  0.00     0.003 C 
ATOM     21  C   UNL     1     176.780 176.145 173.421  1.00  0.00     0.031 C 
ATOM     22  C   UNL     1     178.103 175.596 170.784  1.00  0.00    -0.008 C 
ATOM     23  C   UNL     1     176.188 175.262 172.377  1.00  0.00    -0.027 C 
ATOM     24  C   UNL     1     176.870 174.846 171.298  1.00  0.00    -0.065 C 
ATOM     25  C   UNL     1     179.087 174.555 170.169  1.00  0.00     0.014 C 
ATOM     26  C   UNL     1     177.618 176.555 169.662  1.00  0.00     0.016 C 
ATOM     27  C   UNL     1     176.223 173.806 170.398  1.00  0.00     0.063 C 
ATOM     28  C   UNL     1     178.431 173.586 169.171  1.00  0.00     0.033 C 
ATOM     29  C   UNL     1     177.260 172.834 169.810  1.00  0.00     0.118 C 
BRANCH  29  30
ATOM     30  O   UNL     1     177.741 171.977 170.815  1.00  0.00    -0.393 OA
ATOM     31  H   UNL     1     177.235 172.187 171.643  1.00  0.00     0.210 HD
ENDBRANCH  29  30
ENDBRANCH   1  11
TORSDOF 6
ENDMDL
MODEL 6
REMARK VINA RESULT:    -7.180      5.534      7.876
REMARK INTER + INTRA:         -10.420
REMARK INTER:                  -9.595
REMARK INTRA:                  -0.825
REMARK UNBOUND:                -0.931
REMARK SMILES CC[C@@H](C=C[C@@H](C)[C@H]1CC[C@H]2[C@@H]3CC=C4C[C@H](O)CC[C@]4(C)[C@@H]3CC[C@]12C)C(C)C
REMARK SMILES IDX 6 1 7 2 5 3 4 4 3 5 2 6 1 7 28 8 29 9 30 10 8 11 9 12 26 13
REMARK SMILES IDX 10 14 11 15 25 16 27 17 12 18 24 19 23 20 13 21 21 22 14 23
REMARK SMILES IDX 15 24 20 25 22 26 16 27 19 28 17 29 18 30
REMARK H PARENT 18 31
REMARK Flexibility Score: inf
ROOT
ATOM      1  C   UNL     1     182.592 178.352 174.648  1.00  0.00     0.012 C 
ATOM      2  C   UNL     1     181.253 177.721 174.238  1.00  0.00     0.012 C 
ENDROOT
BRANCH   1   3
ATOM      3  C   UNL     1     182.371 179.398 175.722  1.00  0.00    -0.028 C 
ATOM      4  C   UNL     1     181.306 179.379 176.545  1.00  0.00    -0.027 C 
BRANCH   4   5
ATOM      5  C   UNL     1     181.087 180.470 177.575  1.00  0.00     0.014 C 
BRANCH   5   6
ATOM      6  C   UNL     1     180.755 179.904 178.989  1.00  0.00     0.004 C 
ATOM      7  C   UNL     1     179.947 180.838 179.902  1.00  0.00     0.004 C 
ENDBRANCH   5   6
BRANCH   5   8
ATOM      8  C   UNL     1     180.084 181.545 177.049  1.00  0.00    -0.011 C 
ATOM      9  C   UNL     1     180.712 182.576 176.099  1.00  0.00     0.008 C 
ATOM     10  C   UNL     1     178.849 180.905 176.397  1.00  0.00     0.008 C 
ENDBRANCH   5   8
ENDBRANCH   4   5
ENDBRANCH   1   3
BRANCH   1  11
ATOM     11  C   UNL     1     183.388 178.960 173.447  1.00  0.00     0.002 C 
ATOM     12  C   UNL     1     183.156 178.172 172.133  1.00  0.00     0.005 C 
ATOM     13  C   UNL     1     183.159 180.450 173.036  1.00  0.00    -0.026 C 
ATOM     14  C   UNL     1     183.356 179.165 170.977  1.00  0.00     0.005 C 
ATOM     15  C   UNL     1     183.835 180.441 171.656  1.00  0.00    -0.001 C 
ATOM     16  C   UNL     1     183.932 181.492 173.910  1.00  0.00     0.007 C 
ATOM     17  C   UNL     1     181.629 180.797 172.943  1.00  0.00     0.012 C 
ATOM     18  C   UNL     1     183.728 181.775 170.851  1.00  0.00     0.000 C 
ATOM     19  C   UNL     1     184.429 182.747 173.122  1.00  0.00     0.005 C 
ATOM     20  C   UNL     1     183.624 183.007 171.811  1.00  0.00     0.003 C 
ATOM     21  C   UNL     1     184.955 181.876 169.922  1.00  0.00     0.031 C 
ATOM     22  C   UNL     1     183.817 184.404 171.073  1.00  0.00    -0.008 C 
ATOM     23  C   UNL     1     185.163 183.220 169.311  1.00  0.00    -0.027 C 
ATOM     24  C   UNL     1     184.841 184.365 169.934  1.00  0.00    -0.065 C 
ATOM     25  C   UNL     1     184.239 185.523 172.072  1.00  0.00     0.014 C 
ATOM     26  C   UNL     1     182.449 184.783 170.441  1.00  0.00     0.016 C 
ATOM     27  C   UNL     1     185.264 185.675 169.290  1.00  0.00     0.063 C 
ATOM     28  C   UNL     1     184.549 186.873 171.406  1.00  0.00     0.033 C 
ATOM     29  C   UNL     1     185.640 186.733 170.340  1.00  0.00     0.118 C 
BRANCH  29  30
ATOM     30  O   UNL     1     186.858 186.394 170.951  1.00  0.00    -0.393 OA
ATOM     31  H   UNL     1     187.163 185.542 170.541  1.00  0.00     0.210 HD
ENDBRANCH  29  30
ENDBRANCH   1  11
TORSDOF 6
ENDMDL
MODEL 7
REMARK VINA RESULT:    -7.175      5.593      8.392
REMARK INTER + INTRA:         -10.413
REMARK INTER:                  -9.223
REMARK INTRA:                  -1.189
REMARK UNBOUND:                -0.931
REMARK SMILES CC[C@@H](C=C[C@@H](C)[C@H]1CC[C@H]2[C@@H]3CC=C4C[C@H](O)CC[C@]4(C)[C@@H]3CC[C@]12C)C(C)C
REMARK SMILES IDX 6 1 7 2 5 3 4 4 3 5 2 6 1 7 28 8 29 9 30 10 8 11 9 12 26 13
REMARK SMILES IDX 10 14 11 15 25 16 27 17 12 18 24 19 23 20 13 21 21 22 14 23
REMARK SMILES IDX 15 24 20 25 22 26 16 27 19 28 17 29 18 30
REMARK H PARENT 18 31
REMARK Flexibility Score: inf
ROOT
ATOM      1  C   UNL     1     178.973 181.068 175.568  1.00  0.00     0.012 C 
ATOM      2  C   UNL     1     178.134 181.500 176.779  1.00  0.00     0.012 C 
ENDROOT
BRANCH   1   3
ATOM      3  C   UNL     1     179.318 179.595 175.669  1.00  0.00    -0.028 C 
ATOM      4  C   UNL     1     178.942 178.697 174.740  1.00  0.00    -0.027 C 
BRANCH   4   5
ATOM      5  C   UNL     1     179.258 177.222 174.896  1.00  0.00     0.014 C 
BRANCH   5   6
ATOM      6  C   UNL     1     180.283 176.711 173.840  1.00  0.00     0.004 C 
ATOM      7  C   UNL     1     181.662 177.387 173.874  1.00  0.00     0.004 C 
ENDBRANCH   5   6
BRANCH   5   8
ATOM      8  C   UNL     1     177.948 176.376 174.999  1.00  0.00    -0.011 C 
ATOM      9  C   UNL     1     177.348 175.984 173.641  1.00  0.00     0.008 C 
ATOM     10  C   UNL     1     178.140 175.129 175.876  1.00  0.00     0.008 C 
ENDBRANCH   5   8
ENDBRANCH   4   5
ENDBRANCH   1   3
BRANCH   1  11
ATOM     11  C   UNL     1     180.268 181.921 175.369  1.00  0.00     0.002 C 
ATOM     12  C   UNL     1     181.549 181.134 175.739  1.00  0.00     0.005 C 
ATOM     13  C   UNL     1     180.592 182.528 173.966  1.00  0.00    -0.026 C 
ATOM     14  C   UNL     1     182.694 181.724 174.898  1.00  0.00     0.005 C 
ATOM     15  C   UNL     1     182.063 182.915 174.189  1.00  0.00    -0.001 C 
ATOM     16  C   UNL     1     179.824 183.850 173.636  1.00  0.00     0.007 C 
ATOM     17  C   UNL     1     180.428 181.463 172.822  1.00  0.00     0.012 C 
ATOM     18  C   UNL     1     182.800 183.487 172.937  1.00  0.00     0.000 C 
ATOM     19  C   UNL     1     180.644 184.873 172.785  1.00  0.00     0.005 C 
ATOM     20  C   UNL     1     181.800 184.209 171.974  1.00  0.00     0.003 C 
ATOM     21  C   UNL     1     183.911 184.438 173.427  1.00  0.00     0.031 C 
ATOM     22  C   UNL     1     182.519 185.069 170.844  1.00  0.00    -0.008 C 
ATOM     23  C   UNL     1     184.508 185.296 172.363  1.00  0.00    -0.027 C 
ATOM     24  C   UNL     1     183.808 185.752 171.312  1.00  0.00    -0.065 C 
ATOM     25  C   UNL     1     181.567 186.163 170.270  1.00  0.00     0.014 C 
ATOM     26  C   UNL     1     182.911 184.092 169.701  1.00  0.00     0.016 C 
ATOM     27  C   UNL     1     184.473 186.762 170.392  1.00  0.00     0.063 C 
ATOM     28  C   UNL     1     182.235 187.101 169.251  1.00  0.00     0.033 C 
ATOM     29  C   UNL     1     183.466 187.789 169.847  1.00  0.00     0.118 C 
BRANCH  29  30
ATOM     30  O   UNL     1     183.069 188.664 170.872  1.00  0.00    -0.393 OA
ATOM     31  H   UNL     1     183.015 188.129 171.707  1.00  0.00     0.210 HD
ENDBRANCH  29  30
ENDBRANCH   1  11
TORSDOF 6
ENDMDL
MODEL 8
REMARK VINA RESULT:    -7.162      2.579      3.846
REMARK INTER + INTRA:         -10.396
REMARK INTER:                  -9.565
REMARK INTRA:                  -0.831
REMARK UNBOUND:                -0.931
REMARK SMILES CC[C@@H](C=C[C@@H](C)[C@H]1CC[C@H]2[C@@H]3CC=C4C[C@H](O)CC[C@]4(C)[C@@H]3CC[C@]12C)C(C)C
REMARK SMILES IDX 6 1 7 2 5 3 4 4 3 5 2 6 1 7 28 8 29 9 30 10 8 11 9 12 26 13
REMARK SMILES IDX 10 14 11 15 25 16 27 17 12 18 24 19 23 20 13 21 21 22 14 23
REMARK SMILES IDX 15 24 20 25 22 26 16 27 19 28 17 29 18 30
REMARK H PARENT 18 31
REMARK Flexibility Score: inf
ROOT
ATOM      1  C   UNL     1     178.214 182.230 174.988  1.00  0.00     0.012 C 
ATOM      2  C   UNL     1     179.583 182.812 174.610  1.00  0.00     0.012 C 
ENDROOT
BRANCH   1   3
ATOM      3  C   UNL     1     178.377 181.144 176.033  1.00  0.00    -0.028 C 
ATOM      4  C   UNL     1     179.452 181.068 176.838  1.00  0.00    -0.027 C 
BRANCH   4   5
ATOM      5  C   UNL     1     179.609 179.939 177.838  1.00  0.00     0.014 C 
BRANCH   5   6
ATOM      6  C   UNL     1     179.933 180.448 179.275  1.00  0.00     0.004 C 
ATOM      7  C   UNL     1     180.546 181.854 179.357  1.00  0.00     0.004 C 
ENDBRANCH   5   6
BRANCH   5   8
ATOM      8  C   UNL     1     180.583 178.843 177.298  1.00  0.00    -0.011 C 
ATOM      9  C   UNL     1     180.004 178.000 176.152  1.00  0.00     0.008 C 
ATOM     10  C   UNL     1     181.940 179.436 176.888  1.00  0.00     0.008 C 
ENDBRANCH   5   8
ENDBRANCH   4   5
ENDBRANCH   1   3
BRANCH   1  11
ATOM     11  C   UNL     1     177.405 181.694 173.762  1.00  0.00     0.002 C 
ATOM     12  C   UNL     1     177.618 182.561 172.496  1.00  0.00     0.005 C 
ATOM     13  C   UNL     1     177.632 180.232 173.258  1.00  0.00    -0.026 C 
ATOM     14  C   UNL     1     177.406 181.639 171.284  1.00  0.00     0.005 C 
ATOM     15  C   UNL     1     176.938 180.323 171.890  1.00  0.00    -0.001 C 
ATOM     16  C   UNL     1     176.871 179.137 174.077  1.00  0.00     0.007 C 
ATOM     17  C   UNL     1     179.161 179.896 173.126  1.00  0.00     0.012 C 
ATOM     18  C   UNL     1     177.039 179.040 171.004  1.00  0.00     0.000 C 
ATOM     19  C   UNL     1     176.367 177.931 173.220  1.00  0.00     0.005 C 
ATOM     20  C   UNL     1     177.157 177.753 171.886  1.00  0.00     0.003 C 
ATOM     21  C   UNL     1     175.800 178.993 170.086  1.00  0.00     0.031 C 
ATOM     22  C   UNL     1     176.958 176.403 171.067  1.00  0.00    -0.008 C 
ATOM     23  C   UNL     1     175.588 177.688 169.397  1.00  0.00    -0.027 C 
ATOM     24  C   UNL     1     175.920 176.508 169.945  1.00  0.00    -0.065 C 
ATOM     25  C   UNL     1     176.551 175.224 172.002  1.00  0.00     0.014 C 
ATOM     26  C   UNL     1     178.319 176.067 170.396  1.00  0.00     0.016 C 
ATOM     27  C   UNL     1     175.492 175.239 169.228  1.00  0.00     0.063 C 
ATOM     28  C   UNL     1     176.235 173.916 171.258  1.00  0.00     0.033 C 
ATOM     29  C   UNL     1     175.131 174.117 170.216  1.00  0.00     0.118 C 
BRANCH  29  30
ATOM     30  O   UNL     1     173.920 174.415 170.862  1.00  0.00    -0.393 OA
ATOM     31  H   UNL     1     174.001 174.090 171.797  1.00  0.00     0.210 HD
ENDBRANCH  29  30
ENDBRANCH   1  11
TORSDOF 6
ENDMDL
MODEL 9
REMARK VINA RESULT:    -6.976      2.613      4.285
REMARK INTER + INTRA:         -10.151
REMARK INTER:                  -9.094
REMARK INTRA:                  -1.057
REMARK UNBOUND:                -0.931
REMARK SMILES CC[C@@H](C=C[C@@H](C)[C@H]1CC[C@H]2[C@@H]3CC=C4C[C@H](O)CC[C@]4(C)[C@@H]3CC[C@]12C)C(C)C
REMARK SMILES IDX 6 1 7 2 5 3 4 4 3 5 2 6 1 7 28 8 29 9 30 10 8 11 9 12 26 13
REMARK SMILES IDX 10 14 11 15 25 16 27 17 12 18 24 19 23 20 13 21 21 22 14 23
REMARK SMILES IDX 15 24 20 25 22 26 16 27 19 28 17 29 18 30
REMARK H PARENT 18 31
REMARK Flexibility Score: inf
ROOT
ATOM      1  C   UNL     1     182.183 179.296 174.591  1.00  0.00     0.012 C 
ATOM      2  C   UNL     1     183.432 179.672 175.400  1.00  0.00     0.012 C 
ENDROOT
BRANCH   1   3
ATOM      3  C   UNL     1     180.944 179.406 175.458  1.00  0.00    -0.028 C 
ATOM      4  C   UNL     1     180.909 180.148 176.580  1.00  0.00    -0.027 C 
BRANCH   4   5
ATOM      5  C   UNL     1     179.670 180.197 177.454  1.00  0.00     0.014 C 
BRANCH   5   6
ATOM      6  C   UNL     1     178.831 181.492 177.239  1.00  0.00     0.004 C 
ATOM      7  C   UNL     1     177.863 181.463 176.047  1.00  0.00     0.004 C 
ENDBRANCH   5   6
BRANCH   5   8
ATOM      8  C   UNL     1     180.023 179.887 178.944  1.00  0.00    -0.011 C 
ATOM      9  C   UNL     1     181.399 179.232 179.139  1.00  0.00     0.008 C 
ATOM     10  C   UNL     1     179.898 181.134 179.833  1.00  0.00     0.008 C 
ENDBRANCH   5   8
ENDBRANCH   4   5
ENDBRANCH   1   3
BRANCH   1  11
ATOM     11  C   UNL     1     182.268 177.879 173.936  1.00  0.00     0.002 C 
ATOM     12  C   UNL     1     181.013 177.021 174.233  1.00  0.00     0.005 C 
ATOM     13  C   UNL     1     182.456 177.747 172.390  1.00  0.00    -0.026 C 
ATOM     14  C   UNL     1     180.860 176.034 173.063  1.00  0.00     0.005 C 
ATOM     15  C   UNL     1     182.105 176.261 172.217  1.00  0.00    -0.001 C 
ATOM     16  C   UNL     1     183.930 177.923 171.897  1.00  0.00     0.007 C 
ATOM     17  C   UNL     1     181.468 178.683 171.604  1.00  0.00     0.012 C 
ATOM     18  C   UNL     1     182.082 175.748 170.742  1.00  0.00     0.000 C 
ATOM     19  C   UNL     1     184.308 177.027 170.673  1.00  0.00     0.005 C 
ATOM     20  C   UNL     1     183.069 176.566 169.843  1.00  0.00     0.003 C 
ATOM     21  C   UNL     1     182.430 174.245 170.750  1.00  0.00     0.031 C 
ATOM     22  C   UNL     1     183.320 175.909 168.416  1.00  0.00    -0.008 C 
ATOM     23  C   UNL     1     182.746 173.673 169.410  1.00  0.00    -0.027 C 
ATOM     24  C   UNL     1     183.345 174.377 168.437  1.00  0.00    -0.065 C 
ATOM     25  C   UNL     1     184.654 176.411 167.785  1.00  0.00     0.014 C 
ATOM     26  C   UNL     1     182.138 176.332 167.500  1.00  0.00     0.016 C 
ATOM     27  C   UNL     1     183.779 173.639 167.181  1.00  0.00     0.063 C 
ATOM     28  C   UNL     1     185.012 175.731 166.453  1.00  0.00     0.033 C 
ATOM     29  C   UNL     1     185.086 174.208 166.605  1.00  0.00     0.118 C 
BRANCH  29  30
ATOM     30  O   UNL     1     186.167 173.868 167.435  1.00  0.00    -0.393 OA
ATOM     31  H   UNL     1     186.519 174.716 167.816  1.00  0.00     0.210 HD
ENDBRANCH  29  30
ENDBRANCH   1  11
TORSDOF 6
ENDMDL
