MODEL 1
REMARK VINA RESULT:    -3.222      0.000      0.000
REMARK INTER + INTRA:          -4.062
REMARK INTER:                  -3.881
REMARK INTRA:                  -0.181
REMARK UNBOUND:                -0.181
REMARK SMILES OCC(O)CO
REMARK SMILES IDX 3 1 5 2 6 3 2 5 1 6 4 8
REMARK H PARENT 6 4 1 7 4 9
REMARK Flexibility Score: inf
ROOT
ATOM      1  C   UNL     1      42.179   7.153   7.922  1.00  0.00     0.165 C 
ENDROOT
BRANCH   1   2
ATOM      2  C   UNL     1      43.571   7.461   8.492  1.00  0.00     0.190 C 
BRANCH   2   3
ATOM      3  O   UNL     1      44.037   6.381   9.255  1.00  0.00    -0.394 OA
ATOM      4  H   UNL     1      44.662   5.871   8.678  1.00  0.00     0.210 HD
ENDBRANCH   2   3
ENDBRANCH   1   2
BRANCH   1   5
ATOM      5  C   UNL     1      41.100   7.232   9.015  1.00  0.00     0.190 C 
BRANCH   5   6
ATOM      6  O   UNL     1      41.669   7.150  10.295  1.00  0.00    -0.394 OA
ATOM      7  H   UNL     1      41.189   7.805  10.865  1.00  0.00     0.210 HD
ENDBRANCH   5   6
ENDBRANCH   1   5
BRANCH   1   8
ATOM      8  O   UNL     1      42.184   5.876   7.337  1.00  0.00    -0.388 OA
ATOM      9  H   UNL     1      41.242   5.563   7.327  1.00  0.00     0.211 HD
ENDBRANCH   1   8
TORSDOF 5
ENDMDL
MODEL 2
REMARK VINA RESULT:    -2.931      0.797      2.487
REMARK INTER + INTRA:          -3.711
REMARK INTER:                  -3.679
REMARK INTRA:                  -0.032
REMARK UNBOUND:                -0.181
REMARK SMILES OCC(O)CO
REMARK SMILES IDX 3 1 5 2 6 3 2 5 1 6 4 8
REMARK H PARENT 6 4 1 7 4 9
REMARK Flexibility Score: inf
ROOT
ATOM      1  C   UNL     1      42.154   7.176   8.494  1.00  0.00     0.165 C 
ENDROOT
BRANCH   1   2
ATOM      2  C   UNL     1      41.651   6.359   7.296  1.00  0.00     0.190 C 
BRANCH   2   3
ATOM      3  O   UNL     1      42.708   6.072   6.421  1.00  0.00    -0.394 OA
ATOM      4  H   UNL     1      42.450   6.429   5.532  1.00  0.00     0.210 HD
ENDBRANCH   2   3
ENDBRANCH   1   2
BRANCH   1   5
ATOM      5  C   UNL     1      43.690   7.260   8.504  1.00  0.00     0.190 C 
BRANCH   5   6
ATOM      6  O   UNL     1      44.226   6.594   9.617  1.00  0.00    -0.394 OA
ATOM      7  H   UNL     1      44.134   7.209  10.391  1.00  0.00     0.210 HD
ENDBRANCH   5   6
ENDBRANCH   1   5
BRANCH   1   8
ATOM      8  O   UNL     1      41.692   6.596   9.686  1.00  0.00    -0.388 OA
ATOM      9  H   UNL     1      42.074   5.680   9.725  1.00  0.00     0.211 HD
ENDBRANCH   1   8
TORSDOF 5
ENDMDL
MODEL 3
REMARK VINA RESULT:    -2.924      0.744      2.264
REMARK INTER + INTRA:          -3.702
REMARK INTER:                  -3.517
REMARK INTRA:                  -0.185
REMARK UNBOUND:                -0.181
REMARK SMILES OCC(O)CO
REMARK SMILES IDX 3 1 5 2 6 3 2 5 1 6 4 8
REMARK H PARENT 6 4 1 7 4 9
REMARK Flexibility Score: inf
ROOT
ATOM      1  C   UNL     1      42.344   6.848   7.922  1.00  0.00     0.165 C 
ENDROOT
BRANCH   1   2
ATOM      2  C   UNL     1      41.206   7.094   8.923  1.00  0.00     0.190 C 
BRANCH   2   3
ATOM      3  O   UNL     1      41.703   7.111  10.234  1.00  0.00    -0.394 OA
ATOM      4  H   UNL     1      41.138   7.745  10.747  1.00  0.00     0.210 HD
ENDBRANCH   2   3
ENDBRANCH   1   2
BRANCH   1   5
ATOM      5  C   UNL     1      43.694   7.324   8.486  1.00  0.00     0.190 C 
BRANCH   5   6
ATOM      6  O   UNL     1      44.199   6.414   9.427  1.00  0.00    -0.394 OA
ATOM      7  H   UNL     1      44.072   5.506   9.046  1.00  0.00     0.210 HD
ENDBRANCH   5   6
ENDBRANCH   1   5
BRANCH   1   8
ATOM      8  O   UNL     1      42.061   7.510   6.717  1.00  0.00    -0.388 OA
ATOM      9  H   UNL     1      42.739   8.229   6.619  1.00  0.00     0.211 HD
ENDBRANCH   1   8
TORSDOF 5
ENDMDL
MODEL 4
REMARK VINA RESULT:    -2.809     21.874     22.499
REMARK INTER + INTRA:          -3.565
REMARK INTER:                  -3.349
REMARK INTRA:                  -0.216
REMARK UNBOUND:                -0.181
REMARK SMILES OCC(O)CO
REMARK SMILES IDX 3 1 5 2 6 3 2 5 1 6 4 8
REMARK H PARENT 6 4 1 7 4 9
REMARK Flexibility Score: inf
ROOT
ATOM      1  C   UNL     1      54.674  18.658  -5.404  1.00  0.00     0.165 C 
ENDROOT
BRANCH   1   2
ATOM      2  C   UNL     1      55.895  19.079  -4.574  1.00  0.00     0.190 C 
BRANCH   2   3
ATOM      3  O   UNL     1      56.772  19.849  -5.350  1.00  0.00    -0.394 OA
ATOM      4  H   UNL     1      57.472  19.232  -5.690  1.00  0.00     0.210 HD
ENDBRANCH   2   3
ENDBRANCH   1   2
BRANCH   1   5
ATOM      5  C   UNL     1      53.589  19.749  -5.390  1.00  0.00     0.190 C 
BRANCH   5   6
ATOM      6  O   UNL     1      54.018  20.897  -6.073  1.00  0.00    -0.394 OA
ATOM      7  H   UNL     1      53.490  20.946  -6.912  1.00  0.00     0.210 HD
ENDBRANCH   5   6
ENDBRANCH   1   5
BRANCH   1   8
ATOM      8  O   UNL     1      54.157  17.453  -4.901  1.00  0.00    -0.388 OA
ATOM      9  H   UNL     1      53.247  17.654  -4.557  1.00  0.00     0.211 HD
ENDBRANCH   1   8
TORSDOF 5
ENDMDL
MODEL 5
REMARK VINA RESULT:    -2.759      1.251      2.233
REMARK INTER + INTRA:          -3.504
REMARK INTER:                  -3.284
REMARK INTRA:                  -0.220
REMARK UNBOUND:                -0.181
REMARK SMILES OCC(O)CO
REMARK SMILES IDX 3 1 5 2 6 3 2 5 1 6 4 8
REMARK H PARENT 6 4 1 7 4 9
REMARK Flexibility Score: inf
ROOT
ATOM      1  C   UNL     1      42.228   6.663   8.719  1.00  0.00     0.165 C 
ENDROOT
BRANCH   1   2
ATOM      2  C   UNL     1      43.562   7.330   8.354  1.00  0.00     0.190 C 
BRANCH   2   3
ATOM      3  O   UNL     1      44.066   6.795   7.160  1.00  0.00    -0.394 OA
ATOM      4  H   UNL     1      43.416   7.024   6.446  1.00  0.00     0.210 HD
ENDBRANCH   2   3
ENDBRANCH   1   2
BRANCH   1   5
ATOM      5  C   UNL     1      41.079   7.204   7.852  1.00  0.00     0.190 C 
BRANCH   5   6
ATOM      6  O   UNL     1      41.130   6.672   6.554  1.00  0.00    -0.394 OA
ATOM      7  H   UNL     1      40.194   6.626   6.226  1.00  0.00     0.210 HD
ENDBRANCH   5   6
ENDBRANCH   1   5
BRANCH   1   8
ATOM      8  O   UNL     1      41.953   6.877  10.079  1.00  0.00    -0.388 OA
ATOM      9  H   UNL     1      41.969   7.859  10.223  1.00  0.00     0.211 HD
ENDBRANCH   1   8
TORSDOF 5
ENDMDL
MODEL 6
REMARK VINA RESULT:    -2.694      1.522      3.179
REMARK INTER + INTRA:          -3.426
REMARK INTER:                  -3.208
REMARK INTRA:                  -0.219
REMARK UNBOUND:                -0.181
REMARK SMILES OCC(O)CO
REMARK SMILES IDX 3 1 5 2 6 3 2 5 1 6 4 8
REMARK H PARENT 6 4 1 7 4 9
REMARK Flexibility Score: inf
ROOT
ATOM      1  C   UNL     1      43.260   7.314   8.195  1.00  0.00     0.165 C 
ENDROOT
BRANCH   1   2
ATOM      2  C   UNL     1      41.937   6.625   7.827  1.00  0.00     0.190 C 
BRANCH   2   3
ATOM      3  O   UNL     1      42.086   5.878   6.650  1.00  0.00    -0.394 OA
ATOM      4  H   UNL     1      43.061   5.786   6.490  1.00  0.00     0.210 HD
ENDBRANCH   2   3
ENDBRANCH   1   2
BRANCH   1   5
ATOM      5  C   UNL     1      44.208   7.379   6.986  1.00  0.00     0.190 C 
BRANCH   5   6
ATOM      6  O   UNL     1      43.759   8.312   6.039  1.00  0.00    -0.394 OA
ATOM      7  H   UNL     1      43.719   7.839   5.167  1.00  0.00     0.210 HD
ENDBRANCH   5   6
ENDBRANCH   1   5
BRANCH   1   8
ATOM      8  O   UNL     1      43.870   6.623   9.254  1.00  0.00    -0.388 OA
ATOM      9  H   UNL     1      44.834   6.860   9.232  1.00  0.00     0.211 HD
ENDBRANCH   1   8
TORSDOF 5
ENDMDL
MODEL 7
REMARK VINA RESULT:    -2.611     21.735     22.420
REMARK INTER + INTRA:          -3.326
REMARK INTER:                  -3.130
REMARK INTRA:                  -0.196
REMARK UNBOUND:                -0.181
REMARK SMILES OCC(O)CO
REMARK SMILES IDX 3 1 5 2 6 3 2 5 1 6 4 8
REMARK H PARENT 6 4 1 7 4 9
REMARK Flexibility Score: inf
ROOT
ATOM      1  C   UNL     1      53.948  18.722  -4.936  1.00  0.00     0.165 C 
ENDROOT
BRANCH   1   2
ATOM      2  C   UNL     1      53.161  19.977  -5.340  1.00  0.00     0.190 C 
BRANCH   2   3
ATOM      3  O   UNL     1      53.977  20.849  -6.076  1.00  0.00    -0.394 OA
ATOM      4  H   UNL     1      53.374  21.411  -6.626  1.00  0.00     0.210 HD
ENDBRANCH   2   3
ENDBRANCH   1   2
BRANCH   1   5
ATOM      5  C   UNL     1      55.319  19.090  -4.346  1.00  0.00     0.190 C 
BRANCH   5   6
ATOM      6  O   UNL     1      56.226  19.448  -5.355  1.00  0.00    -0.394 OA
ATOM      7  H   UNL     1      57.123  19.151  -5.053  1.00  0.00     0.210 HD
ENDBRANCH   5   6
ENDBRANCH   1   5
BRANCH   1   8
ATOM      8  O   UNL     1      54.108  17.888  -6.055  1.00  0.00    -0.388 OA
ATOM      9  H   UNL     1      54.606  17.087  -5.745  1.00  0.00     0.211 HD
ENDBRANCH   1   8
TORSDOF 5
ENDMDL
MODEL 8
REMARK VINA RESULT:    -2.607      1.029      2.776
REMARK INTER + INTRA:          -3.321
REMARK INTER:                  -3.318
REMARK INTRA:                  -0.003
REMARK UNBOUND:                -0.181
REMARK SMILES OCC(O)CO
REMARK SMILES IDX 3 1 5 2 6 3 2 5 1 6 4 8
REMARK H PARENT 6 4 1 7 4 9
REMARK Flexibility Score: inf
ROOT
ATOM      1  C   UNL     1      42.280   6.890   7.964  1.00  0.00     0.165 C 
ENDROOT
BRANCH   1   2
ATOM      2  C   UNL     1      41.173   7.105   9.006  1.00  0.00     0.190 C 
BRANCH   2   3
ATOM      3  O   UNL     1      41.716   7.124  10.299  1.00  0.00    -0.394 OA
ATOM      4  H   UNL     1      42.648   6.793  10.224  1.00  0.00     0.210 HD
ENDBRANCH   2   3
ENDBRANCH   1   2
BRANCH   1   5
ATOM      5  C   UNL     1      41.787   6.011   6.802  1.00  0.00     0.190 C 
BRANCH   5   6
ATOM      6  O   UNL     1      42.776   5.875   5.815  1.00  0.00    -0.394 OA
ATOM      7  H   UNL     1      43.536   5.394   6.235  1.00  0.00     0.210 HD
ENDBRANCH   5   6
ENDBRANCH   1   5
BRANCH   1   8
ATOM      8  O   UNL     1      43.396   6.300   8.580  1.00  0.00    -0.388 OA
ATOM      9  H   UNL     1      43.369   5.333   8.354  1.00  0.00     0.211 HD
ENDBRANCH   1   8
TORSDOF 5
ENDMDL
MODEL 9
REMARK VINA RESULT:    -2.173      1.954      2.918
REMARK INTER + INTRA:          -2.798
REMARK INTER:                  -2.579
REMARK INTRA:                  -0.219
REMARK UNBOUND:                -0.181
REMARK SMILES OCC(O)CO
REMARK SMILES IDX 3 1 5 2 6 3 2 5 1 6 4 8
REMARK H PARENT 6 4 1 7 4 9
REMARK Flexibility Score: inf
ROOT
ATOM      1  C   UNL     1      44.068   7.555   6.998  1.00  0.00     0.165 C 
ENDROOT
BRANCH   1   2
ATOM      2  C   UNL     1      42.838   7.248   6.132  1.00  0.00     0.190 C 
BRANCH   2   3
ATOM      3  O   UNL     1      42.764   5.875   5.859  1.00  0.00    -0.394 OA
ATOM      4  H   UNL     1      41.802   5.655   5.753  1.00  0.00     0.210 HD
ENDBRANCH   2   3
ENDBRANCH   1   2
BRANCH   1   5
ATOM      5  C   UNL     1      43.762   7.353   8.492  1.00  0.00     0.190 C 
BRANCH   5   6
ATOM      6  O   UNL     1      42.918   6.251   8.691  1.00  0.00    -0.394 OA
ATOM      7  H   UNL     1      43.330   5.699   9.406  1.00  0.00     0.210 HD
ENDBRANCH   5   6
ENDBRANCH   1   5
BRANCH   1   8
ATOM      8  O   UNL     1      44.490   8.874   6.763  1.00  0.00    -0.388 OA
ATOM      9  H   UNL     1      43.847   9.468   7.232  1.00  0.00     0.211 HD
ENDBRANCH   1   8
TORSDOF 5
ENDMDL
