MODEL 1
REMARK VINA RESULT:    -6.252      0.000      0.000
REMARK INTER + INTRA:         -11.168
REMARK INTER:                 -10.638
REMARK INTRA:                  -0.530
REMARK UNBOUND:                -0.530
REMARK SMILES CCCCCCCCCCCCCC(=O)[O-]
REMARK SMILES IDX 8 1 9 2 10 3 11 4 12 5 13 6 14 7 15 8 16 9 7 10 6 11 5 12
REMARK SMILES IDX 4 13 3 14 2 15 1 16
REMARK H PARENT
REMARK Flexibility Score: inf
ROOT
ATOM      1  C   UNL     1      94.167 123.479 123.991  1.00  0.00     0.000 C 
ENDROOT
BRANCH   1   2
ATOM      2  C   UNL     1      95.695 123.412 123.835  1.00  0.00     0.000 C 
BRANCH   2   3
ATOM      3  C   UNL     1      96.412 124.610 124.479  1.00  0.00     0.000 C 
BRANCH   3   4
ATOM      4  C   UNL     1      97.185 124.220 125.750  1.00  0.00     0.000 C 
BRANCH   4   5
ATOM      5  C   UNL     1      97.857 125.426 126.432  1.00  0.00     0.006 C 
BRANCH   5   6
ATOM      6  C   UNL     1      98.124 126.617 125.497  1.00  0.00     0.053 C 
BRANCH   6   7
ATOM      7  C   UNL     1      98.363 127.885 126.256  1.00  0.00     0.041 C 
ATOM      8  O   UNL     1      97.482 128.332 127.037  1.00  0.00    -0.550 OA
ATOM      9  O   UNL     1      99.573 128.556 126.126  1.00  0.00    -0.550 OA
ENDBRANCH   6   7
ENDBRANCH   5   6
ENDBRANCH   4   5
ENDBRANCH   3   4
ENDBRANCH   2   3
ENDBRANCH   1   2
BRANCH   1  10
ATOM     10  C   UNL     1      93.471 122.577 122.966  1.00  0.00     0.000 C 
BRANCH  10  11
ATOM     11  C   UNL     1      94.471 121.627 122.298  1.00  0.00    -0.000 C 
BRANCH  11  12
ATOM     12  C   UNL     1      93.902 121.057 120.993  1.00  0.00    -0.000 C 
BRANCH  12  13
ATOM     13  C   UNL     1      94.947 121.106 119.869  1.00  0.00    -0.000 C 
BRANCH  13  14
ATOM     14  C   UNL     1      94.332 120.931 118.469  1.00  0.00    -0.000 C 
BRANCH  14  15
ATOM     15  C   UNL     1      92.939 121.560 118.291  1.00  0.00    -0.003 C 
ATOM     16  C   UNL     1      92.437 121.503 116.849  1.00  0.00     0.004 C 
ENDBRANCH  14  15
ENDBRANCH  13  14
ENDBRANCH  12  13
ENDBRANCH  11  12
ENDBRANCH  10  11
ENDBRANCH   1  10
TORSDOF 12
ENDMDL
MODEL 2
REMARK VINA RESULT:    -6.097      0.862      1.147
REMARK INTER + INTRA:         -10.904
REMARK INTER:                 -10.429
REMARK INTRA:                  -0.476
REMARK UNBOUND:                -0.530
REMARK SMILES CCCCCCCCCCCCCC(=O)[O-]
REMARK SMILES IDX 8 1 9 2 10 3 11 4 12 5 13 6 14 7 15 8 16 9 7 10 6 11 5 12
REMARK SMILES IDX 4 13 3 14 2 15 1 16
REMARK H PARENT
REMARK Flexibility Score: inf
ROOT
ATOM      1  C   UNL     1      94.350 123.466 124.125  1.00  0.00     0.000 C 
ENDROOT
BRANCH   1   2
ATOM      2  C   UNL     1      95.870 123.327 123.946  1.00  0.00     0.000 C 
BRANCH   2   3
ATOM      3  C   UNL     1      96.664 123.935 125.114  1.00  0.00     0.000 C 
BRANCH   3   4
ATOM      4  C   UNL     1      97.096 125.386 124.841  1.00  0.00     0.000 C 
BRANCH   4   5
ATOM      5  C   UNL     1      98.024 125.946 125.935  1.00  0.00     0.006 C 
BRANCH   5   6
ATOM      6  C   UNL     1      98.155 127.478 125.933  1.00  0.00     0.053 C 
BRANCH   6   7
ATOM      7  C   UNL     1      99.557 127.921 125.648  1.00  0.00     0.041 C 
ATOM      8  O   UNL     1     100.260 127.301 124.808  1.00  0.00    -0.550 OA
ATOM      9  O   UNL     1     100.077 129.039 126.290  1.00  0.00    -0.550 OA
ENDBRANCH   6   7
ENDBRANCH   5   6
ENDBRANCH   4   5
ENDBRANCH   3   4
ENDBRANCH   2   3
ENDBRANCH   1   2
BRANCH   1  10
ATOM     10  C   UNL     1      93.597 122.660 123.060  1.00  0.00     0.000 C 
BRANCH  10  11
ATOM     11  C   UNL     1      94.559 121.786 122.247  1.00  0.00    -0.000 C 
BRANCH  11  12
ATOM     12  C   UNL     1      93.871 121.228 120.995  1.00  0.00    -0.000 C 
BRANCH  12  13
ATOM     13  C   UNL     1      94.836 121.206 119.800  1.00  0.00    -0.000 C 
BRANCH  13  14
ATOM     14  C   UNL     1      94.131 120.906 118.465  1.00  0.00    -0.000 C 
BRANCH  14  15
ATOM     15  C   UNL     1      92.767 121.596 118.284  1.00  0.00    -0.003 C 
ATOM     16  C   UNL     1      92.405 121.832 116.819  1.00  0.00     0.004 C 
ENDBRANCH  14  15
ENDBRANCH  13  14
ENDBRANCH  12  13
ENDBRANCH  11  12
ENDBRANCH  10  11
ENDBRANCH   1  10
TORSDOF 12
ENDMDL
MODEL 3
REMARK VINA RESULT:    -5.963      1.821      2.341
REMARK INTER + INTRA:         -10.676
REMARK INTER:                 -10.029
REMARK INTRA:                  -0.647
REMARK UNBOUND:                -0.530
REMARK SMILES CCCCCCCCCCCCCC(=O)[O-]
REMARK SMILES IDX 8 1 9 2 10 3 11 4 12 5 13 6 14 7 15 8 16 9 7 10 6 11 5 12
REMARK SMILES IDX 4 13 3 14 2 15 1 16
REMARK H PARENT
REMARK Flexibility Score: inf
ROOT
ATOM      1  C   UNL     1      95.866 122.248 122.196  1.00  0.00     0.000 C 
ENDROOT
BRANCH   1   2
ATOM      2  C   UNL     1      96.422 122.667 123.566  1.00  0.00     0.000 C 
BRANCH   2   3
ATOM      3  C   UNL     1      95.945 124.062 124.001  1.00  0.00     0.000 C 
BRANCH   3   4
ATOM      4  C   UNL     1      96.752 124.618 125.187  1.00  0.00     0.000 C 
BRANCH   4   5
ATOM      5  C   UNL     1      97.433 123.512 126.014  1.00  0.00     0.006 C 
BRANCH   5   6
ATOM      6  C   UNL     1      98.656 123.982 126.818  1.00  0.00     0.053 C 
BRANCH   6   7
ATOM      7  C   UNL     1      98.264 124.598 128.126  1.00  0.00     0.041 C 
ATOM      8  O   UNL     1      97.626 123.926 128.978  1.00  0.00    -0.550 OA
ATOM      9  O   UNL     1      98.633 125.906 128.416  1.00  0.00    -0.550 OA
ENDBRANCH   6   7
ENDBRANCH   5   6
ENDBRANCH   4   5
ENDBRANCH   3   4
ENDBRANCH   2   3
ENDBRANCH   1   2
BRANCH   1  10
ATOM     10  C   UNL     1      94.342 122.095 122.246  1.00  0.00     0.000 C 
BRANCH  10  11
ATOM     11  C   UNL     1      93.837 121.223 121.090  1.00  0.00    -0.000 C 
BRANCH  11  12
ATOM     12  C   UNL     1      94.860 121.176 119.948  1.00  0.00    -0.000 C 
BRANCH  12  13
ATOM     13  C   UNL     1      94.159 121.068 118.586  1.00  0.00    -0.000 C 
BRANCH  13  14
ATOM     14  C   UNL     1      92.790 121.770 118.558  1.00  0.00    -0.000 C 
BRANCH  14  15
ATOM     15  C   UNL     1      92.189 121.960 117.154  1.00  0.00    -0.003 C 
ATOM     16  C   UNL     1      92.647 120.897 116.157  1.00  0.00     0.004 C 
ENDBRANCH  14  15
ENDBRANCH  13  14
ENDBRANCH  12  13
ENDBRANCH  11  12
ENDBRANCH  10  11
ENDBRANCH   1  10
TORSDOF 12
ENDMDL
MODEL 4
REMARK VINA RESULT:    -5.838      1.203      1.926
REMARK INTER + INTRA:         -10.464
REMARK INTER:                 -10.004
REMARK INTRA:                  -0.460
REMARK UNBOUND:                -0.530
REMARK SMILES CCCCCCCCCCCCCC(=O)[O-]
REMARK SMILES IDX 8 1 9 2 10 3 11 4 12 5 13 6 14 7 15 8 16 9 7 10 6 11 5 12
REMARK SMILES IDX 4 13 3 14 2 15 1 16
REMARK H PARENT
REMARK Flexibility Score: inf
ROOT
ATOM      1  C   UNL     1      95.906 123.064 123.813  1.00  0.00     0.000 C 
ENDROOT
BRANCH   1   2
ATOM      2  C   UNL     1      96.716 123.678 124.966  1.00  0.00     0.000 C 
BRANCH   2   3
ATOM      3  C   UNL     1      96.902 125.197 124.819  1.00  0.00     0.000 C 
BRANCH   3   4
ATOM      4  C   UNL     1      97.792 125.791 125.925  1.00  0.00     0.000 C 
BRANCH   4   5
ATOM      5  C   UNL     1      98.483 127.098 125.494  1.00  0.00     0.006 C 
BRANCH   5   6
ATOM      6  C   UNL     1     100.019 127.044 125.522  1.00  0.00     0.053 C 
BRANCH   6   7
ATOM      7  C   UNL     1     100.634 128.346 125.113  1.00  0.00     0.041 C 
ATOM      8  O   UNL     1     100.554 129.351 125.867  1.00  0.00    -0.550 OA
ATOM      9  O   UNL     1     101.325 128.441 123.911  1.00  0.00    -0.550 OA
ENDBRANCH   6   7
ENDBRANCH   5   6
ENDBRANCH   4   5
ENDBRANCH   3   4
ENDBRANCH   2   3
ENDBRANCH   1   2
BRANCH   1  10
ATOM     10  C   UNL     1      94.442 123.513 123.870  1.00  0.00     0.000 C 
BRANCH  10  11
ATOM     11  C   UNL     1      93.544 122.572 123.058  1.00  0.00    -0.000 C 
BRANCH  11  12
ATOM     12  C   UNL     1      94.380 121.547 122.282  1.00  0.00    -0.000 C 
BRANCH  12  13
ATOM     13  C   UNL     1      93.764 121.265 120.904  1.00  0.00    -0.000 C 
BRANCH  13  14
ATOM     14  C   UNL     1      94.821 121.068 119.803  1.00  0.00    -0.000 C 
BRANCH  14  15
ATOM     15  C   UNL     1      94.252 120.876 118.386  1.00  0.00    -0.003 C 
ATOM     16  C   UNL     1      93.031 121.752 118.108  1.00  0.00     0.004 C 
ENDBRANCH  14  15
ENDBRANCH  13  14
ENDBRANCH  12  13
ENDBRANCH  11  12
ENDBRANCH  10  11
ENDBRANCH   1  10
TORSDOF 12
ENDMDL
MODEL 5
REMARK VINA RESULT:    -5.748      4.620      8.795
REMARK INTER + INTRA:         -10.310
REMARK INTER:                  -9.936
REMARK INTRA:                  -0.374
REMARK UNBOUND:                -0.530
REMARK SMILES CCCCCCCCCCCCCC(=O)[O-]
REMARK SMILES IDX 8 1 9 2 10 3 11 4 12 5 13 6 14 7 15 8 16 9 7 10 6 11 5 12
REMARK SMILES IDX 4 13 3 14 2 15 1 16
REMARK H PARENT
REMARK Flexibility Score: inf
ROOT
ATOM      1  C   UNL     1      93.570 122.531 122.766  1.00  0.00     0.000 C 
ENDROOT
BRANCH   1   2
ATOM      2  C   UNL     1      93.597 121.564 121.572  1.00  0.00     0.000 C 
BRANCH   2   3
ATOM      3  C   UNL     1      94.991 121.444 120.936  1.00  0.00     0.000 C 
BRANCH   3   4
ATOM      4  C   UNL     1      94.970 121.692 119.417  1.00  0.00     0.000 C 
BRANCH   4   5
ATOM      5  C   UNL     1      93.881 120.875 118.697  1.00  0.00     0.006 C 
BRANCH   5   6
ATOM      6  C   UNL     1      92.573 121.643 118.447  1.00  0.00     0.053 C 
BRANCH   6   7
ATOM      7  C   UNL     1      92.566 122.319 117.111  1.00  0.00     0.041 C 
ATOM      8  O   UNL     1      92.401 121.647 116.059  1.00  0.00    -0.550 OA
ATOM      9  O   UNL     1      92.710 123.699 117.029  1.00  0.00    -0.550 OA
ENDBRANCH   6   7
ENDBRANCH   5   6
ENDBRANCH   4   5
ENDBRANCH   3   4
ENDBRANCH   2   3
ENDBRANCH   1   2
BRANCH   1  10
ATOM     10  C   UNL     1      94.982 122.772 123.310  1.00  0.00     0.000 C 
BRANCH  10  11
ATOM     11  C   UNL     1      94.985 123.882 124.367  1.00  0.00    -0.000 C 
BRANCH  11  12
ATOM     12  C   UNL     1      96.343 124.591 124.419  1.00  0.00    -0.000 C 
BRANCH  12  13
ATOM     13  C   UNL     1      97.144 124.158 125.655  1.00  0.00    -0.000 C 
BRANCH  13  14
ATOM     14  C   UNL     1      97.895 125.323 126.323  1.00  0.00    -0.000 C 
BRANCH  14  15
ATOM     15  C   UNL     1      98.045 126.582 125.450  1.00  0.00    -0.003 C 
ATOM     16  C   UNL     1      98.767 127.723 126.165  1.00  0.00     0.004 C 
ENDBRANCH  14  15
ENDBRANCH  13  14
ENDBRANCH  12  13
ENDBRANCH  11  12
ENDBRANCH  10  11
ENDBRANCH   1  10
TORSDOF 12
ENDMDL
MODEL 6
REMARK VINA RESULT:    -5.476      1.172      1.575
REMARK INTER + INTRA:          -9.847
REMARK INTER:                  -9.318
REMARK INTRA:                  -0.529
REMARK UNBOUND:                -0.530
REMARK SMILES CCCCCCCCCCCCCC(=O)[O-]
REMARK SMILES IDX 8 1 9 2 10 3 11 4 12 5 13 6 14 7 15 8 16 9 7 10 6 11 5 12
REMARK SMILES IDX 4 13 3 14 2 15 1 16
REMARK H PARENT
REMARK Flexibility Score: inf
ROOT
ATOM      1  C   UNL     1      95.693 124.134 124.070  1.00  0.00     0.000 C 
ENDROOT
BRANCH   1   2
ATOM      2  C   UNL     1      96.678 123.518 125.076  1.00  0.00     0.000 C 
BRANCH   2   3
ATOM      3  C   UNL     1      97.427 124.579 125.900  1.00  0.00     0.000 C 
BRANCH   3   4
ATOM      4  C   UNL     1      97.556 125.920 125.157  1.00  0.00     0.000 C 
BRANCH   4   5
ATOM      5  C   UNL     1      98.597 126.857 125.798  1.00  0.00     0.006 C 
BRANCH   5   6
ATOM      6  C   UNL     1      97.995 128.028 126.590  1.00  0.00     0.053 C 
BRANCH   6   7
ATOM      7  C   UNL     1      98.019 127.779 128.066  1.00  0.00     0.041 C 
ATOM      8  O   UNL     1      97.142 127.052 128.602  1.00  0.00    -0.550 OA
ATOM      9  O   UNL     1      99.032 128.324 128.847  1.00  0.00    -0.550 OA
ENDBRANCH   6   7
ENDBRANCH   5   6
ENDBRANCH   4   5
ENDBRANCH   3   4
ENDBRANCH   2   3
ENDBRANCH   1   2
BRANCH   1  10
ATOM     10  C   UNL     1      94.717 123.078 123.540  1.00  0.00     0.000 C 
BRANCH  10  11
ATOM     11  C   UNL     1      95.399 122.157 122.522  1.00  0.00    -0.000 C 
BRANCH  11  12
ATOM     12  C   UNL     1      94.379 121.574 121.536  1.00  0.00    -0.000 C 
BRANCH  12  13
ATOM     13  C   UNL     1      95.041 121.243 120.191  1.00  0.00    -0.000 C 
BRANCH  13  14
ATOM     14  C   UNL     1      94.021 120.945 119.077  1.00  0.00    -0.000 C 
BRANCH  14  15
ATOM     15  C   UNL     1      92.792 121.873 119.061  1.00  0.00    -0.003 C 
ATOM     16  C   UNL     1      92.085 121.905 117.707  1.00  0.00     0.004 C 
ENDBRANCH  14  15
ENDBRANCH  13  14
ENDBRANCH  12  13
ENDBRANCH  11  12
ENDBRANCH  10  11
ENDBRANCH   1  10
TORSDOF 12
ENDMDL
MODEL 7
REMARK VINA RESULT:    -5.387      4.266      8.746
REMARK INTER + INTRA:          -9.697
REMARK INTER:                  -8.967
REMARK INTRA:                  -0.730
REMARK UNBOUND:                -0.530
REMARK SMILES CCCCCCCCCCCCCC(=O)[O-]
REMARK SMILES IDX 8 1 9 2 10 3 11 4 12 5 13 6 14 7 15 8 16 9 7 10 6 11 5 12
REMARK SMILES IDX 4 13 3 14 2 15 1 16
REMARK H PARENT
REMARK Flexibility Score: inf
ROOT
ATOM      1  C   UNL     1      96.168 124.612 124.437  1.00  0.00     0.000 C 
ENDROOT
BRANCH   1   2
ATOM      2  C   UNL     1      95.411 123.563 123.608  1.00  0.00     0.000 C 
BRANCH   2   3
ATOM      3  C   UNL     1      96.271 122.332 123.278  1.00  0.00     0.000 C 
BRANCH   3   4
ATOM      4  C   UNL     1      96.282 122.006 121.774  1.00  0.00     0.000 C 
BRANCH   4   5
ATOM      5  C   UNL     1      94.897 121.591 121.245  1.00  0.00     0.006 C 
BRANCH   5   6
ATOM      6  C   UNL     1      94.884 121.163 119.768  1.00  0.00     0.053 C 
BRANCH   6   7
ATOM      7  C   UNL     1      93.546 121.381 119.133  1.00  0.00     0.041 C 
ATOM      8  O   UNL     1      93.345 121.030 117.940  1.00  0.00    -0.550 OA
ATOM      9  O   UNL     1      92.510 121.943 119.869  1.00  0.00    -0.550 OA
ENDBRANCH   6   7
ENDBRANCH   5   6
ENDBRANCH   4   5
ENDBRANCH   3   4
ENDBRANCH   2   3
ENDBRANCH   1   2
BRANCH   1  10
ATOM     10  C   UNL     1      96.843 123.968 125.653  1.00  0.00     0.000 C 
BRANCH  10  11
ATOM     11  C   UNL     1      98.020 124.818 126.145  1.00  0.00    -0.000 C 
BRANCH  11  12
ATOM     12  C   UNL     1      97.702 125.470 127.496  1.00  0.00    -0.000 C 
BRANCH  12  13
ATOM     13  C   UNL     1      98.148 126.940 127.517  1.00  0.00    -0.000 C 
BRANCH  13  14
ATOM     14  C   UNL     1      98.250 127.556 126.110  1.00  0.00    -0.000 C 
BRANCH  14  15
ATOM     15  C   UNL     1      99.605 128.213 125.789  1.00  0.00    -0.003 C 
ATOM     16  C   UNL     1     100.518 127.321 124.948  1.00  0.00     0.004 C 
ENDBRANCH  14  15
ENDBRANCH  13  14
ENDBRANCH  12  13
ENDBRANCH  11  12
ENDBRANCH  10  11
ENDBRANCH   1  10
TORSDOF 12
ENDMDL
MODEL 8
REMARK VINA RESULT:    -5.276      4.055      9.087
REMARK INTER + INTRA:          -9.507
REMARK INTER:                  -8.979
REMARK INTRA:                  -0.528
REMARK UNBOUND:                -0.530
REMARK SMILES CCCCCCCCCCCCCC(=O)[O-]
REMARK SMILES IDX 8 1 9 2 10 3 11 4 12 5 13 6 14 7 15 8 16 9 7 10 6 11 5 12
REMARK SMILES IDX 4 13 3 14 2 15 1 16
REMARK H PARENT
REMARK Flexibility Score: inf
ROOT
ATOM      1  C   UNL     1      96.931 123.845 125.937  1.00  0.00     0.000 C 
ENDROOT
BRANCH   1   2
ATOM      2  C   UNL     1      96.523 124.615 124.671  1.00  0.00     0.000 C 
BRANCH   2   3
ATOM      3  C   UNL     1      95.753 123.743 123.666  1.00  0.00     0.000 C 
BRANCH   3   4
ATOM      4  C   UNL     1      94.322 123.427 124.135  1.00  0.00     0.000 C 
BRANCH   4   5
ATOM      5  C   UNL     1      93.540 122.570 123.123  1.00  0.00     0.006 C 
BRANCH   5   6
ATOM      6  C   UNL     1      94.373 121.469 122.446  1.00  0.00     0.053 C 
BRANCH   6   7
ATOM      7  C   UNL     1      94.036 121.325 120.994  1.00  0.00     0.041 C 
ATOM      8  O   UNL     1      92.862 121.535 120.590  1.00  0.00    -0.550 OA
ATOM      9  O   UNL     1      95.028 120.990 120.080  1.00  0.00    -0.550 OA
ENDBRANCH   6   7
ENDBRANCH   5   6
ENDBRANCH   4   5
ENDBRANCH   3   4
ENDBRANCH   2   3
ENDBRANCH   1   2
BRANCH   1  10
ATOM     10  C   UNL     1      98.170 124.473 126.586  1.00  0.00     0.000 C 
BRANCH  10  11
ATOM     11  C   UNL     1      97.845 125.850 127.176  1.00  0.00    -0.000 C 
BRANCH  11  12
ATOM     12  C   UNL     1      98.594 126.960 126.429  1.00  0.00    -0.000 C 
BRANCH  12  13
ATOM     13  C   UNL     1      98.015 128.341 126.771  1.00  0.00    -0.000 C 
BRANCH  13  14
ATOM     14  C   UNL     1      97.367 128.392 128.165  1.00  0.00    -0.000 C 
BRANCH  14  15
ATOM     15  C   UNL     1      97.334 129.788 128.813  1.00  0.00    -0.003 C 
ATOM     16  C   UNL     1      96.051 130.053 129.599  1.00  0.00     0.004 C 
ENDBRANCH  14  15
ENDBRANCH  13  14
ENDBRANCH  12  13
ENDBRANCH  11  12
ENDBRANCH  10  11
ENDBRANCH   1  10
TORSDOF 12
ENDMDL
MODEL 9
REMARK VINA RESULT:    -5.048      3.961      9.110
REMARK INTER + INTRA:          -9.119
REMARK INTER:                  -8.239
REMARK INTRA:                  -0.880
REMARK UNBOUND:                -0.530
REMARK SMILES CCCCCCCCCCCCCC(=O)[O-]
REMARK SMILES IDX 8 1 9 2 10 3 11 4 12 5 13 6 14 7 15 8 16 9 7 10 6 11 5 12
REMARK SMILES IDX 4 13 3 14 2 15 1 16
REMARK H PARENT
REMARK Flexibility Score: inf
ROOT
ATOM      1  C   UNL     1      97.875 125.087 126.530  1.00  0.00     0.000 C 
ENDROOT
BRANCH   1   2
ATOM      2  C   UNL     1      97.239 123.879 125.824  1.00  0.00     0.000 C 
BRANCH   2   3
ATOM      3  C   UNL     1      96.269 124.288 124.703  1.00  0.00     0.000 C 
BRANCH   3   4
ATOM      4  C   UNL     1      96.079 123.178 123.654  1.00  0.00     0.000 C 
BRANCH   4   5
ATOM      5  C   UNL     1      94.618 123.048 123.184  1.00  0.00     0.006 C 
BRANCH   5   6
ATOM      6  C   UNL     1      94.215 121.628 122.752  1.00  0.00     0.053 C 
BRANCH   6   7
ATOM      7  C   UNL     1      94.032 121.524 121.270  1.00  0.00     0.041 C 
ATOM      8  O   UNL     1      92.891 121.672 120.759  1.00  0.00    -0.550 OA
ATOM      9  O   UNL     1      95.129 121.294 120.448  1.00  0.00    -0.550 OA
ENDBRANCH   6   7
ENDBRANCH   5   6
ENDBRANCH   4   5
ENDBRANCH   3   4
ENDBRANCH   2   3
ENDBRANCH   1   2
BRANCH   1  10
ATOM     10  C   UNL     1      98.339 126.136 125.512  1.00  0.00     0.000 C 
BRANCH  10  11
ATOM     11  C   UNL     1      97.992 127.553 125.983  1.00  0.00    -0.000 C 
BRANCH  11  12
ATOM     12  C   UNL     1      99.185 128.205 126.692  1.00  0.00    -0.000 C 
BRANCH  12  13
ATOM     13  C   UNL     1      98.718 129.061 127.879  1.00  0.00    -0.000 C 
BRANCH  13  14
ATOM     14  C   UNL     1      97.215 128.911 128.174  1.00  0.00    -0.000 C 
BRANCH  14  15
ATOM     15  C   UNL     1      96.882 128.346 129.567  1.00  0.00    -0.003 C 
ATOM     16  C   UNL     1      96.935 126.820 129.621  1.00  0.00     0.004 C 
ENDBRANCH  14  15
ENDBRANCH  13  14
ENDBRANCH  12  13
ENDBRANCH  11  12
ENDBRANCH  10  11
ENDBRANCH   1  10
TORSDOF 12
ENDMDL
