MODEL 1
REMARK VINA RESULT:    -4.878      0.000      0.000
REMARK INTER + INTRA:          -7.634
REMARK INTER:                  -7.159
REMARK INTRA:                  -0.475
REMARK UNBOUND:                -0.475
REMARK SMILES O=C([O-])CCCCCCCC(=O)[O-]
REMARK SMILES IDX 7 1 6 2 5 3 4 4 2 5 1 6 3 7 8 8 9 9 10 10 11 11 12 12 13 13
REMARK H PARENT
REMARK Flexibility Score: inf
ROOT
ATOM      1  C   UNL     1      18.670  20.312 -13.720  1.00  0.00     0.000 C 
ENDROOT
BRANCH   1   2
ATOM      2  C   UNL     1      19.626  19.118 -13.586  1.00  0.00     0.000 C 
BRANCH   2   3
ATOM      3  C   UNL     1      18.913  17.913 -12.954  1.00  0.00     0.006 C 
BRANCH   3   4
ATOM      4  C   UNL     1      19.784  17.205 -11.908  1.00  0.00     0.053 C 
BRANCH   4   5
ATOM      5  C   UNL     1      19.704  17.876 -10.571  1.00  0.00     0.041 C 
ATOM      6  O   UNL     1      20.559  17.620  -9.682  1.00  0.00    -0.550 OA
ATOM      7  O   UNL     1      18.666  18.756 -10.294  1.00  0.00    -0.550 OA
ENDBRANCH   4   5
ENDBRANCH   3   4
ENDBRANCH   2   3
ENDBRANCH   1   2
BRANCH   1   8
ATOM      8  C   UNL     1      17.224  19.958 -13.337  1.00  0.00     0.000 C 
BRANCH   8   9
ATOM      9  C   UNL     1      16.671  20.857 -12.217  1.00  0.00     0.006 C 
BRANCH   9  10
ATOM     10  C   UNL     1      15.957  22.098 -12.770  1.00  0.00     0.053 C 
BRANCH  10  11
ATOM     11  C   UNL     1      14.668  22.362 -12.056  1.00  0.00     0.041 C 
ATOM     12  O   UNL     1      13.889  21.412 -11.783  1.00  0.00    -0.550 OA
ATOM     13  O   UNL     1      14.310  23.663 -11.724  1.00  0.00    -0.550 OA
ENDBRANCH  10  11
ENDBRANCH   9  10
ENDBRANCH   8   9
ENDBRANCH   1   8
TORSDOF 8
ENDMDL
MODEL 2
REMARK VINA RESULT:    -4.781      0.706      5.963
REMARK INTER + INTRA:          -7.491
REMARK INTER:                  -7.056
REMARK INTRA:                  -0.436
REMARK UNBOUND:                -0.475
REMARK SMILES O=C([O-])CCCCCCCC(=O)[O-]
REMARK SMILES IDX 7 1 6 2 5 3 4 4 2 5 1 6 3 7 8 8 9 9 10 10 11 11 12 12 13 13
REMARK H PARENT
REMARK Flexibility Score: inf
ROOT
ATOM      1  C   UNL     1      17.397  19.325 -13.758  1.00  0.00     0.000 C 
ENDROOT
BRANCH   1   2
ATOM      2  C   UNL     1      17.542  20.719 -13.131  1.00  0.00     0.000 C 
BRANCH   2   3
ATOM      3  C   UNL     1      16.277  21.102 -12.347  1.00  0.00     0.006 C 
BRANCH   3   4
ATOM      4  C   UNL     1      15.670  22.425 -12.833  1.00  0.00     0.053 C 
BRANCH   4   5
ATOM      5  C   UNL     1      14.430  22.780 -12.073  1.00  0.00     0.041 C 
ATOM      6  O   UNL     1      13.482  21.955 -11.986  1.00  0.00    -0.550 OA
ATOM      7  O   UNL     1      14.304  24.036 -11.492  1.00  0.00    -0.550 OA
ENDBRANCH   4   5
ENDBRANCH   3   4
ENDBRANCH   2   3
ENDBRANCH   1   2
BRANCH   1   8
ATOM      8  C   UNL     1      18.751  18.692 -14.114  1.00  0.00     0.000 C 
BRANCH   8   9
ATOM      9  C   UNL     1      19.821  18.940 -13.036  1.00  0.00     0.006 C 
BRANCH   9  10
ATOM     10  C   UNL     1      20.035  17.714 -12.139  1.00  0.00     0.053 C 
BRANCH  10  11
ATOM     11  C   UNL     1      19.679  17.999 -10.713  1.00  0.00     0.041 C 
ATOM     12  O   UNL     1      18.705  18.748 -10.441  1.00  0.00    -0.550 OA
ATOM     13  O   UNL     1      20.445  17.466  -9.684  1.00  0.00    -0.550 OA
ENDBRANCH  10  11
ENDBRANCH   9  10
ENDBRANCH   8   9
ENDBRANCH   1   8
TORSDOF 8
ENDMDL
MODEL 3
REMARK VINA RESULT:    -4.615      1.163      1.836
REMARK INTER + INTRA:          -7.248
REMARK INTER:                  -6.807
REMARK INTRA:                  -0.441
REMARK UNBOUND:                -0.475
REMARK SMILES O=C([O-])CCCCCCCC(=O)[O-]
REMARK SMILES IDX 7 1 6 2 5 3 4 4 2 5 1 6 3 7 8 8 9 9 10 10 11 11 12 12 13 13
REMARK H PARENT
REMARK Flexibility Score: inf
ROOT
ATOM      1  C   UNL     1      17.036  21.301 -12.768  1.00  0.00     0.000 C 
ENDROOT
BRANCH   1   2
ATOM      2  C   UNL     1      18.137  20.438 -13.402  1.00  0.00     0.000 C 
BRANCH   2   3
ATOM      3  C   UNL     1      18.004  18.971 -12.967  1.00  0.00     0.006 C 
BRANCH   3   4
ATOM      4  C   UNL     1      19.338  18.383 -12.488  1.00  0.00     0.053 C 
BRANCH   4   5
ATOM      5  C   UNL     1      19.376  18.225 -11.000  1.00  0.00     0.041 C 
ATOM      6  O   UNL     1      18.581  18.879 -10.273  1.00  0.00    -0.550 OA
ATOM      7  O   UNL     1      20.312  17.384 -10.411  1.00  0.00    -0.550 OA
ENDBRANCH   4   5
ENDBRANCH   3   4
ENDBRANCH   2   3
ENDBRANCH   1   2
BRANCH   1   8
ATOM      8  C   UNL     1      15.948  20.460 -12.080  1.00  0.00     0.000 C 
BRANCH   8   9
ATOM      9  C   UNL     1      14.636  21.238 -11.882  1.00  0.00     0.006 C 
BRANCH   9  10
ATOM     10  C   UNL     1      14.686  22.631 -12.524  1.00  0.00     0.053 C 
BRANCH  10  11
ATOM     11  C   UNL     1      13.379  23.350 -12.396  1.00  0.00     0.041 C 
ATOM     12  O   UNL     1      12.438  22.840 -11.735  1.00  0.00    -0.550 OA
ATOM     13  O   UNL     1      13.189  24.568 -13.038  1.00  0.00    -0.550 OA
ENDBRANCH  10  11
ENDBRANCH   9  10
ENDBRANCH   8   9
ENDBRANCH   1   8
TORSDOF 8
ENDMDL
MODEL 4
REMARK VINA RESULT:    -4.607     11.425     13.680
REMARK INTER + INTRA:          -7.237
REMARK INTER:                  -6.651
REMARK INTRA:                  -0.586
REMARK UNBOUND:                -0.475
REMARK SMILES O=C([O-])CCCCCCCC(=O)[O-]
REMARK SMILES IDX 7 1 6 2 5 3 4 4 2 5 1 6 3 7 8 8 9 9 10 10 11 11 12 12 13 13
REMARK H PARENT
REMARK Flexibility Score: inf
ROOT
ATOM      1  C   UNL     1       4.673  15.433  -8.357  1.00  0.00     0.000 C 
ENDROOT
BRANCH   1   2
ATOM      2  C   UNL     1       4.353  15.340  -6.857  1.00  0.00     0.000 C 
BRANCH   2   3
ATOM      3  C   UNL     1       3.927  16.706  -6.301  1.00  0.00     0.006 C 
BRANCH   3   4
ATOM      4  C   UNL     1       4.926  17.816  -6.655  1.00  0.00     0.053 C 
BRANCH   4   5
ATOM      5  C   UNL     1       6.168  17.733  -5.823  1.00  0.00     0.041 C 
ATOM      6  O   UNL     1       6.198  18.250  -4.675  1.00  0.00    -0.550 OA
ATOM      7  O   UNL     1       7.306  17.115  -6.329  1.00  0.00    -0.550 OA
ENDBRANCH   4   5
ENDBRANCH   3   4
ENDBRANCH   2   3
ENDBRANCH   1   2
BRANCH   1   8
ATOM      8  C   UNL     1       5.560  14.277  -8.846  1.00  0.00     0.000 C 
BRANCH   8   9
ATOM      9  C   UNL     1       6.707  13.958  -7.871  1.00  0.00     0.006 C 
BRANCH   9  10
ATOM     10  C   UNL     1       8.032  13.700  -8.600  1.00  0.00     0.053 C 
BRANCH  10  11
ATOM     11  C   UNL     1       8.414  14.849  -9.482  1.00  0.00     0.041 C 
ATOM     12  O   UNL     1       8.753  15.950  -8.975  1.00  0.00    -0.550 OA
ATOM     13  O   UNL     1       8.361  14.714 -10.863  1.00  0.00    -0.550 OA
ENDBRANCH  10  11
ENDBRANCH   9  10
ENDBRANCH   8   9
ENDBRANCH   1   8
TORSDOF 8
ENDMDL
MODEL 5
REMARK VINA RESULT:    -4.526     11.350     12.933
REMARK INTER + INTRA:          -7.118
REMARK INTER:                  -6.559
REMARK INTRA:                  -0.560
REMARK UNBOUND:                -0.475
REMARK SMILES O=C([O-])CCCCCCCC(=O)[O-]
REMARK SMILES IDX 7 1 6 2 5 3 4 4 2 5 1 6 3 7 8 8 9 9 10 10 11 11 12 12 13 13
REMARK H PARENT
REMARK Flexibility Score: inf
ROOT
ATOM      1  C   UNL     1       4.669  15.359  -8.490  1.00  0.00     0.000 C 
ENDROOT
BRANCH   1   2
ATOM      2  C   UNL     1       5.587  14.222  -8.960  1.00  0.00     0.000 C 
BRANCH   2   3
ATOM      3  C   UNL     1       6.825  14.108  -8.058  1.00  0.00     0.006 C 
BRANCH   3   4
ATOM      4  C   UNL     1       8.001  13.423  -8.768  1.00  0.00     0.053 C 
BRANCH   4   5
ATOM      5  C   UNL     1       8.983  14.416  -9.306  1.00  0.00     0.041 C 
ATOM      6  O   UNL     1       8.756  15.651  -9.204  1.00  0.00    -0.550 OA
ATOM      7  O   UNL     1      10.133  13.979  -9.952  1.00  0.00    -0.550 OA
ENDBRANCH   4   5
ENDBRANCH   3   4
ENDBRANCH   2   3
ENDBRANCH   1   2
BRANCH   1   8
ATOM      8  C   UNL     1       4.385  15.305  -6.980  1.00  0.00     0.000 C 
BRANCH   8   9
ATOM      9  C   UNL     1       3.989  16.675  -6.403  1.00  0.00     0.006 C 
BRANCH   9  10
ATOM     10  C   UNL     1       4.915  17.798  -6.891  1.00  0.00     0.053 C 
BRANCH  10  11
ATOM     11  C   UNL     1       6.213  17.811  -6.145  1.00  0.00     0.041 C 
ATOM     12  O   UNL     1       7.263  17.389  -6.694  1.00  0.00    -0.550 OA
ATOM     13  O   UNL     1       6.256  18.257  -4.829  1.00  0.00    -0.550 OA
ENDBRANCH  10  11
ENDBRANCH   9  10
ENDBRANCH   8   9
ENDBRANCH   1   8
TORSDOF 8
ENDMDL
MODEL 6
REMARK VINA RESULT:    -4.488      1.520      6.555
REMARK INTER + INTRA:          -7.062
REMARK INTER:                  -6.681
REMARK INTRA:                  -0.381
REMARK UNBOUND:                -0.475
REMARK SMILES O=C([O-])CCCCCCCC(=O)[O-]
REMARK SMILES IDX 7 1 6 2 5 3 4 4 2 5 1 6 3 7 8 8 9 9 10 10 11 11 12 12 13 13
REMARK H PARENT
REMARK Flexibility Score: inf
ROOT
ATOM      1  C   UNL     1      16.176  20.481 -12.217  1.00  0.00     0.000 C 
ENDROOT
BRANCH   1   2
ATOM      2  C   UNL     1      14.976  21.427 -12.060  1.00  0.00     0.000 C 
BRANCH   2   3
ATOM      3  C   UNL     1      15.307  22.827 -12.600  1.00  0.00     0.006 C 
BRANCH   3   4
ATOM      4  C   UNL     1      14.151  23.425 -13.412  1.00  0.00     0.053 C 
BRANCH   4   5
ATOM      5  C   UNL     1      12.834  23.244 -12.723  1.00  0.00     0.041 C 
ATOM      6  O   UNL     1      12.616  23.806 -11.617  1.00  0.00    -0.550 OA
ATOM      7  O   UNL     1      11.860  22.427 -13.283  1.00  0.00    -0.550 OA
ENDBRANCH   4   5
ENDBRANCH   3   4
ENDBRANCH   2   3
ENDBRANCH   1   2
BRANCH   1   8
ATOM      8  C   UNL     1      17.344  21.127 -12.978  1.00  0.00     0.000 C 
BRANCH   8   9
ATOM      9  C   UNL     1      18.389  20.098 -13.443  1.00  0.00     0.006 C 
BRANCH   9  10
ATOM     10  C   UNL     1      18.176  18.723 -12.794  1.00  0.00     0.053 C 
BRANCH  10  11
ATOM     11  C   UNL     1      19.141  18.480 -11.676  1.00  0.00     0.041 C 
ATOM     12  O   UNL     1      20.277  17.993 -11.915  1.00  0.00    -0.550 OA
ATOM     13  O   UNL     1      18.773  18.757 -10.365  1.00  0.00    -0.550 OA
ENDBRANCH  10  11
ENDBRANCH   9  10
ENDBRANCH   8   9
ENDBRANCH   1   8
TORSDOF 8
ENDMDL
MODEL 7
REMARK VINA RESULT:    -4.405     11.090     13.378
REMARK INTER + INTRA:          -6.940
REMARK INTER:                  -6.374
REMARK INTRA:                  -0.565
REMARK UNBOUND:                -0.475
REMARK SMILES O=C([O-])CCCCCCCC(=O)[O-]
REMARK SMILES IDX 7 1 6 2 5 3 4 4 2 5 1 6 3 7 8 8 9 9 10 10 11 11 12 12 13 13
REMARK H PARENT
REMARK Flexibility Score: inf
ROOT
ATOM      1  C   UNL     1       4.726  15.118  -8.425  1.00  0.00     0.000 C 
ENDROOT
BRANCH   1   2
ATOM      2  C   UNL     1       4.320  15.239  -6.948  1.00  0.00     0.000 C 
BRANCH   2   3
ATOM      3  C   UNL     1       4.075  16.707  -6.566  1.00  0.00     0.006 C 
BRANCH   3   4
ATOM      4  C   UNL     1       5.063  17.659  -7.253  1.00  0.00     0.053 C 
BRANCH   4   5
ATOM      5  C   UNL     1       6.351  17.765  -6.496  1.00  0.00     0.041 C 
ATOM      6  O   UNL     1       7.447  17.549  -7.078  1.00  0.00    -0.550 OA
ATOM      7  O   UNL     1       6.340  18.069  -5.140  1.00  0.00    -0.550 OA
ENDBRANCH   4   5
ENDBRANCH   3   4
ENDBRANCH   2   3
ENDBRANCH   1   2
BRANCH   1   8
ATOM      8  C   UNL     1       6.065  14.386  -8.612  1.00  0.00     0.000 C 
BRANCH   8   9
ATOM      9  C   UNL     1       6.884  14.943  -9.789  1.00  0.00     0.006 C 
BRANCH   9  10
ATOM     10  C   UNL     1       8.368  15.110  -9.434  1.00  0.00     0.053 C 
BRANCH  10  11
ATOM     11  C   UNL     1       9.238  14.190 -10.233  1.00  0.00     0.041 C 
ATOM     12  O   UNL     1       8.734  13.455 -11.122  1.00  0.00    -0.550 OA
ATOM     13  O   UNL     1      10.600  14.118  -9.971  1.00  0.00    -0.550 OA
ENDBRANCH  10  11
ENDBRANCH   9  10
ENDBRANCH   8   9
ENDBRANCH   1   8
TORSDOF 8
ENDMDL
MODEL 8
REMARK VINA RESULT:    -4.363      1.787      2.939
REMARK INTER + INTRA:          -6.878
REMARK INTER:                  -6.302
REMARK INTRA:                  -0.576
REMARK UNBOUND:                -0.475
REMARK SMILES O=C([O-])CCCCCCCC(=O)[O-]
REMARK SMILES IDX 7 1 6 2 5 3 4 4 2 5 1 6 3 7 8 8 9 9 10 10 11 11 12 12 13 13
REMARK H PARENT
REMARK Flexibility Score: inf
ROOT
ATOM      1  C   UNL     1      18.957  17.585 -13.800  1.00  0.00     0.000 C 
ENDROOT
BRANCH   1   2
ATOM      2  C   UNL     1      19.679  16.684 -12.788  1.00  0.00     0.000 C 
BRANCH   2   3
ATOM      3  C   UNL     1      20.696  17.488 -11.964  1.00  0.00     0.006 C 
BRANCH   3   4
ATOM      4  C   UNL     1      20.409  17.419 -10.458  1.00  0.00     0.053 C 
BRANCH   4   5
ATOM      5  C   UNL     1      21.644  17.113  -9.669  1.00  0.00     0.041 C 
ATOM      6  O   UNL     1      21.557  16.528  -8.557  1.00  0.00    -0.550 OA
ATOM      7  O   UNL     1      22.890  17.505 -10.144  1.00  0.00    -0.550 OA
ENDBRANCH   4   5
ENDBRANCH   3   4
ENDBRANCH   2   3
ENDBRANCH   1   2
BRANCH   1   8
ATOM      8  C   UNL     1      19.691  18.915 -14.038  1.00  0.00     0.000 C 
BRANCH   8   9
ATOM      9  C   UNL     1      18.793  20.139 -13.788  1.00  0.00     0.006 C 
BRANCH   9  10
ATOM     10  C   UNL     1      17.337  19.743 -13.509  1.00  0.00     0.053 C 
BRANCH  10  11
ATOM     11  C   UNL     1      16.959  19.985 -12.080  1.00  0.00     0.041 C 
ATOM     12  O   UNL     1      17.660  19.509 -11.150  1.00  0.00    -0.550 OA
ATOM     13  O   UNL     1      15.812  20.707 -11.777  1.00  0.00    -0.550 OA
ENDBRANCH  10  11
ENDBRANCH   9  10
ENDBRANCH   8   9
ENDBRANCH   1   8
TORSDOF 8
ENDMDL
MODEL 9
REMARK VINA RESULT:    -4.280      2.014      6.626
REMARK INTER + INTRA:          -6.756
REMARK INTER:                  -6.245
REMARK INTRA:                  -0.511
REMARK UNBOUND:                -0.475
REMARK SMILES O=C([O-])CCCCCCCC(=O)[O-]
REMARK SMILES IDX 7 1 6 2 5 3 4 4 2 5 1 6 3 7 8 8 9 9 10 10 11 11 12 12 13 13
REMARK H PARENT
REMARK Flexibility Score: inf
ROOT
ATOM      1  C   UNL     1      19.255  17.205 -11.876  1.00  0.00     0.000 C 
ENDROOT
BRANCH   1   2
ATOM      2  C   UNL     1      18.997  17.884 -13.229  1.00  0.00     0.000 C 
BRANCH   2   3
ATOM      3  C   UNL     1      19.013  19.414 -13.087  1.00  0.00     0.006 C 
BRANCH   3   4
ATOM      4  C   UNL     1      17.754  20.065 -13.675  1.00  0.00     0.053 C 
BRANCH   4   5
ATOM      5  C   UNL     1      16.934  20.745 -12.622  1.00  0.00     0.041 C 
ATOM      6  O   UNL     1      16.734  20.181 -11.514  1.00  0.00    -0.550 OA
ATOM      7  O   UNL     1      16.361  21.984 -12.877  1.00  0.00    -0.550 OA
ENDBRANCH   4   5
ENDBRANCH   3   4
ENDBRANCH   2   3
ENDBRANCH   1   2
BRANCH   1   8
ATOM      8  C   UNL     1      19.523  18.214 -10.748  1.00  0.00     0.000 C 
BRANCH   8   9
ATOM      9  C   UNL     1      20.868  17.969 -10.042  1.00  0.00     0.006 C 
BRANCH   9  10
ATOM     10  C   UNL     1      21.503  16.635 -10.454  1.00  0.00     0.053 C 
BRANCH  10  11
ATOM     11  C   UNL     1      21.961  15.847  -9.266  1.00  0.00     0.041 C 
ATOM     12  O   UNL     1      23.128  15.996  -8.819  1.00  0.00    -0.550 OA
ATOM     13  O   UNL     1      21.111  14.920  -8.675  1.00  0.00    -0.550 OA
ENDBRANCH  10  11
ENDBRANCH   9  10
ENDBRANCH   8   9
ENDBRANCH   1   8
TORSDOF 8
ENDMDL
