MODEL 1
REMARK VINA RESULT:    -5.301      0.000      0.000
REMARK INTER + INTRA:          -6.191
REMARK INTER:                  -6.075
REMARK INTRA:                  -0.116
REMARK UNBOUND:                -0.116
REMARK SMILES COc1cc(C(C)=O)ccc1O
REMARK SMILES IDX 5 1 4 2 3 3 11 4 10 5 9 6 6 7 7 8 8 9 2 10 1 11 12 12
REMARK H PARENT 12 13
REMARK Flexibility Score: inf
ROOT
ATOM      1  C   UNL     1      31.070   8.913 105.554  1.00  0.00     0.021 A 
ATOM      2  C   UNL     1      31.489   8.330 106.766  1.00  0.00     0.062 A 
ATOM      3  C   UNL     1      31.439   6.933 106.953  1.00  0.00     0.161 A 
ATOM      4  C   UNL     1      30.964   6.117 105.911  1.00  0.00     0.157 A 
ATOM      5  C   UNL     1      30.548   6.691 104.708  1.00  0.00     0.051 A 
ATOM      6  C   UNL     1      30.599   8.075 104.527  1.00  0.00     0.016 A 
ENDROOT
BRANCH   1   7
ATOM      7  C   UNL     1      31.130  10.390 105.378  1.00  0.00     0.159 C 
ATOM      8  C   UNL     1      29.901  11.248 105.445  1.00  0.00     0.093 C 
ATOM      9  O   UNL     1      32.239  10.951 105.163  1.00  0.00    -0.295 OA
ENDBRANCH   1   7
BRANCH   3  10
ATOM     10  O   UNL     1      31.851   6.328 108.151  1.00  0.00    -0.493 OA
ATOM     11  C   UNL     1      33.192   5.962 108.454  1.00  0.00     0.278 C 
ENDBRANCH   3  10
BRANCH   4  12
ATOM     12  O   UNL     1      30.899   4.731 106.053  1.00  0.00    -0.504 OA
ATOM     13  H   UNL     1      30.043   4.254 106.309  1.00  0.00     0.293 HD
ENDBRANCH   4  12
TORSDOF 3
ENDMDL
MODEL 2
REMARK VINA RESULT:    -4.948      2.161      3.303
REMARK INTER + INTRA:          -5.787
REMARK INTER:                  -5.679
REMARK INTRA:                  -0.108
REMARK UNBOUND:                -0.116
REMARK SMILES COc1cc(C(C)=O)ccc1O
REMARK SMILES IDX 5 1 4 2 3 3 11 4 10 5 9 6 6 7 7 8 8 9 2 10 1 11 12 12
REMARK H PARENT 12 13
REMARK Flexibility Score: inf
ROOT
ATOM      1  C   UNL     1      31.478   7.744 106.281  1.00  0.00     0.021 A 
ATOM      2  C   UNL     1      32.579   8.521 106.688  1.00  0.00     0.062 A 
ATOM      3  C   UNL     1      33.356   8.149 107.804  1.00  0.00     0.161 A 
ATOM      4  C   UNL     1      33.021   6.984 108.516  1.00  0.00     0.157 A 
ATOM      5  C   UNL     1      31.930   6.210 108.117  1.00  0.00     0.051 A 
ATOM      6  C   UNL     1      31.163   6.582 107.011  1.00  0.00     0.016 A 
ENDROOT
BRANCH   1   7
ATOM      7  C   UNL     1      30.670   8.155 105.100  1.00  0.00     0.159 C 
ATOM      8  C   UNL     1      30.271   7.179 104.033  1.00  0.00     0.093 C 
ATOM      9  O   UNL     1      30.303   9.355 104.979  1.00  0.00    -0.295 OA
ENDBRANCH   1   7
BRANCH   3  10
ATOM     10  O   UNL     1      34.459   8.908 108.229  1.00  0.00    -0.493 OA
ATOM     11  C   UNL     1      35.294   9.674 107.368  1.00  0.00     0.278 C 
ENDBRANCH   3  10
BRANCH   4  12
ATOM     12  O   UNL     1      33.763   6.579 109.626  1.00  0.00    -0.504 OA
ATOM     13  H   UNL     1      33.349   6.068 110.396  1.00  0.00     0.293 HD
ENDBRANCH   4  12
TORSDOF 3
ENDMDL
MODEL 3
REMARK VINA RESULT:    -4.875      2.590      4.803
REMARK INTER + INTRA:          -5.703
REMARK INTER:                  -5.590
REMARK INTRA:                  -0.113
REMARK UNBOUND:                -0.116
REMARK SMILES COc1cc(C(C)=O)ccc1O
REMARK SMILES IDX 5 1 4 2 3 3 11 4 10 5 9 6 6 7 7 8 8 9 2 10 1 11 12 12
REMARK H PARENT 12 13
REMARK Flexibility Score: inf
ROOT
ATOM      1  C   UNL     1      32.531   8.062 107.398  1.00  0.00     0.021 A 
ATOM      2  C   UNL     1      33.843   8.549 107.559  1.00  0.00     0.062 A 
ATOM      3  C   UNL     1      34.380   9.495 106.661  1.00  0.00     0.161 A 
ATOM      4  C   UNL     1      33.589   9.953 105.593  1.00  0.00     0.157 A 
ATOM      5  C   UNL     1      32.288   9.473 105.430  1.00  0.00     0.051 A 
ATOM      6  C   UNL     1      31.760   8.537 106.321  1.00  0.00     0.016 A 
ENDROOT
BRANCH   1   7
ATOM      7  C   UNL     1      31.983   7.063 108.357  1.00  0.00     0.159 C 
ATOM      8  C   UNL     1      32.247   5.594 108.209  1.00  0.00     0.093 C 
ATOM      9  O   UNL     1      31.274   7.449 109.326  1.00  0.00    -0.295 OA
ENDBRANCH   1   7
BRANCH   3  10
ATOM     10  O   UNL     1      35.684   9.995 106.801  1.00  0.00    -0.493 OA
ATOM     11  C   UNL     1      36.047  11.089 107.636  1.00  0.00     0.278 C 
ENDBRANCH   3  10
BRANCH   4  12
ATOM     12  O   UNL     1      34.081  10.889 104.682  1.00  0.00    -0.504 OA
ATOM     13  H   UNL     1      34.782  10.653 103.991  1.00  0.00     0.293 HD
ENDBRANCH   4  12
TORSDOF 3
ENDMDL
MODEL 4
REMARK VINA RESULT:    -4.701      1.695      3.014
REMARK INTER + INTRA:          -5.503
REMARK INTER:                  -5.392
REMARK INTRA:                  -0.111
REMARK UNBOUND:                -0.116
REMARK SMILES COc1cc(C(C)=O)ccc1O
REMARK SMILES IDX 5 1 4 2 3 3 11 4 10 5 9 6 6 7 7 8 8 9 2 10 1 11 12 12
REMARK H PARENT 12 13
REMARK Flexibility Score: inf
ROOT
ATOM      1  C   UNL     1      31.450   7.695 106.243  1.00  0.00     0.021 A 
ATOM      2  C   UNL     1      31.517   6.306 106.467  1.00  0.00     0.062 A 
ATOM      3  C   UNL     1      32.236   5.781 107.560  1.00  0.00     0.161 A 
ATOM      4  C   UNL     1      32.893   6.663 108.436  1.00  0.00     0.157 A 
ATOM      5  C   UNL     1      32.830   8.041 108.219  1.00  0.00     0.051 A 
ATOM      6  C   UNL     1      32.116   8.556 107.135  1.00  0.00     0.016 A 
ENDROOT
BRANCH   1   7
ATOM      7  C   UNL     1      30.686   8.228 105.082  1.00  0.00     0.159 C 
ATOM      8  C   UNL     1      30.253   7.349 103.946  1.00  0.00     0.093 C 
ATOM      9  O   UNL     1      30.389   9.453 105.038  1.00  0.00    -0.295 OA
ENDBRANCH   1   7
BRANCH   3  10
ATOM     10  O   UNL     1      32.317   4.400 107.803  1.00  0.00    -0.493 OA
ATOM     11  C   UNL     1      33.280   3.531 107.219  1.00  0.00     0.278 C 
ENDBRANCH   3  10
BRANCH   4  12
ATOM     12  O   UNL     1      33.615   6.186 109.531  1.00  0.00    -0.504 OA
ATOM     13  H   UNL     1      33.448   6.517 110.473  1.00  0.00     0.293 HD
ENDBRANCH   4  12
TORSDOF 3
ENDMDL
MODEL 5
REMARK VINA RESULT:    -4.663      3.080      4.888
REMARK INTER + INTRA:          -5.460
REMARK INTER:                  -5.333
REMARK INTRA:                  -0.127
REMARK UNBOUND:                -0.116
REMARK SMILES COc1cc(C(C)=O)ccc1O
REMARK SMILES IDX 5 1 4 2 3 3 11 4 10 5 9 6 6 7 7 8 8 9 2 10 1 11 12 12
REMARK H PARENT 12 13
REMARK Flexibility Score: inf
ROOT
ATOM      1  C   UNL     1      32.557   9.235 105.995  1.00  0.00     0.021 A 
ATOM      2  C   UNL     1      33.449  10.172 105.437  1.00  0.00     0.062 A 
ATOM      3  C   UNL     1      34.735  10.362 105.983  1.00  0.00     0.161 A 
ATOM      4  C   UNL     1      35.126   9.603 107.099  1.00  0.00     0.157 A 
ATOM      5  C   UNL     1      34.246   8.673 107.656  1.00  0.00     0.051 A 
ATOM      6  C   UNL     1      32.973   8.488 107.112  1.00  0.00     0.016 A 
ENDROOT
BRANCH   1   7
ATOM      7  C   UNL     1      31.203   9.050 105.404  1.00  0.00     0.159 C 
ATOM      8  C   UNL     1      30.654   7.691 105.088  1.00  0.00     0.093 C 
ATOM      9  O   UNL     1      30.485  10.057 105.155  1.00  0.00    -0.295 OA
ENDBRANCH   1   7
BRANCH   3  10
ATOM     10  O   UNL     1      35.641  11.290 105.443  1.00  0.00    -0.493 OA
ATOM     11  C   UNL     1      35.631  12.686 105.720  1.00  0.00     0.278 C 
ENDBRANCH   3  10
BRANCH   4  12
ATOM     12  O   UNL     1      36.390   9.759 107.670  1.00  0.00    -0.504 OA
ATOM     13  H   UNL     1      37.174  10.134 107.151  1.00  0.00     0.293 HD
ENDBRANCH   4  12
TORSDOF 3
ENDMDL
MODEL 6
REMARK VINA RESULT:    -4.574      2.872      3.401
REMARK INTER + INTRA:          -5.358
REMARK INTER:                  -5.262
REMARK INTRA:                  -0.096
REMARK UNBOUND:                -0.116
REMARK SMILES COc1cc(C(C)=O)ccc1O
REMARK SMILES IDX 5 1 4 2 3 3 11 4 10 5 9 6 6 7 7 8 8 9 2 10 1 11 12 12
REMARK H PARENT 12 13
REMARK Flexibility Score: inf
ROOT
ATOM      1  C   UNL     1      34.236   9.673 106.632  1.00  0.00     0.021 A 
ATOM      2  C   UNL     1      33.943   8.671 107.579  1.00  0.00     0.062 A 
ATOM      3  C   UNL     1      32.731   7.954 107.524  1.00  0.00     0.161 A 
ATOM      4  C   UNL     1      31.805   8.246 106.507  1.00  0.00     0.157 A 
ATOM      5  C   UNL     1      32.091   9.237 105.566  1.00  0.00     0.051 A 
ATOM      6  C   UNL     1      33.292   9.946 105.624  1.00  0.00     0.016 A 
ENDROOT
BRANCH   1   7
ATOM      7  C   UNL     1      35.521  10.420 106.709  1.00  0.00     0.159 C 
ATOM      8  C   UNL     1      35.916  11.195 107.930  1.00  0.00     0.093 C 
ATOM      9  O   UNL     1      36.310  10.410 105.725  1.00  0.00    -0.295 OA
ENDBRANCH   1   7
BRANCH   3  10
ATOM     10  O   UNL     1      32.417   6.951 108.456  1.00  0.00    -0.493 OA
ATOM     11  C   UNL     1      32.723   5.571 108.294  1.00  0.00     0.278 C 
ENDBRANCH   3  10
BRANCH   4  12
ATOM     12  O   UNL     1      30.594   7.560 106.415  1.00  0.00    -0.504 OA
ATOM     13  H   UNL     1      29.863   7.660 107.108  1.00  0.00     0.293 HD
ENDBRANCH   4  12
TORSDOF 3
ENDMDL
MODEL 7
REMARK VINA RESULT:    -4.546      2.759      4.959
REMARK INTER + INTRA:          -5.326
REMARK INTER:                  -5.213
REMARK INTRA:                  -0.113
REMARK UNBOUND:                -0.116
REMARK SMILES COc1cc(C(C)=O)ccc1O
REMARK SMILES IDX 5 1 4 2 3 3 11 4 10 5 9 6 6 7 7 8 8 9 2 10 1 11 12 12
REMARK H PARENT 12 13
REMARK Flexibility Score: inf
ROOT
ATOM      1  C   UNL     1      32.386  12.447 104.996  1.00  0.00     0.021 A 
ATOM      2  C   UNL     1      31.961  11.107 105.075  1.00  0.00     0.062 A 
ATOM      3  C   UNL     1      30.611  10.788 105.326  1.00  0.00     0.161 A 
ATOM      4  C   UNL     1      29.681  11.828 105.499  1.00  0.00     0.157 A 
ATOM      5  C   UNL     1      30.097  13.158 105.421  1.00  0.00     0.051 A 
ATOM      6  C   UNL     1      31.435  13.469 105.172  1.00  0.00     0.016 A 
ENDROOT
BRANCH   1   7
ATOM      7  C   UNL     1      33.817  12.762 104.731  1.00  0.00     0.159 C 
ATOM      8  C   UNL     1      34.391  14.123 104.992  1.00  0.00     0.093 C 
ATOM      9  O   UNL     1      34.580  11.869 104.272  1.00  0.00    -0.295 OA
ENDBRANCH   1   7
BRANCH   3  10
ATOM     10  O   UNL     1      30.164   9.459 105.409  1.00  0.00    -0.493 OA
ATOM     11  C   UNL     1      30.946   8.319 105.072  1.00  0.00     0.278 C 
ENDBRANCH   3  10
BRANCH   4  12
ATOM     12  O   UNL     1      28.335  11.557 105.748  1.00  0.00    -0.504 OA
ATOM     13  H   UNL     1      27.625  11.644 105.031  1.00  0.00     0.293 HD
ENDBRANCH   4  12
TORSDOF 3
ENDMDL
MODEL 8
REMARK VINA RESULT:    -4.380      2.138      5.020
REMARK INTER + INTRA:          -5.136
REMARK INTER:                  -5.063
REMARK INTRA:                  -0.073
REMARK UNBOUND:                -0.116
REMARK SMILES COc1cc(C(C)=O)ccc1O
REMARK SMILES IDX 5 1 4 2 3 3 11 4 10 5 9 6 6 7 7 8 8 9 2 10 1 11 12 12
REMARK H PARENT 12 13
REMARK Flexibility Score: inf
ROOT
ATOM      1  C   UNL     1      31.438   9.302 105.452  1.00  0.00     0.021 A 
ATOM      2  C   UNL     1      32.800   9.663 105.457  1.00  0.00     0.062 A 
ATOM      3  C   UNL     1      33.195  11.003 105.268  1.00  0.00     0.161 A 
ATOM      4  C   UNL     1      32.211  11.988 105.074  1.00  0.00     0.157 A 
ATOM      5  C   UNL     1      30.860  11.636 105.069  1.00  0.00     0.051 A 
ATOM      6  C   UNL     1      30.473  10.307 105.256  1.00  0.00     0.016 A 
ENDROOT
BRANCH   1   7
ATOM      7  C   UNL     1      31.042   7.881 105.652  1.00  0.00     0.159 C 
ATOM      8  C   UNL     1      31.381   7.132 106.907  1.00  0.00     0.093 C 
ATOM      9  O   UNL     1      30.404   7.276 104.748  1.00  0.00    -0.295 OA
ENDBRANCH   1   7
BRANCH   3  10
ATOM     10  O   UNL     1      34.546  11.387 105.269  1.00  0.00    -0.493 OA
ATOM     11  C   UNL     1      35.242  11.897 106.401  1.00  0.00     0.278 C 
ENDBRANCH   3  10
BRANCH   4  12
ATOM     12  O   UNL     1      32.558  13.327 104.884  1.00  0.00    -0.504 OA
ATOM     13  H   UNL     1      32.060  14.083 105.337  1.00  0.00     0.293 HD
ENDBRANCH   4  12
TORSDOF 3
ENDMDL
MODEL 9
REMARK VINA RESULT:    -4.369      2.823      3.949
REMARK INTER + INTRA:          -5.124
REMARK INTER:                  -5.144
REMARK INTRA:                   0.020
REMARK UNBOUND:                -0.116
REMARK SMILES COc1cc(C(C)=O)ccc1O
REMARK SMILES IDX 5 1 4 2 3 3 11 4 10 5 9 6 6 7 7 8 8 9 2 10 1 11 12 12
REMARK H PARENT 12 13
REMARK Flexibility Score: inf
ROOT
ATOM      1  C   UNL     1      34.203   9.591 106.587  1.00  0.00     0.021 A 
ATOM      2  C   UNL     1      33.054   9.512 105.776  1.00  0.00     0.062 A 
ATOM      3  C   UNL     1      31.964   8.695 106.141  1.00  0.00     0.161 A 
ATOM      4  C   UNL     1      32.032   7.952 107.332  1.00  0.00     0.157 A 
ATOM      5  C   UNL     1      33.168   8.027 108.139  1.00  0.00     0.051 A 
ATOM      6  C   UNL     1      34.245   8.837 107.774  1.00  0.00     0.016 A 
ENDROOT
BRANCH   1   7
ATOM      7  C   UNL     1      35.343  10.459 106.183  1.00  0.00     0.159 C 
ATOM      8  C   UNL     1      35.439  11.893 106.612  1.00  0.00     0.093 C 
ATOM      9  O   UNL     1      36.262   9.988 105.458  1.00  0.00    -0.295 OA
ENDBRANCH   1   7
BRANCH   3  10
ATOM     10  O   UNL     1      30.808   8.601 105.349  1.00  0.00    -0.493 OA
ATOM     11  C   UNL     1      30.451   7.464 104.571  1.00  0.00     0.278 C 
ENDBRANCH   3  10
BRANCH   4  12
ATOM     12  O   UNL     1      30.976   7.132 107.731  1.00  0.00    -0.504 OA
ATOM     13  H   UNL     1      31.108   6.156 107.966  1.00  0.00     0.293 HD
ENDBRANCH   4  12
TORSDOF 3
ENDMDL
