MODEL 1
REMARK VINA RESULT:    -3.407      0.000      0.000
REMARK INTER + INTRA:          -8.678
REMARK INTER:                  -6.196
REMARK INTRA:                  -2.483
REMARK UNBOUND:                -2.483
REMARK SMILES CCCCCCCCCCCCCC[C@@H](C)C(=O)[O-]
REMARK SMILES IDX 9 1 10 2 11 3 12 4 13 5 14 6 15 7 16 8 17 9 18 10 19 11 8 12
REMARK SMILES IDX 7 13 6 14 5 15 4 16 3 17 2 18 1 19
REMARK H PARENT
REMARK Flexibility Score: inf
ROOT
ATOM      1  C   UNL     1     -18.151 -22.008   5.701  1.00  0.00     0.000 C 
ENDROOT
BRANCH   1   2
ATOM      2  C   UNL     1     -18.894 -22.498   4.452  1.00  0.00     0.000 C 
BRANCH   2   3
ATOM      3  C   UNL     1     -20.114 -21.612   4.156  1.00  0.00     0.000 C 
BRANCH   3   4
ATOM      4  C   UNL     1     -20.599 -21.736   2.703  1.00  0.00     0.000 C 
BRANCH   4   5
ATOM      5  C   UNL     1     -21.400 -20.507   2.240  1.00  0.00     0.001 C 
BRANCH   5   6
ATOM      6  C   UNL     1     -21.140 -20.139   0.767  1.00  0.00     0.009 C 
BRANCH   6   7
ATOM      7  C   UNL     1     -22.355 -20.307  -0.176  1.00  0.00     0.032 C 
ATOM      8  C   UNL     1     -22.005 -20.023  -1.644  1.00  0.00     0.014 C 
BRANCH   7   9
ATOM      9  C   UNL     1     -22.908 -21.700  -0.044  1.00  0.00     0.044 C 
ATOM     10  O   UNL     1     -22.312 -22.678  -0.570  1.00  0.00    -0.550 OA
ATOM     11  O   UNL     1     -24.078 -21.916   0.673  1.00  0.00    -0.550 OA
ENDBRANCH   7   9
ENDBRANCH   6   7
ENDBRANCH   5   6
ENDBRANCH   4   5
ENDBRANCH   3   4
ENDBRANCH   2   3
ENDBRANCH   1   2
BRANCH   1  12
ATOM     12  C   UNL     1     -18.293 -20.486   5.865  1.00  0.00     0.000 C 
BRANCH  12  13
ATOM     13  C   UNL     1     -16.938 -19.763   5.902  1.00  0.00    -0.000 C 
BRANCH  13  14
ATOM     14  C   UNL     1     -15.886 -20.431   4.999  1.00  0.00    -0.000 C 
BRANCH  14  15
ATOM     15  C   UNL     1     -15.740 -19.724   3.642  1.00  0.00    -0.000 C 
BRANCH  15  16
ATOM     16  C   UNL     1     -16.516 -20.432   2.517  1.00  0.00    -0.000 C 
BRANCH  16  17
ATOM     17  C   UNL     1     -17.647 -19.563   1.944  1.00  0.00    -0.000 C 
BRANCH  17  18
ATOM     18  C   UNL     1     -17.672 -18.152   2.549  1.00  0.00    -0.003 C 
ATOM     19  C   UNL     1     -18.974 -17.899   3.303  1.00  0.00     0.004 C 
ENDBRANCH  17  18
ENDBRANCH  16  17
ENDBRANCH  15  16
ENDBRANCH  14  15
ENDBRANCH  13  14
ENDBRANCH  12  13
ENDBRANCH   1  12
TORSDOF 14
ENDMDL
MODEL 2
REMARK VINA RESULT:    -3.403      5.191      7.570
REMARK INTER + INTRA:          -8.671
REMARK INTER:                  -7.188
REMARK INTRA:                  -1.483
REMARK UNBOUND:                -2.483
REMARK SMILES CCCCCCCCCCCCCC[C@@H](C)C(=O)[O-]
REMARK SMILES IDX 9 1 10 2 11 3 12 4 13 5 14 6 15 7 16 8 17 9 18 10 19 11 8 12
REMARK SMILES IDX 7 13 6 14 5 15 4 16 3 17 2 18 1 19
REMARK H PARENT
REMARK Flexibility Score: inf
ROOT
ATOM      1  C   UNL     1     -17.365 -14.318   1.096  1.00  0.00     0.000 C 
ENDROOT
BRANCH   1   2
ATOM      2  C   UNL     1     -17.704 -15.771   0.739  1.00  0.00     0.000 C 
BRANCH   2   3
ATOM      3  C   UNL     1     -19.060 -16.182   1.333  1.00  0.00     0.000 C 
BRANCH   3   4
ATOM      4  C   UNL     1     -19.035 -17.588   1.953  1.00  0.00     0.000 C 
BRANCH   4   5
ATOM      5  C   UNL     1     -17.609 -18.066   2.275  1.00  0.00     0.001 C 
BRANCH   5   6
ATOM      6  C   UNL     1     -17.277 -19.434   1.649  1.00  0.00     0.009 C 
BRANCH   6   7
ATOM      7  C   UNL     1     -16.749 -20.499   2.639  1.00  0.00     0.032 C 
ATOM      8  C   UNL     1     -15.617 -19.966   3.529  1.00  0.00     0.014 C 
BRANCH   7   9
ATOM      9  C   UNL     1     -17.881 -20.996   3.497  1.00  0.00     0.044 C 
ATOM     10  O   UNL     1     -19.012 -21.229   2.993  1.00  0.00    -0.550 OA
ATOM     11  O   UNL     1     -17.678 -21.214   4.854  1.00  0.00    -0.550 OA
ENDBRANCH   7   9
ENDBRANCH   6   7
ENDBRANCH   5   6
ENDBRANCH   4   5
ENDBRANCH   3   4
ENDBRANCH   2   3
ENDBRANCH   1   2
BRANCH   1  12
ATOM     12  C   UNL     1     -15.960 -13.942   0.600  1.00  0.00     0.000 C 
BRANCH  12  13
ATOM     13  C   UNL     1     -15.589 -12.485   0.915  1.00  0.00    -0.000 C 
BRANCH  13  14
ATOM     14  C   UNL     1     -15.101 -11.718  -0.327  1.00  0.00    -0.000 C 
BRANCH  14  15
ATOM     15  C   UNL     1     -16.260 -11.159  -1.168  1.00  0.00    -0.000 C 
BRANCH  15  16
ATOM     16  C   UNL     1     -16.558 -12.014  -2.412  1.00  0.00    -0.000 C 
BRANCH  16  17
ATOM     17  C   UNL     1     -18.003 -12.535  -2.437  1.00  0.00    -0.000 C 
BRANCH  17  18
ATOM     18  C   UNL     1     -18.126 -13.902  -3.126  1.00  0.00    -0.003 C 
ATOM     19  C   UNL     1     -16.950 -14.806  -2.770  1.00  0.00     0.004 C 
ENDBRANCH  17  18
ENDBRANCH  16  17
ENDBRANCH  15  16
ENDBRANCH  14  15
ENDBRANCH  13  14
ENDBRANCH  12  13
ENDBRANCH   1  12
TORSDOF 14
ENDMDL
MODEL 3
REMARK VINA RESULT:    -3.355      7.834      9.573
REMARK INTER + INTRA:          -8.583
REMARK INTER:                  -7.005
REMARK INTRA:                  -1.578
REMARK UNBOUND:                -2.483
REMARK SMILES CCCCCCCCCCCCCC[C@@H](C)C(=O)[O-]
REMARK SMILES IDX 9 1 10 2 11 3 12 4 13 5 14 6 15 7 16 8 17 9 18 10 19 11 8 12
REMARK SMILES IDX 7 13 6 14 5 15 4 16 3 17 2 18 1 19
REMARK H PARENT
REMARK Flexibility Score: inf
ROOT
ATOM      1  C   UNL     1     -16.870 -14.492   1.635  1.00  0.00     0.000 C 
ENDROOT
BRANCH   1   2
ATOM      2  C   UNL     1     -17.572 -15.393   0.611  1.00  0.00     0.000 C 
BRANCH   2   3
ATOM      3  C   UNL     1     -18.047 -14.579  -0.603  1.00  0.00     0.000 C 
BRANCH   3   4
ATOM      4  C   UNL     1     -17.219 -14.861  -1.867  1.00  0.00     0.000 C 
BRANCH   4   5
ATOM      5  C   UNL     1     -17.336 -13.737  -2.912  1.00  0.00     0.001 C 
BRANCH   5   6
ATOM      6  C   UNL     1     -18.744 -13.635  -3.530  1.00  0.00     0.009 C 
BRANCH   6   7
ATOM      7  C   UNL     1     -19.424 -12.252  -3.390  1.00  0.00     0.032 C 
ATOM      8  C   UNL     1     -18.418 -11.125  -3.117  1.00  0.00     0.014 C 
BRANCH   7   9
ATOM      9  C   UNL     1     -20.205 -11.945  -4.639  1.00  0.00     0.044 C 
ATOM     10  O   UNL     1     -19.760 -12.275  -5.771  1.00  0.00    -0.550 OA
ATOM     11  O   UNL     1     -21.434 -11.304  -4.548  1.00  0.00    -0.550 OA
ENDBRANCH   7   9
ENDBRANCH   6   7
ENDBRANCH   5   6
ENDBRANCH   4   5
ENDBRANCH   3   4
ENDBRANCH   2   3
ENDBRANCH   1   2
BRANCH   1  12
ATOM     12  C   UNL     1     -15.663 -13.779   1.005  1.00  0.00     0.000 C 
BRANCH  12  13
ATOM     13  C   UNL     1     -15.840 -12.254   0.943  1.00  0.00    -0.000 C 
BRANCH  13  14
ATOM     14  C   UNL     1     -15.494 -11.675  -0.441  1.00  0.00    -0.000 C 
BRANCH  14  15
ATOM     15  C   UNL     1     -14.396 -10.602  -0.372  1.00  0.00    -0.000 C 
BRANCH  15  16
ATOM     16  C   UNL     1     -13.547 -10.702   0.908  1.00  0.00    -0.000 C 
BRANCH  16  17
ATOM     17  C   UNL     1     -12.233 -11.467   0.686  1.00  0.00    -0.000 C 
BRANCH  17  18
ATOM     18  C   UNL     1     -12.031 -12.600   1.703  1.00  0.00    -0.003 C 
ATOM     19  C   UNL     1     -12.171 -13.966   1.039  1.00  0.00     0.004 C 
ENDBRANCH  17  18
ENDBRANCH  16  17
ENDBRANCH  15  16
ENDBRANCH  14  15
ENDBRANCH  13  14
ENDBRANCH  12  13
ENDBRANCH   1  12
TORSDOF 14
ENDMDL
MODEL 4
REMARK VINA RESULT:    -3.311      3.246      6.346
REMARK INTER + INTRA:          -8.504
REMARK INTER:                  -6.778
REMARK INTRA:                  -1.726
REMARK UNBOUND:                -2.483
REMARK SMILES CCCCCCCCCCCCCC[C@@H](C)C(=O)[O-]
REMARK SMILES IDX 9 1 10 2 11 3 12 4 13 5 14 6 15 7 16 8 17 9 18 10 19 11 8 12
REMARK SMILES IDX 7 13 6 14 5 15 4 16 3 17 2 18 1 19
REMARK H PARENT
REMARK Flexibility Score: inf
ROOT
ATOM      1  C   UNL     1     -23.247 -21.531   0.209  1.00  0.00     0.000 C 
ENDROOT
BRANCH   1   2
ATOM      2  C   UNL     1     -22.885 -21.406   1.695  1.00  0.00     0.000 C 
BRANCH   2   3
ATOM      3  C   UNL     1     -21.417 -21.790   1.937  1.00  0.00     0.000 C 
BRANCH   3   4
ATOM      4  C   UNL     1     -20.776 -20.988   3.081  1.00  0.00     0.000 C 
BRANCH   4   5
ATOM      5  C   UNL     1     -19.446 -20.333   2.669  1.00  0.00     0.001 C 
BRANCH   5   6
ATOM      6  C   UNL     1     -18.213 -21.140   3.118  1.00  0.00     0.009 C 
BRANCH   6   7
ATOM      7  C   UNL     1     -16.852 -20.582   2.639  1.00  0.00     0.032 C 
ATOM      8  C   UNL     1     -17.007 -19.444   1.621  1.00  0.00     0.014 C 
BRANCH   7   9
ATOM      9  C   UNL     1     -16.058 -20.102   3.823  1.00  0.00     0.044 C 
ATOM     10  O   UNL     1     -14.812 -19.935   3.734  1.00  0.00    -0.550 OA
ATOM     11  O   UNL     1     -16.701 -19.827   5.024  1.00  0.00    -0.550 OA
ENDBRANCH   7   9
ENDBRANCH   6   7
ENDBRANCH   5   6
ENDBRANCH   4   5
ENDBRANCH   3   4
ENDBRANCH   2   3
ENDBRANCH   1   2
BRANCH   1  12
ATOM     12  C   UNL     1     -21.984 -21.663  -0.655  1.00  0.00     0.000 C 
BRANCH  12  13
ATOM     13  C   UNL     1     -21.590 -20.343  -1.338  1.00  0.00    -0.000 C 
BRANCH  13  14
ATOM     14  C   UNL     1     -22.775 -19.370  -1.469  1.00  0.00    -0.000 C 
BRANCH  14  15
ATOM     15  C   UNL     1     -22.715 -18.228  -0.442  1.00  0.00    -0.000 C 
BRANCH  15  16
ATOM     16  C   UNL     1     -21.404 -18.222   0.364  1.00  0.00    -0.000 C 
BRANCH  16  17
ATOM     17  C   UNL     1     -21.110 -16.854   1.000  1.00  0.00    -0.000 C 
BRANCH  17  18
ATOM     18  C   UNL     1     -19.793 -16.842   1.790  1.00  0.00    -0.003 C 
ATOM     19  C   UNL     1     -18.711 -16.068   1.042  1.00  0.00     0.004 C 
ENDBRANCH  17  18
ENDBRANCH  16  17
ENDBRANCH  15  16
ENDBRANCH  14  15
ENDBRANCH  13  14
ENDBRANCH  12  13
ENDBRANCH   1  12
TORSDOF 14
ENDMDL
MODEL 5
REMARK VINA RESULT:    -3.259      7.882      9.517
REMARK INTER + INTRA:          -8.409
REMARK INTER:                  -5.974
REMARK INTRA:                  -2.435
REMARK UNBOUND:                -2.483
REMARK SMILES CCCCCCCCCCCCCC[C@@H](C)C(=O)[O-]
REMARK SMILES IDX 9 1 10 2 11 3 12 4 13 5 14 6 15 7 16 8 17 9 18 10 19 11 8 12
REMARK SMILES IDX 7 13 6 14 5 15 4 16 3 17 2 18 1 19
REMARK H PARENT
REMARK Flexibility Score: inf
ROOT
ATOM      1  C   UNL     1     -15.732 -11.488   1.139  1.00  0.00     0.000 C 
ENDROOT
BRANCH   1   2
ATOM      2  C   UNL     1     -16.591 -12.750   1.290  1.00  0.00     0.000 C 
BRANCH   2   3
ATOM      3  C   UNL     1     -16.092 -13.870   0.364  1.00  0.00     0.000 C 
BRANCH   3   4
ATOM      4  C   UNL     1     -17.237 -14.600  -0.355  1.00  0.00     0.000 C 
BRANCH   4   5
ATOM      5  C   UNL     1     -16.940 -14.842  -1.845  1.00  0.00     0.001 C 
BRANCH   5   6
ATOM      6  C   UNL     1     -16.970 -13.548  -2.681  1.00  0.00     0.009 C 
BRANCH   6   7
ATOM      7  C   UNL     1     -18.171 -12.614  -2.405  1.00  0.00     0.032 C 
ATOM      8  C   UNL     1     -17.762 -11.138  -2.315  1.00  0.00     0.014 C 
BRANCH   7   9
ATOM      9  C   UNL     1     -19.206 -12.790  -3.484  1.00  0.00     0.044 C 
ATOM     10  O   UNL     1     -19.191 -13.808  -4.227  1.00  0.00    -0.550 OA
ATOM     11  O   UNL     1     -20.197 -11.832  -3.657  1.00  0.00    -0.550 OA
ENDBRANCH   7   9
ENDBRANCH   6   7
ENDBRANCH   5   6
ENDBRANCH   4   5
ENDBRANCH   3   4
ENDBRANCH   2   3
ENDBRANCH   1   2
BRANCH   1  12
ATOM     12  C   UNL     1     -14.784 -11.609  -0.065  1.00  0.00     0.000 C 
BRANCH  12  13
ATOM     13  C   UNL     1     -13.580 -10.659   0.028  1.00  0.00    -0.000 C 
BRANCH  13  14
ATOM     14  C   UNL     1     -12.386 -11.289   0.767  1.00  0.00    -0.000 C 
BRANCH  14  15
ATOM     15  C   UNL     1     -12.417 -12.826   0.734  1.00  0.00    -0.000 C 
BRANCH  15  16
ATOM     16  C   UNL     1     -11.957 -13.458   2.060  1.00  0.00    -0.000 C 
BRANCH  16  17
ATOM     17  C   UNL     1     -13.135 -13.869   2.957  1.00  0.00    -0.000 C 
BRANCH  17  18
ATOM     18  C   UNL     1     -13.572 -12.747   3.910  1.00  0.00    -0.003 C 
ATOM     19  C   UNL     1     -14.893 -13.088   4.593  1.00  0.00     0.004 C 
ENDBRANCH  17  18
ENDBRANCH  16  17
ENDBRANCH  15  16
ENDBRANCH  14  15
ENDBRANCH  13  14
ENDBRANCH  12  13
ENDBRANCH   1  12
TORSDOF 14
ENDMDL
MODEL 6
REMARK VINA RESULT:    -3.237      4.574      6.670
REMARK INTER + INTRA:          -8.369
REMARK INTER:                  -6.578
REMARK INTRA:                  -1.792
REMARK UNBOUND:                -2.483
REMARK SMILES CCCCCCCCCCCCCC[C@@H](C)C(=O)[O-]
REMARK SMILES IDX 9 1 10 2 11 3 12 4 13 5 14 6 15 7 16 8 17 9 18 10 19 11 8 12
REMARK SMILES IDX 7 13 6 14 5 15 4 16 3 17 2 18 1 19
REMARK H PARENT
REMARK Flexibility Score: inf
ROOT
ATOM      1  C   UNL     1     -16.800 -20.510   2.841  1.00  0.00     0.000 C 
ENDROOT
BRANCH   1   2
ATOM      2  C   UNL     1     -17.067 -19.436   1.780  1.00  0.00     0.000 C 
BRANCH   2   3
ATOM      3  C   UNL     1     -17.515 -18.118   2.432  1.00  0.00     0.000 C 
BRANCH   3   4
ATOM      4  C   UNL     1     -17.945 -17.062   1.401  1.00  0.00     0.000 C 
BRANCH   4   5
ATOM      5  C   UNL     1     -18.325 -15.722   2.053  1.00  0.00     0.001 C 
BRANCH   5   6
ATOM      6  C   UNL     1     -18.124 -14.517   1.114  1.00  0.00     0.009 C 
BRANCH   6   7
ATOM      7  C   UNL     1     -16.908 -14.620   0.163  1.00  0.00     0.032 C 
ATOM      8  C   UNL     1     -17.312 -14.583  -1.317  1.00  0.00     0.014 C 
BRANCH   7   9
ATOM      9  C   UNL     1     -15.942 -13.504   0.456  1.00  0.00     0.044 C 
ATOM     10  O   UNL     1     -14.785 -13.755   0.889  1.00  0.00    -0.550 OA
ATOM     11  O   UNL     1     -16.319 -12.185   0.237  1.00  0.00    -0.550 OA
ENDBRANCH   7   9
ENDBRANCH   6   7
ENDBRANCH   5   6
ENDBRANCH   4   5
ENDBRANCH   3   4
ENDBRANCH   2   3
ENDBRANCH   1   2
BRANCH   1  12
ATOM     12  C   UNL     1     -17.970 -20.608   3.832  1.00  0.00     0.000 C 
BRANCH  12  13
ATOM     13  C   UNL     1     -18.921 -21.773   3.516  1.00  0.00    -0.000 C 
BRANCH  13  14
ATOM     14  C   UNL     1     -20.196 -21.314   2.785  1.00  0.00    -0.000 C 
BRANCH  14  15
ATOM     15  C   UNL     1     -20.669 -19.925   3.243  1.00  0.00    -0.000 C 
BRANCH  15  16
ATOM     16  C   UNL     1     -21.002 -18.993   2.065  1.00  0.00    -0.000 C 
BRANCH  16  17
ATOM     17  C   UNL     1     -20.657 -19.617   0.703  1.00  0.00    -0.000 C 
BRANCH  17  18
ATOM     18  C   UNL     1     -21.887 -19.772  -0.203  1.00  0.00    -0.003 C 
ATOM     19  C   UNL     1     -21.582 -20.677  -1.394  1.00  0.00     0.004 C 
ENDBRANCH  17  18
ENDBRANCH  16  17
ENDBRANCH  15  16
ENDBRANCH  14  15
ENDBRANCH  13  14
ENDBRANCH  12  13
ENDBRANCH   1  12
TORSDOF 14
ENDMDL
MODEL 7
REMARK VINA RESULT:    -3.215      3.303      6.958
REMARK INTER + INTRA:          -8.329
REMARK INTER:                  -6.081
REMARK INTRA:                  -2.248
REMARK UNBOUND:                -2.483
REMARK SMILES CCCCCCCCCCCCCC[C@@H](C)C(=O)[O-]
REMARK SMILES IDX 9 1 10 2 11 3 12 4 13 5 14 6 15 7 16 8 17 9 18 10 19 11 8 12
REMARK SMILES IDX 7 13 6 14 5 15 4 16 3 17 2 18 1 19
REMARK H PARENT
REMARK Flexibility Score: inf
ROOT
ATOM      1  C   UNL     1     -22.133 -17.586   0.323  1.00  0.00     0.000 C 
ENDROOT
BRANCH   1   2
ATOM      2  C   UNL     1     -21.443 -17.901   1.656  1.00  0.00     0.000 C 
BRANCH   2   3
ATOM      3  C   UNL     1     -19.916 -17.782   1.527  1.00  0.00     0.000 C 
BRANCH   3   4
ATOM      4  C   UNL     1     -19.212 -19.148   1.539  1.00  0.00     0.000 C 
BRANCH   4   5
ATOM      5  C   UNL     1     -17.706 -19.033   1.832  1.00  0.00     0.001 C 
BRANCH   5   6
ATOM      6  C   UNL     1     -17.134 -20.276   2.538  1.00  0.00     0.009 C 
BRANCH   6   7
ATOM      7  C   UNL     1     -17.639 -20.503   3.983  1.00  0.00     0.032 C 
ATOM      8  C   UNL     1     -18.365 -21.845   4.150  1.00  0.00     0.014 C 
BRANCH   7   9
ATOM      9  C   UNL     1     -16.481 -20.427   4.941  1.00  0.00     0.044 C 
ATOM     10  O   UNL     1     -16.675 -20.477   6.185  1.00  0.00    -0.550 OA
ATOM     11  O   UNL     1     -15.185 -20.314   4.454  1.00  0.00    -0.550 OA
ENDBRANCH   7   9
ENDBRANCH   6   7
ENDBRANCH   5   6
ENDBRANCH   4   5
ENDBRANCH   3   4
ENDBRANCH   2   3
ENDBRANCH   1   2
BRANCH   1  12
ATOM     12  C   UNL     1     -23.510 -18.263   0.242  1.00  0.00     0.000 C 
BRANCH  12  13
ATOM     13  C   UNL     1     -23.582 -19.333  -0.859  1.00  0.00    -0.000 C 
BRANCH  13  14
ATOM     14  C   UNL     1     -22.226 -19.562  -1.550  1.00  0.00    -0.000 C 
BRANCH  14  15
ATOM     15  C   UNL     1     -21.637 -20.949  -1.248  1.00  0.00    -0.000 C 
BRANCH  15  16
ATOM     16  C   UNL     1     -22.442 -21.717  -0.184  1.00  0.00    -0.000 C 
BRANCH  16  17
ATOM     17  C   UNL     1     -21.748 -21.726   1.187  1.00  0.00    -0.000 C 
BRANCH  17  18
ATOM     18  C   UNL     1     -22.688 -21.307   2.327  1.00  0.00    -0.003 C 
ATOM     19  C   UNL     1     -21.906 -21.006   3.602  1.00  0.00     0.004 C 
ENDBRANCH  17  18
ENDBRANCH  16  17
ENDBRANCH  15  16
ENDBRANCH  14  15
ENDBRANCH  13  14
ENDBRANCH  12  13
ENDBRANCH   1  12
TORSDOF 14
ENDMDL
MODEL 8
REMARK VINA RESULT:    -3.209      4.535      6.397
REMARK INTER + INTRA:          -8.319
REMARK INTER:                  -6.728
REMARK INTRA:                  -1.591
REMARK UNBOUND:                -2.483
REMARK SMILES CCCCCCCCCCCCCC[C@@H](C)C(=O)[O-]
REMARK SMILES IDX 9 1 10 2 11 3 12 4 13 5 14 6 15 7 16 8 17 9 18 10 19 11 8 12
REMARK SMILES IDX 7 13 6 14 5 15 4 16 3 17 2 18 1 19
REMARK H PARENT
REMARK Flexibility Score: inf
ROOT
ATOM      1  C   UNL     1     -17.635 -18.186   2.467  1.00  0.00     0.000 C 
ENDROOT
BRANCH   1   2
ATOM      2  C   UNL     1     -18.971 -17.752   1.851  1.00  0.00     0.000 C 
BRANCH   2   3
ATOM      3  C   UNL     1     -18.807 -16.462   1.033  1.00  0.00     0.000 C 
BRANCH   3   4
ATOM      4  C   UNL     1     -17.583 -15.638   1.463  1.00  0.00     0.000 C 
BRANCH   4   5
ATOM      5  C   UNL     1     -17.197 -14.569   0.427  1.00  0.00     0.001 C 
BRANCH   5   6
ATOM      6  C   UNL     1     -18.337 -14.246  -0.558  1.00  0.00     0.009 C 
BRANCH   6   7
ATOM      7  C   UNL     1     -17.931 -13.379  -1.773  1.00  0.00     0.032 C 
ATOM      8  C   UNL     1     -16.638 -12.590  -1.527  1.00  0.00     0.014 C 
BRANCH   7   9
ATOM      9  C   UNL     1     -17.772 -14.253  -2.987  1.00  0.00     0.044 C 
ATOM     10  O   UNL     1     -16.788 -15.033  -3.091  1.00  0.00    -0.550 OA
ATOM     11  O   UNL     1     -18.722 -14.212  -4.000  1.00  0.00    -0.550 OA
ENDBRANCH   7   9
ENDBRANCH   6   7
ENDBRANCH   5   6
ENDBRANCH   4   5
ENDBRANCH   3   4
ENDBRANCH   2   3
ENDBRANCH   1   2
BRANCH   1  12
ATOM     12  C   UNL     1     -17.050 -19.393   1.717  1.00  0.00     0.000 C 
BRANCH  12  13
ATOM     13  C   UNL     1     -16.155 -20.269   2.608  1.00  0.00    -0.000 C 
BRANCH  13  14
ATOM     14  C   UNL     1     -15.871 -19.625   3.976  1.00  0.00    -0.000 C 
BRANCH  14  15
ATOM     15  C   UNL     1     -16.322 -20.509   5.149  1.00  0.00    -0.000 C 
BRANCH  15  16
ATOM     16  C   UNL     1     -17.854 -20.605   5.266  1.00  0.00    -0.000 C 
BRANCH  16  17
ATOM     17  C   UNL     1     -18.400 -21.955   4.775  1.00  0.00    -0.000 C 
BRANCH  17  18
ATOM     18  C   UNL     1     -19.462 -21.798   3.678  1.00  0.00    -0.003 C 
ATOM     19  C   UNL     1     -20.244 -20.499   3.850  1.00  0.00     0.004 C 
ENDBRANCH  17  18
ENDBRANCH  16  17
ENDBRANCH  15  16
ENDBRANCH  14  15
ENDBRANCH  13  14
ENDBRANCH  12  13
ENDBRANCH   1  12
TORSDOF 14
ENDMDL
MODEL 9
REMARK VINA RESULT:    -3.169      3.219      6.458
REMARK INTER + INTRA:          -8.245
REMARK INTER:                  -6.251
REMARK INTRA:                  -1.993
REMARK UNBOUND:                -2.483
REMARK SMILES CCCCCCCCCCCCCC[C@@H](C)C(=O)[O-]
REMARK SMILES IDX 9 1 10 2 11 3 12 4 13 5 14 6 15 7 16 8 17 9 18 10 19 11 8 12
REMARK SMILES IDX 7 13 6 14 5 15 4 16 3 17 2 18 1 19
REMARK H PARENT
REMARK Flexibility Score: inf
ROOT
ATOM      1  C   UNL     1     -21.156 -18.651   2.727  1.00  0.00     0.000 C 
ENDROOT
BRANCH   1   2
ATOM      2  C   UNL     1     -20.024 -18.597   1.693  1.00  0.00     0.000 C 
BRANCH   2   3
ATOM      3  C   UNL     1     -19.083 -17.414   1.968  1.00  0.00     0.000 C 
BRANCH   3   4
ATOM      4  C   UNL     1     -17.614 -17.843   2.100  1.00  0.00     0.000 C 
BRANCH   4   5
ATOM      5  C   UNL     1     -17.366 -19.270   1.580  1.00  0.00     0.001 C 
BRANCH   5   6
ATOM      6  C   UNL     1     -16.723 -20.191   2.634  1.00  0.00     0.009 C 
BRANCH   6   7
ATOM      7  C   UNL     1     -17.598 -20.482   3.876  1.00  0.00     0.032 C 
ATOM      8  C   UNL     1     -18.403 -21.782   3.738  1.00  0.00     0.014 C 
BRANCH   7   9
ATOM      9  C   UNL     1     -16.729 -20.548   5.102  1.00  0.00     0.044 C 
ATOM     10  O   UNL     1     -17.244 -20.668   6.247  1.00  0.00    -0.550 OA
ATOM     11  O   UNL     1     -15.346 -20.490   4.977  1.00  0.00    -0.550 OA
ENDBRANCH   7   9
ENDBRANCH   6   7
ENDBRANCH   5   6
ENDBRANCH   4   5
ENDBRANCH   3   4
ENDBRANCH   2   3
ENDBRANCH   1   2
BRANCH   1  12
ATOM     12  C   UNL     1     -21.468 -20.102   3.126  1.00  0.00     0.000 C 
BRANCH  12  13
ATOM     13  C   UNL     1     -22.439 -20.790   2.153  1.00  0.00    -0.000 C 
BRANCH  13  14
ATOM     14  C   UNL     1     -21.727 -21.768   1.202  1.00  0.00    -0.000 C 
BRANCH  14  15
ATOM     15  C   UNL     1     -22.225 -21.647  -0.248  1.00  0.00    -0.000 C 
BRANCH  15  16
ATOM     16  C   UNL     1     -21.514 -20.527  -1.028  1.00  0.00    -0.000 C 
BRANCH  16  17
ATOM     17  C   UNL     1     -22.497 -19.499  -1.611  1.00  0.00    -0.000 C 
BRANCH  17  18
ATOM     18  C   UNL     1     -22.992 -18.494  -0.562  1.00  0.00    -0.003 C 
ATOM     19  C   UNL     1     -23.421 -17.183  -1.215  1.00  0.00     0.004 C 
ENDBRANCH  17  18
ENDBRANCH  16  17
ENDBRANCH  15  16
ENDBRANCH  14  15
ENDBRANCH  13  14
ENDBRANCH  12  13
ENDBRANCH   1  12
TORSDOF 14
ENDMDL
