MODEL 1
REMARK VINA RESULT:    -6.952      0.000      0.000
REMARK INTER + INTRA:         -10.076
REMARK INTER:                  -9.797
REMARK INTRA:                  -0.279
REMARK UNBOUND:                -0.279
REMARK SMILES COc1ccc(-c2cc(=O)c3c(OC)c(OC)c(OC)c(OC)c3o2)cc1OC
REMARK SMILES IDX 7 1 8 2 9 3 10 4 11 5 24 6 25 7 21 8 18 9 15 10 12 11 6 12
REMARK SMILES IDX 3 13 27 14 4 15 26 16 5 17 2 18 1 19 28 20 29 21 22 22 23 23
REMARK SMILES IDX 13 24 14 25 19 26 20 27 16 28 17 29
REMARK H PARENT
REMARK Flexibility Score: inf
ROOT
ATOM      1  C   UNL     1      -6.373  -2.579  -2.165  1.00  0.00     0.138 A 
ATOM      2  C   UNL     1      -5.465  -3.367  -1.451  1.00  0.00     0.100 A 
ATOM      3  C   UNL     1      -5.497  -3.354  -0.058  1.00  0.00     0.197 A 
ATOM      4  O   UNL     1      -4.649  -4.041   0.575  1.00  0.00    -0.289 OA
ATOM      5  C   UNL     1      -6.454  -2.562   0.614  1.00  0.00     0.115 A 
ATOM      6  C   UNL     1      -7.355  -1.808  -0.174  1.00  0.00     0.188 A 
ATOM      7  O   UNL     1      -7.264  -1.847  -1.502  1.00  0.00    -0.452 OA
ATOM      8  C   UNL     1      -8.340  -1.010   0.448  1.00  0.00     0.209 A 
ATOM      9  C   UNL     1      -8.372  -0.893   1.846  1.00  0.00     0.211 A 
ATOM     10  C   UNL     1      -7.451  -1.614   2.643  1.00  0.00     0.208 A 
ATOM     11  C   UNL     1      -6.539  -2.497   2.024  1.00  0.00     0.179 A 
ENDROOT
BRANCH   1  12
ATOM     12  C   UNL     1      -6.345  -2.515  -3.646  1.00  0.00     0.021 A 
ATOM     13  C   UNL     1      -6.287  -2.449  -6.468  1.00  0.00     0.160 A 
ATOM     14  C   UNL     1      -5.533  -3.409  -5.773  1.00  0.00     0.161 A 
ATOM     15  C   UNL     1      -7.062  -1.523  -5.749  1.00  0.00     0.051 A 
ATOM     16  C   UNL     1      -5.561  -3.433  -4.365  1.00  0.00     0.062 A 
ATOM     17  C   UNL     1      -7.088  -1.554  -4.353  1.00  0.00     0.016 A 
BRANCH  13  18
ATOM     18  O   UNL     1      -6.241  -2.452  -7.871  1.00  0.00    -0.493 OA
ATOM     19  C   UNL     1      -6.366  -1.291  -8.685  1.00  0.00     0.278 C 
ENDBRANCH  13  18
BRANCH  14  20
ATOM     20  O   UNL     1      -4.776  -4.325  -6.516  1.00  0.00    -0.493 OA
ATOM     21  C   UNL     1      -4.325  -5.584  -6.028  1.00  0.00     0.278 C 
ENDBRANCH  14  20
ENDBRANCH   1  12
BRANCH   8  22
ATOM     22  O   UNL     1      -9.322  -0.298  -0.268  1.00  0.00    -0.490 OA
ATOM     23  C   UNL     1     -10.379  -0.858  -1.040  1.00  0.00     0.278 C 
ENDBRANCH   8  22
BRANCH  11  24
ATOM     24  O   UNL     1      -5.741  -3.330   2.810  1.00  0.00    -0.492 OA
ATOM     25  C   UNL     1      -6.231  -4.578   3.289  1.00  0.00     0.278 C 
ENDBRANCH  11  24
BRANCH   9  26
ATOM     26  O   UNL     1      -9.357  -0.036   2.376  1.00  0.00    -0.490 OA
ATOM     27  C   UNL     1      -9.187   0.947   3.390  1.00  0.00     0.279 C 
ENDBRANCH   9  26
BRANCH  10  28
ATOM     28  O   UNL     1      -7.474  -1.446   4.037  1.00  0.00    -0.490 OA
ATOM     29  C   UNL     1      -8.277  -2.203   4.939  1.00  0.00     0.278 C 
ENDBRANCH  10  28
TORSDOF 7
ENDMDL
MODEL 2
REMARK VINA RESULT:    -6.868      1.760      8.375
REMARK INTER + INTRA:          -9.957
REMARK INTER:                  -9.353
REMARK INTRA:                  -0.604
REMARK UNBOUND:                -0.279
REMARK SMILES COc1ccc(-c2cc(=O)c3c(OC)c(OC)c(OC)c(OC)c3o2)cc1OC
REMARK SMILES IDX 7 1 8 2 9 3 10 4 11 5 24 6 25 7 21 8 18 9 15 10 12 11 6 12
REMARK SMILES IDX 3 13 27 14 4 15 26 16 5 17 2 18 1 19 28 20 29 21 22 22 23 23
REMARK SMILES IDX 13 24 14 25 19 26 20 27 16 28 17 29
REMARK H PARENT
REMARK Flexibility Score: inf
ROOT
ATOM      1  C   UNL     1      -5.974  -2.839  -3.002  1.00  0.00     0.138 A 
ATOM      2  C   UNL     1      -5.426  -3.905  -3.722  1.00  0.00     0.100 A 
ATOM      3  C   UNL     1      -5.473  -3.884  -5.114  1.00  0.00     0.197 A 
ATOM      4  O   UNL     1      -5.008  -4.869  -5.751  1.00  0.00    -0.289 OA
ATOM      5  C   UNL     1      -6.053  -2.782  -5.780  1.00  0.00     0.115 A 
ATOM      6  C   UNL     1      -6.567  -1.730  -4.986  1.00  0.00     0.188 A 
ATOM      7  O   UNL     1      -6.510  -1.814  -3.659  1.00  0.00    -0.452 OA
ATOM      8  C   UNL     1      -7.146  -0.599  -5.602  1.00  0.00     0.209 A 
ATOM      9  C   UNL     1      -7.293  -0.554  -6.997  1.00  0.00     0.211 A 
ATOM     10  C   UNL     1      -6.817  -1.620  -7.798  1.00  0.00     0.208 A 
ATOM     11  C   UNL     1      -6.139  -2.699  -7.188  1.00  0.00     0.179 A 
ENDROOT
BRANCH   1  12
ATOM     12  C   UNL     1      -5.999  -2.838  -1.518  1.00  0.00     0.021 A 
ATOM     13  C   UNL     1      -6.102  -2.832   1.303  1.00  0.00     0.160 A 
ATOM     14  C   UNL     1      -7.020  -2.067   0.565  1.00  0.00     0.161 A 
ATOM     15  C   UNL     1      -5.132  -3.592   0.626  1.00  0.00     0.051 A 
ATOM     16  C   UNL     1      -6.959  -2.069  -0.842  1.00  0.00     0.062 A 
ATOM     17  C   UNL     1      -5.079  -3.593  -0.769  1.00  0.00     0.016 A 
BRANCH  13  18
ATOM     18  O   UNL     1      -6.189  -2.812   2.704  1.00  0.00    -0.493 OA
ATOM     19  C   UNL     1      -6.073  -3.962   3.535  1.00  0.00     0.278 C 
ENDBRANCH  13  18
BRANCH  14  20
ATOM     20  O   UNL     1      -7.981  -1.325   1.266  1.00  0.00    -0.493 OA
ATOM     21  C   UNL     1      -8.801  -0.314   0.688  1.00  0.00     0.278 C 
ENDBRANCH  14  20
ENDBRANCH   1  12
BRANCH   8  22
ATOM     22  O   UNL     1      -7.603   0.523  -4.883  1.00  0.00    -0.490 OA
ATOM     23  C   UNL     1      -8.806   0.611  -4.128  1.00  0.00     0.278 C 
ENDBRANCH   8  22
BRANCH  11  24
ATOM     24  O   UNL     1      -5.526  -3.668  -7.983  1.00  0.00    -0.492 OA
ATOM     25  C   UNL     1      -6.298  -4.610  -8.720  1.00  0.00     0.278 C 
ENDBRANCH  11  24
BRANCH   9  26
ATOM     26  O   UNL     1      -7.928   0.590  -7.520  1.00  0.00    -0.490 OA
ATOM     27  C   UNL     1      -7.305   1.779  -7.989  1.00  0.00     0.279 C 
ENDBRANCH   9  26
BRANCH  10  28
ATOM     28  O   UNL     1      -7.016  -1.573  -9.187  1.00  0.00    -0.490 OA
ATOM     29  C   UNL     1      -6.112  -0.993 -10.125  1.00  0.00     0.278 C 
ENDBRANCH  10  28
TORSDOF 7
ENDMDL
MODEL 3
REMARK VINA RESULT:    -6.851      1.566      8.247
REMARK INTER + INTRA:          -9.933
REMARK INTER:                  -9.407
REMARK INTRA:                  -0.526
REMARK UNBOUND:                -0.279
REMARK SMILES COc1ccc(-c2cc(=O)c3c(OC)c(OC)c(OC)c(OC)c3o2)cc1OC
REMARK SMILES IDX 7 1 8 2 9 3 10 4 11 5 24 6 25 7 21 8 18 9 15 10 12 11 6 12
REMARK SMILES IDX 3 13 27 14 4 15 26 16 5 17 2 18 1 19 28 20 29 21 22 22 23 23
REMARK SMILES IDX 13 24 14 25 19 26 20 27 16 28 17 29
REMARK H PARENT
REMARK Flexibility Score: inf
ROOT
ATOM      1  C   UNL     1      -6.456  -2.480  -2.578  1.00  0.00     0.138 A 
ATOM      2  C   UNL     1      -5.825  -3.685  -2.901  1.00  0.00     0.100 A 
ATOM      3  C   UNL     1      -5.527  -3.965  -4.233  1.00  0.00     0.197 A 
ATOM      4  O   UNL     1      -4.991  -5.072  -4.514  1.00  0.00    -0.289 OA
ATOM      5  C   UNL     1      -5.848  -3.024  -5.236  1.00  0.00     0.115 A 
ATOM      6  C   UNL     1      -6.465  -1.817  -4.832  1.00  0.00     0.188 A 
ATOM      7  O   UNL     1      -6.742  -1.613  -3.546  1.00  0.00    -0.452 OA
ATOM      8  C   UNL     1      -6.795  -0.837  -5.794  1.00  0.00     0.209 A 
ATOM      9  C   UNL     1      -6.592  -1.093  -7.159  1.00  0.00     0.211 A 
ATOM     10  C   UNL     1      -6.010  -2.313  -7.576  1.00  0.00     0.208 A 
ATOM     11  C   UNL     1      -5.580  -3.246  -6.606  1.00  0.00     0.179 A 
ENDROOT
BRANCH   1  12
ATOM     12  C   UNL     1      -6.844  -2.158  -1.183  1.00  0.00     0.021 A 
ATOM     13  C   UNL     1      -7.529  -1.551   1.487  1.00  0.00     0.160 A 
ATOM     14  C   UNL     1      -6.497  -2.464   1.218  1.00  0.00     0.161 A 
ATOM     15  C   UNL     1      -8.218  -0.949   0.420  1.00  0.00     0.051 A 
ATOM     16  C   UNL     1      -6.164  -2.768  -0.116  1.00  0.00     0.062 A 
ATOM     17  C   UNL     1      -7.881  -1.252  -0.901  1.00  0.00     0.016 A 
BRANCH  13  18
ATOM     18  O   UNL     1      -7.836  -1.266   2.827  1.00  0.00    -0.493 OA
ATOM     19  C   UNL     1      -8.603  -0.146   3.259  1.00  0.00     0.278 C 
ENDBRANCH  13  18
BRANCH  14  20
ATOM     20  O   UNL     1      -5.821  -3.043   2.302  1.00  0.00    -0.493 OA
ATOM     21  C   UNL     1      -5.873  -4.424   2.642  1.00  0.00     0.278 C 
ENDBRANCH  14  20
ENDBRANCH   1  12
BRANCH   8  22
ATOM     22  O   UNL     1      -7.334   0.422  -5.461  1.00  0.00    -0.490 OA
ATOM     23  C   UNL     1      -8.694   0.702  -5.145  1.00  0.00     0.278 C 
ENDBRANCH   8  22
BRANCH  11  24
ATOM     24  O   UNL     1      -4.860  -4.374  -7.002  1.00  0.00    -0.492 OA
ATOM     25  C   UNL     1      -5.510  -5.480  -7.620  1.00  0.00     0.278 C 
ENDBRANCH  11  24
BRANCH   9  26
ATOM     26  O   UNL     1      -6.997  -0.078  -8.049  1.00  0.00    -0.490 OA
ATOM     27  C   UNL     1      -6.174   0.905  -8.664  1.00  0.00     0.279 C 
ENDBRANCH   9  26
BRANCH  10  28
ATOM     28  O   UNL     1      -5.859  -2.565  -8.949  1.00  0.00    -0.490 OA
ATOM     29  C   UNL     1      -6.904  -2.980  -9.825  1.00  0.00     0.278 C 
ENDBRANCH  10  28
TORSDOF 7
ENDMDL
MODEL 4
REMARK VINA RESULT:    -6.735      1.747      8.506
REMARK INTER + INTRA:          -9.770
REMARK INTER:                  -8.942
REMARK INTRA:                  -0.828
REMARK UNBOUND:                -0.279
REMARK SMILES COc1ccc(-c2cc(=O)c3c(OC)c(OC)c(OC)c(OC)c3o2)cc1OC
REMARK SMILES IDX 7 1 8 2 9 3 10 4 11 5 24 6 25 7 21 8 18 9 15 10 12 11 6 12
REMARK SMILES IDX 3 13 27 14 4 15 26 16 5 17 2 18 1 19 28 20 29 21 22 22 23 23
REMARK SMILES IDX 13 24 14 25 19 26 20 27 16 28 17 29
REMARK H PARENT
REMARK Flexibility Score: inf
ROOT
ATOM      1  C   UNL     1      -8.071  -0.973  -1.242  1.00  0.00     0.138 A 
ATOM      2  C   UNL     1      -8.957  -0.084  -1.858  1.00  0.00     0.100 A 
ATOM      3  C   UNL     1      -8.961   0.024  -3.247  1.00  0.00     0.197 A 
ATOM      4  O   UNL     1      -9.740   0.856  -3.789  1.00  0.00    -0.289 OA
ATOM      5  C   UNL     1      -8.086  -0.776  -4.015  1.00  0.00     0.115 A 
ATOM      6  C   UNL     1      -7.234  -1.668  -3.324  1.00  0.00     0.188 A 
ATOM      7  O   UNL     1      -7.262  -1.714  -1.994  1.00  0.00    -0.452 OA
ATOM      8  C   UNL     1      -6.349  -2.499  -4.045  1.00  0.00     0.209 A 
ATOM      9  C   UNL     1      -6.249  -2.381  -5.440  1.00  0.00     0.211 A 
ATOM     10  C   UNL     1      -7.071  -1.464  -6.137  1.00  0.00     0.208 A 
ATOM     11  C   UNL     1      -8.033  -0.713  -5.426  1.00  0.00     0.179 A 
ENDROOT
BRANCH   1  12
ATOM     12  C   UNL     1      -7.989  -1.086   0.235  1.00  0.00     0.021 A 
ATOM     13  C   UNL     1      -7.778  -1.309   3.041  1.00  0.00     0.160 A 
ATOM     14  C   UNL     1      -6.955  -2.087   2.211  1.00  0.00     0.161 A 
ATOM     15  C   UNL     1      -8.707  -0.426   2.464  1.00  0.00     0.051 A 
ATOM     16  C   UNL     1      -7.070  -1.977   0.812  1.00  0.00     0.062 A 
ATOM     17  C   UNL     1      -8.814  -0.318   1.075  1.00  0.00     0.016 A 
BRANCH  13  18
ATOM     18  O   UNL     1      -7.639  -1.439   4.432  1.00  0.00    -0.493 OA
ATOM     19  C   UNL     1      -8.307  -0.624   5.389  1.00  0.00     0.278 C 
ENDBRANCH  13  18
BRANCH  14  20
ATOM     20  O   UNL     1      -6.032  -2.954   2.814  1.00  0.00    -0.493 OA
ATOM     21  C   UNL     1      -5.719  -4.259   2.340  1.00  0.00     0.278 C 
ENDBRANCH  14  20
ENDBRANCH   1  12
BRANCH   8  22
ATOM     22  O   UNL     1      -5.530  -3.470  -3.434  1.00  0.00    -0.490 OA
ATOM     23  C   UNL     1      -5.940  -4.752  -2.972  1.00  0.00     0.278 C 
ENDBRANCH   8  22
BRANCH  11  24
ATOM     24  O   UNL     1      -8.955   0.069  -6.125  1.00  0.00    -0.492 OA
ATOM     25  C   UNL     1     -10.043  -0.526  -6.823  1.00  0.00     0.278 C 
ENDBRANCH  11  24
BRANCH   9  26
ATOM     26  O   UNL     1      -5.304  -3.215  -6.070  1.00  0.00    -0.490 OA
ATOM     27  C   UNL     1      -5.561  -4.410  -6.797  1.00  0.00     0.279 C 
ENDBRANCH   9  26
BRANCH  10  28
ATOM     28  O   UNL     1      -6.922  -1.331  -7.527  1.00  0.00    -0.490 OA
ATOM     29  C   UNL     1      -6.032  -0.424  -8.172  1.00  0.00     0.278 C 
ENDBRANCH  10  28
TORSDOF 7
ENDMDL
MODEL 5
REMARK VINA RESULT:    -6.637      1.133      2.125
REMARK INTER + INTRA:          -9.632
REMARK INTER:                  -9.035
REMARK INTRA:                  -0.597
REMARK UNBOUND:                -0.279
REMARK SMILES COc1ccc(-c2cc(=O)c3c(OC)c(OC)c(OC)c(OC)c3o2)cc1OC
REMARK SMILES IDX 7 1 8 2 9 3 10 4 11 5 24 6 25 7 21 8 18 9 15 10 12 11 6 12
REMARK SMILES IDX 3 13 27 14 4 15 26 16 5 17 2 18 1 19 28 20 29 21 22 22 23 23
REMARK SMILES IDX 13 24 14 25 19 26 20 27 16 28 17 29
REMARK H PARENT
REMARK Flexibility Score: inf
ROOT
ATOM      1  C   UNL     1      -6.497  -2.383  -2.663  1.00  0.00     0.138 A 
ATOM      2  C   UNL     1      -5.545  -3.219  -2.072  1.00  0.00     0.100 A 
ATOM      3  C   UNL     1      -5.470  -3.293  -0.683  1.00  0.00     0.197 A 
ATOM      4  O   UNL     1      -4.583  -4.024  -0.161  1.00  0.00    -0.289 OA
ATOM      5  C   UNL     1      -6.365  -2.540   0.110  1.00  0.00     0.115 A 
ATOM      6  C   UNL     1      -7.315  -1.733  -0.559  1.00  0.00     0.188 A 
ATOM      7  O   UNL     1      -7.327  -1.689  -1.889  1.00  0.00    -0.452 OA
ATOM      8  C   UNL     1      -8.241  -0.971   0.186  1.00  0.00     0.209 A 
ATOM      9  C   UNL     1      -8.166  -0.941   1.587  1.00  0.00     0.211 A 
ATOM     10  C   UNL     1      -7.193  -1.716   2.264  1.00  0.00     0.208 A 
ATOM     11  C   UNL     1      -6.340  -2.563   1.522  1.00  0.00     0.179 A 
ENDROOT
BRANCH   1  12
ATOM     12  C   UNL     1      -6.582  -2.226  -4.136  1.00  0.00     0.021 A 
ATOM     13  C   UNL     1      -6.747  -1.873  -6.932  1.00  0.00     0.160 A 
ATOM     14  C   UNL     1      -7.446  -1.009  -6.073  1.00  0.00     0.161 A 
ATOM     15  C   UNL     1      -5.973  -2.913  -6.389  1.00  0.00     0.051 A 
ATOM     16  C   UNL     1      -7.365  -1.195  -4.679  1.00  0.00     0.062 A 
ATOM     17  C   UNL     1      -5.894  -3.089  -5.006  1.00  0.00     0.016 A 
BRANCH  13  18
ATOM     18  O   UNL     1      -6.845  -1.661  -8.316  1.00  0.00    -0.493 OA
ATOM     19  C   UNL     1      -5.915  -0.903  -9.083  1.00  0.00     0.278 C 
ENDBRANCH  13  18
BRANCH  14  20
ATOM     20  O   UNL     1      -8.204   0.024  -6.642  1.00  0.00    -0.493 OA
ATOM     21  C   UNL     1      -8.236   1.363  -6.159  1.00  0.00     0.278 C 
ENDBRANCH  14  20
ENDBRANCH   1  12
BRANCH   8  22
ATOM     22  O   UNL     1      -9.269  -0.209  -0.406  1.00  0.00    -0.490 OA
ATOM     23  C   UNL     1     -10.414  -0.716  -1.083  1.00  0.00     0.278 C 
ENDBRANCH   8  22
BRANCH  11  24
ATOM     24  O   UNL     1      -5.493  -3.449   2.191  1.00  0.00    -0.492 OA
ATOM     25  C   UNL     1      -5.971  -4.701   2.671  1.00  0.00     0.278 C 
ENDBRANCH  11  24
BRANCH   9  26
ATOM     26  O   UNL     1      -9.098  -0.114   2.244  1.00  0.00    -0.490 OA
ATOM     27  C   UNL     1     -10.257  -0.523   2.959  1.00  0.00     0.279 C 
ENDBRANCH   9  26
BRANCH  10  28
ATOM     28  O   UNL     1      -7.108  -1.636   3.663  1.00  0.00    -0.490 OA
ATOM     29  C   UNL     1      -7.841  -2.449   4.576  1.00  0.00     0.278 C 
ENDBRANCH  10  28
TORSDOF 7
ENDMDL
MODEL 6
REMARK VINA RESULT:    -6.618      2.009      3.466
REMARK INTER + INTRA:          -9.605
REMARK INTER:                  -8.901
REMARK INTRA:                  -0.704
REMARK UNBOUND:                -0.279
REMARK SMILES COc1ccc(-c2cc(=O)c3c(OC)c(OC)c(OC)c(OC)c3o2)cc1OC
REMARK SMILES IDX 7 1 8 2 9 3 10 4 11 5 24 6 25 7 21 8 18 9 15 10 12 11 6 12
REMARK SMILES IDX 3 13 27 14 4 15 26 16 5 17 2 18 1 19 28 20 29 21 22 22 23 23
REMARK SMILES IDX 13 24 14 25 19 26 20 27 16 28 17 29
REMARK H PARENT
REMARK Flexibility Score: inf
ROOT
ATOM      1  C   UNL     1      -7.381  -1.974   0.290  1.00  0.00     0.138 A 
ATOM      2  C   UNL     1      -6.425  -2.993   0.320  1.00  0.00     0.100 A 
ATOM      3  C   UNL     1      -5.996  -3.492   1.548  1.00  0.00     0.197 A 
ATOM      4  O   UNL     1      -5.106  -4.387   1.562  1.00  0.00    -0.289 OA
ATOM      5  C   UNL     1      -6.544  -2.977   2.744  1.00  0.00     0.115 A 
ATOM      6  C   UNL     1      -7.523  -1.962   2.635  1.00  0.00     0.188 A 
ATOM      7  O   UNL     1      -7.880  -1.513   1.434  1.00  0.00    -0.452 OA
ATOM      8  C   UNL     1      -8.112  -1.422   3.799  1.00  0.00     0.209 A 
ATOM      9  C   UNL     1      -7.666  -1.826   5.067  1.00  0.00     0.211 A 
ATOM     10  C   UNL     1      -6.659  -2.814   5.186  1.00  0.00     0.208 A 
ATOM     11  C   UNL     1      -6.150  -3.432   4.023  1.00  0.00     0.179 A 
ENDROOT
BRANCH   1  12
ATOM     12  C   UNL     1      -7.831  -1.371  -0.989  1.00  0.00     0.021 A 
ATOM     13  C   UNL     1      -8.681  -0.273  -3.447  1.00  0.00     0.160 A 
ATOM     14  C   UNL     1      -7.728  -1.304  -3.431  1.00  0.00     0.161 A 
ATOM     15  C   UNL     1      -9.201   0.208  -2.233  1.00  0.00     0.051 A 
ATOM     16  C   UNL     1      -7.302  -1.843  -2.201  1.00  0.00     0.062 A 
ATOM     17  C   UNL     1      -8.778  -0.333  -1.017  1.00  0.00     0.016 A 
BRANCH  13  18
ATOM     18  O   UNL     1      -9.087   0.242  -4.688  1.00  0.00    -0.493 OA
ATOM     19  C   UNL     1      -8.604   1.455  -5.255  1.00  0.00     0.278 C 
ENDBRANCH  13  18
BRANCH  14  20
ATOM     20  O   UNL     1      -7.232  -1.770  -4.657  1.00  0.00    -0.493 OA
ATOM     21  C   UNL     1      -6.085  -2.600  -4.802  1.00  0.00     0.278 C 
ENDBRANCH  14  20
ENDBRANCH   1  12
BRANCH   8  22
ATOM     22  O   UNL     1      -9.150  -0.470   3.769  1.00  0.00    -0.490 OA
ATOM     23  C   UNL     1      -9.003   0.938   3.619  1.00  0.00     0.278 C 
ENDBRANCH   8  22
BRANCH  11  24
ATOM     24  O   UNL     1      -5.280  -4.517   4.140  1.00  0.00    -0.492 OA
ATOM     25  C   UNL     1      -5.763  -5.812   4.484  1.00  0.00     0.278 C 
ENDBRANCH  11  24
BRANCH   9  26
ATOM     26  O   UNL     1      -8.275  -1.197   6.171  1.00  0.00    -0.490 OA
ATOM     27  C   UNL     1      -7.744  -0.140   6.960  1.00  0.00     0.279 C 
ENDBRANCH   9  26
BRANCH  10  28
ATOM     28  O   UNL     1      -6.198  -3.170   6.464  1.00  0.00    -0.490 OA
ATOM     29  C   UNL     1      -6.900  -4.000   7.387  1.00  0.00     0.278 C 
ENDBRANCH  10  28
TORSDOF 7
ENDMDL
MODEL 7
REMARK VINA RESULT:    -6.586      1.837      8.554
REMARK INTER + INTRA:          -9.560
REMARK INTER:                  -8.772
REMARK INTRA:                  -0.788
REMARK UNBOUND:                -0.279
REMARK SMILES COc1ccc(-c2cc(=O)c3c(OC)c(OC)c(OC)c(OC)c3o2)cc1OC
REMARK SMILES IDX 7 1 8 2 9 3 10 4 11 5 24 6 25 7 21 8 18 9 15 10 12 11 6 12
REMARK SMILES IDX 3 13 27 14 4 15 26 16 5 17 2 18 1 19 28 20 29 21 22 22 23 23
REMARK SMILES IDX 13 24 14 25 19 26 20 27 16 28 17 29
REMARK H PARENT
REMARK Flexibility Score: inf
ROOT
ATOM      1  C   UNL     1      -7.441  -1.759  -0.864  1.00  0.00     0.138 A 
ATOM      2  C   UNL     1      -8.442  -0.795  -1.019  1.00  0.00     0.100 A 
ATOM      3  C   UNL     1      -8.741  -0.321  -2.295  1.00  0.00     0.197 A 
ATOM      4  O   UNL     1      -9.621   0.575  -2.417  1.00  0.00    -0.289 OA
ATOM      5  C   UNL     1      -8.045  -0.830  -3.413  1.00  0.00     0.115 A 
ATOM      6  C   UNL     1      -7.062  -1.819  -3.181  1.00  0.00     0.188 A 
ATOM      7  O   UNL     1      -6.807  -2.221  -1.938  1.00  0.00    -0.452 OA
ATOM      8  C   UNL     1      -6.346  -2.371  -4.266  1.00  0.00     0.209 A 
ATOM      9  C   UNL     1      -6.546  -1.879  -5.566  1.00  0.00     0.211 A 
ATOM     10  C   UNL     1      -7.501  -0.862  -5.803  1.00  0.00     0.208 A 
ATOM     11  C   UNL     1      -8.294  -0.390  -4.733  1.00  0.00     0.179 A 
ENDROOT
BRANCH   1  12
ATOM     12  C   UNL     1      -7.047  -2.257   0.477  1.00  0.00     0.021 A 
ATOM     13  C   UNL     1      -6.345  -3.185   3.049  1.00  0.00     0.160 A 
ATOM     14  C   UNL     1      -7.102  -2.011   2.910  1.00  0.00     0.161 A 
ATOM     15  C   UNL     1      -5.937  -3.887   1.902  1.00  0.00     0.051 A 
ATOM     16  C   UNL     1      -7.444  -1.549   1.624  1.00  0.00     0.062 A 
ATOM     17  C   UNL     1      -6.282  -3.426   0.629  1.00  0.00     0.016 A 
BRANCH  13  18
ATOM     18  O   UNL     1      -6.023  -3.622   4.344  1.00  0.00    -0.493 OA
ATOM     19  C   UNL     1      -5.306  -4.817   4.637  1.00  0.00     0.278 C 
ENDBRANCH  13  18
BRANCH  14  20
ATOM     20  O   UNL     1      -7.502  -1.335   4.072  1.00  0.00    -0.493 OA
ATOM     21  C   UNL     1      -8.810  -0.818   4.296  1.00  0.00     0.278 C 
ENDBRANCH  14  20
ENDBRANCH   1  12
BRANCH   8  22
ATOM     22  O   UNL     1      -5.412  -3.417  -4.124  1.00  0.00    -0.490 OA
ATOM     23  C   UNL     1      -5.708  -4.802  -3.986  1.00  0.00     0.278 C 
ENDBRANCH   8  22
BRANCH  11  24
ATOM     24  O   UNL     1      -9.346   0.492  -4.988  1.00  0.00    -0.492 OA
ATOM     25  C   UNL     1     -10.558   0.036  -5.580  1.00  0.00     0.278 C 
ENDBRANCH  11  24
BRANCH   9  26
ATOM     26  O   UNL     1      -5.752  -2.454  -6.578  1.00  0.00    -0.490 OA
ATOM     27  C   UNL     1      -6.156  -3.415  -7.545  1.00  0.00     0.279 C 
ENDBRANCH   9  26
BRANCH  10  28
ATOM     28  O   UNL     1      -7.651  -0.354  -7.103  1.00  0.00    -0.490 OA
ATOM     29  C   UNL     1      -6.937   0.759  -7.635  1.00  0.00     0.278 C 
ENDBRANCH  10  28
TORSDOF 7
ENDMDL
MODEL 8
REMARK VINA RESULT:    -6.578      1.862      8.021
REMARK INTER + INTRA:          -9.549
REMARK INTER:                  -8.930
REMARK INTRA:                  -0.619
REMARK UNBOUND:                -0.279
REMARK SMILES COc1ccc(-c2cc(=O)c3c(OC)c(OC)c(OC)c(OC)c3o2)cc1OC
REMARK SMILES IDX 7 1 8 2 9 3 10 4 11 5 24 6 25 7 21 8 18 9 15 10 12 11 6 12
REMARK SMILES IDX 3 13 27 14 4 15 26 16 5 17 2 18 1 19 28 20 29 21 22 22 23 23
REMARK SMILES IDX 13 24 14 25 19 26 20 27 16 28 17 29
REMARK H PARENT
REMARK Flexibility Score: inf
ROOT
ATOM      1  C   UNL     1      -7.340  -1.632  -1.088  1.00  0.00     0.138 A 
ATOM      2  C   UNL     1      -6.390  -2.601  -1.426  1.00  0.00     0.100 A 
ATOM      3  C   UNL     1      -6.114  -2.848  -2.769  1.00  0.00     0.197 A 
ATOM      4  O   UNL     1      -5.282  -3.750  -3.061  1.00  0.00    -0.289 OA
ATOM      5  C   UNL     1      -6.781  -2.107  -3.770  1.00  0.00     0.115 A 
ATOM      6  C   UNL     1      -7.713  -1.128  -3.352  1.00  0.00     0.188 A 
ATOM      7  O   UNL     1      -7.948  -0.949  -2.054  1.00  0.00    -0.452 OA
ATOM      8  C   UNL     1      -8.397  -0.350  -4.311  1.00  0.00     0.209 A 
ATOM      9  C   UNL     1      -8.222  -0.605  -5.681  1.00  0.00     0.211 A 
ATOM     10  C   UNL     1      -7.320  -1.609  -6.108  1.00  0.00     0.208 A 
ATOM     11  C   UNL     1      -6.555  -2.310  -5.150  1.00  0.00     0.179 A 
ENDROOT
BRANCH   1  12
ATOM     12  C   UNL     1      -7.709  -1.370   0.325  1.00  0.00     0.021 A 
ATOM     13  C   UNL     1      -8.359  -0.872   3.027  1.00  0.00     0.160 A 
ATOM     14  C   UNL     1      -7.280  -1.713   2.708  1.00  0.00     0.161 A 
ATOM     15  C   UNL     1      -9.111  -0.288   1.993  1.00  0.00     0.051 A 
ATOM     16  C   UNL     1      -6.965  -1.963   1.358  1.00  0.00     0.062 A 
ATOM     17  C   UNL     1      -8.791  -0.537   0.657  1.00  0.00     0.016 A 
BRANCH  13  18
ATOM     18  O   UNL     1      -8.646  -0.640   4.381  1.00  0.00    -0.493 OA
ATOM     19  C   UNL     1      -8.580   0.634   5.013  1.00  0.00     0.278 C 
ENDBRANCH  13  18
BRANCH  14  20
ATOM     20  O   UNL     1      -6.542  -2.276   3.759  1.00  0.00    -0.493 OA
ATOM     21  C   UNL     1      -6.204  -3.656   3.860  1.00  0.00     0.278 C 
ENDBRANCH  14  20
ENDBRANCH   1  12
BRANCH   8  22
ATOM     22  O   UNL     1      -9.276   0.698  -3.972  1.00  0.00    -0.490 OA
ATOM     23  C   UNL     1      -8.914   2.042  -3.675  1.00  0.00     0.278 C 
ENDBRANCH   8  22
BRANCH  11  24
ATOM     24  O   UNL     1      -5.550  -3.182  -5.571  1.00  0.00    -0.492 OA
ATOM     25  C   UNL     1      -5.867  -4.427  -6.184  1.00  0.00     0.278 C 
ENDBRANCH  11  24
BRANCH   9  26
ATOM     26  O   UNL     1      -8.984   0.186  -6.564  1.00  0.00    -0.490 OA
ATOM     27  C   UNL     1      -8.550   1.336  -7.279  1.00  0.00     0.279 C 
ENDBRANCH   9  26
BRANCH  10  28
ATOM     28  O   UNL     1      -7.195  -1.876  -7.481  1.00  0.00    -0.490 OA
ATOM     29  C   UNL     1      -6.226  -1.287  -8.345  1.00  0.00     0.278 C 
ENDBRANCH  10  28
TORSDOF 7
ENDMDL
MODEL 9
REMARK VINA RESULT:    -6.417      2.084      4.499
REMARK INTER + INTRA:          -9.321
REMARK INTER:                  -8.577
REMARK INTRA:                  -0.744
REMARK UNBOUND:                -0.279
REMARK SMILES COc1ccc(-c2cc(=O)c3c(OC)c(OC)c(OC)c(OC)c3o2)cc1OC
REMARK SMILES IDX 7 1 8 2 9 3 10 4 11 5 24 6 25 7 21 8 18 9 15 10 12 11 6 12
REMARK SMILES IDX 3 13 27 14 4 15 26 16 5 17 2 18 1 19 28 20 29 21 22 22 23 23
REMARK SMILES IDX 13 24 14 25 19 26 20 27 16 28 17 29
REMARK H PARENT
REMARK Flexibility Score: inf
ROOT
ATOM      1  C   UNL     1      -8.103  -1.027   0.630  1.00  0.00     0.138 A 
ATOM      2  C   UNL     1      -8.863  -0.156   1.415  1.00  0.00     0.100 A 
ATOM      3  C   UNL     1      -8.824  -0.276   2.803  1.00  0.00     0.197 A 
ATOM      4  O   UNL     1      -9.543   0.493   3.499  1.00  0.00    -0.289 OA
ATOM      5  C   UNL     1      -8.005  -1.260   3.398  1.00  0.00     0.115 A 
ATOM      6  C   UNL     1      -7.246  -2.091   2.541  1.00  0.00     0.188 A 
ATOM      7  O   UNL     1      -7.339  -1.941   1.222  1.00  0.00    -0.452 OA
ATOM      8  C   UNL     1      -6.401  -3.083   3.086  1.00  0.00     0.209 A 
ATOM      9  C   UNL     1      -6.377  -3.306   4.472  1.00  0.00     0.211 A 
ATOM     10  C   UNL     1      -7.162  -2.504   5.335  1.00  0.00     0.208 A 
ATOM     11  C   UNL     1      -7.921  -1.441   4.798  1.00  0.00     0.179 A 
ENDROOT
BRANCH   1  12
ATOM     12  C   UNL     1      -8.152  -0.977  -0.852  1.00  0.00     0.021 A 
ATOM     13  C   UNL     1      -8.232  -0.935  -3.674  1.00  0.00     0.160 A 
ATOM     14  C   UNL     1      -7.284  -1.731  -3.010  1.00  0.00     0.161 A 
ATOM     15  C   UNL     1      -9.132  -0.159  -2.923  1.00  0.00     0.051 A 
ATOM     16  C   UNL     1      -7.245  -1.743  -1.602  1.00  0.00     0.062 A 
ATOM     17  C   UNL     1      -9.091  -0.178  -1.527  1.00  0.00     0.016 A 
BRANCH  13  18
ATOM     18  O   UNL     1      -8.248  -0.947  -5.077  1.00  0.00    -0.493 OA
ATOM     19  C   UNL     1      -7.672   0.064  -5.899  1.00  0.00     0.278 C 
ENDBRANCH  13  18
BRANCH  14  20
ATOM     20  O   UNL     1      -6.403  -2.501  -3.784  1.00  0.00    -0.493 OA
ATOM     21  C   UNL     1      -5.697  -3.642  -3.309  1.00  0.00     0.278 C 
ENDBRANCH  14  20
ENDBRANCH   1  12
BRANCH   8  22
ATOM     22  O   UNL     1      -5.554  -3.892   2.302  1.00  0.00    -0.490 OA
ATOM     23  C   UNL     1      -5.961  -4.853   1.333  1.00  0.00     0.278 C 
ENDBRANCH   8  22
BRANCH  11  24
ATOM     24  O   UNL     1      -8.565  -0.548   5.656  1.00  0.00    -0.492 OA
ATOM     25  C   UNL     1      -7.826   0.395   6.424  1.00  0.00     0.278 C 
ENDBRANCH  11  24
BRANCH   9  26
ATOM     26  O   UNL     1      -5.543  -4.349   4.920  1.00  0.00    -0.490 OA
ATOM     27  C   UNL     1      -5.899  -5.712   5.115  1.00  0.00     0.279 C 
ENDBRANCH   9  26
BRANCH  10  28
ATOM     28  O   UNL     1      -7.156  -2.775   6.713  1.00  0.00    -0.490 OA
ATOM     29  C   UNL     1      -8.063  -3.650   7.379  1.00  0.00     0.278 C 
ENDBRANCH  10  28
TORSDOF 7
ENDMDL
