MODEL 1
REMARK VINA RESULT:    -0.537      0.000      0.000
REMARK INTER + INTRA:          -1.494
REMARK INTER:                  -0.851
REMARK INTRA:                  -0.643
REMARK UNBOUND:                -0.643
REMARK SMILES CC[C@@H](C=C[C@H](C)[C@H]1CC[C@H]2[C@@H]3CC=C4C[C@H](O[C@H]5O[C@H](CO)[C@H](O)[C@H](O)[C@H]5O)CC[C@]4(C)[C@@H]3CC[C@@]12C)C(C)C
REMARK SMILES IDX 8 1 9 2 10 3 11 4 37 5 36 6 35 7 34 8 12 9 13 10 14 11 15 12
REMARK SMILES IDX 32 13 31 14 30 15 17 16 16 17 33 18 38 19 6 20 7 21 5 22
REMARK SMILES IDX 4 23 3 24 2 25 1 26 39 27 40 28 41 29 18 30 19 31 28 32
REMARK SMILES IDX 20 33 26 34 21 35 24 36 29 37 27 39 22 41 23 42 25 44
REMARK H PARENT 29 38 27 40 23 43 25 45
REMARK Flexibility Score: inf
ROOT
ATOM      1  C   UNL     1      -8.936  -3.811  -0.673  1.00  0.00     0.002 C 
ATOM      2  C   UNL     1      -8.991  -5.070  -1.540  1.00  0.00     0.005 C 
ATOM      3  C   UNL     1      -9.216  -6.238  -0.594  1.00  0.00     0.005 C 
ATOM      4  C   UNL     1      -9.002  -5.709   0.836  1.00  0.00    -0.001 C 
ATOM      5  C   UNL     1      -8.341  -4.302   0.691  1.00  0.00    -0.026 C 
ATOM      6  C   UNL     1      -6.785  -4.402   0.643  1.00  0.00     0.007 C 
ATOM      7  C   UNL     1      -6.183  -5.353   1.691  1.00  0.00     0.005 C 
ATOM      8  C   UNL     1      -6.738  -6.778   1.494  1.00  0.00     0.003 C 
ATOM      9  C   UNL     1      -8.270  -6.759   1.730  1.00  0.00     0.000 C 
ATOM     10  C   UNL     1      -8.645  -6.625   3.228  1.00  0.00     0.031 C 
ATOM     11  C   UNL     1      -7.641  -7.212   4.193  1.00  0.00    -0.027 C 
ATOM     12  C   UNL     1      -6.460  -7.752   3.831  1.00  0.00    -0.065 C 
ATOM     13  C   UNL     1      -6.075  -7.917   2.360  1.00  0.00    -0.008 C 
ATOM     14  C   UNL     1      -4.519  -7.897   2.271  1.00  0.00     0.014 C 
ATOM     15  C   UNL     1      -3.820  -8.955   3.170  1.00  0.00     0.033 C 
ATOM     16  C   UNL     1      -4.636  -9.385   4.408  1.00  0.00     0.125 C 
ATOM     17  C   UNL     1      -5.499  -8.211   4.917  1.00  0.00     0.063 C 
ATOM     18  C   UNL     1      -6.597  -9.294   1.827  1.00  0.00     0.016 C 
ATOM     19  C   UNL     1      -8.765  -3.351   1.839  1.00  0.00     0.012 C 
ENDROOT
BRANCH   1  20
ATOM     20  C   UNL     1      -8.231  -2.605  -1.387  1.00  0.00     0.012 C 
ATOM     21  C   UNL     1      -8.100  -2.832  -2.904  1.00  0.00     0.012 C 
BRANCH  20  22
ATOM     22  C   UNL     1      -9.025  -1.337  -1.191  1.00  0.00    -0.028 C 
ATOM     23  C   UNL     1      -8.432  -0.137  -1.067  1.00  0.00    -0.027 C 
BRANCH  23  24
ATOM     24  C   UNL     1      -9.206   1.167  -0.971  1.00  0.00     0.014 C 
BRANCH  24  25
ATOM     25  C   UNL     1      -8.259   2.384  -1.154  1.00  0.00     0.004 C 
ATOM     26  C   UNL     1      -6.991   2.308  -0.304  1.00  0.00     0.004 C 
ENDBRANCH  24  25
BRANCH  24  27
ATOM     27  C   UNL     1     -10.125   1.180   0.301  1.00  0.00    -0.011 C 
ATOM     28  C   UNL     1      -9.991  -0.058   1.204  1.00  0.00     0.008 C 
ATOM     29  C   UNL     1      -9.960   2.467   1.126  1.00  0.00     0.008 C 
ENDBRANCH  24  27
ENDBRANCH  23  24
ENDBRANCH  20  22
ENDBRANCH   1  20
BRANCH  16  30
ATOM     30  O   UNL     1      -3.740  -9.902   5.389  1.00  0.00    -0.346 OA
BRANCH  30  31
ATOM     31  C   UNL     1      -3.173  -8.897   6.224  1.00  0.00     0.282 C 
ATOM     32  C   UNL     1      -1.623  -9.004   6.262  1.00  0.00     0.202 C 
ATOM     33  O   UNL     1      -3.733  -8.877   7.534  1.00  0.00    -0.341 OA
ATOM     34  C   UNL     1      -1.136 -10.111   7.220  1.00  0.00     0.179 C 
ATOM     35  C   UNL     1      -3.380 -10.038   8.266  1.00  0.00     0.178 C 
ATOM     36  C   UNL     1      -1.871 -10.007   8.571  1.00  0.00     0.177 C 
BRANCH  32  37
ATOM     37  O   UNL     1      -1.126  -9.254   4.971  1.00  0.00    -0.385 OA
ATOM     38  H   UNL     1      -1.908  -9.461   4.397  1.00  0.00     0.211 HD
ENDBRANCH  32  37
BRANCH  34  39
ATOM     39  O   UNL     1       0.253  -9.996   7.406  1.00  0.00    -0.387 OA
ATOM     40  H   UNL     1       0.661 -10.839   7.072  1.00  0.00     0.211 HD
ENDBRANCH  34  39
BRANCH  35  41
ATOM     41  C   UNL     1      -4.251 -10.125   9.521  1.00  0.00     0.191 C 
BRANCH  41  42
ATOM     42  O   UNL     1      -4.868  -8.892   9.785  1.00  0.00    -0.394 OA
ATOM     43  H   UNL     1      -5.345  -8.623   8.956  1.00  0.00     0.210 HD
ENDBRANCH  41  42
ENDBRANCH  35  41
BRANCH  36  44
ATOM     44  O   UNL     1      -1.535  -8.797   9.210  1.00  0.00    -0.387 OA
ATOM     45  H   UNL     1      -0.585  -8.873   9.497  1.00  0.00     0.211 HD
ENDBRANCH  36  44
ENDBRANCH  30  31
ENDBRANCH  16  30
TORSDOF 12
ENDMDL
MODEL 2
REMARK VINA RESULT:     1.966      4.928     10.654
REMARK INTER + INTRA:           2.472
REMARK INTER:                  -2.322
REMARK INTRA:                   4.794
REMARK UNBOUND:                -0.643
REMARK SMILES CC[C@@H](C=C[C@H](C)[C@H]1CC[C@H]2[C@@H]3CC=C4C[C@H](O[C@H]5O[C@H](CO)[C@H](O)[C@H](O)[C@H]5O)CC[C@]4(C)[C@@H]3CC[C@@]12C)C(C)C
REMARK SMILES IDX 8 1 9 2 10 3 11 4 37 5 36 6 35 7 34 8 12 9 13 10 14 11 15 12
REMARK SMILES IDX 32 13 31 14 30 15 17 16 16 17 33 18 38 19 6 20 7 21 5 22
REMARK SMILES IDX 4 23 3 24 2 25 1 26 39 27 40 28 41 29 18 30 19 31 28 32
REMARK SMILES IDX 20 33 26 34 21 35 24 36 29 37 27 39 22 41 23 42 25 44
REMARK H PARENT 29 38 27 40 23 43 25 45
REMARK Flexibility Score: inf
ROOT
ATOM      1  C   UNL     1      -4.832  -9.633   4.398  1.00  0.00     0.002 C 
ATOM      2  C   UNL     1      -5.653  -8.855   5.427  1.00  0.00     0.005 C 
ATOM      3  C   UNL     1      -6.959  -8.482   4.746  1.00  0.00     0.005 C 
ATOM      4  C   UNL     1      -6.788  -8.780   3.245  1.00  0.00    -0.001 C 
ATOM      5  C   UNL     1      -5.263  -9.031   3.018  1.00  0.00    -0.026 C 
ATOM      6  C   UNL     1      -4.506  -7.705   2.700  1.00  0.00     0.007 C 
ATOM      7  C   UNL     1      -5.225  -6.797   1.687  1.00  0.00     0.005 C 
ATOM      8  C   UNL     1      -6.619  -6.410   2.221  1.00  0.00     0.003 C 
ATOM      9  C   UNL     1      -7.477  -7.692   2.364  1.00  0.00     0.000 C 
ATOM     10  C   UNL     1      -7.955  -8.251   0.999  1.00  0.00     0.031 C 
ATOM     11  C   UNL     1      -8.145  -7.215  -0.085  1.00  0.00    -0.027 C 
ATOM     12  C   UNL     1      -7.860  -5.905   0.055  1.00  0.00    -0.065 C 
ATOM     13  C   UNL     1      -7.410  -5.323   1.396  1.00  0.00    -0.008 C 
ATOM     14  C   UNL     1      -6.545  -4.060   1.099  1.00  0.00     0.014 C 
ATOM     15  C   UNL     1      -7.260  -2.994   0.222  1.00  0.00     0.033 C 
ATOM     16  C   UNL     1      -8.359  -3.558  -0.704  1.00  0.00     0.125 C 
ATOM     17  C   UNL     1      -8.001  -4.990  -1.154  1.00  0.00     0.063 C 
ATOM     18  C   UNL     1      -8.661  -4.896   2.235  1.00  0.00     0.016 C 
ATOM     19  C   UNL     1      -5.017 -10.055   1.880  1.00  0.00     0.012 C 
ENDROOT
BRANCH   1  20
ATOM     20  C   UNL     1      -3.299  -9.665   4.735  1.00  0.00     0.012 C 
ATOM     21  C   UNL     1      -2.430  -9.469   3.481  1.00  0.00     0.012 C 
BRANCH  20  22
ATOM     22  C   UNL     1      -2.948  -8.559   5.701  1.00  0.00    -0.028 C 
ATOM     23  C   UNL     1      -2.345  -8.805   6.877  1.00  0.00    -0.027 C 
BRANCH  23  24
ATOM     24  C   UNL     1      -1.887  -7.707   7.823  1.00  0.00     0.014 C 
BRANCH  24  25
ATOM     25  C   UNL     1      -0.450  -7.987   8.337  1.00  0.00     0.004 C 
ATOM     26  C   UNL     1       0.440  -8.697   7.318  1.00  0.00     0.004 C 
ENDBRANCH  24  25
BRANCH  24  27
ATOM     27  C   UNL     1      -2.977  -7.420   8.914  1.00  0.00    -0.011 C 
ATOM     28  C   UNL     1      -4.299  -6.852   8.370  1.00  0.00     0.008 C 
ATOM     29  C   UNL     1      -3.245  -8.643   9.807  1.00  0.00     0.008 C 
ENDBRANCH  24  27
ENDBRANCH  23  24
ENDBRANCH  20  22
ENDBRANCH   1  20
BRANCH  16  30
ATOM     30  O   UNL     1      -8.554  -2.651  -1.786  1.00  0.00    -0.346 OA
BRANCH  30  31
ATOM     31  C   UNL     1      -9.588  -1.700  -1.549  1.00  0.00     0.282 C 
ATOM     32  C   UNL     1      -9.132  -0.265  -1.933  1.00  0.00     0.202 C 
ATOM     33  O   UNL     1     -10.103  -1.753  -0.222  1.00  0.00    -0.341 OA
ATOM     34  C   UNL     1      -8.252   0.381  -0.842  1.00  0.00     0.179 C 
ATOM     35  C   UNL     1      -9.143  -1.318   0.725  1.00  0.00     0.178 C 
ATOM     36  C   UNL     1      -8.900   0.191   0.544  1.00  0.00     0.177 C 
BRANCH  32  37
ATOM     37  O   UNL     1      -8.422  -0.293  -3.146  1.00  0.00    -0.385 OA
ATOM     38  H   UNL     1      -8.328  -1.248  -3.402  1.00  0.00     0.211 HD
ENDBRANCH  32  37
BRANCH  34  39
ATOM     39  O   UNL     1      -8.083   1.748  -1.122  1.00  0.00    -0.387 OA
ATOM     40  H   UNL     1      -7.742   2.174  -0.291  1.00  0.00     0.211 HD
ENDBRANCH  34  39
BRANCH  35  41
ATOM     41  C   UNL     1      -9.617  -1.692   2.130  1.00  0.00     0.191 C 
BRANCH  41  42
ATOM     42  O   UNL     1      -9.054  -2.911   2.538  1.00  0.00    -0.394 OA
ATOM     43  H   UNL     1      -9.801  -3.562   2.622  1.00  0.00     0.210 HD
ENDBRANCH  41  42
ENDBRANCH  35  41
BRANCH  36  44
ATOM     44  O   UNL     1     -10.124   0.886   0.603  1.00  0.00    -0.387 OA
ATOM     45  H   UNL     1     -10.550   0.654   1.472  1.00  0.00     0.211 HD
ENDBRANCH  36  44
ENDBRANCH  30  31
ENDBRANCH  16  30
TORSDOF 12
ENDMDL
