MODEL 1
REMARK VINA RESULT:    -3.535      0.000      0.000
REMARK INTER + INTRA:          -3.942
REMARK INTER:                  -3.845
REMARK INTRA:                  -0.097
REMARK UNBOUND:                -0.097
REMARK SMILES C=C(C)[C@H]1CC[C@@H](C)C[C@H]1O
REMARK SMILES IDX 8 1 7 2 6 3 5 4 4 5 10 6 9 7 11 8 2 10 1 11 3 12
REMARK H PARENT 11 9
REMARK Flexibility Score: inf
ROOT
ATOM      1  C   UNL     1     134.246 136.125 138.606  1.00  0.00     0.008 C 
ATOM      2  C   UNL     1     134.644 134.771 139.212  1.00  0.00    -0.012 C 
ATOM      3  C   UNL     1     135.624 133.998 138.304  1.00  0.00     0.004 C 
ATOM      4  C   UNL     1     134.932 133.307 137.124  1.00  0.00     0.011 C 
ATOM      5  C   UNL     1     133.816 132.374 137.628  1.00  0.00     0.043 C 
ATOM      6  C   UNL     1     132.757 133.129 138.485  1.00  0.00     0.121 C 
ATOM      7  C   UNL     1     133.428 133.909 139.637  1.00  0.00     0.035 C 
ENDROOT
BRANCH   6   8
ATOM      8  O   UNL     1     131.905 133.972 137.741  1.00  0.00    -0.392 OA
ATOM      9  H   UNL     1     131.126 133.444 137.440  1.00  0.00     0.210 HD
ENDBRANCH   6   8
BRANCH   5  10
ATOM     10  C   UNL     1     133.230 131.547 136.491  1.00  0.00    -0.075 C 
ATOM     11  C   UNL     1     132.102 130.838 136.665  1.00  0.00     0.008 C 
ATOM     12  C   UNL     1     133.878 131.599 135.124  1.00  0.00     0.039 C 
ENDBRANCH   5  10
TORSDOF 2
ENDMDL
MODEL 2
REMARK VINA RESULT:    -3.109      1.108      3.951
REMARK INTER + INTRA:          -3.479
REMARK INTER:                  -3.292
REMARK INTRA:                  -0.187
REMARK UNBOUND:                -0.097
REMARK SMILES C=C(C)[C@H]1CC[C@@H](C)C[C@H]1O
REMARK SMILES IDX 8 1 7 2 6 3 5 4 4 5 10 6 9 7 11 8 2 10 1 11 3 12
REMARK H PARENT 11 9
REMARK Flexibility Score: inf
ROOT
ATOM      1  C   UNL     1     132.538 130.433 137.568  1.00  0.00     0.008 C 
ATOM      2  C   UNL     1     132.551 131.642 136.619  1.00  0.00    -0.012 C 
ATOM      3  C   UNL     1     133.978 131.988 136.146  1.00  0.00     0.004 C 
ATOM      4  C   UNL     1     134.790 132.757 137.195  1.00  0.00     0.011 C 
ATOM      5  C   UNL     1     134.041 134.032 137.623  1.00  0.00     0.043 C 
ATOM      6  C   UNL     1     132.622 133.723 138.184  1.00  0.00     0.121 C 
ATOM      7  C   UNL     1     131.802 132.874 137.187  1.00  0.00     0.035 C 
ENDROOT
BRANCH   6   8
ATOM      8  O   UNL     1     132.622 133.128 139.464  1.00  0.00    -0.392 OA
ATOM      9  H   UNL     1     132.471 133.836 140.138  1.00  0.00     0.210 HD
ENDBRANCH   6   8
BRANCH   5  10
ATOM     10  C   UNL     1     134.901 134.900 138.532  1.00  0.00    -0.075 C 
ATOM     11  C   UNL     1     134.492 136.125 138.903  1.00  0.00     0.008 C 
ATOM     12  C   UNL     1     136.188 134.338 139.096  1.00  0.00     0.039 C 
ENDBRANCH   5  10
TORSDOF 2
ENDMDL
MODEL 3
REMARK VINA RESULT:    -2.971      1.516      2.414
REMARK INTER + INTRA:          -3.329
REMARK INTER:                  -3.140
REMARK INTRA:                  -0.189
REMARK UNBOUND:                -0.097
REMARK SMILES C=C(C)[C@H]1CC[C@@H](C)C[C@H]1O
REMARK SMILES IDX 8 1 7 2 6 3 5 4 4 5 10 6 9 7 11 8 2 10 1 11 3 12
REMARK H PARENT 11 9
REMARK Flexibility Score: inf
ROOT
ATOM      1  C   UNL     1     134.621 135.351 140.021  1.00  0.00     0.008 C 
ATOM      2  C   UNL     1     134.386 135.479 138.508  1.00  0.00    -0.012 C 
ATOM      3  C   UNL     1     132.887 135.417 138.150  1.00  0.00     0.004 C 
ATOM      4  C   UNL     1     132.327 133.990 138.152  1.00  0.00     0.011 C 
ATOM      5  C   UNL     1     133.144 133.092 137.205  1.00  0.00     0.043 C 
ATOM      6  C   UNL     1     134.656 133.061 137.579  1.00  0.00     0.121 C 
ATOM      7  C   UNL     1     135.236 134.490 137.670  1.00  0.00     0.035 C 
ENDROOT
BRANCH   6   8
ATOM      8  O   UNL     1     134.948 132.328 138.748  1.00  0.00    -0.392 OA
ATOM      9  H   UNL     1     135.847 132.590 139.066  1.00  0.00     0.210 HD
ENDBRANCH   6   8
BRANCH   5  10
ATOM     10  C   UNL     1     132.506 131.717 137.056  1.00  0.00    -0.075 C 
ATOM     11  C   UNL     1     132.908 130.872 136.092  1.00  0.00     0.008 C 
ATOM     12  C   UNL     1     131.471 131.266 138.065  1.00  0.00     0.039 C 
ENDBRANCH   5  10
TORSDOF 2
ENDMDL
MODEL 4
REMARK VINA RESULT:    -2.947      1.532      2.518
REMARK INTER + INTRA:          -3.302
REMARK INTER:                  -3.414
REMARK INTRA:                   0.112
REMARK UNBOUND:                -0.097
REMARK SMILES C=C(C)[C@H]1CC[C@@H](C)C[C@H]1O
REMARK SMILES IDX 8 1 7 2 6 3 5 4 4 5 10 6 9 7 11 8 2 10 1 11 3 12
REMARK H PARENT 11 9
REMARK Flexibility Score: inf
ROOT
ATOM      1  C   UNL     1     136.074 134.301 139.924  1.00  0.00     0.008 C 
ATOM      2  C   UNL     1     134.920 135.018 139.206  1.00  0.00    -0.012 C 
ATOM      3  C   UNL     1     133.548 134.641 139.802  1.00  0.00     0.004 C 
ATOM      4  C   UNL     1     133.041 133.274 139.329  1.00  0.00     0.011 C 
ATOM      5  C   UNL     1     132.992 133.223 137.791  1.00  0.00     0.043 C 
ATOM      6  C   UNL     1     134.378 133.518 137.145  1.00  0.00     0.121 C 
ATOM      7  C   UNL     1     134.960 134.851 137.665  1.00  0.00     0.035 C 
ENDROOT
BRANCH   6   8
ATOM      8  O   UNL     1     135.316 132.474 137.287  1.00  0.00    -0.392 OA
ATOM      9  H   UNL     1     136.115 132.832 137.749  1.00  0.00     0.210 HD
ENDBRANCH   6   8
BRANCH   5  10
ATOM     10  C   UNL     1     132.330 131.942 137.300  1.00  0.00    -0.075 C 
ATOM     11  C   UNL     1     132.710 131.370 136.145  1.00  0.00     0.008 C 
ATOM     12  C   UNL     1     131.297 131.259 138.170  1.00  0.00     0.039 C 
ENDBRANCH   5  10
TORSDOF 2
ENDMDL
MODEL 5
REMARK VINA RESULT:    -2.769      1.451      4.134
REMARK INTER + INTRA:          -3.109
REMARK INTER:                  -2.937
REMARK INTRA:                  -0.172
REMARK UNBOUND:                -0.097
REMARK SMILES C=C(C)[C@H]1CC[C@@H](C)C[C@H]1O
REMARK SMILES IDX 8 1 7 2 6 3 5 4 4 5 10 6 9 7 11 8 2 10 1 11 3 12
REMARK H PARENT 11 9
REMARK Flexibility Score: inf
ROOT
ATOM      1  C   UNL     1     131.476 131.790 136.013  1.00  0.00     0.008 C 
ATOM      2  C   UNL     1     132.097 131.449 137.376  1.00  0.00    -0.012 C 
ATOM      3  C   UNL     1     131.720 132.485 138.456  1.00  0.00     0.004 C 
ATOM      4  C   UNL     1     132.542 133.775 138.365  1.00  0.00     0.011 C 
ATOM      5  C   UNL     1     134.047 133.457 138.425  1.00  0.00     0.043 C 
ATOM      6  C   UNL     1     134.490 132.476 137.301  1.00  0.00     0.121 C 
ATOM      7  C   UNL     1     133.624 131.195 137.308  1.00  0.00     0.035 C 
ENDROOT
BRANCH   6   8
ATOM      8  O   UNL     1     134.523 133.048 136.012  1.00  0.00    -0.392 OA
ATOM      9  H   UNL     1     135.278 133.684 135.971  1.00  0.00     0.210 HD
ENDBRANCH   6   8
BRANCH   5  10
ATOM     10  C   UNL     1     134.879 134.730 138.511  1.00  0.00    -0.075 C 
ATOM     11  C   UNL     1     134.292 135.928 138.666  1.00  0.00     0.008 C 
ATOM     12  C   UNL     1     136.390 134.631 138.514  1.00  0.00     0.039 C 
ENDBRANCH   5  10
TORSDOF 2
ENDMDL
MODEL 6
REMARK VINA RESULT:    -2.565      1.809      2.524
REMARK INTER + INTRA:          -2.887
REMARK INTER:                  -2.879
REMARK INTRA:                  -0.008
REMARK UNBOUND:                -0.097
REMARK SMILES C=C(C)[C@H]1CC[C@@H](C)C[C@H]1O
REMARK SMILES IDX 8 1 7 2 6 3 5 4 4 5 10 6 9 7 11 8 2 10 1 11 3 12
REMARK H PARENT 11 9
REMARK Flexibility Score: inf
ROOT
ATOM      1  C   UNL     1     135.851 133.936 140.530  1.00  0.00     0.008 C 
ATOM      2  C   UNL     1     134.753 134.658 139.733  1.00  0.00    -0.012 C 
ATOM      3  C   UNL     1     133.532 133.749 139.481  1.00  0.00     0.004 C 
ATOM      4  C   UNL     1     133.751 132.748 138.341  1.00  0.00     0.011 C 
ATOM      5  C   UNL     1     134.149 133.485 137.050  1.00  0.00     0.043 C 
ATOM      6  C   UNL     1     135.427 134.354 137.235  1.00  0.00     0.121 C 
ATOM      7  C   UNL     1     135.275 135.320 138.432  1.00  0.00     0.035 C 
ENDROOT
BRANCH   6   8
ATOM      8  O   UNL     1     136.622 133.612 137.342  1.00  0.00    -0.392 OA
ATOM      9  H   UNL     1     137.218 134.069 137.985  1.00  0.00     0.210 HD
ENDBRANCH   6   8
BRANCH   5  10
ATOM     10  C   UNL     1     134.204 132.533 135.862  1.00  0.00    -0.075 C 
ATOM     11  C   UNL     1     133.448 131.422 135.834  1.00  0.00     0.008 C 
ATOM     12  C   UNL     1     135.052 132.892 134.661  1.00  0.00     0.039 C 
ENDBRANCH   5  10
TORSDOF 2
ENDMDL
MODEL 7
REMARK VINA RESULT:    -2.397      1.903      3.088
REMARK INTER + INTRA:          -2.705
REMARK INTER:                  -3.094
REMARK INTRA:                   0.389
REMARK UNBOUND:                -0.097
REMARK SMILES C=C(C)[C@H]1CC[C@@H](C)C[C@H]1O
REMARK SMILES IDX 8 1 7 2 6 3 5 4 4 5 10 6 9 7 11 8 2 10 1 11 3 12
REMARK H PARENT 11 9
REMARK Flexibility Score: inf
ROOT
ATOM      1  C   UNL     1     136.762 133.155 140.129  1.00  0.00     0.008 C 
ATOM      2  C   UNL     1     136.426 134.443 139.363  1.00  0.00    -0.012 C 
ATOM      3  C   UNL     1     135.233 135.193 139.992  1.00  0.00     0.004 C 
ATOM      4  C   UNL     1     133.877 134.579 139.628  1.00  0.00     0.011 C 
ATOM      5  C   UNL     1     133.718 134.502 138.098  1.00  0.00     0.043 C 
ATOM      6  C   UNL     1     134.859 133.683 137.426  1.00  0.00     0.121 C 
ATOM      7  C   UNL     1     136.247 134.222 137.840  1.00  0.00     0.035 C 
ENDROOT
BRANCH   6   8
ATOM      8  O   UNL     1     134.779 132.291 137.642  1.00  0.00    -0.392 OA
ATOM      9  H   UNL     1     134.527 132.135 138.586  1.00  0.00     0.210 HD
ENDBRANCH   6   8
BRANCH   5  10
ATOM     10  C   UNL     1     132.313 134.058 137.709  1.00  0.00    -0.075 C 
ATOM     11  C   UNL     1     131.401 134.949 137.288  1.00  0.00     0.008 C 
ATOM     12  C   UNL     1     131.974 132.582 137.710  1.00  0.00     0.039 C 
ENDBRANCH   5  10
TORSDOF 2
ENDMDL
MODEL 8
REMARK VINA RESULT:    -2.005      2.045      3.843
REMARK INTER + INTRA:          -2.278
REMARK INTER:                  -2.332
REMARK INTRA:                   0.054
REMARK UNBOUND:                -0.097
REMARK SMILES C=C(C)[C@H]1CC[C@@H](C)C[C@H]1O
REMARK SMILES IDX 8 1 7 2 6 3 5 4 4 5 10 6 9 7 11 8 2 10 1 11 3 12
REMARK H PARENT 11 9
REMARK Flexibility Score: inf
ROOT
ATOM      1  C   UNL     1     131.973 135.043 136.741  1.00  0.00     0.008 C 
ATOM      2  C   UNL     1     132.107 134.727 138.238  1.00  0.00    -0.012 C 
ATOM      3  C   UNL     1     132.938 135.795 138.980  1.00  0.00     0.004 C 
ATOM      4  C   UNL     1     134.448 135.632 138.773  1.00  0.00     0.011 C 
ATOM      5  C   UNL     1     134.896 134.219 139.187  1.00  0.00     0.043 C 
ATOM      6  C   UNL     1     134.139 133.106 138.404  1.00  0.00     0.121 C 
ATOM      7  C   UNL     1     132.609 133.288 138.519  1.00  0.00     0.035 C 
ENDROOT
BRANCH   6   8
ATOM      8  O   UNL     1     134.526 132.982 137.053  1.00  0.00    -0.392 OA
ATOM      9  H   UNL     1     133.904 133.515 136.499  1.00  0.00     0.210 HD
ENDBRANCH   6   8
BRANCH   5  10
ATOM     10  C   UNL     1     136.413 134.087 139.156  1.00  0.00    -0.075 C 
ATOM     11  C   UNL     1     137.111 134.420 138.057  1.00  0.00     0.008 C 
ATOM     12  C   UNL     1     137.148 133.663 140.410  1.00  0.00     0.039 C 
ENDBRANCH   5  10
TORSDOF 2
ENDMDL
MODEL 9
REMARK VINA RESULT:    -1.957      1.602      3.826
REMARK INTER + INTRA:          -2.225
REMARK INTER:                  -2.392
REMARK INTRA:                   0.167
REMARK UNBOUND:                -0.097
REMARK SMILES C=C(C)[C@H]1CC[C@@H](C)C[C@H]1O
REMARK SMILES IDX 8 1 7 2 6 3 5 4 4 5 10 6 9 7 11 8 2 10 1 11 3 12
REMARK H PARENT 11 9
REMARK Flexibility Score: inf
ROOT
ATOM      1  C   UNL     1     131.819 130.381 138.202  1.00  0.00     0.008 C 
ATOM      2  C   UNL     1     131.668 131.539 137.204  1.00  0.00    -0.012 C 
ATOM      3  C   UNL     1     132.518 131.320 135.935  1.00  0.00     0.004 C 
ATOM      4  C   UNL     1     134.002 131.644 136.142  1.00  0.00     0.011 C 
ATOM      5  C   UNL     1     134.170 133.084 136.660  1.00  0.00     0.043 C 
ATOM      6  C   UNL     1     133.392 133.329 137.986  1.00  0.00     0.121 C 
ATOM      7  C   UNL     1     131.906 132.932 137.841  1.00  0.00     0.035 C 
ENDROOT
BRANCH   6   8
ATOM      8  O   UNL     1     133.966 132.709 139.117  1.00  0.00    -0.392 OA
ATOM      9  H   UNL     1     133.969 131.731 138.970  1.00  0.00     0.210 HD
ENDBRANCH   6   8
BRANCH   5  10
ATOM     10  C   UNL     1     135.638 133.488 136.708  1.00  0.00    -0.075 C 
ATOM     11  C   UNL     1     136.477 133.156 135.713  1.00  0.00     0.008 C 
ATOM     12  C   UNL     1     136.132 134.353 137.848  1.00  0.00     0.039 C 
ENDBRANCH   5  10
TORSDOF 2
ENDMDL
