MODEL 1
REMARK VINA RESULT:    -7.500      0.000      0.000
REMARK INTER + INTRA:          -8.301
REMARK INTER:                  -8.157
REMARK INTRA:                  -0.143
REMARK UNBOUND:                -0.143
REMARK SMILES C[C@H]1[C@H]2C3=CC[C@H]4[C@@]5(C)CC[C@@H](O)C(C)(C)[C@@H]5CC[C@@]4(C)[C@]3(C)CC[C@@]2(C(=O)[O-])CC[C@@H]1C
REMARK SMILES IDX 26 1 30 2 25 3 3 4 31 5 24 6 4 7 2 8 32 9 22 10 5 11 1 12
REMARK SMILES IDX 33 13 23 14 20 15 6 16 7 17 19 18 21 19 8 20 18 21 17 22
REMARK SMILES IDX 10 23 9 24 14 25 11 26 12 27 15 28 16 29 27 30 28 31 29 32
REMARK SMILES IDX 13 33
REMARK H PARENT 13 34
REMARK Flexibility Score: inf
ROOT
ATOM      1  C   UNL     1       1.945 -10.043 -24.305  1.00  0.00     0.017 C 
ATOM      2  C   UNL     1       2.084  -9.837 -22.767  1.00  0.00     0.014 C 
ATOM      3  C   UNL     1       0.637 -10.776 -24.640  1.00  0.00     0.014 C 
ATOM      4  C   UNL     1       3.147 -10.848 -24.921  1.00  0.00     0.030 C 
ATOM      5  C   UNL     1       2.609 -11.051 -22.007  1.00  0.00     0.004 C 
ATOM      6  C   UNL     1       0.414 -10.868 -26.166  1.00  0.00     0.013 C 
ATOM      7  C   UNL     1       2.895 -11.257 -26.401  1.00  0.00    -0.063 C 
ATOM      8  C   UNL     1       3.860 -11.938 -24.035  1.00  0.00    -0.003 C 
ATOM      9  C   UNL     1       3.968 -11.520 -22.545  1.00  0.00    -0.011 C 
ATOM     10  C   UNL     1       1.497 -11.684 -26.965  1.00  0.00    -0.006 C 
ATOM     11  C   UNL     1       3.924 -11.005 -27.217  1.00  0.00    -0.027 C 
ATOM     12  C   UNL     1       3.313 -13.366 -24.134  1.00  0.00     0.008 C 
ATOM     13  C   UNL     1       5.084 -10.484 -22.309  1.00  0.00     0.008 C 
ATOM     14  C   UNL     1       1.231 -13.176 -26.619  1.00  0.00     0.017 C 
ATOM     15  C   UNL     1       1.345 -11.498 -28.601  1.00  0.00    -0.020 C 
ATOM     16  C   UNL     1       3.797 -10.732 -28.665  1.00  0.00     0.032 C 
ATOM     17  C   UNL     1       2.354 -10.397 -29.151  1.00  0.00     0.006 C 
ATOM     18  C   UNL     1       1.652 -12.810 -29.416  1.00  0.00     0.008 C 
ATOM     19  C   UNL     1      -0.155 -11.159 -28.904  1.00  0.00     0.012 C 
ATOM     20  C   UNL     1       2.332 -10.171 -30.748  1.00  0.00    -0.025 C 
ATOM     21  C   UNL     1       1.607 -12.658 -30.956  1.00  0.00     0.005 C 
ATOM     22  C   UNL     1       2.551 -11.554 -31.478  1.00  0.00     0.003 C 
ATOM     23  C   UNL     1       3.495  -9.224 -31.212  1.00  0.00     0.010 C 
ATOM     24  C   UNL     1       0.994  -9.456 -31.136  1.00  0.00     0.012 C 
ATOM     25  C   UNL     1       2.709 -11.490 -33.055  1.00  0.00    -0.006 C 
ATOM     26  C   UNL     1       3.633  -9.097 -32.743  1.00  0.00     0.033 C 
ATOM     27  C   UNL     1       3.835 -10.467 -33.418  1.00  0.00     0.120 C 
ATOM     28  C   UNL     1       1.403 -11.117 -33.805  1.00  0.00     0.014 C 
ATOM     29  C   UNL     1       3.137 -12.881 -33.605  1.00  0.00     0.014 C 
ENDROOT
BRANCH   1  30
ATOM     30  C   UNL     1       1.853  -8.627 -24.893  1.00  0.00     0.048 C 
ATOM     31  O   UNL     1       2.802  -8.119 -25.549  1.00  0.00    -0.550 OA
ATOM     32  O   UNL     1       0.717  -7.858 -24.657  1.00  0.00    -0.550 OA
ENDBRANCH   1  30
BRANCH  27  33
ATOM     33  O   UNL     1       5.093 -10.982 -33.049  1.00  0.00    -0.393 OA
ATOM     34  H   UNL     1       5.012 -11.972 -33.044  1.00  0.00     0.210 HD
ENDBRANCH  27  33
TORSDOF 2
ENDMDL
MODEL 2
REMARK VINA RESULT:    -7.325      4.040      9.490
REMARK INTER + INTRA:          -8.111
REMARK INTER:                  -8.103
REMARK INTRA:                  -0.008
REMARK UNBOUND:                -0.143
REMARK SMILES C[C@H]1[C@H]2C3=CC[C@H]4[C@@]5(C)CC[C@@H](O)C(C)(C)[C@@H]5CC[C@@]4(C)[C@]3(C)CC[C@@]2(C(=O)[O-])CC[C@@H]1C
REMARK SMILES IDX 26 1 30 2 25 3 3 4 31 5 24 6 4 7 2 8 32 9 22 10 5 11 1 12
REMARK SMILES IDX 33 13 23 14 20 15 6 16 7 17 19 18 21 19 8 20 18 21 17 22
REMARK SMILES IDX 10 23 9 24 14 25 11 26 12 27 15 28 16 29 27 30 28 31 29 32
REMARK SMILES IDX 13 33
REMARK H PARENT 13 34
REMARK Flexibility Score: inf
ROOT
ATOM      1  C   UNL     1       7.706  -6.651 -34.977  1.00  0.00     0.017 C 
ATOM      2  C   UNL     1       8.656  -5.520 -35.470  1.00  0.00     0.014 C 
ATOM      3  C   UNL     1       7.411  -7.646 -36.111  1.00  0.00     0.014 C 
ATOM      4  C   UNL     1       6.343  -6.101 -34.421  1.00  0.00     0.030 C 
ATOM      5  C   UNL     1       7.964  -4.393 -36.232  1.00  0.00     0.004 C 
ATOM      6  C   UNL     1       6.582  -8.849 -35.607  1.00  0.00     0.013 C 
ATOM      7  C   UNL     1       5.308  -7.231 -34.152  1.00  0.00    -0.063 C 
ATOM      8  C   UNL     1       5.749  -4.781 -35.044  1.00  0.00    -0.003 C 
ATOM      9  C   UNL     1       6.846  -3.744 -35.404  1.00  0.00    -0.011 C 
ATOM     10  C   UNL     1       5.152  -8.506 -35.049  1.00  0.00    -0.006 C 
ATOM     11  C   UNL     1       4.703  -7.142 -32.963  1.00  0.00    -0.027 C 
ATOM     12  C   UNL     1       4.791  -4.952 -36.227  1.00  0.00     0.008 C 
ATOM     13  C   UNL     1       7.385  -3.010 -34.161  1.00  0.00     0.008 C 
ATOM     14  C   UNL     1       4.291  -8.160 -36.297  1.00  0.00     0.017 C 
ATOM     15  C   UNL     1       4.452  -9.790 -34.278  1.00  0.00    -0.020 C 
ATOM     16  C   UNL     1       4.163  -8.294 -32.209  1.00  0.00     0.032 C 
ATOM     17  C   UNL     1       4.648  -9.691 -32.702  1.00  0.00     0.006 C 
ATOM     18  C   UNL     1       2.899  -9.898 -34.514  1.00  0.00     0.008 C 
ATOM     19  C   UNL     1       5.058 -11.100 -34.889  1.00  0.00     0.012 C 
ATOM     20  C   UNL     1       3.956 -10.867 -31.841  1.00  0.00    -0.025 C 
ATOM     21  C   UNL     1       2.188 -11.035 -33.740  1.00  0.00     0.005 C 
ATOM     22  C   UNL     1       2.425 -10.962 -32.216  1.00  0.00     0.003 C 
ATOM     23  C   UNL     1       4.028 -10.572 -30.301  1.00  0.00     0.010 C 
ATOM     24  C   UNL     1       4.748 -12.197 -32.077  1.00  0.00     0.012 C 
ATOM     25  C   UNL     1       1.558 -11.969 -31.349  1.00  0.00    -0.006 C 
ATOM     26  C   UNL     1       3.241 -11.573 -29.429  1.00  0.00     0.033 C 
ATOM     27  C   UNL     1       1.756 -11.644 -29.832  1.00  0.00     0.120 C 
ATOM     28  C   UNL     1       1.881 -13.464 -31.609  1.00  0.00     0.014 C 
ATOM     29  C   UNL     1       0.048 -11.792 -31.678  1.00  0.00     0.014 C 
ENDROOT
BRANCH   1  30
ATOM     30  C   UNL     1       8.498  -7.397 -33.894  1.00  0.00     0.048 C 
ATOM     31  O   UNL     1       8.015  -7.612 -32.749  1.00  0.00    -0.550 OA
ATOM     32  O   UNL     1       9.803  -7.806 -34.156  1.00  0.00    -0.550 OA
ENDBRANCH   1  30
BRANCH  27  33
ATOM     33  O   UNL     1       1.133 -10.421 -29.515  1.00  0.00    -0.393 OA
ATOM     34  H   UNL     1       0.215 -10.454 -29.892  1.00  0.00     0.210 HD
ENDBRANCH  27  33
TORSDOF 2
ENDMDL
MODEL 3
REMARK VINA RESULT:    -7.294      3.828      7.509
REMARK INTER + INTRA:          -8.077
REMARK INTER:                  -7.933
REMARK INTRA:                  -0.144
REMARK UNBOUND:                -0.143
REMARK SMILES C[C@H]1[C@H]2C3=CC[C@H]4[C@@]5(C)CC[C@@H](O)C(C)(C)[C@@H]5CC[C@@]4(C)[C@]3(C)CC[C@@]2(C(=O)[O-])CC[C@@H]1C
REMARK SMILES IDX 26 1 30 2 25 3 3 4 31 5 24 6 4 7 2 8 32 9 22 10 5 11 1 12
REMARK SMILES IDX 33 13 23 14 20 15 6 16 7 17 19 18 21 19 8 20 18 21 17 22
REMARK SMILES IDX 10 23 9 24 14 25 11 26 12 27 15 28 16 29 27 30 28 31 29 32
REMARK SMILES IDX 13 33
REMARK H PARENT 13 34
REMARK Flexibility Score: inf
ROOT
ATOM      1  C   UNL     1       1.601 -10.847 -32.009  1.00  0.00     0.017 C 
ATOM      2  C   UNL     1       0.687 -11.771 -31.151  1.00  0.00     0.014 C 
ATOM      3  C   UNL     1       1.519 -11.230 -33.496  1.00  0.00     0.014 C 
ATOM      4  C   UNL     1       3.106 -10.892 -31.559  1.00  0.00     0.030 C 
ATOM      5  C   UNL     1       1.299 -13.125 -30.800  1.00  0.00     0.004 C 
ATOM      6  C   UNL     1       2.310 -10.240 -34.379  1.00  0.00     0.013 C 
ATOM      7  C   UNL     1       4.050 -10.161 -32.556  1.00  0.00    -0.063 C 
ATOM      8  C   UNL     1       3.675 -12.231 -30.954  1.00  0.00    -0.003 C 
ATOM      9  C   UNL     1       2.641 -12.974 -30.069  1.00  0.00    -0.011 C 
ATOM     10  C   UNL     1       3.859 -10.173 -34.111  1.00  0.00    -0.006 C 
ATOM     11  C   UNL     1       4.920  -9.331 -31.971  1.00  0.00    -0.027 C 
ATOM     12  C   UNL     1       4.309 -13.214 -31.944  1.00  0.00     0.008 C 
ATOM     13  C   UNL     1       2.484 -12.322 -28.682  1.00  0.00     0.008 C 
ATOM     14  C   UNL     1       4.439 -11.493 -34.695  1.00  0.00     0.017 C 
ATOM     15  C   UNL     1       4.579  -8.904 -34.889  1.00  0.00    -0.020 C 
ATOM     16  C   UNL     1       5.495  -8.130 -32.616  1.00  0.00     0.032 C 
ATOM     17  C   UNL     1       4.764  -7.662 -33.911  1.00  0.00     0.006 C 
ATOM     18  C   UNL     1       6.015  -9.236 -35.442  1.00  0.00     0.008 C 
ATOM     19  C   UNL     1       3.713  -8.565 -36.150  1.00  0.00     0.012 C 
ATOM     20  C   UNL     1       5.509  -6.381 -34.550  1.00  0.00    -0.025 C 
ATOM     21  C   UNL     1       6.761  -8.050 -36.101  1.00  0.00     0.005 C 
ATOM     22  C   UNL     1       6.893  -6.830 -35.164  1.00  0.00     0.003 C 
ATOM     23  C   UNL     1       5.827  -5.296 -33.460  1.00  0.00     0.010 C 
ATOM     24  C   UNL     1       4.548  -5.704 -35.584  1.00  0.00     0.012 C 
ATOM     25  C   UNL     1       7.826  -5.664 -35.701  1.00  0.00    -0.006 C 
ATOM     26  C   UNL     1       6.685  -4.120 -33.971  1.00  0.00     0.033 C 
ATOM     27  C   UNL     1       8.020  -4.599 -34.571  1.00  0.00     0.120 C 
ATOM     28  C   UNL     1       7.296  -4.973 -36.985  1.00  0.00     0.014 C 
ATOM     29  C   UNL     1       9.229  -6.229 -36.065  1.00  0.00     0.014 C 
ENDROOT
BRANCH   1  30
ATOM     30  C   UNL     1       1.006  -9.440 -31.855  1.00  0.00     0.048 C 
ATOM     31  O   UNL     1       1.590  -8.544 -31.186  1.00  0.00    -0.550 OA
ATOM     32  O   UNL     1      -0.232  -9.151 -32.421  1.00  0.00    -0.550 OA
ENDBRANCH   1  30
BRANCH  27  33
ATOM     33  O   UNL     1       8.825  -5.127 -33.543  1.00  0.00    -0.393 OA
ATOM     34  H   UNL     1       9.303  -4.363 -33.126  1.00  0.00     0.210 HD
ENDBRANCH  27  33
TORSDOF 2
ENDMDL
MODEL 4
REMARK VINA RESULT:    -7.194      1.630      7.933
REMARK INTER + INTRA:          -7.968
REMARK INTER:                  -7.928
REMARK INTRA:                  -0.040
REMARK UNBOUND:                -0.143
REMARK SMILES C[C@H]1[C@H]2C3=CC[C@H]4[C@@]5(C)CC[C@@H](O)C(C)(C)[C@@H]5CC[C@@]4(C)[C@]3(C)CC[C@@]2(C(=O)[O-])CC[C@@H]1C
REMARK SMILES IDX 26 1 30 2 25 3 3 4 31 5 24 6 4 7 2 8 32 9 22 10 5 11 1 12
REMARK SMILES IDX 33 13 23 14 20 15 6 16 7 17 19 18 21 19 8 20 18 21 17 22
REMARK SMILES IDX 10 23 9 24 14 25 11 26 12 27 15 28 16 29 27 30 28 31 29 32
REMARK SMILES IDX 13 33
REMARK H PARENT 13 34
REMARK Flexibility Score: inf
ROOT
ATOM      1  C   UNL     1       2.700 -12.165 -32.580  1.00  0.00     0.017 C 
ATOM      2  C   UNL     1       2.855 -12.435 -34.106  1.00  0.00     0.014 C 
ATOM      3  C   UNL     1       1.232 -12.311 -32.148  1.00  0.00     0.014 C 
ATOM      4  C   UNL     1       3.209 -10.738 -32.160  1.00  0.00     0.030 C 
ATOM      5  C   UNL     1       2.509 -11.248 -35.001  1.00  0.00     0.004 C 
ATOM      6  C   UNL     1       1.077 -12.183 -30.616  1.00  0.00     0.013 C 
ATOM      7  C   UNL     1       2.839 -10.381 -30.691  1.00  0.00    -0.063 C 
ATOM      8  C   UNL     1       3.082  -9.555 -33.192  1.00  0.00    -0.003 C 
ATOM      9  C   UNL     1       3.342 -10.006 -34.653  1.00  0.00    -0.011 C 
ATOM     10  C   UNL     1       1.495 -10.796 -30.002  1.00  0.00    -0.006 C 
ATOM     11  C   UNL     1       3.854  -9.875 -29.982  1.00  0.00    -0.027 C 
ATOM     12  C   UNL     1       1.795  -8.727 -33.128  1.00  0.00     0.008 C 
ATOM     13  C   UNL     1       4.842 -10.203 -34.944  1.00  0.00     0.008 C 
ATOM     14  C   UNL     1       0.371  -9.804 -30.415  1.00  0.00     0.017 C 
ATOM     15  C   UNL     1       1.568 -10.835 -28.350  1.00  0.00    -0.020 C 
ATOM     16  C   UNL     1       3.990  -9.992 -28.514  1.00  0.00     0.032 C 
ATOM     17  C   UNL     1       3.062 -11.051 -27.847  1.00  0.00     0.006 C 
ATOM     18  C   UNL     1       1.070  -9.508 -27.665  1.00  0.00     0.008 C 
ATOM     19  C   UNL     1       0.588 -11.953 -27.856  1.00  0.00     0.012 C 
ATOM     20  C   UNL     1       3.262 -11.051 -26.246  1.00  0.00    -0.025 C 
ATOM     21  C   UNL     1       1.204  -9.468 -26.123  1.00  0.00     0.005 C 
ATOM     22  C   UNL     1       2.647  -9.729 -25.640  1.00  0.00     0.003 C 
ATOM     23  C   UNL     1       4.782 -11.063 -25.854  1.00  0.00     0.010 C 
ATOM     24  C   UNL     1       2.641 -12.364 -25.660  1.00  0.00     0.012 C 
ATOM     25  C   UNL     1       2.891  -9.495 -24.090  1.00  0.00    -0.006 C 
ATOM     26  C   UNL     1       5.047 -10.897 -24.344  1.00  0.00     0.033 C 
ATOM     27  C   UNL     1       4.423  -9.602 -23.789  1.00  0.00     0.120 C 
ATOM     28  C   UNL     1       2.110 -10.472 -23.173  1.00  0.00     0.014 C 
ATOM     29  C   UNL     1       2.429  -8.065 -23.687  1.00  0.00     0.014 C 
ENDROOT
BRANCH   1  30
ATOM     30  C   UNL     1       3.503 -13.277 -31.891  1.00  0.00     0.048 C 
ATOM     31  O   UNL     1       4.726 -13.138 -31.615  1.00  0.00    -0.550 OA
ATOM     32  O   UNL     1       2.890 -14.495 -31.609  1.00  0.00    -0.550 OA
ENDBRANCH   1  30
BRANCH  27  33
ATOM     33  O   UNL     1       5.101  -8.494 -24.332  1.00  0.00    -0.393 OA
ATOM     34  H   UNL     1       4.800  -8.401 -25.274  1.00  0.00     0.210 HD
ENDBRANCH  27  33
TORSDOF 2
ENDMDL
MODEL 5
REMARK VINA RESULT:    -7.167      1.744      7.894
REMARK INTER + INTRA:          -7.939
REMARK INTER:                  -7.964
REMARK INTRA:                   0.025
REMARK UNBOUND:                -0.143
REMARK SMILES C[C@H]1[C@H]2C3=CC[C@H]4[C@@]5(C)CC[C@@H](O)C(C)(C)[C@@H]5CC[C@@]4(C)[C@]3(C)CC[C@@]2(C(=O)[O-])CC[C@@H]1C
REMARK SMILES IDX 26 1 30 2 25 3 3 4 31 5 24 6 4 7 2 8 32 9 22 10 5 11 1 12
REMARK SMILES IDX 33 13 23 14 20 15 6 16 7 17 19 18 21 19 8 20 18 21 17 22
REMARK SMILES IDX 10 23 9 24 14 25 11 26 12 27 15 28 16 29 27 30 28 31 29 32
REMARK SMILES IDX 13 33
REMARK H PARENT 13 34
REMARK Flexibility Score: inf
ROOT
ATOM      1  C   UNL     1       1.930 -11.903 -32.226  1.00  0.00     0.017 C 
ATOM      2  C   UNL     1       2.226 -12.000 -33.752  1.00  0.00     0.014 C 
ATOM      3  C   UNL     1       0.482 -11.448 -31.981  1.00  0.00     0.014 C 
ATOM      4  C   UNL     1       2.902 -10.919 -31.480  1.00  0.00     0.030 C 
ATOM      5  C   UNL     1       2.567 -10.671 -34.421  1.00  0.00     0.004 C 
ATOM      6  C   UNL     1       0.127 -11.478 -30.477  1.00  0.00     0.013 C 
ATOM      7  C   UNL     1       2.460 -10.641 -30.014  1.00  0.00    -0.063 C 
ATOM      8  C   UNL     1       3.460  -9.670 -32.260  1.00  0.00    -0.003 C 
ATOM      9  C   UNL     1       3.764  -9.982 -33.749  1.00  0.00    -0.011 C 
ATOM     10  C   UNL     1       0.966 -10.515 -29.559  1.00  0.00    -0.006 C 
ATOM     11  C   UNL     1       3.451 -10.737 -29.120  1.00  0.00    -0.027 C 
ATOM     12  C   UNL     1       2.643  -8.377 -32.159  1.00  0.00     0.008 C 
ATOM     13  C   UNL     1       5.072 -10.776 -33.923  1.00  0.00     0.008 C 
ATOM     14  C   UNL     1       0.446  -9.084 -29.874  1.00  0.00     0.017 C 
ATOM     15  C   UNL     1       0.724 -10.810 -27.950  1.00  0.00    -0.020 C 
ATOM     16  C   UNL     1       3.265 -11.103 -27.699  1.00  0.00     0.032 C 
ATOM     17  C   UNL     1       1.879 -11.728 -27.354  1.00  0.00     0.006 C 
ATOM     18  C   UNL     1       0.708  -9.508 -27.065  1.00  0.00     0.008 C 
ATOM     19  C   UNL     1      -0.702 -11.441 -27.791  1.00  0.00     0.012 C 
ATOM     20  C   UNL     1       1.775 -12.037 -25.774  1.00  0.00    -0.025 C 
ATOM     21  C   UNL     1       0.572  -9.744 -25.541  1.00  0.00     0.005 C 
ATOM     22  C   UNL     1       1.667 -10.677 -24.979  1.00  0.00     0.003 C 
ATOM     23  C   UNL     1       3.059 -12.770 -25.244  1.00  0.00     0.010 C 
ATOM     24  C   UNL     1       0.574 -13.010 -25.529  1.00  0.00     0.012 C 
ATOM     25  C   UNL     1       1.708 -10.791 -23.397  1.00  0.00    -0.006 C 
ATOM     26  C   UNL     1       3.097 -12.947 -23.712  1.00  0.00     0.033 C 
ATOM     27  C   UNL     1       2.978 -11.600 -22.973  1.00  0.00     0.120 C 
ATOM     28  C   UNL     1       0.444 -11.442 -22.778  1.00  0.00     0.014 C 
ATOM     29  C   UNL     1       1.817  -9.374 -22.763  1.00  0.00     0.014 C 
ENDROOT
BRANCH   1  30
ATOM     30  C   UNL     1       2.065 -13.339 -31.699  1.00  0.00     0.048 C 
ATOM     31  O   UNL     1       1.071 -14.111 -31.619  1.00  0.00    -0.550 OA
ATOM     32  O   UNL     1       3.301 -13.792 -31.247  1.00  0.00    -0.550 OA
ENDBRANCH   1  30
BRANCH  27  33
ATOM     33  O   UNL     1       4.139 -10.839 -23.212  1.00  0.00    -0.393 OA
ATOM     34  H   UNL     1       4.218 -10.186 -22.469  1.00  0.00     0.210 HD
ENDBRANCH  27  33
TORSDOF 2
ENDMDL
MODEL 6
REMARK VINA RESULT:    -7.009      1.452      7.808
REMARK INTER + INTRA:          -7.767
REMARK INTER:                  -7.626
REMARK INTRA:                  -0.142
REMARK UNBOUND:                -0.143
REMARK SMILES C[C@H]1[C@H]2C3=CC[C@H]4[C@@]5(C)CC[C@@H](O)C(C)(C)[C@@H]5CC[C@@]4(C)[C@]3(C)CC[C@@]2(C(=O)[O-])CC[C@@H]1C
REMARK SMILES IDX 26 1 30 2 25 3 3 4 31 5 24 6 4 7 2 8 32 9 22 10 5 11 1 12
REMARK SMILES IDX 33 13 23 14 20 15 6 16 7 17 19 18 21 19 8 20 18 21 17 22
REMARK SMILES IDX 10 23 9 24 14 25 11 26 12 27 15 28 16 29 27 30 28 31 29 32
REMARK SMILES IDX 13 33
REMARK H PARENT 13 34
REMARK Flexibility Score: inf
ROOT
ATOM      1  C   UNL     1       2.041 -11.695 -31.565  1.00  0.00     0.017 C 
ATOM      2  C   UNL     1       1.965 -11.582 -33.117  1.00  0.00     0.014 C 
ATOM      3  C   UNL     1       0.865 -12.522 -31.022  1.00  0.00     0.014 C 
ATOM      4  C   UNL     1       2.043 -10.293 -30.853  1.00  0.00     0.030 C 
ATOM      5  C   UNL     1       1.014 -10.505 -33.632  1.00  0.00     0.004 C 
ATOM      6  C   UNL     1       0.996 -12.761 -29.501  1.00  0.00     0.013 C 
ATOM      7  C   UNL     1       1.880 -10.407 -29.310  1.00  0.00    -0.063 C 
ATOM      8  C   UNL     1       1.262  -9.102 -31.525  1.00  0.00    -0.003 C 
ATOM      9  C   UNL     1       1.363  -9.118 -33.073  1.00  0.00    -0.011 C 
ATOM     10  C   UNL     1       0.972 -11.470 -28.603  1.00  0.00    -0.006 C 
ATOM     11  C   UNL     1       2.750  -9.666 -28.615  1.00  0.00    -0.027 C 
ATOM     12  C   UNL     1      -0.200  -8.918 -31.105  1.00  0.00     0.008 C 
ATOM     13  C   UNL     1       2.729  -8.609 -33.574  1.00  0.00     0.008 C 
ATOM     14  C   UNL     1      -0.505 -10.982 -28.616  1.00  0.00     0.017 C 
ATOM     15  C   UNL     1       1.397 -11.784 -27.036  1.00  0.00    -0.020 C 
ATOM     16  C   UNL     1       3.223  -9.988 -27.252  1.00  0.00     0.032 C 
ATOM     17  C   UNL     1       2.931 -11.444 -26.778  1.00  0.00     0.006 C 
ATOM     18  C   UNL     1       0.586 -10.943 -25.981  1.00  0.00     0.008 C 
ATOM     19  C   UNL     1       1.044 -13.282 -26.738  1.00  0.00     0.012 C 
ATOM     20  C   UNL     1       3.445 -11.661 -25.264  1.00  0.00    -0.025 C 
ATOM     21  C   UNL     1       1.013 -11.142 -24.506  1.00  0.00     0.005 C 
ATOM     22  C   UNL     1       2.513 -10.859 -24.273  1.00  0.00     0.003 C 
ATOM     23  C   UNL     1       4.900 -11.108 -25.064  1.00  0.00     0.010 C 
ATOM     24  C   UNL     1       3.508 -13.198 -24.969  1.00  0.00     0.012 C 
ATOM     25  C   UNL     1       2.968 -10.841 -22.753  1.00  0.00    -0.006 C 
ATOM     26  C   UNL     1       5.391 -11.133 -23.602  1.00  0.00     0.033 C 
ATOM     27  C   UNL     1       4.451 -10.350 -22.666  1.00  0.00     0.120 C 
ATOM     28  C   UNL     1       2.827 -12.209 -22.036  1.00  0.00     0.014 C 
ATOM     29  C   UNL     1       2.090  -9.841 -21.946  1.00  0.00     0.014 C 
ENDROOT
BRANCH   1  30
ATOM     30  C   UNL     1       3.332 -12.475 -31.282  1.00  0.00     0.048 C 
ATOM     31  O   UNL     1       4.370 -11.904 -30.848  1.00  0.00    -0.550 OA
ATOM     32  O   UNL     1       3.386 -13.839 -31.557  1.00  0.00    -0.550 OA
ENDBRANCH   1  30
BRANCH  27  33
ATOM     33  O   UNL     1       4.525  -8.979 -22.980  1.00  0.00    -0.393 OA
ATOM     34  H   UNL     1       4.866  -8.513 -22.172  1.00  0.00     0.210 HD
ENDBRANCH  27  33
TORSDOF 2
ENDMDL
MODEL 7
REMARK VINA RESULT:    -6.944      4.729      9.807
REMARK INTER + INTRA:          -7.697
REMARK INTER:                  -7.560
REMARK INTRA:                  -0.137
REMARK UNBOUND:                -0.143
REMARK SMILES C[C@H]1[C@H]2C3=CC[C@H]4[C@@]5(C)CC[C@@H](O)C(C)(C)[C@@H]5CC[C@@]4(C)[C@]3(C)CC[C@@]2(C(=O)[O-])CC[C@@H]1C
REMARK SMILES IDX 26 1 30 2 25 3 3 4 31 5 24 6 4 7 2 8 32 9 22 10 5 11 1 12
REMARK SMILES IDX 33 13 23 14 20 15 6 16 7 17 19 18 21 19 8 20 18 21 17 22
REMARK SMILES IDX 10 23 9 24 14 25 11 26 12 27 15 28 16 29 27 30 28 31 29 32
REMARK SMILES IDX 13 33
REMARK H PARENT 13 34
REMARK Flexibility Score: inf
ROOT
ATOM      1  C   UNL     1       7.510  -6.123 -35.684  1.00  0.00     0.017 C 
ATOM      2  C   UNL     1       8.569  -5.065 -36.112  1.00  0.00     0.014 C 
ATOM      3  C   UNL     1       6.593  -6.483 -36.864  1.00  0.00     0.014 C 
ATOM      4  C   UNL     1       6.620  -5.640 -34.482  1.00  0.00     0.030 C 
ATOM      5  C   UNL     1       8.065  -3.624 -36.116  1.00  0.00     0.004 C 
ATOM      6  C   UNL     1       5.624  -7.630 -36.498  1.00  0.00     0.013 C 
ATOM      7  C   UNL     1       5.417  -6.590 -34.211  1.00  0.00    -0.063 C 
ATOM      8  C   UNL     1       6.307  -4.103 -34.341  1.00  0.00    -0.003 C 
ATOM      9  C   UNL     1       7.508  -3.209 -34.746  1.00  0.00    -0.011 C 
ATOM     10  C   UNL     1       4.610  -7.322 -35.336  1.00  0.00    -0.006 C 
ATOM     11  C   UNL     1       5.258  -6.911 -32.922  1.00  0.00    -0.027 C 
ATOM     12  C   UNL     1       5.033  -3.598 -35.027  1.00  0.00     0.008 C 
ATOM     13  C   UNL     1       8.597  -3.168 -33.657  1.00  0.00     0.008 C 
ATOM     14  C   UNL     1       3.565  -6.345 -35.945  1.00  0.00     0.017 C 
ATOM     15  C   UNL     1       3.812  -8.676 -34.821  1.00  0.00    -0.020 C 
ATOM     16  C   UNL     1       4.641  -8.167 -32.442  1.00  0.00     0.032 C 
ATOM     17  C   UNL     1       4.495  -9.285 -33.518  1.00  0.00     0.006 C 
ATOM     18  C   UNL     1       2.308  -8.415 -34.437  1.00  0.00     0.008 C 
ATOM     19  C   UNL     1       3.768  -9.687 -36.017  1.00  0.00     0.012 C 
ATOM     20  C   UNL     1       3.766 -10.581 -32.893  1.00  0.00    -0.025 C 
ATOM     21  C   UNL     1       1.548  -9.637 -33.866  1.00  0.00     0.005 C 
ATOM     22  C   UNL     1       2.244 -10.253 -32.633  1.00  0.00     0.003 C 
ATOM     23  C   UNL     1       4.387 -10.979 -31.507  1.00  0.00     0.010 C 
ATOM     24  C   UNL     1       3.996 -11.798 -33.851  1.00  0.00     0.012 C 
ATOM     25  C   UNL     1       1.411 -11.372 -31.877  1.00  0.00    -0.006 C 
ATOM     26  C   UNL     1       3.630 -12.108 -30.777  1.00  0.00     0.033 C 
ATOM     27  C   UNL     1       2.148 -11.755 -30.552  1.00  0.00     0.120 C 
ATOM     28  C   UNL     1       1.159 -12.649 -32.722  1.00  0.00     0.014 C 
ATOM     29  C   UNL     1       0.005 -10.825 -31.497  1.00  0.00     0.014 C 
ENDROOT
BRANCH   1  30
ATOM     30  C   UNL     1       8.319  -7.377 -35.321  1.00  0.00     0.048 C 
ATOM     31  O   UNL     1       8.527  -7.706 -34.121  1.00  0.00    -0.550 OA
ATOM     32  O   UNL     1       8.886  -8.146 -36.333  1.00  0.00    -0.550 OA
ENDBRANCH   1  30
BRANCH  27  33
ATOM     33  O   UNL     1       2.062 -10.695 -29.628  1.00  0.00    -0.393 OA
ATOM     34  H   UNL     1       1.953 -11.100 -28.728  1.00  0.00     0.210 HD
ENDBRANCH  27  33
TORSDOF 2
ENDMDL
MODEL 8
REMARK VINA RESULT:    -6.891      2.779      8.801
REMARK INTER + INTRA:          -7.638
REMARK INTER:                  -7.539
REMARK INTRA:                  -0.099
REMARK UNBOUND:                -0.143
REMARK SMILES C[C@H]1[C@H]2C3=CC[C@H]4[C@@]5(C)CC[C@@H](O)C(C)(C)[C@@H]5CC[C@@]4(C)[C@]3(C)CC[C@@]2(C(=O)[O-])CC[C@@H]1C
REMARK SMILES IDX 26 1 30 2 25 3 3 4 31 5 24 6 4 7 2 8 32 9 22 10 5 11 1 12
REMARK SMILES IDX 33 13 23 14 20 15 6 16 7 17 19 18 21 19 8 20 18 21 17 22
REMARK SMILES IDX 10 23 9 24 14 25 11 26 12 27 15 28 16 29 27 30 28 31 29 32
REMARK SMILES IDX 13 33
REMARK H PARENT 13 34
REMARK Flexibility Score: inf
ROOT
ATOM      1  C   UNL     1       4.950  -9.022 -35.581  1.00  0.00     0.017 C 
ATOM      2  C   UNL     1       5.875  -8.657 -36.780  1.00  0.00     0.014 C 
ATOM      3  C   UNL     1       3.564  -8.379 -35.747  1.00  0.00     0.014 C 
ATOM      4  C   UNL     1       5.548  -8.580 -34.196  1.00  0.00     0.030 C 
ATOM      5  C   UNL     1       6.536  -7.286 -36.680  1.00  0.00     0.004 C 
ATOM      6  C   UNL     1       2.590  -8.840 -34.640  1.00  0.00     0.013 C 
ATOM      7  C   UNL     1       4.528  -8.727 -33.031  1.00  0.00    -0.063 C 
ATOM      8  C   UNL     1       6.451  -7.290 -34.139  1.00  0.00    -0.003 C 
ATOM      9  C   UNL     1       7.355  -7.137 -35.390  1.00  0.00    -0.011 C 
ATOM     10  C   UNL     1       2.993  -8.447 -33.171  1.00  0.00    -0.006 C 
ATOM     11  C   UNL     1       5.027  -9.328 -31.945  1.00  0.00    -0.027 C 
ATOM     12  C   UNL     1       5.735  -5.965 -33.853  1.00  0.00     0.008 C 
ATOM     13  C   UNL     1       8.569  -8.085 -35.351  1.00  0.00     0.008 C 
ATOM     14  C   UNL     1       2.732  -6.918 -33.063  1.00  0.00     0.017 C 
ATOM     15  C   UNL     1       2.062  -9.210 -32.037  1.00  0.00    -0.020 C 
ATOM     16  C   UNL     1       4.224 -10.105 -30.974  1.00  0.00     0.032 C 
ATOM     17  C   UNL     1       2.798 -10.500 -31.463  1.00  0.00     0.006 C 
ATOM     18  C   UNL     1       1.727  -8.313 -30.787  1.00  0.00     0.008 C 
ATOM     19  C   UNL     1       0.680  -9.538 -32.698  1.00  0.00     0.012 C 
ATOM     20  C   UNL     1       2.003 -11.295 -30.306  1.00  0.00    -0.025 C 
ATOM     21  C   UNL     1       0.931  -9.016 -29.661  1.00  0.00     0.005 C 
ATOM     22  C   UNL     1       1.626 -10.295 -29.144  1.00  0.00     0.003 C 
ATOM     23  C   UNL     1       2.891 -12.420 -29.665  1.00  0.00     0.010 C 
ATOM     24  C   UNL     1       0.768 -12.014 -30.947  1.00  0.00     0.012 C 
ATOM     25  C   UNL     1       0.971 -10.944 -27.853  1.00  0.00    -0.006 C 
ATOM     26  C   UNL     1       2.252 -13.109 -28.442  1.00  0.00     0.033 C 
ATOM     27  C   UNL     1       1.890 -12.099 -27.336  1.00  0.00     0.120 C 
ATOM     28  C   UNL     1      -0.467 -11.480 -28.077  1.00  0.00     0.014 C 
ATOM     29  C   UNL     1       0.863  -9.883 -26.720  1.00  0.00     0.014 C 
ENDROOT
BRANCH   1  30
ATOM     30  C   UNL     1       4.773 -10.545 -35.659  1.00  0.00     0.048 C 
ATOM     31  O   UNL     1       5.152 -11.305 -34.727  1.00  0.00    -0.550 OA
ATOM     32  O   UNL     1       4.228 -11.116 -36.806  1.00  0.00    -0.550 OA
ENDBRANCH   1  30
BRANCH  27  33
ATOM     33  O   UNL     1       3.075 -11.568 -26.791  1.00  0.00    -0.393 OA
ATOM     34  H   UNL     1       2.822 -11.076 -25.966  1.00  0.00     0.210 HD
ENDBRANCH  27  33
TORSDOF 2
ENDMDL
MODEL 9
REMARK VINA RESULT:    -6.849      1.783      3.247
REMARK INTER + INTRA:          -7.593
REMARK INTER:                  -7.450
REMARK INTRA:                  -0.143
REMARK UNBOUND:                -0.143
REMARK SMILES C[C@H]1[C@H]2C3=CC[C@H]4[C@@]5(C)CC[C@@H](O)C(C)(C)[C@@H]5CC[C@@]4(C)[C@]3(C)CC[C@@]2(C(=O)[O-])CC[C@@H]1C
REMARK SMILES IDX 26 1 30 2 25 3 3 4 31 5 24 6 4 7 2 8 32 9 22 10 5 11 1 12
REMARK SMILES IDX 33 13 23 14 20 15 6 16 7 17 19 18 21 19 8 20 18 21 17 22
REMARK SMILES IDX 10 23 9 24 14 25 11 26 12 27 15 28 16 29 27 30 28 31 29 32
REMARK SMILES IDX 13 33
REMARK H PARENT 13 34
REMARK Flexibility Score: inf
ROOT
ATOM      1  C   UNL     1       0.382 -10.652 -27.311  1.00  0.00     0.017 C 
ATOM      2  C   UNL     1      -0.121 -10.881 -25.855  1.00  0.00     0.014 C 
ATOM      3  C   UNL     1      -0.442 -11.484 -28.308  1.00  0.00     0.014 C 
ATOM      4  C   UNL     1       1.902 -11.007 -27.493  1.00  0.00     0.030 C 
ATOM      5  C   UNL     1       0.413 -12.146 -25.188  1.00  0.00     0.004 C 
ATOM      6  C   UNL     1      -0.051 -11.167 -29.769  1.00  0.00     0.013 C 
ATOM      7  C   UNL     1       2.341 -11.007 -28.986  1.00  0.00    -0.063 C 
ATOM      8  C   UNL     1       2.521 -12.157 -26.611  1.00  0.00    -0.003 C 
ATOM      9  C   UNL     1       1.949 -12.179 -25.170  1.00  0.00    -0.011 C 
ATOM     10  C   UNL     1       1.435 -11.501 -30.164  1.00  0.00    -0.006 C 
ATOM     11  C   UNL     1       3.479 -10.343 -29.217  1.00  0.00    -0.027 C 
ATOM     12  C   UNL     1       2.484 -13.570 -27.204  1.00  0.00     0.008 C 
ATOM     13  C   UNL     1       2.550 -11.070 -24.287  1.00  0.00     0.008 C 
ATOM     14  C   UNL     1       1.502 -13.051 -30.256  1.00  0.00     0.017 C 
ATOM     15  C   UNL     1       1.849 -10.878 -31.639  1.00  0.00    -0.020 C 
ATOM     16  C   UNL     1       3.821  -9.688 -30.499  1.00  0.00     0.032 C 
ATOM     17  C   UNL     1       2.627  -9.498 -31.483  1.00  0.00     0.006 C 
ATOM     18  C   UNL     1       2.797 -11.815 -32.476  1.00  0.00     0.008 C 
ATOM     19  C   UNL     1       0.537 -10.747 -32.486  1.00  0.00     0.012 C 
ATOM     20  C   UNL     1       3.130  -8.824 -32.860  1.00  0.00    -0.025 C 
ATOM     21  C   UNL     1       3.280 -11.233 -33.827  1.00  0.00     0.005 C 
ATOM     22  C   UNL     1       3.990  -9.870 -33.673  1.00  0.00     0.003 C 
ATOM     23  C   UNL     1       4.057  -7.586 -32.591  1.00  0.00     0.010 C 
ATOM     24  C   UNL     1       1.884  -8.286 -33.641  1.00  0.00     0.012 C 
ATOM     25  C   UNL     1       4.690  -9.321 -34.986  1.00  0.00    -0.006 C 
ATOM     26  C   UNL     1       4.706  -6.996 -33.860  1.00  0.00     0.033 C 
ATOM     27  C   UNL     1       5.526  -8.048 -34.630  1.00  0.00     0.120 C 
ATOM     28  C   UNL     1       3.704  -8.993 -36.138  1.00  0.00     0.014 C 
ATOM     29  C   UNL     1       5.672 -10.388 -35.552  1.00  0.00     0.014 C 
ENDROOT
BRANCH   1  30
ATOM     30  C   UNL     1       0.109  -9.169 -27.602  1.00  0.00     0.048 C 
ATOM     31  O   UNL     1       1.044  -8.326 -27.676  1.00  0.00    -0.550 OA
ATOM     32  O   UNL     1      -1.203  -8.725 -27.736  1.00  0.00    -0.550 OA
ENDBRANCH   1  30
BRANCH  27  33
ATOM     33  O   UNL     1       6.651  -8.407 -33.862  1.00  0.00    -0.393 OA
ATOM     34  H   UNL     1       6.757  -7.715 -33.159  1.00  0.00     0.210 HD
ENDBRANCH  27  33
TORSDOF 2
ENDMDL
