MODEL 1
REMARK VINA RESULT:    18.517      0.000      0.000
REMARK INTER + INTRA:          28.791
REMARK INTER:                  26.095
REMARK INTRA:                   2.696
REMARK UNBOUND:                 2.696
REMARK SMILES CC1=CCC(=C(C)C)C(=O)CC(C)=CCC1
REMARK SMILES IDX 12 1 14 2 13 3 15 4 16 5 2 6 1 7 3 8 11 10 9 11 10 12 5 13
REMARK SMILES IDX 6 14 7 15 8 16 4 17
REMARK H PARENT
REMARK Flexibility Score: 60.00
ROOT
ATOM      1  C   UNL     1      35.529  10.751  40.047  1.00  0.00    -0.070 C 
ATOM      2  C   UNL     1      34.636   9.737  39.994  1.00  0.00    -0.027 C 
ATOM      3  C   UNL     1      36.990  10.416  39.882  1.00  0.00     0.039 C 
ENDROOT
BRANCH   2   4
ATOM      4  C   UNL     1      33.131   9.881  40.041  1.00  0.00     0.032 C 
BRANCH   4   5
ATOM      5  C   UNL     1      32.626  11.297  40.388  1.00  0.00     0.034 C 
BRANCH   5   6
ATOM      6  C   UNL     1      32.335  11.481  41.867  1.00  0.00    -0.077 C 
ATOM      7  C   UNL     1      31.610  10.368  42.582  1.00  0.00     0.039 C 
ATOM      8  C   UNL     1      32.741  12.547  42.600  1.00  0.00    -0.023 CG0
ATOM      9  G   UNL     1      33.460  13.782  42.096  1.00  0.00     0.000 G0
ENDBRANCH   5   6
ENDBRANCH   4   5
ENDBRANCH   2   4
BRANCH   1  10
ATOM     10  C   UNL     1      35.126  12.206  40.172  1.00  0.00     0.111 C 
BRANCH  10  11
ATOM     11  C   UNL     1      35.758  12.857  41.375  1.00  0.00     0.163 C 
ATOM     12  O   UNL     1      36.995  12.693  41.557  1.00  0.00    -0.294 OA
BRANCH  11  13
ATOM     13  C   UNL     1      34.989  13.728  42.312  1.00  0.00    -0.002 C 
ATOM     14  C   UNL     1      35.633  14.490  43.247  1.00  0.00    -0.069 C 
ATOM     15  C   UNL     1      34.898  15.499  44.101  1.00  0.00     0.039 C 
ATOM     16  C   UNL     1      37.123  14.360  43.471  1.00  0.00     0.039 C 
BRANCH  13  17
ATOM     17  C   UNL     1      33.483  13.802  42.115  1.00  0.00     0.066 CG0
ATOM     18  G   UNL     1      32.780  12.540  42.574  1.00  0.00     0.000 G0
ENDBRANCH  13  17
ENDBRANCH  11  13
ENDBRANCH  10  11
ENDBRANCH   1  10
TORSDOF 0
ENDMDL
MODEL 2
REMARK VINA RESULT:    18.545      1.897      3.500
REMARK INTER + INTRA:          28.830
REMARK INTER:                  27.398
REMARK INTRA:                   1.432
REMARK UNBOUND:                 2.696
REMARK SMILES CC1=CCC(=C(C)C)C(=O)CC(C)=CCC1
REMARK SMILES IDX 12 1 14 2 13 3 15 4 16 5 2 6 1 7 3 8 11 10 9 11 10 12 5 13
REMARK SMILES IDX 6 14 7 15 8 16 4 17
REMARK H PARENT
REMARK Flexibility Score: 60.00
ROOT
ATOM      1  C   UNL     1      32.725  11.526  41.060  1.00  0.00    -0.070 C 
ATOM      2  C   UNL     1      32.690  10.190  41.262  1.00  0.00    -0.027 C 
ATOM      3  C   UNL     1      32.055  12.413  42.079  1.00  0.00     0.039 C 
ENDROOT
BRANCH   2   4
ATOM      4  C   UNL     1      33.382   9.149  40.411  1.00  0.00     0.032 C 
BRANCH   4   5
ATOM      5  C   UNL     1      34.915   9.094  40.573  1.00  0.00     0.034 C 
BRANCH   5   6
ATOM      6  C   UNL     1      35.654   9.935  39.548  1.00  0.00    -0.077 C 
ATOM      7  C   UNL     1      35.669   9.447  38.121  1.00  0.00     0.039 C 
ATOM      8  C   UNL     1      36.242  11.127  39.817  1.00  0.00    -0.023 CG0
ATOM      9  G   UNL     1      36.368  11.800  41.168  1.00  0.00     0.000 G0
ENDBRANCH   5   6
ENDBRANCH   4   5
ENDBRANCH   2   4
BRANCH   1  10
ATOM     10  C   UNL     1      33.480  12.174  39.917  1.00  0.00     0.111 C 
BRANCH  10  11
ATOM     11  C   UNL     1      34.415  13.248  40.406  1.00  0.00     0.163 C 
ATOM     12  O   UNL     1      34.251  14.420  39.972  1.00  0.00    -0.294 OA
BRANCH  11  13
ATOM     13  C   UNL     1      35.477  12.985  41.423  1.00  0.00    -0.002 C 
ATOM     14  C   UNL     1      35.526  13.704  42.585  1.00  0.00    -0.069 C 
ATOM     15  C   UNL     1      36.487  13.357  43.700  1.00  0.00     0.039 C 
ATOM     16  C   UNL     1      34.612  14.888  42.813  1.00  0.00     0.039 C 
BRANCH  13  17
ATOM     17  C   UNL     1      36.429  11.831  41.151  1.00  0.00     0.066 CG0
ATOM     18  G   UNL     1      36.169  11.174  39.811  1.00  0.00     0.000 G0
ENDBRANCH  13  17
ENDBRANCH  11  13
ENDBRANCH  10  11
ENDBRANCH   1  10
TORSDOF 0
ENDMDL
MODEL 3
REMARK VINA RESULT:    19.241      1.256      1.829
REMARK INTER + INTRA:          29.811
REMARK INTER:                  27.560
REMARK INTRA:                   2.250
REMARK UNBOUND:                 2.696
REMARK SMILES CC1=CCC(=C(C)C)C(=O)CC(C)=CCC1
REMARK SMILES IDX 12 1 14 2 13 3 15 4 16 5 2 6 1 7 3 8 11 10 9 11 10 12 5 13
REMARK SMILES IDX 6 14 7 15 8 16 4 17
REMARK H PARENT
REMARK Flexibility Score: 60.00
ROOT
ATOM      1  C   UNL     1      34.896   9.975  40.604  1.00  0.00    -0.070 C 
ATOM      2  C   UNL     1      33.728   9.580  40.049  1.00  0.00    -0.027 C 
ATOM      3  C   UNL     1      36.177   9.541  39.938  1.00  0.00     0.039 C 
ENDROOT
BRANCH   2   4
ATOM      4  C   UNL     1      32.348   9.989  40.511  1.00  0.00     0.032 C 
BRANCH   4   5
ATOM      5  C   UNL     1      32.163  11.504  40.740  1.00  0.00     0.034 C 
BRANCH   5   6
ATOM      6  C   UNL     1      32.810  12.353  39.661  1.00  0.00    -0.077 C 
ATOM      7  C   UNL     1      32.609  11.936  38.225  1.00  0.00     0.039 C 
ATOM      8  C   UNL     1      33.500  13.497  39.898  1.00  0.00    -0.023 CG0
ATOM      9  G   UNL     1      33.842  14.095  41.248  1.00  0.00     0.000 G0
ENDBRANCH   5   6
ENDBRANCH   4   5
ENDBRANCH   2   4
BRANCH   1  10
ATOM     10  C   UNL     1      34.976  10.902  41.800  1.00  0.00     0.111 C 
BRANCH  10  11
ATOM     11  C   UNL     1      35.570  12.236  41.430  1.00  0.00     0.163 C 
ATOM     12  O   UNL     1      36.526  12.252  40.608  1.00  0.00    -0.294 OA
BRANCH  11  13
ATOM     13  C   UNL     1      35.030  13.527  41.950  1.00  0.00    -0.002 C 
ATOM     14  C   UNL     1      35.670  14.200  42.953  1.00  0.00    -0.069 C 
ATOM     15  C   UNL     1      35.240  15.582  43.392  1.00  0.00     0.039 C 
ATOM     16  C   UNL     1      36.850  13.590  43.677  1.00  0.00     0.039 C 
BRANCH  13  17
ATOM     17  C   UNL     1      33.805  14.099  41.254  1.00  0.00     0.066 CG0
ATOM     18  G   UNL     1      33.568  13.468  39.896  1.00  0.00     0.000 G0
ENDBRANCH  13  17
ENDBRANCH  11  13
ENDBRANCH  10  11
ENDBRANCH   1  10
TORSDOF 0
ENDMDL
MODEL 4
REMARK VINA RESULT:    19.908      1.686      3.909
REMARK INTER + INTRA:          30.750
REMARK INTER:                  28.102
REMARK INTRA:                   2.648
REMARK UNBOUND:                 2.696
REMARK SMILES CC1=CCC(=C(C)C)C(=O)CC(C)=CCC1
REMARK SMILES IDX 12 1 14 2 13 3 15 4 16 5 2 6 1 7 3 8 11 10 9 11 10 12 5 13
REMARK SMILES IDX 6 14 7 15 8 16 4 17
REMARK H PARENT
REMARK Flexibility Score: 60.00
ROOT
ATOM      1  C   UNL     1      35.398  13.185  42.611  1.00  0.00    -0.070 C 
ATOM      2  C   UNL     1      34.392  12.469  43.160  1.00  0.00    -0.027 C 
ATOM      3  C   UNL     1      35.944  14.352  43.394  1.00  0.00     0.039 C 
ENDROOT
BRANCH   2   4
ATOM      4  C   UNL     1      33.780  11.214  42.577  1.00  0.00     0.032 C 
BRANCH   4   5
ATOM      5  C   UNL     1      32.270  11.310  42.273  1.00  0.00     0.034 C 
BRANCH   5   6
ATOM      6  C   UNL     1      31.830  10.395  41.144  1.00  0.00    -0.077 C 
ATOM      7  C   UNL     1      30.966   9.211  41.499  1.00  0.00     0.039 C 
ATOM      8  C   UNL     1      32.106  10.609  39.834  1.00  0.00    -0.023 CG0
ATOM      9  G   UNL     1      32.965  11.713  39.249  1.00  0.00     0.000 G0
ENDBRANCH   5   6
ENDBRANCH   4   5
ENDBRANCH   2   4
BRANCH   1  10
ATOM     10  C   UNL     1      36.059  12.818  41.298  1.00  0.00     0.111 C 
BRANCH  10  11
ATOM     11  C   UNL     1      35.074  12.825  40.159  1.00  0.00     0.163 C 
ATOM     12  O   UNL     1      34.838  13.922  39.584  1.00  0.00    -0.294 OA
BRANCH  11  13
ATOM     13  C   UNL     1      34.422  11.580  39.654  1.00  0.00    -0.002 C 
ATOM     14  C   UNL     1      35.094  10.389  39.652  1.00  0.00    -0.069 C 
ATOM     15  C   UNL     1      34.414   9.086  39.298  1.00  0.00     0.039 C 
ATOM     16  C   UNL     1      36.563  10.318  40.010  1.00  0.00     0.039 C 
BRANCH  13  17
ATOM     17  C   UNL     1      32.963  11.678  39.238  1.00  0.00     0.066 CG0
ATOM     18  G   UNL     1      32.115  10.580  39.847  1.00  0.00     0.000 G0
ENDBRANCH  13  17
ENDBRANCH  11  13
ENDBRANCH  10  11
ENDBRANCH   1  10
TORSDOF 0
ENDMDL
MODEL 5
REMARK VINA RESULT:    20.602      2.127      4.885
REMARK INTER + INTRA:          31.728
REMARK INTER:                  30.438
REMARK INTRA:                   1.291
REMARK UNBOUND:                 2.696
REMARK SMILES CC1=CCC(=C(C)C)C(=O)CC(C)=CCC1
REMARK SMILES IDX 12 1 14 2 13 3 15 4 16 5 2 6 1 7 3 8 11 10 9 11 10 12 5 13
REMARK SMILES IDX 6 14 7 15 8 16 4 17
REMARK H PARENT
REMARK Flexibility Score: 60.00
ROOT
ATOM      1  C   UNL     1      35.900  13.287  42.169  1.00  0.00    -0.070 C 
ATOM      2  C   UNL     1      36.939  12.834  41.433  1.00  0.00    -0.027 C 
ATOM      3  C   UNL     1      36.205  14.127  43.382  1.00  0.00     0.039 C 
ENDROOT
BRANCH   2   4
ATOM      4  C   UNL     1      36.835  12.063  40.136  1.00  0.00     0.032 C 
BRANCH   4   5
ATOM      5  C   UNL     1      36.983  10.534  40.277  1.00  0.00     0.034 C 
BRANCH   5   6
ATOM      6  C   UNL     1      36.250   9.761  39.196  1.00  0.00    -0.077 C 
ATOM      7  C   UNL     1      36.987   9.484  37.910  1.00  0.00     0.039 C 
ATOM      8  C   UNL     1      35.003   9.246  39.335  1.00  0.00    -0.023 CG0
ATOM      9  G   UNL     1      34.073   9.412  40.520  1.00  0.00     0.000 G0
ENDBRANCH   5   6
ENDBRANCH   4   5
ENDBRANCH   2   4
BRANCH   1  10
ATOM     10  C   UNL     1      34.451  13.068  41.782  1.00  0.00     0.111 C 
BRANCH  10  11
ATOM     11  C   UNL     1      34.072  11.611  41.850  1.00  0.00     0.163 C 
ATOM     12  O   UNL     1      34.125  11.036  42.970  1.00  0.00    -0.294 OA
BRANCH  11  13
ATOM     13  C   UNL     1      33.583  10.854  40.660  1.00  0.00    -0.002 C 
ATOM     14  C   UNL     1      32.819  11.466  39.706  1.00  0.00    -0.069 C 
ATOM     15  C   UNL     1      32.441  10.773  38.416  1.00  0.00     0.039 C 
ATOM     16  C   UNL     1      32.311  12.878  39.897  1.00  0.00     0.039 C 
BRANCH  13  17
ATOM     17  C   UNL     1      34.050   9.414  40.512  1.00  0.00     0.066 CG0
ATOM     18  G   UNL     1      34.981   9.229  39.330  1.00  0.00     0.000 G0
ENDBRANCH  13  17
ENDBRANCH  11  13
ENDBRANCH  10  11
ENDBRANCH   1  10
TORSDOF 0
ENDMDL
MODEL 6
REMARK VINA RESULT:    21.095      1.994      4.564
REMARK INTER + INTRA:          32.423
REMARK INTER:                  28.993
REMARK INTRA:                   3.430
REMARK UNBOUND:                 2.696
REMARK SMILES CC1=CCC(=C(C)C)C(=O)CC(C)=CCC1
REMARK SMILES IDX 12 1 14 2 13 3 15 4 16 5 2 6 1 7 3 8 11 10 9 11 10 12 5 13
REMARK SMILES IDX 6 14 7 15 8 16 4 17
REMARK H PARENT
REMARK Flexibility Score: 60.00
ROOT
ATOM      1  C   UNL     1      36.061  13.175  42.138  1.00  0.00    -0.070 C 
ATOM      2  C   UNL     1      36.844  12.612  41.190  1.00  0.00    -0.027 C 
ATOM      3  C   UNL     1      36.695  14.161  43.085  1.00  0.00     0.039 C 
ENDROOT
BRANCH   2   4
ATOM      4  C   UNL     1      36.376  11.680  40.095  1.00  0.00     0.032 C 
BRANCH   4   5
ATOM      5  C   UNL     1      37.072  10.303  40.074  1.00  0.00     0.034 C 
BRANCH   5   6
ATOM      6  C   UNL     1      36.136   9.156  40.409  1.00  0.00    -0.077 C 
ATOM      7  C   UNL     1      36.731   7.932  41.057  1.00  0.00     0.039 C 
ATOM      8  C   UNL     1      34.792   9.187  40.225  1.00  0.00    -0.023 CG0
ATOM      9  G   UNL     1      33.983  10.294  39.579  1.00  0.00     0.000 G0
ENDBRANCH   5   6
ENDBRANCH   4   5
ENDBRANCH   2   4
BRANCH   1  10
ATOM     10  C   UNL     1      34.568  12.932  42.233  1.00  0.00     0.111 C 
BRANCH  10  11
ATOM     11  C   UNL     1      33.989  12.506  40.909  1.00  0.00     0.163 C 
ATOM     12  O   UNL     1      34.087  13.302  39.935  1.00  0.00    -0.294 OA
BRANCH  11  13
ATOM     13  C   UNL     1      33.368  11.165  40.699  1.00  0.00    -0.002 C 
ATOM     14  C   UNL     1      32.250  10.796  41.394  1.00  0.00    -0.069 C 
ATOM     15  C   UNL     1      31.507   9.513  41.092  1.00  0.00     0.039 C 
ATOM     16  C   UNL     1      31.698  11.660  42.506  1.00  0.00     0.039 C 
BRANCH  13  17
ATOM     17  C   UNL     1      33.972  10.280  39.620  1.00  0.00     0.066 CG0
ATOM     18  G   UNL     1      34.789   9.143  40.199  1.00  0.00     0.000 G0
ENDBRANCH  13  17
ENDBRANCH  11  13
ENDBRANCH  10  11
ENDBRANCH   1  10
TORSDOF 0
ENDMDL
MODEL 7
REMARK VINA RESULT:    21.167      1.555      4.450
REMARK INTER + INTRA:          32.524
REMARK INTER:                  32.012
REMARK INTRA:                   0.513
REMARK UNBOUND:                 2.696
REMARK SMILES CC1=CCC(=C(C)C)C(=O)CC(C)=CCC1
REMARK SMILES IDX 12 1 14 2 13 3 15 4 16 5 2 6 1 7 3 8 11 10 9 11 10 12 5 13
REMARK SMILES IDX 6 14 7 15 8 16 4 17
REMARK H PARENT
REMARK Flexibility Score: 60.00
ROOT
ATOM      1  C   UNL     1      33.912  13.696  39.675  1.00  0.00    -0.070 C 
ATOM      2  C   UNL     1      33.790  14.793  40.456  1.00  0.00    -0.027 C 
ATOM      3  C   UNL     1      32.749  13.324  38.792  1.00  0.00     0.039 C 
ENDROOT
BRANCH   2   4
ATOM      4  C   UNL     1      34.875  15.380  41.331  1.00  0.00     0.032 C 
BRANCH   4   5
ATOM      5  C   UNL     1      34.828  14.934  42.808  1.00  0.00     0.034 C 
BRANCH   5   6
ATOM      6  C   UNL     1      35.689  13.715  43.090  1.00  0.00    -0.077 C 
ATOM      7  C   UNL     1      37.109  13.948  43.541  1.00  0.00     0.039 C 
ATOM      8  C   UNL     1      35.245  12.435  43.027  1.00  0.00    -0.023 CG0
ATOM      9  G   UNL     1      33.875  11.963  42.584  1.00  0.00     0.000 G0
ENDBRANCH   5   6
ENDBRANCH   4   5
ENDBRANCH   2   4
BRANCH   1  10
ATOM     10  C   UNL     1      35.188  12.884  39.578  1.00  0.00     0.111 C 
BRANCH  10  11
ATOM     11  C   UNL     1      35.074  11.580  40.324  1.00  0.00     0.163 C 
ATOM     12  O   UNL     1      36.027  10.759  40.233  1.00  0.00    -0.294 OA
BRANCH  11  13
ATOM     13  C   UNL     1      33.913  11.259  41.206  1.00  0.00    -0.002 C 
ATOM     14  C   UNL     1      32.972  10.345  40.820  1.00  0.00    -0.069 C 
ATOM     15  C   UNL     1      31.875   9.882  41.753  1.00  0.00     0.039 C 
ATOM     16  C   UNL     1      32.986   9.746  39.430  1.00  0.00     0.039 C 
BRANCH  13  17
ATOM     17  C   UNL     1      33.878  11.916  42.577  1.00  0.00     0.066 CG0
ATOM     18  G   UNL     1      35.240  12.426  43.005  1.00  0.00     0.000 G0
ENDBRANCH  13  17
ENDBRANCH  11  13
ENDBRANCH  10  11
ENDBRANCH   1  10
TORSDOF 0
ENDMDL
MODEL 8
REMARK VINA RESULT:    21.221      1.673      3.397
REMARK INTER + INTRA:          32.601
REMARK INTER:                  31.132
REMARK INTRA:                   1.469
REMARK UNBOUND:                 2.696
REMARK SMILES CC1=CCC(=C(C)C)C(=O)CC(C)=CCC1
REMARK SMILES IDX 12 1 14 2 13 3 15 4 16 5 2 6 1 7 3 8 11 10 9 11 10 12 5 13
REMARK SMILES IDX 6 14 7 15 8 16 4 17
REMARK H PARENT
REMARK Flexibility Score: 60.00
ROOT
ATOM      1  C   UNL     1      32.822  11.228  41.845  1.00  0.00    -0.070 C 
ATOM      2  C   UNL     1      32.594  10.408  40.795  1.00  0.00    -0.027 C 
ATOM      3  C   UNL     1      31.698  12.121  42.302  1.00  0.00     0.039 C 
ENDROOT
BRANCH   2   4
ATOM      4  C   UNL     1      33.558   9.375  40.253  1.00  0.00     0.032 C 
BRANCH   4   5
ATOM      5  C   UNL     1      34.465   9.873  39.109  1.00  0.00     0.034 C 
BRANCH   5   6
ATOM      6  C   UNL     1      35.745  10.524  39.602  1.00  0.00    -0.077 C 
ATOM      7  C   UNL     1      36.993   9.679  39.638  1.00  0.00     0.039 C 
ATOM      8  C   UNL     1      35.854  11.831  39.948  1.00  0.00    -0.023 CG0
ATOM      9  G   UNL     1      34.740  12.856  40.009  1.00  0.00     0.000 G0
ENDBRANCH   5   6
ENDBRANCH   4   5
ENDBRANCH   2   4
BRANCH   1  10
ATOM     10  C   UNL     1      34.115  11.224  42.635  1.00  0.00     0.111 C 
BRANCH  10  11
ATOM     11  C   UNL     1      34.800  12.565  42.587  1.00  0.00     0.163 C 
ATOM     12  O   UNL     1      35.548  12.885  43.550  1.00  0.00    -0.294 OA
BRANCH  11  13
ATOM     13  C   UNL     1      34.673  13.489  41.421  1.00  0.00    -0.002 C 
ATOM     14  C   UNL     1      34.578  14.840  41.605  1.00  0.00    -0.069 C 
ATOM     15  C   UNL     1      34.608  15.811  40.446  1.00  0.00     0.039 C 
ATOM     16  C   UNL     1      34.440  15.433  42.990  1.00  0.00     0.039 C 
BRANCH  13  17
ATOM     17  C   UNL     1      34.751  12.871  40.033  1.00  0.00     0.066 CG0
ATOM     18  G   UNL     1      35.858  11.842  39.922  1.00  0.00     0.000 G0
ENDBRANCH  13  17
ENDBRANCH  11  13
ENDBRANCH  10  11
ENDBRANCH   1  10
TORSDOF 0
ENDMDL
MODEL 9
REMARK VINA RESULT:    21.463      2.009      4.496
REMARK INTER + INTRA:          32.942
REMARK INTER:                  30.542
REMARK INTRA:                   2.400
REMARK UNBOUND:                 2.696
REMARK SMILES CC1=CCC(=C(C)C)C(=O)CC(C)=CCC1
REMARK SMILES IDX 12 1 14 2 13 3 15 4 16 5 2 6 1 7 3 8 11 10 9 11 10 12 5 13
REMARK SMILES IDX 6 14 7 15 8 16 4 17
REMARK H PARENT
REMARK Flexibility Score: 60.00
ROOT
ATOM      1  C   UNL     1      34.721  13.565  40.614  1.00  0.00    -0.070 C 
ATOM      2  C   UNL     1      34.798  13.742  41.952  1.00  0.00    -0.027 C 
ATOM      3  C   UNL     1      34.512  14.783  39.750  1.00  0.00     0.039 C 
ENDROOT
BRANCH   2   4
ATOM      4  C   UNL     1      35.099  12.665  42.970  1.00  0.00     0.032 C 
BRANCH   4   5
ATOM      5  C   UNL     1      34.195  11.418  42.881  1.00  0.00     0.034 C 
BRANCH   5   6
ATOM      6  C   UNL     1      32.727  11.758  42.696  1.00  0.00    -0.077 C 
ATOM      7  C   UNL     1      32.183  12.950  43.443  1.00  0.00     0.039 C 
ATOM      8  C   UNL     1      31.891  11.102  41.853  1.00  0.00    -0.023 CG0
ATOM      9  G   UNL     1      32.208   9.875  41.022  1.00  0.00     0.000 G0
ENDBRANCH   5   6
ENDBRANCH   4   5
ENDBRANCH   2   4
BRANCH   1  10
ATOM     10  C   UNL     1      34.926  12.223  39.941  1.00  0.00     0.111 C 
BRANCH  10  11
ATOM     11  C   UNL     1      33.614  11.545  39.643  1.00  0.00     0.163 C 
ATOM     12  O   UNL     1      32.751  12.186  38.984  1.00  0.00    -0.294 OA
BRANCH  11  13
ATOM     13  C   UNL     1      33.331  10.135  40.044  1.00  0.00    -0.002 C 
ATOM     14  C   UNL     1      34.128   9.111  39.613  1.00  0.00    -0.069 C 
ATOM     15  C   UNL     1      33.964   7.698  40.126  1.00  0.00     0.039 C 
ATOM     16  C   UNL     1      35.223   9.346  38.595  1.00  0.00     0.039 C 
BRANCH  13  17
ATOM     17  C   UNL     1      32.187   9.906  41.019  1.00  0.00     0.066 CG0
ATOM     18  G   UNL     1      31.911  11.124  41.878  1.00  0.00     0.000 G0
ENDBRANCH  13  17
ENDBRANCH  11  13
ENDBRANCH  10  11
ENDBRANCH   1  10
TORSDOF 0
ENDMDL
