MODEL 1
REMARK VINA RESULT:    -3.938      0.000      0.000
REMARK INTER + INTRA:          -4.054
REMARK INTER:                  -4.054
REMARK INTRA:                   0.000
REMARK UNBOUND:                 0.000
REMARK SMILES Oc1ccc2[nH]ccc2c1
REMARK SMILES IDX 3 1 4 2 5 3 9 4 8 5 7 6 6 7 10 8 2 9 1 11
REMARK H PARENT 6 10 1 12
REMARK Flexibility Score: inf
ROOT
ATOM      1  C   UNL     1      11.849   9.772  37.886  1.00  0.00     0.048 A 
ATOM      2  C   UNL     1      12.315   9.867  39.210  1.00  0.00     0.030 A 
ATOM      3  C   UNL     1      12.873   8.727  39.787  1.00  0.00     0.046 A 
ATOM      4  C   UNL     1      12.970   7.547  39.100  1.00  0.00     0.003 A 
ATOM      5  C   UNL     1      13.560   6.628  39.941  1.00  0.00     0.028 A 
ATOM      6  C   UNL     1      13.796   7.319  41.125  1.00  0.00     0.083 A 
ATOM      7  N   UNL     1      13.375   8.600  41.027  1.00  0.00    -0.361 N 
ATOM      8  C   UNL     1      12.518   7.419  37.789  1.00  0.00     0.056 A 
ATOM      9  C   UNL     1      11.948   8.553  37.175  1.00  0.00     0.116 A 
ATOM     10  H   UNL     1      13.430   9.337  41.765  1.00  0.00     0.166 HD
ENDROOT
BRANCH   9  11
ATOM     11  O   UNL     1      11.478   8.487  35.865  1.00  0.00    -0.508 OA
ATOM     12  H   UNL     1      11.590   7.649  35.306  1.00  0.00     0.293 HD
ENDBRANCH   9  11
TORSDOF 1
ENDMDL
MODEL 2
REMARK VINA RESULT:    -3.832     14.218     15.847
REMARK INTER + INTRA:          -3.944
REMARK INTER:                  -3.944
REMARK INTRA:                   0.000
REMARK UNBOUND:                 0.000
REMARK SMILES Oc1ccc2[nH]ccc2c1
REMARK SMILES IDX 3 1 4 2 5 3 9 4 8 5 7 6 6 7 10 8 2 9 1 11
REMARK H PARENT 6 10 1 12
REMARK Flexibility Score: inf
ROOT
ATOM      1  C   UNL     1       9.954   5.987  25.232  1.00  0.00     0.048 A 
ATOM      2  C   UNL     1       9.584   5.811  23.886  1.00  0.00     0.030 A 
ATOM      3  C   UNL     1      10.432   6.324  22.905  1.00  0.00     0.046 A 
ATOM      4  C   UNL     1      11.590   6.979  23.226  1.00  0.00     0.003 A 
ATOM      5  C   UNL     1      12.191   7.356  22.045  1.00  0.00     0.028 A 
ATOM      6  C   UNL     1      11.343   6.896  21.043  1.00  0.00     0.083 A 
ATOM      7  N   UNL     1      10.269   6.266  21.573  1.00  0.00    -0.361 N 
ATOM      8  C   UNL     1      11.985   7.171  24.548  1.00  0.00     0.056 A 
ATOM      9  C   UNL     1      11.151   6.664  25.565  1.00  0.00     0.116 A 
ATOM     10  H   UNL     1       9.479   5.827  21.050  1.00  0.00     0.166 HD
ENDROOT
BRANCH   9  11
ATOM     11  O   UNL     1      11.493   6.825  26.906  1.00  0.00    -0.508 OA
ATOM     12  H   UNL     1      12.452   6.990  27.190  1.00  0.00     0.293 HD
ENDBRANCH   9  11
TORSDOF 1
ENDMDL
MODEL 3
REMARK VINA RESULT:    -3.822     17.877     18.103
REMARK INTER + INTRA:          -3.934
REMARK INTER:                  -3.934
REMARK INTRA:                   0.000
REMARK UNBOUND:                 0.000
REMARK SMILES Oc1ccc2[nH]ccc2c1
REMARK SMILES IDX 3 1 4 2 5 3 9 4 8 5 7 6 6 7 10 8 2 9 1 11
REMARK H PARENT 6 10 1 12
REMARK Flexibility Score: inf
ROOT
ATOM      1  C   UNL     1      12.629   6.033  20.974  1.00  0.00     0.048 A 
ATOM      2  C   UNL     1      13.937   6.543  20.875  1.00  0.00     0.030 A 
ATOM      3  C   UNL     1      14.103   7.925  20.947  1.00  0.00     0.046 A 
ATOM      4  C   UNL     1      13.038   8.771  21.108  1.00  0.00     0.003 A 
ATOM      5  C   UNL     1      13.535  10.056  21.140  1.00  0.00     0.028 A 
ATOM      6  C   UNL     1      14.911   9.917  20.993  1.00  0.00     0.083 A 
ATOM      7  N   UNL     1      15.254   8.614  20.875  1.00  0.00    -0.361 N 
ATOM      8  C   UNL     1      11.732   8.298  21.208  1.00  0.00     0.056 A 
ATOM      9  C   UNL     1      11.528   6.905  21.140  1.00  0.00     0.116 A 
ATOM     10  H   UNL     1      16.217   8.228  20.754  1.00  0.00     0.166 HD
ENDROOT
BRANCH   9  11
ATOM     11  O   UNL     1      10.244   6.373  21.235  1.00  0.00    -0.508 OA
ATOM     12  H   UNL     1       9.424   6.968  21.216  1.00  0.00     0.293 HD
ENDBRANCH   9  11
TORSDOF 1
ENDMDL
MODEL 4
REMARK VINA RESULT:    -3.759      2.591      3.598
REMARK INTER + INTRA:          -3.868
REMARK INTER:                  -3.868
REMARK INTRA:                   0.000
REMARK UNBOUND:                 0.000
REMARK SMILES Oc1ccc2[nH]ccc2c1
REMARK SMILES IDX 3 1 4 2 5 3 9 4 8 5 7 6 6 7 10 8 2 9 1 11
REMARK H PARENT 6 10 1 12
REMARK Flexibility Score: inf
ROOT
ATOM      1  C   UNL     1      12.233   9.789  39.402  1.00  0.00     0.048 A 
ATOM      2  C   UNL     1      11.667   9.818  38.115  1.00  0.00     0.030 A 
ATOM      3  C   UNL     1      11.900   8.729  37.276  1.00  0.00     0.046 A 
ATOM      4  C   UNL     1      12.654   7.659  37.680  1.00  0.00     0.003 A 
ATOM      5  C   UNL     1      12.692   6.764  36.632  1.00  0.00     0.028 A 
ATOM      6  C   UNL     1      11.939   7.355  35.622  1.00  0.00     0.083 A 
ATOM      7  N   UNL     1      11.457   8.555  36.020  1.00  0.00    -0.361 N 
ATOM      8  C   UNL     1      13.228   7.599  38.947  1.00  0.00     0.056 A 
ATOM      9  C   UNL     1      13.012   8.685  39.821  1.00  0.00     0.116 A 
ATOM     10  H   UNL     1      10.864   9.208  35.462  1.00  0.00     0.166 HD
ENDROOT
BRANCH   9  11
ATOM     11  O   UNL     1      13.561   8.682  41.101  1.00  0.00    -0.508 OA
ATOM     12  H   UNL     1      12.980   8.574  41.924  1.00  0.00     0.293 HD
ENDBRANCH   9  11
TORSDOF 1
ENDMDL
MODEL 5
REMARK VINA RESULT:    -3.744      1.880      2.726
REMARK INTER + INTRA:          -3.854
REMARK INTER:                  -3.854
REMARK INTRA:                   0.000
REMARK UNBOUND:                 0.000
REMARK SMILES Oc1ccc2[nH]ccc2c1
REMARK SMILES IDX 3 1 4 2 5 3 9 4 8 5 7 6 6 7 10 8 2 9 1 11
REMARK H PARENT 6 10 1 12
REMARK Flexibility Score: inf
ROOT
ATOM      1  C   UNL     1      14.843   6.454  36.575  1.00  0.00     0.048 A 
ATOM      2  C   UNL     1      15.389   6.267  37.858  1.00  0.00     0.030 A 
ATOM      3  C   UNL     1      14.577   6.543  38.957  1.00  0.00     0.046 A 
ATOM      4  C   UNL     1      13.288   6.982  38.808  1.00  0.00     0.003 A 
ATOM      5  C   UNL     1      12.766   7.159  40.071  1.00  0.00     0.028 A 
ATOM      6  C   UNL     1      13.792   6.808  40.942  1.00  0.00     0.083 A 
ATOM      7  N   UNL     1      14.897   6.433  40.257  1.00  0.00    -0.361 N 
ATOM      8  C   UNL     1      12.718   7.177  37.553  1.00  0.00     0.056 A 
ATOM      9  C   UNL     1      13.512   6.907  36.419  1.00  0.00     0.116 A 
ATOM     10  H   UNL     1      15.808   6.122  40.660  1.00  0.00     0.166 HD
ENDROOT
BRANCH   9  11
ATOM     11  O   UNL     1      12.996   7.084  35.137  1.00  0.00    -0.508 OA
ATOM     12  H   UNL     1      12.172   7.651  34.973  1.00  0.00     0.293 HD
ENDBRANCH   9  11
TORSDOF 1
ENDMDL
MODEL 6
REMARK VINA RESULT:    -3.694     19.855     20.649
REMARK INTER + INTRA:          -3.802
REMARK INTER:                  -3.802
REMARK INTRA:                   0.000
REMARK UNBOUND:                 0.000
REMARK SMILES Oc1ccc2[nH]ccc2c1
REMARK SMILES IDX 3 1 4 2 5 3 9 4 8 5 7 6 6 7 10 8 2 9 1 11
REMARK H PARENT 6 10 1 12
REMARK Flexibility Score: inf
ROOT
ATOM      1  C   UNL     1      10.678  -3.725  21.067  1.00  0.00     0.048 A 
ATOM      2  C   UNL     1      11.059  -4.958  21.628  1.00  0.00     0.030 A 
ATOM      3  C   UNL     1      12.095  -4.956  22.561  1.00  0.00     0.046 A 
ATOM      4  C   UNL     1      12.729  -3.800  22.930  1.00  0.00     0.003 A 
ATOM      5  C   UNL     1      13.691  -4.136  23.858  1.00  0.00     0.028 A 
ATOM      6  C   UNL     1      13.586  -5.515  24.006  1.00  0.00     0.083 A 
ATOM      7  N   UNL     1      12.610  -6.012  23.212  1.00  0.00    -0.361 N 
ATOM      8  C   UNL     1      12.376  -2.564  22.394  1.00  0.00     0.056 A 
ATOM      9  C   UNL     1      11.332  -2.529  21.447  1.00  0.00     0.116 A 
ATOM     10  H   UNL     1      12.320  -7.011  23.126  1.00  0.00     0.166 HD
ENDROOT
BRANCH   9  11
ATOM     11  O   UNL     1      10.934  -1.322  20.876  1.00  0.00    -0.508 OA
ATOM     12  H   UNL     1      10.890  -0.470  21.422  1.00  0.00     0.293 HD
ENDBRANCH   9  11
TORSDOF 1
ENDMDL
MODEL 7
REMARK VINA RESULT:    -3.673      3.227      4.615
REMARK INTER + INTRA:          -3.780
REMARK INTER:                  -3.780
REMARK INTRA:                   0.000
REMARK UNBOUND:                 0.000
REMARK SMILES Oc1ccc2[nH]ccc2c1
REMARK SMILES IDX 3 1 4 2 5 3 9 4 8 5 7 6 6 7 10 8 2 9 1 11
REMARK H PARENT 6 10 1 12
REMARK Flexibility Score: inf
ROOT
ATOM      1  C   UNL     1      15.493   6.063  37.683  1.00  0.00     0.048 A 
ATOM      2  C   UNL     1      14.932   6.224  36.403  1.00  0.00     0.030 A 
ATOM      3  C   UNL     1      13.674   6.818  36.314  1.00  0.00     0.046 A 
ATOM      4  C   UNL     1      12.995   7.237  37.427  1.00  0.00     0.003 A 
ATOM      5  C   UNL     1      11.799   7.773  37.002  1.00  0.00     0.028 A 
ATOM      6  C   UNL     1      11.817   7.648  35.616  1.00  0.00     0.083 A 
ATOM      7  N   UNL     1      12.964   7.064  35.200  1.00  0.00    -0.361 N 
ATOM      8  C   UNL     1      13.522   7.092  38.708  1.00  0.00     0.056 A 
ATOM      9  C   UNL     1      14.794   6.495  38.834  1.00  0.00     0.116 A 
ATOM     10  H   UNL     1      13.237   6.851  34.215  1.00  0.00     0.166 HD
ENDROOT
BRANCH   9  11
ATOM     11  O   UNL     1      15.372   6.323  40.090  1.00  0.00    -0.508 OA
ATOM     12  H   UNL     1      14.917   6.658  40.931  1.00  0.00     0.293 HD
ENDBRANCH   9  11
TORSDOF 1
ENDMDL
MODEL 8
REMARK VINA RESULT:    -3.602      1.016      2.001
REMARK INTER + INTRA:          -3.707
REMARK INTER:                  -3.707
REMARK INTRA:                   0.000
REMARK UNBOUND:                 0.000
REMARK SMILES Oc1ccc2[nH]ccc2c1
REMARK SMILES IDX 3 1 4 2 5 3 9 4 8 5 7 6 6 7 10 8 2 9 1 11
REMARK H PARENT 6 10 1 12
REMARK Flexibility Score: inf
ROOT
ATOM      1  C   UNL     1      13.048   7.156  36.813  1.00  0.00     0.048 A 
ATOM      2  C   UNL     1      13.696   6.893  38.033  1.00  0.00     0.030 A 
ATOM      3  C   UNL     1      13.319   7.643  39.146  1.00  0.00     0.046 A 
ATOM      4  C   UNL     1      12.350   8.608  39.069  1.00  0.00     0.003 A 
ATOM      5  C   UNL     1      12.215   9.157  40.325  1.00  0.00     0.028 A 
ATOM      6  C   UNL     1      13.133   8.478  41.119  1.00  0.00     0.083 A 
ATOM      7  N   UNL     1      13.806   7.554  40.395  1.00  0.00    -0.361 N 
ATOM      8  C   UNL     1      11.689   8.893  37.876  1.00  0.00     0.056 A 
ATOM      9  C   UNL     1      12.047   8.152  36.731  1.00  0.00     0.116 A 
ATOM     10  H   UNL     1      14.549   6.907  40.740  1.00  0.00     0.166 HD
ENDROOT
BRANCH   9  11
ATOM     11  O   UNL     1      11.421   8.393  35.510  1.00  0.00    -0.508 OA
ATOM     12  H   UNL     1      11.467   7.722  34.752  1.00  0.00     0.293 HD
ENDBRANCH   9  11
TORSDOF 1
ENDMDL
MODEL 9
REMARK VINA RESULT:    -3.600     16.617     17.428
REMARK INTER + INTRA:          -3.706
REMARK INTER:                  -3.706
REMARK INTRA:                   0.000
REMARK UNBOUND:                 0.000
REMARK SMILES Oc1ccc2[nH]ccc2c1
REMARK SMILES IDX 3 1 4 2 5 3 9 4 8 5 7 6 6 7 10 8 2 9 1 11
REMARK H PARENT 6 10 1 12
REMARK Flexibility Score: inf
ROOT
ATOM      1  C   UNL     1      11.884   5.315  22.375  1.00  0.00     0.048 A 
ATOM      2  C   UNL     1      11.350   6.559  22.761  1.00  0.00     0.030 A 
ATOM      3  C   UNL     1      11.950   7.710  22.253  1.00  0.00     0.046 A 
ATOM      4  C   UNL     1      13.024   7.648  21.406  1.00  0.00     0.003 A 
ATOM      5  C   UNL     1      13.375   8.943  21.091  1.00  0.00     0.028 A 
ATOM      6  C   UNL     1      12.470   9.743  21.783  1.00  0.00     0.083 A 
ATOM      7  N   UNL     1      11.602   8.986  22.491  1.00  0.00    -0.361 N 
ATOM      8  C   UNL     1      13.577   6.434  21.006  1.00  0.00     0.056 A 
ATOM      9  C   UNL     1      12.993   5.249  21.500  1.00  0.00     0.116 A 
ATOM     10  H   UNL     1      10.823   9.327  23.097  1.00  0.00     0.166 HD
ENDROOT
BRANCH   9  11
ATOM     11  O   UNL     1      13.502   4.005  21.135  1.00  0.00    -0.508 OA
ATOM     12  H   UNL     1      14.456   3.900  20.809  1.00  0.00     0.293 HD
ENDBRANCH   9  11
TORSDOF 1
ENDMDL
