MODEL 1
REMARK VINA RESULT:    -2.735      0.000      0.000
REMARK INTER + INTRA:          -2.735
REMARK INTER:                  -2.735
REMARK INTRA:                   0.000
REMARK UNBOUND:                 0.000
REMARK SMILES CC(=O)[O-]
REMARK SMILES IDX 1 1 2 2 3 3 4 4
REMARK H PARENT
REMARK Flexibility Score: inf
ROOT
ATOM      1  C   UNL     1      -3.834  -1.499  -1.639  1.00  0.00     0.063 C 
ATOM      2  C   UNL     1      -3.837  -2.972  -1.872  1.00  0.00     0.038 C 
ATOM      3  O   UNL     1      -3.893  -3.426  -3.044  1.00  0.00    -0.550 OA
ATOM      4  O   UNL     1      -3.724  -3.846  -0.798  1.00  0.00    -0.550 OA
ENDROOT
TORSDOF 0
ENDMDL
MODEL 2
REMARK VINA RESULT:    -2.631      1.404      1.767
REMARK INTER + INTRA:          -2.631
REMARK INTER:                  -2.631
REMARK INTRA:                   0.000
REMARK UNBOUND:                 0.000
REMARK SMILES CC(=O)[O-]
REMARK SMILES IDX 1 1 2 2 3 3 4 4
REMARK H PARENT
REMARK Flexibility Score: inf
ROOT
ATOM      1  C   UNL     1      -3.789  -3.758  -0.653  1.00  0.00     0.063 C 
ATOM      2  C   UNL     1      -3.835  -2.849  -1.835  1.00  0.00     0.038 C 
ATOM      3  O   UNL     1      -3.875  -3.326  -2.998  1.00  0.00    -0.550 OA
ATOM      4  O   UNL     1      -3.889  -1.473  -1.652  1.00  0.00    -0.550 OA
ENDROOT
TORSDOF 0
ENDMDL
MODEL 3
REMARK VINA RESULT:    -2.343      1.381      1.689
REMARK INTER + INTRA:          -2.343
REMARK INTER:                  -2.343
REMARK INTRA:                   0.000
REMARK UNBOUND:                 0.000
REMARK SMILES CC(=O)[O-]
REMARK SMILES IDX 1 1 2 2 3 3 4 4
REMARK H PARENT
REMARK Flexibility Score: inf
ROOT
ATOM      1  C   UNL     1      -3.420  -2.989  -2.981  1.00  0.00     0.063 C 
ATOM      2  C   UNL     1      -3.796  -2.659  -1.575  1.00  0.00     0.038 C 
ATOM      3  O   UNL     1      -4.149  -1.490  -1.274  1.00  0.00    -0.550 OA
ATOM      4  O   UNL     1      -3.809  -3.655  -0.607  1.00  0.00    -0.550 OA
ENDROOT
TORSDOF 0
ENDMDL
MODEL 4
REMARK VINA RESULT:    -2.308     12.227     12.649
REMARK INTER + INTRA:          -2.308
REMARK INTER:                  -2.308
REMARK INTRA:                   0.000
REMARK UNBOUND:                 0.000
REMARK SMILES CC(=O)[O-]
REMARK SMILES IDX 1 1 2 2 3 3 4 4
REMARK H PARENT
REMARK Flexibility Score: inf
ROOT
ATOM      1  C   UNL     1      -7.095   5.966  -7.571  1.00  0.00     0.063 C 
ATOM      2  C   UNL     1      -7.171   7.396  -7.991  1.00  0.00     0.038 C 
ATOM      3  O   UNL     1      -7.794   8.229  -7.284  1.00  0.00    -0.550 OA
ATOM      4  O   UNL     1      -6.507   7.820  -9.135  1.00  0.00    -0.550 OA
ENDROOT
TORSDOF 0
ENDMDL
MODEL 5
REMARK VINA RESULT:    -2.282     11.119     11.613
REMARK INTER + INTRA:          -2.282
REMARK INTER:                  -2.282
REMARK INTRA:                   0.000
REMARK UNBOUND:                 0.000
REMARK SMILES CC(=O)[O-]
REMARK SMILES IDX 1 1 2 2 3 3 4 4
REMARK H PARENT
REMARK Flexibility Score: inf
ROOT
ATOM      1  C   UNL     1      -7.066   6.171  -6.115  1.00  0.00     0.063 C 
ATOM      2  C   UNL     1      -7.354   6.412  -7.558  1.00  0.00     0.038 C 
ATOM      3  O   UNL     1      -6.484   6.150  -8.428  1.00  0.00    -0.550 OA
ATOM      4  O   UNL     1      -8.603   6.877  -7.949  1.00  0.00    -0.550 OA
ENDROOT
TORSDOF 0
ENDMDL
MODEL 6
REMARK VINA RESULT:    -2.203      4.971      5.359
REMARK INTER + INTRA:          -2.203
REMARK INTER:                  -2.203
REMARK INTRA:                   0.000
REMARK UNBOUND:                 0.000
REMARK SMILES CC(=O)[O-]
REMARK SMILES IDX 1 1 2 2 3 3 4 4
REMARK H PARENT
REMARK Flexibility Score: inf
ROOT
ATOM      1  C   UNL     1      -2.855   3.087  -0.352  1.00  0.00     0.063 C 
ATOM      2  C   UNL     1      -3.650   1.906   0.091  1.00  0.00     0.038 C 
ATOM      3  O   UNL     1      -3.478   0.787  -0.459  1.00  0.00    -0.550 OA
ATOM      4  O   UNL     1      -4.543   2.026   1.147  1.00  0.00    -0.550 OA
ENDROOT
TORSDOF 0
ENDMDL
MODEL 7
REMARK VINA RESULT:    -2.180     16.016     16.266
REMARK INTER + INTRA:          -2.180
REMARK INTER:                  -2.180
REMARK INTRA:                   0.000
REMARK UNBOUND:                 0.000
REMARK SMILES CC(=O)[O-]
REMARK SMILES IDX 1 1 2 2 3 3 4 4
REMARK H PARENT
REMARK Flexibility Score: inf
ROOT
ATOM      1  C   UNL     1      -1.332   8.876   8.514  1.00  0.00     0.063 C 
ATOM      2  C   UNL     1       0.083   9.191   8.161  1.00  0.00     0.038 C 
ATOM      3  O   UNL     1       0.355   9.711   7.048  1.00  0.00    -0.550 OA
ATOM      4  O   UNL     1       1.097   8.960   9.082  1.00  0.00    -0.550 OA
ENDROOT
TORSDOF 0
ENDMDL
MODEL 8
REMARK VINA RESULT:    -2.158      7.788      8.263
REMARK INTER + INTRA:          -2.158
REMARK INTER:                  -2.158
REMARK INTRA:                   0.000
REMARK UNBOUND:                 0.000
REMARK SMILES CC(=O)[O-]
REMARK SMILES IDX 1 1 2 2 3 3 4 4
REMARK H PARENT
REMARK Flexibility Score: inf
ROOT
ATOM      1  C   UNL     1      -3.025   3.549  -0.080  1.00  0.00     0.063 C 
ATOM      2  C   UNL     1      -2.980   4.919  -0.668  1.00  0.00     0.038 C 
ATOM      3  O   UNL     1      -2.866   5.924   0.081  1.00  0.00    -0.550 OA
ATOM      4  O   UNL     1      -3.011   5.086  -2.046  1.00  0.00    -0.550 OA
ENDROOT
TORSDOF 0
ENDMDL
MODEL 9
REMARK VINA RESULT:    -2.140      5.156      5.542
REMARK INTER + INTRA:          -2.140
REMARK INTER:                  -2.140
REMARK INTRA:                   0.000
REMARK UNBOUND:                 0.000
REMARK SMILES CC(=O)[O-]
REMARK SMILES IDX 1 1 2 2 3 3 4 4
REMARK H PARENT
REMARK Flexibility Score: inf
ROOT
ATOM      1  C   UNL     1      -4.505   2.219   1.113  1.00  0.00     0.063 C 
ATOM      2  C   UNL     1      -3.457   1.940   0.089  1.00  0.00     0.038 C 
ATOM      3  O   UNL     1      -3.328   0.782  -0.384  1.00  0.00    -0.550 OA
ATOM      4  O   UNL     1      -2.656   2.972  -0.384  1.00  0.00    -0.550 OA
ENDROOT
TORSDOF 0
ENDMDL
