MODEL 1
REMARK VINA RESULT:    -5.755      0.000      0.000
REMARK INTER + INTRA:          -6.965
REMARK INTER:                  -6.764
REMARK INTRA:                  -0.200
REMARK UNBOUND:                -0.200
REMARK SMILES O=c1c(O)c(-c2ccc(O)cc2)oc2cc(O)cc(O)c12
REMARK SMILES IDX 5 1 3 2 2 3 1 4 21 5 19 6 18 7 16 8 15 9 14 10 13 11 6 12
REMARK SMILES IDX 7 13 8 14 9 15 12 16 11 17 10 18 4 20 20 22 17 24
REMARK H PARENT 10 19 4 21 20 23 17 25
REMARK Flexibility Score: inf
ROOT
ATOM      1  C   UNL     1     141.033 153.225 120.352  1.00  0.00     0.180 A 
ATOM      2  C   UNL     1     142.024 153.746 121.207  1.00  0.00     0.208 A 
ATOM      3  C   UNL     1     142.071 155.132 121.425  1.00  0.00     0.238 A 
ATOM      4  O   UNL     1     142.961 155.612 122.179  1.00  0.00    -0.285 OA
ATOM      5  C   UNL     1     141.121 155.968 120.804  1.00  0.00     0.111 A 
ATOM      6  C   UNL     1     141.097 157.374 120.973  1.00  0.00     0.134 A 
ATOM      7  C   UNL     1     140.112 158.136 120.328  1.00  0.00     0.093 A 
ATOM      8  C   UNL     1     139.152 157.520 119.518  1.00  0.00     0.123 A 
ATOM      9  C   UNL     1     139.171 156.135 119.347  1.00  0.00     0.094 A 
ATOM     10  C   UNL     1     140.146 155.357 119.980  1.00  0.00     0.146 A 
ATOM     11  O   UNL     1     140.144 154.042 119.796  1.00  0.00    -0.452 OA
ENDROOT
BRANCH   1  12
ATOM     12  C   UNL     1     140.930 151.778 120.059  1.00  0.00     0.021 A 
ATOM     13  C   UNL     1     141.904 151.114 119.291  1.00  0.00     0.016 A 
ATOM     14  C   UNL     1     141.772 149.751 119.006  1.00  0.00     0.047 A 
ATOM     15  C   UNL     1     140.660 149.038 119.473  1.00  0.00     0.115 A 
ATOM     16  C   UNL     1     139.807 151.060 120.505  1.00  0.00     0.016 A 
ATOM     17  C   UNL     1     139.678 149.698 120.220  1.00  0.00     0.047 A 
BRANCH  15  18
ATOM     18  O   UNL     1     140.518 147.681 119.197  1.00  0.00    -0.508 OA
ATOM     19  H   UNL     1     140.785 146.972 119.870  1.00  0.00     0.293 HD
ENDBRANCH  15  18
ENDBRANCH   1  12
BRANCH   2  20
ATOM     20  O   UNL     1     142.924 152.892 121.850  1.00  0.00    -0.502 OA
ATOM     21  H   UNL     1     142.648 151.989 122.216  1.00  0.00     0.293 HD
ENDBRANCH   2  20
BRANCH   6  22
ATOM     22  O   UNL     1     142.041 158.016 121.776  1.00  0.00    -0.507 OA
ATOM     23  H   UNL     1     143.010 157.721 121.801  1.00  0.00     0.293 HD
ENDBRANCH   6  22
BRANCH   8  24
ATOM     24  O   UNL     1     138.172 158.277 118.878  1.00  0.00    -0.508 OA
ATOM     25  H   UNL     1     138.252 159.283 118.793  1.00  0.00     0.293 HD
ENDBRANCH   8  24
TORSDOF 5
ENDMDL
MODEL 2
REMARK VINA RESULT:    -5.692      1.663      6.545
REMARK INTER + INTRA:          -6.891
REMARK INTER:                  -6.781
REMARK INTRA:                  -0.110
REMARK UNBOUND:                -0.200
REMARK SMILES O=c1c(O)c(-c2ccc(O)cc2)oc2cc(O)cc(O)c12
REMARK SMILES IDX 5 1 3 2 2 3 1 4 21 5 19 6 18 7 16 8 15 9 14 10 13 11 6 12
REMARK SMILES IDX 7 13 8 14 9 15 12 16 11 17 10 18 4 20 20 22 17 24
REMARK H PARENT 10 19 4 21 20 23 17 25
REMARK Flexibility Score: inf
ROOT
ATOM      1  C   UNL     1     141.352 153.454 120.310  1.00  0.00     0.180 A 
ATOM      2  C   UNL     1     142.454 152.607 120.076  1.00  0.00     0.208 A 
ATOM      3  C   UNL     1     142.221 151.244 119.832  1.00  0.00     0.238 A 
ATOM      4  O   UNL     1     143.200 150.474 119.632  1.00  0.00    -0.285 OA
ATOM      5  C   UNL     1     140.899 150.757 119.807  1.00  0.00     0.111 A 
ATOM      6  C   UNL     1     140.579 149.398 119.566  1.00  0.00     0.134 A 
ATOM      7  C   UNL     1     139.236 148.992 119.548  1.00  0.00     0.093 A 
ATOM      8  C   UNL     1     138.209 149.917 119.766  1.00  0.00     0.123 A 
ATOM      9  C   UNL     1     138.519 151.257 120.005  1.00  0.00     0.094 A 
ATOM     10  C   UNL     1     139.851 151.681 120.029  1.00  0.00     0.146 A 
ATOM     11  O   UNL     1     140.119 152.961 120.264  1.00  0.00    -0.452 OA
ENDROOT
BRANCH   1  12
ATOM     12  C   UNL     1     141.517 154.898 120.592  1.00  0.00     0.021 A 
ATOM     13  C   UNL     1     142.255 155.349 121.701  1.00  0.00     0.016 A 
ATOM     14  C   UNL     1     142.376 156.718 121.961  1.00  0.00     0.047 A 
ATOM     15  C   UNL     1     141.750 157.651 121.124  1.00  0.00     0.115 A 
ATOM     16  C   UNL     1     140.875 155.841 119.770  1.00  0.00     0.016 A 
ATOM     17  C   UNL     1     140.998 157.208 120.031  1.00  0.00     0.047 A 
BRANCH  15  18
ATOM     18  O   UNL     1     141.864 159.017 121.372  1.00  0.00    -0.508 OA
ATOM     19  H   UNL     1     142.319 159.368 122.207  1.00  0.00     0.293 HD
ENDBRANCH  15  18
ENDBRANCH   1  12
BRANCH   2  20
ATOM     20  O   UNL     1     143.751 153.125 120.056  1.00  0.00    -0.502 OA
ATOM     21  H   UNL     1     144.515 152.694 120.562  1.00  0.00     0.293 HD
ENDBRANCH   2  20
BRANCH   6  22
ATOM     22  O   UNL     1     141.581 148.453 119.344  1.00  0.00    -0.507 OA
ATOM     23  H   UNL     1     141.365 147.481 119.152  1.00  0.00     0.293 HD
ENDBRANCH   6  22
BRANCH   8  24
ATOM     24  O   UNL     1     136.875 149.514 119.747  1.00  0.00    -0.508 OA
ATOM     25  H   UNL     1     136.213 149.842 120.440  1.00  0.00     0.293 HD
ENDBRANCH   8  24
TORSDOF 5
ENDMDL
MODEL 3
REMARK VINA RESULT:    -5.491      3.610      6.096
REMARK INTER + INTRA:          -6.654
REMARK INTER:                  -6.366
REMARK INTRA:                  -0.289
REMARK UNBOUND:                -0.200
REMARK SMILES O=c1c(O)c(-c2ccc(O)cc2)oc2cc(O)cc(O)c12
REMARK SMILES IDX 5 1 3 2 2 3 1 4 21 5 19 6 18 7 16 8 15 9 14 10 13 11 6 12
REMARK SMILES IDX 7 13 8 14 9 15 12 16 11 17 10 18 4 20 20 22 17 24
REMARK H PARENT 10 19 4 21 20 23 17 25
REMARK Flexibility Score: inf
ROOT
ATOM      1  C   UNL     1     138.719 147.892 120.369  1.00  0.00     0.180 A 
ATOM      2  C   UNL     1     139.808 148.355 119.603  1.00  0.00     0.208 A 
ATOM      3  C   UNL     1     140.108 149.726 119.612  1.00  0.00     0.238 A 
ATOM      4  O   UNL     1     141.074 150.153 118.922  1.00  0.00    -0.285 OA
ATOM      5  C   UNL     1     139.333 150.605 120.395  1.00  0.00     0.111 A 
ATOM      6  C   UNL     1     139.572 151.999 120.460  1.00  0.00     0.134 A 
ATOM      7  C   UNL     1     138.761 152.807 121.272  1.00  0.00     0.093 A 
ATOM      8  C   UNL     1     137.717 152.247 122.017  1.00  0.00     0.123 A 
ATOM      9  C   UNL     1     137.477 150.873 121.955  1.00  0.00     0.094 A 
ATOM     10  C   UNL     1     138.273 150.051 121.151  1.00  0.00     0.146 A 
ATOM     11  O   UNL     1     138.020 148.749 121.107  1.00  0.00    -0.452 OA
ENDROOT
BRANCH   1  12
ATOM     12  C   UNL     1     138.328 146.465 120.397  1.00  0.00     0.021 A 
ATOM     13  C   UNL     1     138.846 145.581 121.361  1.00  0.00     0.016 A 
ATOM     14  C   UNL     1     138.480 144.231 121.352  1.00  0.00     0.047 A 
ATOM     15  C   UNL     1     137.604 143.746 120.372  1.00  0.00     0.115 A 
ATOM     16  C   UNL     1     137.466 145.965 119.405  1.00  0.00     0.016 A 
ATOM     17  C   UNL     1     137.102 144.615 119.398  1.00  0.00     0.047 A 
BRANCH  15  18
ATOM     18  O   UNL     1     137.232 142.404 120.353  1.00  0.00    -0.508 OA
ATOM     19  H   UNL     1     137.456 141.781 121.121  1.00  0.00     0.293 HD
ENDBRANCH  15  18
ENDBRANCH   1  12
BRANCH   2  20
ATOM     20  O   UNL     1     140.591 147.456 118.875  1.00  0.00    -0.502 OA
ATOM     21  H   UNL     1     140.207 146.867 118.147  1.00  0.00     0.293 HD
ENDBRANCH   2  20
BRANCH   6  22
ATOM     22  O   UNL     1     140.607 152.586 119.730  1.00  0.00    -0.507 OA
ATOM     23  H   UNL     1     141.580 152.444 119.975  1.00  0.00     0.293 HD
ENDBRANCH   6  22
BRANCH   8  24
ATOM     24  O   UNL     1     136.912 153.049 122.824  1.00  0.00    -0.508 OA
ATOM     25  H   UNL     1     137.293 153.559 123.612  1.00  0.00     0.293 HD
ENDBRANCH   8  24
TORSDOF 5
ENDMDL
MODEL 4
REMARK VINA RESULT:    -5.435      2.543      5.105
REMARK INTER + INTRA:          -6.588
REMARK INTER:                  -6.467
REMARK INTRA:                  -0.121
REMARK UNBOUND:                -0.200
REMARK SMILES O=c1c(O)c(-c2ccc(O)cc2)oc2cc(O)cc(O)c12
REMARK SMILES IDX 5 1 3 2 2 3 1 4 21 5 19 6 18 7 16 8 15 9 14 10 13 11 6 12
REMARK SMILES IDX 7 13 8 14 9 15 12 16 11 17 10 18 4 20 20 22 17 24
REMARK H PARENT 10 19 4 21 20 23 17 25
REMARK Flexibility Score: inf
ROOT
ATOM      1  C   UNL     1     139.115 149.651 120.044  1.00  0.00     0.180 A 
ATOM      2  C   UNL     1     138.137 150.525 119.527  1.00  0.00     0.208 A 
ATOM      3  C   UNL     1     138.449 151.886 119.390  1.00  0.00     0.238 A 
ATOM      4  O   UNL     1     137.578 152.680 118.940  1.00  0.00    -0.285 OA
ATOM      5  C   UNL     1     139.731 152.347 119.751  1.00  0.00     0.111 A 
ATOM      6  C   UNL     1     140.126 153.704 119.642  1.00  0.00     0.134 A 
ATOM      7  C   UNL     1     141.425 154.082 120.013  1.00  0.00     0.093 A 
ATOM      8  C   UNL     1     142.334 153.133 120.491  1.00  0.00     0.123 A 
ATOM      9  C   UNL     1     141.950 151.795 120.603  1.00  0.00     0.094 A 
ATOM     10  C   UNL     1     140.660 151.398 120.239  1.00  0.00     0.146 A 
ATOM     11  O   UNL     1     140.318 150.120 120.360  1.00  0.00    -0.452 OA
ENDROOT
BRANCH   1  12
ATOM     12  C   UNL     1     138.856 148.207 120.235  1.00  0.00     0.021 A 
ATOM     13  C   UNL     1     137.844 147.750 121.099  1.00  0.00     0.016 A 
ATOM     14  C   UNL     1     137.635 146.379 121.282  1.00  0.00     0.047 A 
ATOM     15  C   UNL     1     138.442 145.449 120.615  1.00  0.00     0.115 A 
ATOM     16  C   UNL     1     139.675 147.266 119.586  1.00  0.00     0.016 A 
ATOM     17  C   UNL     1     139.464 145.896 119.770  1.00  0.00     0.047 A 
BRANCH  15  18
ATOM     18  O   UNL     1     138.243 144.082 120.789  1.00  0.00    -0.508 OA
ATOM     19  H   UNL     1     137.368 143.715 121.143  1.00  0.00     0.293 HD
ENDBRANCH  15  18
ENDBRANCH   1  12
BRANCH   2  20
ATOM     20  O   UNL     1     136.891 150.034 119.130  1.00  0.00    -0.502 OA
ATOM     21  H   UNL     1     136.065 150.618 119.088  1.00  0.00     0.293 HD
ENDBRANCH   2  20
BRANCH   6  22
ATOM     22  O   UNL     1     139.241 154.673 119.166  1.00  0.00    -0.507 OA
ATOM     23  H   UNL     1     138.966 154.712 118.192  1.00  0.00     0.293 HD
ENDBRANCH   6  22
BRANCH   8  24
ATOM     24  O   UNL     1     143.625 153.508 120.859  1.00  0.00    -0.508 OA
ATOM     25  H   UNL     1     143.840 154.457 121.142  1.00  0.00     0.293 HD
ENDBRANCH   8  24
TORSDOF 5
ENDMDL
MODEL 5
REMARK VINA RESULT:    -5.144      2.128      3.542
REMARK INTER + INTRA:          -6.247
REMARK INTER:                  -6.589
REMARK INTRA:                   0.343
REMARK UNBOUND:                -0.200
REMARK SMILES O=c1c(O)c(-c2ccc(O)cc2)oc2cc(O)cc(O)c12
REMARK SMILES IDX 5 1 3 2 2 3 1 4 21 5 19 6 18 7 16 8 15 9 14 10 13 11 6 12
REMARK SMILES IDX 7 13 8 14 9 15 12 16 11 17 10 18 4 20 20 22 17 24
REMARK H PARENT 10 19 4 21 20 23 17 25
REMARK Flexibility Score: inf
ROOT
ATOM      1  C   UNL     1     140.211 150.756 120.220  1.00  0.00     0.180 A 
ATOM      2  C   UNL     1     141.559 150.751 119.809  1.00  0.00     0.208 A 
ATOM      3  C   UNL     1     142.320 151.920 119.965  1.00  0.00     0.238 A 
ATOM      4  O   UNL     1     143.524 151.931 119.591  1.00  0.00    -0.285 OA
ATOM      5  C   UNL     1     141.731 153.063 120.543  1.00  0.00     0.111 A 
ATOM      6  C   UNL     1     142.429 154.280 120.738  1.00  0.00     0.134 A 
ATOM      7  C   UNL     1     141.774 155.371 121.329  1.00  0.00     0.093 A 
ATOM      8  C   UNL     1     140.437 155.267 121.729  1.00  0.00     0.123 A 
ATOM      9  C   UNL     1     139.744 154.071 121.538  1.00  0.00     0.094 A 
ATOM     10  C   UNL     1     140.378 152.973 120.949  1.00  0.00     0.146 A 
ATOM     11  O   UNL     1     139.694 151.848 120.774  1.00  0.00    -0.452 OA
ENDROOT
BRANCH   1  12
ATOM     12  C   UNL     1     139.340 149.569 120.071  1.00  0.00     0.021 A 
ATOM     13  C   UNL     1     138.313 149.292 120.991  1.00  0.00     0.016 A 
ATOM     14  C   UNL     1     137.519 148.150 120.843  1.00  0.00     0.047 A 
ATOM     15  C   UNL     1     137.750 147.265 119.782  1.00  0.00     0.115 A 
ATOM     16  C   UNL     1     139.578 148.664 119.021  1.00  0.00     0.016 A 
ATOM     17  C   UNL     1     138.783 147.524 118.875  1.00  0.00     0.047 A 
BRANCH  15  18
ATOM     18  O   UNL     1     136.965 146.125 119.624  1.00  0.00    -0.508 OA
ATOM     19  H   UNL     1     137.170 145.267 120.122  1.00  0.00     0.293 HD
ENDBRANCH  15  18
ENDBRANCH   1  12
BRANCH   2  20
ATOM     20  O   UNL     1     142.134 149.590 119.285  1.00  0.00    -0.502 OA
ATOM     21  H   UNL     1     142.324 148.774 119.853  1.00  0.00     0.293 HD
ENDBRANCH   2  20
BRANCH   6  22
ATOM     22  O   UNL     1     143.763 154.412 120.351  1.00  0.00    -0.507 OA
ATOM     23  H   UNL     1     144.190 155.320 120.210  1.00  0.00     0.293 HD
ENDBRANCH   6  22
BRANCH   8  24
ATOM     24  O   UNL     1     139.787 156.350 122.318  1.00  0.00    -0.508 OA
ATOM     25  H   UNL     1     140.202 157.274 122.331  1.00  0.00     0.293 HD
ENDBRANCH   8  24
TORSDOF 5
ENDMDL
MODEL 6
REMARK VINA RESULT:    -5.081      1.713      6.635
REMARK INTER + INTRA:          -6.172
REMARK INTER:                  -6.004
REMARK INTRA:                  -0.168
REMARK UNBOUND:                -0.200
REMARK SMILES O=c1c(O)c(-c2ccc(O)cc2)oc2cc(O)cc(O)c12
REMARK SMILES IDX 5 1 3 2 2 3 1 4 21 5 19 6 18 7 16 8 15 9 14 10 13 11 6 12
REMARK SMILES IDX 7 13 8 14 9 15 12 16 11 17 10 18 4 20 20 22 17 24
REMARK H PARENT 10 19 4 21 20 23 17 25
REMARK Flexibility Score: inf
ROOT
ATOM      1  C   UNL     1     140.370 153.240 120.288  1.00  0.00     0.180 A 
ATOM      2  C   UNL     1     141.666 152.691 120.214  1.00  0.00     0.208 A 
ATOM      3  C   UNL     1     141.809 151.329 119.904  1.00  0.00     0.238 A 
ATOM      4  O   UNL     1     142.964 150.824 119.845  1.00  0.00    -0.285 OA
ATOM      5  C   UNL     1     140.663 150.547 119.656  1.00  0.00     0.111 A 
ATOM      6  C   UNL     1     140.721 149.168 119.336  1.00  0.00     0.134 A 
ATOM      7  C   UNL     1     139.534 148.460 119.094  1.00  0.00     0.093 A 
ATOM      8  C   UNL     1     138.293 149.103 119.166  1.00  0.00     0.123 A 
ATOM      9  C   UNL     1     138.231 150.461 119.484  1.00  0.00     0.094 A 
ATOM     10  C   UNL     1     139.402 151.184 119.730  1.00  0.00     0.146 A 
ATOM     11  O   UNL     1     139.314 152.474 120.034  1.00  0.00    -0.452 OA
ENDROOT
BRANCH   1  12
ATOM     12  C   UNL     1     140.138 154.661 120.627  1.00  0.00     0.021 A 
ATOM     13  C   UNL     1     140.515 155.696 119.752  1.00  0.00     0.016 A 
ATOM     14  C   UNL     1     140.307 157.033 120.106  1.00  0.00     0.047 A 
ATOM     15  C   UNL     1     139.732 157.353 121.343  1.00  0.00     0.115 A 
ATOM     16  C   UNL     1     139.581 154.992 121.876  1.00  0.00     0.016 A 
ATOM     17  C   UNL     1     139.373 156.329 122.227  1.00  0.00     0.047 A 
BRANCH  15  18
ATOM     18  O   UNL     1     139.519 158.680 121.706  1.00  0.00    -0.508 OA
ATOM     19  H   UNL     1     138.677 159.175 121.436  1.00  0.00     0.293 HD
ENDBRANCH  15  18
ENDBRANCH   1  12
BRANCH   2  20
ATOM     20  O   UNL     1     142.788 153.499 120.414  1.00  0.00    -0.502 OA
ATOM     21  H   UNL     1     143.417 153.371 121.197  1.00  0.00     0.293 HD
ENDBRANCH   2  20
BRANCH   6  22
ATOM     22  O   UNL     1     141.944 148.501 119.254  1.00  0.00    -0.507 OA
ATOM     23  H   UNL     1     142.023 147.508 119.442  1.00  0.00     0.293 HD
ENDBRANCH   6  22
BRANCH   8  24
ATOM     24  O   UNL     1     137.114 148.400 118.925  1.00  0.00    -0.508 OA
ATOM     25  H   UNL     1     136.280 148.865 118.588  1.00  0.00     0.293 HD
ENDBRANCH   8  24
TORSDOF 5
ENDMDL
MODEL 7
REMARK VINA RESULT:    -5.053      1.366      3.255
REMARK INTER + INTRA:          -6.140
REMARK INTER:                  -5.966
REMARK INTRA:                  -0.173
REMARK UNBOUND:                -0.200
REMARK SMILES O=c1c(O)c(-c2ccc(O)cc2)oc2cc(O)cc(O)c12
REMARK SMILES IDX 5 1 3 2 2 3 1 4 21 5 19 6 18 7 16 8 15 9 14 10 13 11 6 12
REMARK SMILES IDX 7 13 8 14 9 15 12 16 11 17 10 18 4 20 20 22 17 24
REMARK H PARENT 10 19 4 21 20 23 17 25
REMARK Flexibility Score: inf
ROOT
ATOM      1  C   UNL     1     140.084 152.512 120.072  1.00  0.00     0.180 A 
ATOM      2  C   UNL     1     139.044 153.337 119.598  1.00  0.00     0.208 A 
ATOM      3  C   UNL     1     139.112 154.718 119.839  1.00  0.00     0.238 A 
ATOM      4  O   UNL     1     138.182 155.466 119.429  1.00  0.00    -0.285 OA
ATOM      5  C   UNL     1     140.220 155.253 120.527  1.00  0.00     0.111 A 
ATOM      6  C   UNL     1     140.366 156.634 120.807  1.00  0.00     0.134 A 
ATOM      7  C   UNL     1     141.504 157.089 121.490  1.00  0.00     0.093 A 
ATOM      8  C   UNL     1     142.497 156.191 121.897  1.00  0.00     0.123 A 
ATOM      9  C   UNL     1     142.357 154.829 121.625  1.00  0.00     0.094 A 
ATOM     10  C   UNL     1     141.230 154.355 120.947  1.00  0.00     0.146 A 
ATOM     11  O   UNL     1     141.120 153.054 120.705  1.00  0.00    -0.452 OA
ENDROOT
BRANCH   1  12
ATOM     12  C   UNL     1     140.075 151.045 119.875  1.00  0.00     0.021 A 
ATOM     13  C   UNL     1     139.112 150.227 120.493  1.00  0.00     0.016 A 
ATOM     14  C   UNL     1     139.140 148.841 120.311  1.00  0.00     0.047 A 
ATOM     15  C   UNL     1     140.136 148.254 119.521  1.00  0.00     0.115 A 
ATOM     16  C   UNL     1     141.084 150.446 119.101  1.00  0.00     0.016 A 
ATOM     17  C   UNL     1     141.109 149.060 118.920  1.00  0.00     0.047 A 
BRANCH  15  18
ATOM     18  O   UNL     1     140.173 146.875 119.331  1.00  0.00    -0.508 OA
ATOM     19  H   UNL     1     140.928 146.309 119.701  1.00  0.00     0.293 HD
ENDBRANCH  15  18
ENDBRANCH   1  12
BRANCH   2  20
ATOM     20  O   UNL     1     137.982 152.789 118.875  1.00  0.00    -0.502 OA
ATOM     21  H   UNL     1     137.776 153.062 117.922  1.00  0.00     0.293 HD
ENDBRANCH   2  20
BRANCH   6  22
ATOM     22  O   UNL     1     139.393 157.553 120.412  1.00  0.00    -0.507 OA
ATOM     23  H   UNL     1     138.503 157.627 120.892  1.00  0.00     0.293 HD
ENDBRANCH   6  22
BRANCH   8  24
ATOM     24  O   UNL     1     143.628 156.643 122.574  1.00  0.00    -0.508 OA
ATOM     25  H   UNL     1     144.509 156.788 122.096  1.00  0.00     0.293 HD
ENDBRANCH   8  24
TORSDOF 5
ENDMDL
MODEL 8
REMARK VINA RESULT:    -5.014      2.481      7.328
REMARK INTER + INTRA:          -6.094
REMARK INTER:                  -5.858
REMARK INTRA:                  -0.236
REMARK UNBOUND:                -0.200
REMARK SMILES O=c1c(O)c(-c2ccc(O)cc2)oc2cc(O)cc(O)c12
REMARK SMILES IDX 5 1 3 2 2 3 1 4 21 5 19 6 18 7 16 8 15 9 14 10 13 11 6 12
REMARK SMILES IDX 7 13 8 14 9 15 12 16 11 17 10 18 4 20 20 22 17 24
REMARK H PARENT 10 19 4 21 20 23 17 25
REMARK Flexibility Score: inf
ROOT
ATOM      1  C   UNL     1     139.279 152.093 120.687  1.00  0.00     0.180 A 
ATOM      2  C   UNL     1     138.287 151.913 121.672  1.00  0.00     0.208 A 
ATOM      3  C   UNL     1     137.795 150.620 121.911  1.00  0.00     0.238 A 
ATOM      4  O   UNL     1     136.899 150.449 122.782  1.00  0.00    -0.285 OA
ATOM      5  C   UNL     1     138.312 149.532 121.180  1.00  0.00     0.111 A 
ATOM      6  C   UNL     1     137.872 148.198 121.362  1.00  0.00     0.134 A 
ATOM      7  C   UNL     1     138.444 147.167 120.601  1.00  0.00     0.093 A 
ATOM      8  C   UNL     1     139.445 147.444 119.664  1.00  0.00     0.123 A 
ATOM      9  C   UNL     1     139.881 148.757 119.480  1.00  0.00     0.094 A 
ATOM     10  C   UNL     1     139.323 149.800 120.227  1.00  0.00     0.146 A 
ATOM     11  O   UNL     1     139.753 151.040 120.028  1.00  0.00    -0.452 OA
ENDROOT
BRANCH   1  12
ATOM     12  C   UNL     1     139.834 153.426 120.365  1.00  0.00     0.021 A 
ATOM     13  C   UNL     1     140.759 154.061 121.214  1.00  0.00     0.016 A 
ATOM     14  C   UNL     1     141.250 155.333 120.901  1.00  0.00     0.047 A 
ATOM     15  C   UNL     1     140.814 155.990 119.743  1.00  0.00     0.115 A 
ATOM     16  C   UNL     1     139.386 154.103 119.217  1.00  0.00     0.016 A 
ATOM     17  C   UNL     1     139.879 155.373 118.905  1.00  0.00     0.047 A 
BRANCH  15  18
ATOM     18  O   UNL     1     141.297 157.256 119.420  1.00  0.00    -0.508 OA
ATOM     19  H   UNL     1     140.873 157.814 118.688  1.00  0.00     0.293 HD
ENDBRANCH  15  18
ENDBRANCH   1  12
BRANCH   2  20
ATOM     20  O   UNL     1     137.827 153.001 122.418  1.00  0.00    -0.502 OA
ATOM     21  H   UNL     1     137.514 153.862 121.986  1.00  0.00     0.293 HD
ENDBRANCH   2  20
BRANCH   6  22
ATOM     22  O   UNL     1     136.877 147.890 122.290  1.00  0.00    -0.507 OA
ATOM     23  H   UNL     1     137.090 147.739 123.270  1.00  0.00     0.293 HD
ENDBRANCH   6  22
BRANCH   8  24
ATOM     24  O   UNL     1     140.014 146.420 118.909  1.00  0.00    -0.508 OA
ATOM     25  H   UNL     1     140.660 146.615 118.153  1.00  0.00     0.293 HD
ENDBRANCH   8  24
TORSDOF 5
ENDMDL
MODEL 9
REMARK VINA RESULT:    -5.003      2.379      4.251
REMARK INTER + INTRA:          -6.080
REMARK INTER:                  -6.267
REMARK INTRA:                   0.187
REMARK UNBOUND:                -0.200
REMARK SMILES O=c1c(O)c(-c2ccc(O)cc2)oc2cc(O)cc(O)c12
REMARK SMILES IDX 5 1 3 2 2 3 1 4 21 5 19 6 18 7 16 8 15 9 14 10 13 11 6 12
REMARK SMILES IDX 7 13 8 14 9 15 12 16 11 17 10 18 4 20 20 22 17 24
REMARK H PARENT 10 19 4 21 20 23 17 25
REMARK Flexibility Score: inf
ROOT
ATOM      1  C   UNL     1     139.461 150.769 120.500  1.00  0.00     0.180 A 
ATOM      2  C   UNL     1     138.579 151.818 120.830  1.00  0.00     0.208 A 
ATOM      3  C   UNL     1     139.093 153.118 120.962  1.00  0.00     0.238 A 
ATOM      4  O   UNL     1     138.316 154.063 121.268  1.00  0.00    -0.285 OA
ATOM      5  C   UNL     1     140.466 153.351 120.744  1.00  0.00     0.111 A 
ATOM      6  C   UNL     1     141.061 154.631 120.855  1.00  0.00     0.134 A 
ATOM      7  C   UNL     1     142.435 154.783 120.614  1.00  0.00     0.093 A 
ATOM      8  C   UNL     1     143.223 153.680 120.265  1.00  0.00     0.123 A 
ATOM      9  C   UNL     1     142.641 152.416 120.156  1.00  0.00     0.094 A 
ATOM     10  C   UNL     1     141.274 152.244 120.394  1.00  0.00     0.146 A 
ATOM     11  O   UNL     1     140.747 151.029 120.288  1.00  0.00    -0.452 OA
ENDROOT
BRANCH   1  12
ATOM     12  C   UNL     1     138.999 149.370 120.361  1.00  0.00     0.021 A 
ATOM     13  C   UNL     1     138.002 148.839 121.200  1.00  0.00     0.016 A 
ATOM     14  C   UNL     1     137.600 147.506 121.066  1.00  0.00     0.047 A 
ATOM     15  C   UNL     1     138.199 146.684 120.102  1.00  0.00     0.115 A 
ATOM     16  C   UNL     1     139.609 148.531 119.411  1.00  0.00     0.016 A 
ATOM     17  C   UNL     1     139.205 147.200 119.279  1.00  0.00     0.047 A 
BRANCH  15  18
ATOM     18  O   UNL     1     137.806 145.356 119.958  1.00  0.00    -0.508 OA
ATOM     19  H   UNL     1     138.399 144.592 120.263  1.00  0.00     0.293 HD
ENDBRANCH  15  18
ENDBRANCH   1  12
BRANCH   2  20
ATOM     20  O   UNL     1     137.214 151.570 120.991  1.00  0.00    -0.502 OA
ATOM     21  H   UNL     1     136.636 152.104 121.628  1.00  0.00     0.293 HD
ENDBRANCH   2  20
BRANCH   6  22
ATOM     22  O   UNL     1     140.301 155.750 121.200  1.00  0.00    -0.507 OA
ATOM     23  H   UNL     1     140.120 156.495 120.538  1.00  0.00     0.293 HD
ENDBRANCH   6  22
BRANCH   8  24
ATOM     24  O   UNL     1     144.587 153.831 120.024  1.00  0.00    -0.508 OA
ATOM     25  H   UNL     1     145.279 153.321 120.560  1.00  0.00     0.293 HD
ENDBRANCH   8  24
TORSDOF 5
ENDMDL
