MODEL 1
REMARK VINA RESULT:    -5.940      0.000      0.000
REMARK INTER + INTRA:          -9.089
REMARK INTER:                  -8.023
REMARK INTRA:                  -1.066
REMARK UNBOUND:                -1.066
REMARK SMILES O=c1c(-c2ccc(O)cc2)coc2c([C@H]3O[C@H](CO)[C@H](O)[C@H](O)[C@H]3O)c(O)ccc12
REMARK SMILES IDX 3 1 11 2 12 3 13 4 30 5 2 6 1 7 29 8 28 9 26 10 14 11 4 12
REMARK SMILES IDX 5 13 6 14 7 15 10 16 9 17 8 18 15 20 24 21 16 22 22 23 17 24
REMARK SMILES IDX 20 25 25 26 23 28 18 30 19 31 21 33 27 35
REMARK H PARENT 8 19 25 27 23 29 19 32 21 34 27 36
REMARK Flexibility Score: inf
ROOT
ATOM      1  C   UNL     1      16.988  30.783  10.442  1.00  0.00     0.065 A 
ATOM      2  C   UNL     1      17.984  31.575  11.031  1.00  0.00     0.208 A 
ATOM      3  O   UNL     1      19.210  31.616  10.523  1.00  0.00    -0.463 OA
ATOM      4  C   UNL     1      19.576  30.928   9.446  1.00  0.00     0.147 A 
ATOM      5  C   UNL     1      18.630  30.111   8.781  1.00  0.00     0.066 A 
ATOM      6  C   UNL     1      17.321  30.046   9.291  1.00  0.00     0.200 A 
ATOM      7  O   UNL     1      16.444  29.350   8.708  1.00  0.00    -0.288 OA
ATOM      8  C   UNL     1      19.012  29.402   7.633  1.00  0.00     0.020 A 
ATOM      9  C   UNL     1      20.310  29.509   7.141  1.00  0.00     0.047 A 
ATOM     10  C   UNL     1      21.255  30.317   7.787  1.00  0.00     0.125 A 
ATOM     11  C   UNL     1      20.904  31.017   8.966  1.00  0.00     0.069 A 
ENDROOT
BRANCH   1  12
ATOM     12  C   UNL     1      15.626  30.746  11.033  1.00  0.00    -0.011 A 
ATOM     13  C   UNL     1      14.550  31.389  10.395  1.00  0.00     0.013 A 
ATOM     14  C   UNL     1      13.268  31.342  10.951  1.00  0.00     0.047 A 
ATOM     15  C   UNL     1      13.045  30.650  12.148  1.00  0.00     0.115 A 
ATOM     16  C   UNL     1      15.392  30.047  12.230  1.00  0.00     0.013 A 
ATOM     17  C   UNL     1      14.109  30.003  12.785  1.00  0.00     0.047 A 
BRANCH  15  18
ATOM     18  O   UNL     1      11.772  30.598  12.712  1.00  0.00    -0.508 OA
ATOM     19  H   UNL     1      11.626  30.270  13.659  1.00  0.00     0.293 HD
ENDBRANCH  15  18
ENDBRANCH   1  12
BRANCH  11  20
ATOM     20  C   UNL     1      21.905  31.922   9.677  1.00  0.00     0.188 C 
ATOM     21  C   UNL     1      21.868  33.340   9.070  1.00  0.00     0.179 C 
ATOM     22  O   UNL     1      23.209  31.361   9.609  1.00  0.00    -0.362 OA
ATOM     23  C   UNL     1      22.848  34.253   9.822  1.00  0.00     0.177 C 
ATOM     24  C   UNL     1      24.166  32.106  10.351  1.00  0.00     0.176 C 
ATOM     25  C   UNL     1      24.238  33.591   9.895  1.00  0.00     0.177 C 
BRANCH  21  26
ATOM     26  O   UNL     1      22.210  33.289   7.707  1.00  0.00    -0.387 OA
ATOM     27  H   UNL     1      22.866  32.552   7.602  1.00  0.00     0.211 HD
ENDBRANCH  21  26
BRANCH  23  28
ATOM     28  O   UNL     1      22.346  34.523  11.107  1.00  0.00    -0.387 OA
ATOM     29  H   UNL     1      21.549  33.944  11.237  1.00  0.00     0.211 HD
ENDBRANCH  23  28
BRANCH  24  30
ATOM     30  C   UNL     1      24.006  31.892  11.873  1.00  0.00     0.191 C 
BRANCH  30  31
ATOM     31  O   UNL     1      25.257  31.947  12.504  1.00  0.00    -0.394 OA
ATOM     32  H   UNL     1      25.338  32.861  12.880  1.00  0.00     0.210 HD
ENDBRANCH  30  31
ENDBRANCH  24  30
BRANCH  25  33
ATOM     33  O   UNL     1      25.087  34.343  10.724  1.00  0.00    -0.388 OA
ATOM     34  H   UNL     1      25.422  35.100  10.178  1.00  0.00     0.211 HD
ENDBRANCH  25  33
ENDBRANCH  11  20
BRANCH  10  35
ATOM     35  O   UNL     1      22.538  30.423   7.250  1.00  0.00    -0.507 OA
ATOM     36  H   UNL     1      22.791  31.172   6.616  1.00  0.00     0.293 HD
ENDBRANCH  10  35
TORSDOF 9
ENDMDL
MODEL 2
REMARK VINA RESULT:    -5.189     11.538     16.121
REMARK INTER + INTRA:          -8.075
REMARK INTER:                  -7.177
REMARK INTRA:                  -0.899
REMARK UNBOUND:                -1.066
REMARK SMILES O=c1c(-c2ccc(O)cc2)coc2c([C@H]3O[C@H](CO)[C@H](O)[C@H](O)[C@H]3O)c(O)ccc12
REMARK SMILES IDX 3 1 11 2 12 3 13 4 30 5 2 6 1 7 29 8 28 9 26 10 14 11 4 12
REMARK SMILES IDX 5 13 6 14 7 15 10 16 9 17 8 18 15 20 24 21 16 22 22 23 17 24
REMARK SMILES IDX 20 25 25 26 23 28 18 30 19 31 21 33 27 35
REMARK H PARENT 8 19 25 27 23 29 19 32 21 34 27 36
REMARK Flexibility Score: inf
ROOT
ATOM      1  C   UNL     1       9.882  26.654  17.498  1.00  0.00     0.065 A 
ATOM      2  C   UNL     1      10.374  25.614  18.301  1.00  0.00     0.208 A 
ATOM      3  O   UNL     1      10.385  25.723  19.624  1.00  0.00    -0.463 OA
ATOM      4  C   UNL     1       9.943  26.798  20.271  1.00  0.00     0.147 A 
ATOM      5  C   UNL     1       9.419  27.890  19.539  1.00  0.00     0.066 A 
ATOM      6  C   UNL     1       9.389  27.807  18.135  1.00  0.00     0.200 A 
ATOM      7  O   UNL     1       8.903  28.751  17.452  1.00  0.00    -0.288 OA
ATOM      8  C   UNL     1       8.933  29.014  20.224  1.00  0.00     0.020 A 
ATOM      9  C   UNL     1       8.955  29.051  21.615  1.00  0.00     0.047 A 
ATOM     10  C   UNL     1       9.467  27.976  22.352  1.00  0.00     0.125 A 
ATOM     11  C   UNL     1       9.993  26.844  21.684  1.00  0.00     0.069 A 
ENDROOT
BRANCH   1  12
ATOM     12  C   UNL     1       9.887  26.513  16.020  1.00  0.00    -0.011 A 
ATOM     13  C   UNL     1       8.880  25.783  15.366  1.00  0.00     0.013 A 
ATOM     14  C   UNL     1       8.885  25.662  13.973  1.00  0.00     0.047 A 
ATOM     15  C   UNL     1       9.893  26.274  13.217  1.00  0.00     0.115 A 
ATOM     16  C   UNL     1      10.891  27.131  15.253  1.00  0.00     0.013 A 
ATOM     17  C   UNL     1      10.895  27.008  13.860  1.00  0.00     0.047 A 
BRANCH  15  18
ATOM     18  O   UNL     1       9.909  26.159  11.828  1.00  0.00    -0.508 OA
ATOM     19  H   UNL     1       9.173  25.674  11.329  1.00  0.00     0.293 HD
ENDBRANCH  15  18
ENDBRANCH   1  12
BRANCH  11  20
ATOM     20  C   UNL     1      10.536  25.648  22.461  1.00  0.00     0.188 C 
ATOM     21  C   UNL     1       9.456  24.552  22.577  1.00  0.00     0.179 C 
ATOM     22  O   UNL     1      10.998  26.062  23.739  1.00  0.00    -0.362 OA
ATOM     23  C   UNL     1      10.028  23.337  23.322  1.00  0.00     0.177 C 
ATOM     24  C   UNL     1      11.618  25.008  24.466  1.00  0.00     0.176 C 
ATOM     25  C   UNL     1      10.674  23.785  24.648  1.00  0.00     0.177 C 
BRANCH  21  26
ATOM     26  O   UNL     1       8.336  25.051  23.264  1.00  0.00    -0.387 OA
ATOM     27  H   UNL     1       8.561  25.975  23.550  1.00  0.00     0.211 HD
ENDBRANCH  21  26
BRANCH  23  28
ATOM     28  O   UNL     1      10.959  22.678  22.500  1.00  0.00    -0.387 OA
ATOM     29  H   UNL     1      11.447  23.378  21.992  1.00  0.00     0.211 HD
ENDBRANCH  23  28
BRANCH  24  30
ATOM     30  C   UNL     1      13.023  24.679  23.915  1.00  0.00     0.191 C 
BRANCH  30  31
ATOM     31  O   UNL     1      13.947  24.594  24.965  1.00  0.00    -0.394 OA
ATOM     32  H   UNL     1      13.481  24.932  25.773  1.00  0.00     0.210 HD
ENDBRANCH  30  31
ENDBRANCH  24  30
BRANCH  25  33
ATOM     33  O   UNL     1      11.343  22.705  25.247  1.00  0.00    -0.388 OA
ATOM     34  H   UNL     1      12.279  22.998  25.401  1.00  0.00     0.211 HD
ENDBRANCH  25  33
ENDBRANCH  11  20
BRANCH  10  35
ATOM     35  O   UNL     1       9.447  28.035  23.745  1.00  0.00    -0.507 OA
ATOM     36  H   UNL     1       9.080  28.841  24.240  1.00  0.00     0.293 HD
ENDBRANCH  10  35
TORSDOF 9
ENDMDL
MODEL 3
REMARK VINA RESULT:    -5.173     11.923     16.074
REMARK INTER + INTRA:          -8.053
REMARK INTER:                  -6.894
REMARK INTRA:                  -1.159
REMARK UNBOUND:                -1.066
REMARK SMILES O=c1c(-c2ccc(O)cc2)coc2c([C@H]3O[C@H](CO)[C@H](O)[C@H](O)[C@H]3O)c(O)ccc12
REMARK SMILES IDX 3 1 11 2 12 3 13 4 30 5 2 6 1 7 29 8 28 9 26 10 14 11 4 12
REMARK SMILES IDX 5 13 6 14 7 15 10 16 9 17 8 18 15 20 24 21 16 22 22 23 17 24
REMARK SMILES IDX 20 25 25 26 23 28 18 30 19 31 21 33 27 35
REMARK H PARENT 8 19 25 27 23 29 19 32 21 34 27 36
REMARK Flexibility Score: inf
ROOT
ATOM      1  C   UNL     1      11.713  23.665  22.093  1.00  0.00     0.065 A 
ATOM      2  C   UNL     1      11.691  23.430  20.710  1.00  0.00     0.208 A 
ATOM      3  O   UNL     1      11.174  24.323  19.876  1.00  0.00    -0.463 OA
ATOM      4  C   UNL     1      10.653  25.479  20.276  1.00  0.00     0.147 A 
ATOM      5  C   UNL     1      10.643  25.803  21.654  1.00  0.00     0.066 A 
ATOM      6  C   UNL     1      11.185  24.880  22.566  1.00  0.00     0.200 A 
ATOM      7  O   UNL     1      11.219  25.149  23.800  1.00  0.00    -0.288 OA
ATOM      8  C   UNL     1      10.112  27.032  22.073  1.00  0.00     0.020 A 
ATOM      9  C   UNL     1       9.606  27.933  21.140  1.00  0.00     0.047 A 
ATOM     10  C   UNL     1       9.612  27.626  19.773  1.00  0.00     0.125 A 
ATOM     11  C   UNL     1      10.114  26.380  19.327  1.00  0.00     0.069 A 
ENDROOT
BRANCH   1  12
ATOM     12  C   UNL     1      12.287  22.648  23.008  1.00  0.00    -0.011 A 
ATOM     13  C   UNL     1      11.464  21.687  23.621  1.00  0.00     0.013 A 
ATOM     14  C   UNL     1      12.012  20.725  24.475  1.00  0.00     0.047 A 
ATOM     15  C   UNL     1      13.391  20.709  24.723  1.00  0.00     0.115 A 
ATOM     16  C   UNL     1      13.671  22.619  23.257  1.00  0.00     0.013 A 
ATOM     17  C   UNL     1      14.217  21.657  24.112  1.00  0.00     0.047 A 
BRANCH  15  18
ATOM     18  O   UNL     1      13.948  19.756  25.573  1.00  0.00    -0.508 OA
ATOM     19  H   UNL     1      14.897  19.424  25.446  1.00  0.00     0.293 HD
ENDBRANCH  15  18
ENDBRANCH   1  12
BRANCH  11  20
ATOM     20  C   UNL     1      10.155  26.028  17.843  1.00  0.00     0.188 C 
ATOM     21  C   UNL     1      11.477  26.517  17.215  1.00  0.00     0.179 C 
ATOM     22  O   UNL     1       9.027  26.578  17.177  1.00  0.00    -0.362 OA
ATOM     23  C   UNL     1      11.526  26.119  15.732  1.00  0.00     0.177 C 
ATOM     24  C   UNL     1       8.953  26.189  15.811  1.00  0.00     0.176 C 
ATOM     25  C   UNL     1      10.236  26.573  15.020  1.00  0.00     0.177 C 
BRANCH  21  26
ATOM     26  O   UNL     1      11.581  27.913  17.340  1.00  0.00    -0.387 OA
ATOM     27  H   UNL     1      11.442  28.295  16.435  1.00  0.00     0.211 HD
ENDBRANCH  21  26
BRANCH  23  28
ATOM     28  O   UNL     1      11.702  24.729  15.625  1.00  0.00    -0.387 OA
ATOM     29  H   UNL     1      10.820  24.307  15.801  1.00  0.00     0.211 HD
ENDBRANCH  23  28
BRANCH  24  30
ATOM     30  C   UNL     1       8.499  24.720  15.656  1.00  0.00     0.191 C 
BRANCH  30  31
ATOM     31  O   UNL     1       7.872  24.536  14.415  1.00  0.00    -0.394 OA
ATOM     32  H   UNL     1       7.571  23.591  14.394  1.00  0.00     0.210 HD
ENDBRANCH  30  31
ENDBRANCH  24  30
BRANCH  25  33
ATOM     33  O   UNL     1      10.204  26.064  13.711  1.00  0.00    -0.388 OA
ATOM     34  H   UNL     1      10.736  26.686  13.150  1.00  0.00     0.211 HD
ENDBRANCH  25  33
ENDBRANCH  11  20
BRANCH  10  35
ATOM     35  O   UNL     1       9.125  28.564  18.864  1.00  0.00    -0.507 OA
ATOM     36  H   UNL     1       9.744  29.118  18.283  1.00  0.00     0.293 HD
ENDBRANCH  10  35
TORSDOF 9
ENDMDL
MODEL 4
REMARK VINA RESULT:    -5.172      8.941     13.674
REMARK INTER + INTRA:          -8.052
REMARK INTER:                  -6.898
REMARK INTRA:                  -1.154
REMARK UNBOUND:                -1.066
REMARK SMILES O=c1c(-c2ccc(O)cc2)coc2c([C@H]3O[C@H](CO)[C@H](O)[C@H](O)[C@H]3O)c(O)ccc12
REMARK SMILES IDX 3 1 11 2 12 3 13 4 30 5 2 6 1 7 29 8 28 9 26 10 14 11 4 12
REMARK SMILES IDX 5 13 6 14 7 15 10 16 9 17 8 18 15 20 24 21 16 22 22 23 17 24
REMARK SMILES IDX 20 25 25 26 23 28 18 30 19 31 21 33 27 35
REMARK H PARENT 8 19 25 27 23 29 19 32 21 34 27 36
REMARK Flexibility Score: inf
ROOT
ATOM      1  C   UNL     1       9.278  28.099  20.468  1.00  0.00     0.065 A 
ATOM      2  C   UNL     1       9.411  28.905  19.328  1.00  0.00     0.208 A 
ATOM      3  O   UNL     1       9.898  28.409  18.197  1.00  0.00    -0.463 OA
ATOM      4  C   UNL     1      10.286  27.144  18.062  1.00  0.00     0.147 A 
ATOM      5  C   UNL     1      10.175  26.257  19.159  1.00  0.00     0.066 A 
ATOM      6  C   UNL     1       9.661  26.749  20.373  1.00  0.00     0.200 A 
ATOM      7  O   UNL     1       9.522  25.979  21.364  1.00  0.00    -0.288 OA
ATOM      8  C   UNL     1      10.565  24.918  19.011  1.00  0.00     0.020 A 
ATOM      9  C   UNL     1      11.046  24.460  17.788  1.00  0.00     0.047 A 
ATOM     10  C   UNL     1      11.158  25.326  16.692  1.00  0.00     0.125 A 
ATOM     11  C   UNL     1      10.801  26.689  16.826  1.00  0.00     0.069 A 
ENDROOT
BRANCH   1  12
ATOM     12  C   UNL     1       8.739  28.677  21.724  1.00  0.00    -0.011 A 
ATOM     13  C   UNL     1       7.376  28.553  22.044  1.00  0.00     0.013 A 
ATOM     14  C   UNL     1       6.875  29.091  23.234  1.00  0.00     0.047 A 
ATOM     15  C   UNL     1       7.732  29.756  24.120  1.00  0.00     0.115 A 
ATOM     16  C   UNL     1       9.593  29.340  22.623  1.00  0.00     0.013 A 
ATOM     17  C   UNL     1       9.091  29.879  23.812  1.00  0.00     0.047 A 
BRANCH  15  18
ATOM     18  O   UNL     1       7.245  30.298  25.308  1.00  0.00    -0.508 OA
ATOM     19  H   UNL     1       7.621  30.024  26.207  1.00  0.00     0.293 HD
ENDBRANCH  15  18
ENDBRANCH   1  12
BRANCH  11  20
ATOM     20  C   UNL     1      10.890  27.650  15.644  1.00  0.00     0.188 C 
ATOM     21  C   UNL     1       9.612  27.558  14.784  1.00  0.00     0.179 C 
ATOM     22  O   UNL     1      12.054  27.378  14.876  1.00  0.00    -0.362 OA
ATOM     23  C   UNL     1       9.693  28.560  13.624  1.00  0.00     0.177 C 
ATOM     24  C   UNL     1      12.249  28.315  13.824  1.00  0.00     0.176 C 
ATOM     25  C   UNL     1      11.024  28.386  12.866  1.00  0.00     0.177 C 
BRANCH  21  26
ATOM     26  O   UNL     1       9.463  26.254  14.282  1.00  0.00    -0.387 OA
ATOM     27  H   UNL     1       8.586  26.221  13.819  1.00  0.00     0.211 HD
ENDBRANCH  21  26
BRANCH  23  28
ATOM     28  O   UNL     1       9.560  29.868  14.122  1.00  0.00    -0.387 OA
ATOM     29  H   UNL     1       9.194  29.794  15.042  1.00  0.00     0.211 HD
ENDBRANCH  23  28
BRANCH  24  30
ATOM     30  C   UNL     1      12.750  29.678  14.353  1.00  0.00     0.191 C 
BRANCH  30  31
ATOM     31  O   UNL     1      13.556  30.303  13.391  1.00  0.00    -0.394 OA
ATOM     32  H   UNL     1      13.054  31.104  13.088  1.00  0.00     0.210 HD
ENDBRANCH  30  31
ENDBRANCH  24  30
BRANCH  25  33
ATOM     33  O   UNL     1      11.175  29.408  11.915  1.00  0.00    -0.388 OA
ATOM     34  H   UNL     1      12.140  29.445  11.686  1.00  0.00     0.211 HD
ENDBRANCH  25  33
ENDBRANCH  11  20
BRANCH  10  35
ATOM     35  O   UNL     1      11.617  24.825  15.474  1.00  0.00    -0.507 OA
ATOM     36  H   UNL     1      11.468  25.322  14.603  1.00  0.00     0.293 HD
ENDBRANCH  10  35
TORSDOF 9
ENDMDL
MODEL 5
REMARK VINA RESULT:    -5.165      2.306      8.195
REMARK INTER + INTRA:          -8.042
REMARK INTER:                  -6.923
REMARK INTRA:                  -1.119
REMARK UNBOUND:                -1.066
REMARK SMILES O=c1c(-c2ccc(O)cc2)coc2c([C@H]3O[C@H](CO)[C@H](O)[C@H](O)[C@H]3O)c(O)ccc12
REMARK SMILES IDX 3 1 11 2 12 3 13 4 30 5 2 6 1 7 29 8 28 9 26 10 14 11 4 12
REMARK SMILES IDX 5 13 6 14 7 15 10 16 9 17 8 18 15 20 24 21 16 22 22 23 17 24
REMARK SMILES IDX 20 25 25 26 23 28 18 30 19 31 21 33 27 35
REMARK H PARENT 8 19 25 27 23 29 19 32 21 34 27 36
REMARK Flexibility Score: inf
ROOT
ATOM      1  C   UNL     1      22.919  33.563  10.479  1.00  0.00     0.065 A 
ATOM      2  C   UNL     1      21.558  33.877  10.600  1.00  0.00     0.208 A 
ATOM      3  O   UNL     1      20.624  33.044  10.155  1.00  0.00    -0.463 OA
ATOM      4  C   UNL     1      20.903  31.879   9.577  1.00  0.00     0.147 A 
ATOM      5  C   UNL     1      22.250  31.477   9.424  1.00  0.00     0.066 A 
ATOM      6  C   UNL     1      23.265  32.335   9.887  1.00  0.00     0.200 A 
ATOM      7  O   UNL     1      24.478  31.995   9.792  1.00  0.00    -0.288 OA
ATOM      8  C   UNL     1      22.542  30.239   8.834  1.00  0.00     0.020 A 
ATOM      9  C   UNL     1      21.512  29.404   8.410  1.00  0.00     0.047 A 
ATOM     10  C   UNL     1      20.173  29.788   8.558  1.00  0.00     0.125 A 
ATOM     11  C   UNL     1      19.853  31.047   9.122  1.00  0.00     0.069 A 
ENDROOT
BRANCH   1  12
ATOM     12  C   UNL     1      23.945  34.514  10.975  1.00  0.00    -0.011 A 
ATOM     13  C   UNL     1      24.652  35.337  10.081  1.00  0.00     0.013 A 
ATOM     14  C   UNL     1      25.612  36.237  10.555  1.00  0.00     0.047 A 
ATOM     15  C   UNL     1      25.872  36.329  11.928  1.00  0.00     0.115 A 
ATOM     16  C   UNL     1      24.208  34.618  12.352  1.00  0.00     0.013 A 
ATOM     17  C   UNL     1      25.168  35.518  12.824  1.00  0.00     0.047 A 
BRANCH  15  18
ATOM     18  O   UNL     1      26.826  37.222  12.412  1.00  0.00    -0.508 OA
ATOM     19  H   UNL     1      26.562  38.042  12.944  1.00  0.00     0.293 HD
ENDBRANCH  15  18
ENDBRANCH   1  12
BRANCH  11  20
ATOM     20  C   UNL     1      18.404  31.481   9.318  1.00  0.00     0.188 C 
ATOM     21  C   UNL     1      17.883  31.003  10.689  1.00  0.00     0.179 C 
ATOM     22  O   UNL     1      17.597  30.993   8.255  1.00  0.00    -0.362 OA
ATOM     23  C   UNL     1      16.439  31.484  10.893  1.00  0.00     0.177 C 
ATOM     24  C   UNL     1      16.256  31.461   8.325  1.00  0.00     0.176 C 
ATOM     25  C   UNL     1      15.576  31.097   9.676  1.00  0.00     0.177 C 
BRANCH  21  26
ATOM     26  O   UNL     1      17.936  29.600  10.760  1.00  0.00    -0.387 OA
ATOM     27  H   UNL     1      18.209  29.275   9.863  1.00  0.00     0.211 HD
ENDBRANCH  21  26
BRANCH  23  28
ATOM     28  O   UNL     1      16.432  32.874  11.099  1.00  0.00    -0.387 OA
ATOM     29  H   UNL     1      17.363  33.142  11.318  1.00  0.00     0.211 HD
ENDBRANCH  23  28
BRANCH  24  30
ATOM     30  C   UNL     1      16.142  32.945   7.909  1.00  0.00     0.191 C 
BRANCH  30  31
ATOM     31  O   UNL     1      14.859  33.211   7.413  1.00  0.00    -0.394 OA
ATOM     32  H   UNL     1      14.698  32.549   6.692  1.00  0.00     0.210 HD
ENDBRANCH  30  31
ENDBRANCH  24  30
BRANCH  25  33
ATOM     33  O   UNL     1      14.303  31.680   9.783  1.00  0.00    -0.388 OA
ATOM     34  H   UNL     1      14.233  32.046  10.703  1.00  0.00     0.211 HD
ENDBRANCH  25  33
ENDBRANCH  11  20
BRANCH  10  35
ATOM     35  O   UNL     1      19.166  28.914   8.149  1.00  0.00    -0.507 OA
ATOM     36  H   UNL     1      18.674  29.038   7.272  1.00  0.00     0.293 HD
ENDBRANCH  10  35
TORSDOF 9
ENDMDL
MODEL 6
REMARK VINA RESULT:    -5.160      1.824      2.498
REMARK INTER + INTRA:          -8.036
REMARK INTER:                  -6.877
REMARK INTRA:                  -1.159
REMARK UNBOUND:                -1.066
REMARK SMILES O=c1c(-c2ccc(O)cc2)coc2c([C@H]3O[C@H](CO)[C@H](O)[C@H](O)[C@H]3O)c(O)ccc12
REMARK SMILES IDX 3 1 11 2 12 3 13 4 30 5 2 6 1 7 29 8 28 9 26 10 14 11 4 12
REMARK SMILES IDX 5 13 6 14 7 15 10 16 9 17 8 18 15 20 24 21 16 22 22 23 17 24
REMARK SMILES IDX 20 25 25 26 23 28 18 30 19 31 21 33 27 35
REMARK H PARENT 8 19 25 27 23 29 19 32 21 34 27 36
REMARK Flexibility Score: inf
ROOT
ATOM      1  C   UNL     1      18.511  31.776  10.336  1.00  0.00     0.065 A 
ATOM      2  C   UNL     1      19.137  32.905  10.883  1.00  0.00     0.208 A 
ATOM      3  O   UNL     1      20.451  33.069  10.787  1.00  0.00    -0.463 OA
ATOM      4  C   UNL     1      21.252  32.198  10.179  1.00  0.00     0.147 A 
ATOM      5  C   UNL     1      20.702  31.035   9.589  1.00  0.00     0.066 A 
ATOM      6  C   UNL     1      19.313  30.831   9.671  1.00  0.00     0.200 A 
ATOM      7  O   UNL     1      18.785  29.819   9.131  1.00  0.00    -0.288 OA
ATOM      8  C   UNL     1      21.545  30.127   8.930  1.00  0.00     0.020 A 
ATOM      9  C   UNL     1      22.912  30.374   8.847  1.00  0.00     0.047 A 
ATOM     10  C   UNL     1      23.469  31.522   9.424  1.00  0.00     0.125 A 
ATOM     11  C   UNL     1      22.645  32.438  10.121  1.00  0.00     0.069 A 
ENDROOT
BRANCH   1  12
ATOM     12  C   UNL     1      17.042  31.610  10.465  1.00  0.00    -0.011 A 
ATOM     13  C   UNL     1      16.175  32.097   9.470  1.00  0.00     0.013 A 
ATOM     14  C   UNL     1      14.792  31.929   9.592  1.00  0.00     0.047 A 
ATOM     15  C   UNL     1      14.259  31.268  10.705  1.00  0.00     0.115 A 
ATOM     16  C   UNL     1      16.498  30.941  11.576  1.00  0.00     0.013 A 
ATOM     17  C   UNL     1      15.115  30.775  11.695  1.00  0.00     0.047 A 
BRANCH  15  18
ATOM     18  O   UNL     1      12.883  31.095  10.838  1.00  0.00    -0.508 OA
ATOM     19  H   UNL     1      12.340  30.612  10.133  1.00  0.00     0.293 HD
ENDBRANCH  15  18
ENDBRANCH   1  12
BRANCH  11  20
ATOM     20  C   UNL     1      23.220  33.709  10.739  1.00  0.00     0.188 C 
ATOM     21  C   UNL     1      23.207  34.856   9.708  1.00  0.00     0.179 C 
ATOM     22  O   UNL     1      24.530  33.466  11.231  1.00  0.00    -0.362 OA
ATOM     23  C   UNL     1      23.746  36.141  10.353  1.00  0.00     0.177 C 
ATOM     24  C   UNL     1      25.074  34.586  11.918  1.00  0.00     0.176 C 
ATOM     25  C   UNL     1      25.103  35.863  11.030  1.00  0.00     0.177 C 
BRANCH  21  26
ATOM     26  O   UNL     1      23.994  34.512   8.595  1.00  0.00    -0.387 OA
ATOM     27  H   UNL     1      24.338  35.360   8.211  1.00  0.00     0.211 HD
ENDBRANCH  21  26
BRANCH  23  28
ATOM     28  O   UNL     1      22.808  36.631  11.278  1.00  0.00    -0.387 OA
ATOM     29  H   UNL     1      23.315  37.123  11.976  1.00  0.00     0.211 HD
ENDBRANCH  23  28
BRANCH  24  30
ATOM     30  C   UNL     1      24.437  34.769  13.314  1.00  0.00     0.191 C 
BRANCH  30  31
ATOM     31  O   UNL     1      25.349  35.379  14.186  1.00  0.00    -0.394 OA
ATOM     32  H   UNL     1      26.205  34.888  14.080  1.00  0.00     0.210 HD
ENDBRANCH  30  31
ENDBRANCH  24  30
BRANCH  25  33
ATOM     33  O   UNL     1      25.515  36.989  11.763  1.00  0.00    -0.388 OA
ATOM     34  H   UNL     1      24.700  37.373  12.179  1.00  0.00     0.211 HD
ENDBRANCH  25  33
ENDBRANCH  11  20
BRANCH  10  35
ATOM     35  O   UNL     1      24.839  31.751   9.295  1.00  0.00    -0.507 OA
ATOM     36  H   UNL     1      25.321  31.628   8.412  1.00  0.00     0.293 HD
ENDBRANCH  10  35
TORSDOF 9
ENDMDL
MODEL 7
REMARK VINA RESULT:    -5.060      3.152      6.011
REMARK INTER + INTRA:          -7.901
REMARK INTER:                  -6.812
REMARK INTRA:                  -1.089
REMARK UNBOUND:                -1.066
REMARK SMILES O=c1c(-c2ccc(O)cc2)coc2c([C@H]3O[C@H](CO)[C@H](O)[C@H](O)[C@H]3O)c(O)ccc12
REMARK SMILES IDX 3 1 11 2 12 3 13 4 30 5 2 6 1 7 29 8 28 9 26 10 14 11 4 12
REMARK SMILES IDX 5 13 6 14 7 15 10 16 9 17 8 18 15 20 24 21 16 22 22 23 17 24
REMARK SMILES IDX 20 25 25 26 23 28 18 30 19 31 21 33 27 35
REMARK H PARENT 8 19 25 27 23 29 19 32 21 34 27 36
REMARK Flexibility Score: inf
ROOT
ATOM      1  C   UNL     1      13.382  29.770  12.904  1.00  0.00     0.065 A 
ATOM      2  C   UNL     1      14.713  29.589  12.501  1.00  0.00     0.208 A 
ATOM      3  O   UNL     1      15.186  30.199  11.421  1.00  0.00    -0.463 OA
ATOM      4  C   UNL     1      14.453  31.007  10.660  1.00  0.00     0.147 A 
ATOM      5  C   UNL     1      13.103  31.255  11.000  1.00  0.00     0.066 A 
ATOM      6  C   UNL     1      12.569  30.627  12.140  1.00  0.00     0.200 A 
ATOM      7  O   UNL     1      11.375  30.847  12.489  1.00  0.00    -0.288 OA
ATOM      8  C   UNL     1      12.336  32.124  10.209  1.00  0.00     0.020 A 
ATOM      9  C   UNL     1      12.904  32.748   9.102  1.00  0.00     0.047 A 
ATOM     10  C   UNL     1      14.242  32.514   8.755  1.00  0.00     0.125 A 
ATOM     11  C   UNL     1      15.026  31.617   9.519  1.00  0.00     0.069 A 
ENDROOT
BRANCH   1  12
ATOM     12  C   UNL     1      12.872  29.071  14.110  1.00  0.00    -0.011 A 
ATOM     13  C   UNL     1      12.019  27.960  13.988  1.00  0.00     0.013 A 
ATOM     14  C   UNL     1      11.549  27.299  15.128  1.00  0.00     0.047 A 
ATOM     15  C   UNL     1      11.930  27.738  16.402  1.00  0.00     0.115 A 
ATOM     16  C   UNL     1      13.255  29.500  15.393  1.00  0.00     0.013 A 
ATOM     17  C   UNL     1      12.784  28.838  16.532  1.00  0.00     0.047 A 
BRANCH  15  18
ATOM     18  O   UNL     1      11.467  27.089  17.545  1.00  0.00    -0.508 OA
ATOM     19  H   UNL     1      11.896  27.241  18.450  1.00  0.00     0.293 HD
ENDBRANCH  15  18
ENDBRANCH   1  12
BRANCH  11  20
ATOM     20  C   UNL     1      16.491  31.361   9.180  1.00  0.00     0.188 C 
ATOM     21  C   UNL     1      17.388  32.424   9.849  1.00  0.00     0.179 C 
ATOM     22  O   UNL     1      16.673  31.339   7.771  1.00  0.00    -0.362 OA
ATOM     23  C   UNL     1      18.863  32.131   9.537  1.00  0.00     0.177 C 
ATOM     24  C   UNL     1      18.000  30.993   7.394  1.00  0.00     0.176 C 
ATOM     25  C   UNL     1      19.056  31.949   8.019  1.00  0.00     0.177 C 
BRANCH  21  26
ATOM     26  O   UNL     1      17.045  33.705   9.382  1.00  0.00    -0.387 OA
ATOM     27  H   UNL     1      17.820  34.039   8.860  1.00  0.00     0.211 HD
ENDBRANCH  21  26
BRANCH  23  28
ATOM     28  O   UNL     1      19.273  30.986  10.241  1.00  0.00    -0.387 OA
ATOM     29  H   UNL     1      20.165  30.729   9.889  1.00  0.00     0.211 HD
ENDBRANCH  23  28
BRANCH  24  30
ATOM     30  C   UNL     1      18.279  29.486   7.591  1.00  0.00     0.191 C 
BRANCH  30  31
ATOM     31  O   UNL     1      19.424  29.109   6.875  1.00  0.00    -0.394 OA
ATOM     32  H   UNL     1      20.158  29.693   7.198  1.00  0.00     0.210 HD
ENDBRANCH  30  31
ENDBRANCH  24  30
BRANCH  25  33
ATOM     33  O   UNL     1      20.365  31.516   7.748  1.00  0.00    -0.388 OA
ATOM     34  H   UNL     1      20.362  30.527   7.837  1.00  0.00     0.211 HD
ENDBRANCH  25  33
ENDBRANCH  11  20
BRANCH  10  35
ATOM     35  O   UNL     1      14.786  33.179   7.657  1.00  0.00    -0.507 OA
ATOM     36  H   UNL     1      15.505  33.885   7.762  1.00  0.00     0.293 HD
ENDBRANCH  10  35
TORSDOF 9
ENDMDL
MODEL 8
REMARK VINA RESULT:    -5.029     16.489     19.267
REMARK INTER + INTRA:          -7.859
REMARK INTER:                  -6.722
REMARK INTRA:                  -1.138
REMARK UNBOUND:                -1.066
REMARK SMILES O=c1c(-c2ccc(O)cc2)coc2c([C@H]3O[C@H](CO)[C@H](O)[C@H](O)[C@H]3O)c(O)ccc12
REMARK SMILES IDX 3 1 11 2 12 3 13 4 30 5 2 6 1 7 29 8 28 9 26 10 14 11 4 12
REMARK SMILES IDX 5 13 6 14 7 15 10 16 9 17 8 18 15 20 24 21 16 22 22 23 17 24
REMARK SMILES IDX 20 25 25 26 23 28 18 30 19 31 21 33 27 35
REMARK H PARENT 8 19 25 27 23 29 19 32 21 34 27 36
REMARK Flexibility Score: inf
ROOT
ATOM      1  C   UNL     1      14.742  20.582  23.448  1.00  0.00     0.065 A 
ATOM      2  C   UNL     1      14.294  21.718  22.760  1.00  0.00     0.208 A 
ATOM      3  O   UNL     1      13.107  22.250  23.024  1.00  0.00    -0.463 OA
ATOM      4  C   UNL     1      12.275  21.759  23.938  1.00  0.00     0.147 A 
ATOM      5  C   UNL     1      12.652  20.620  24.689  1.00  0.00     0.066 A 
ATOM      6  C   UNL     1      13.905  20.032  24.436  1.00  0.00     0.200 A 
ATOM      7  O   UNL     1      14.286  19.032  25.107  1.00  0.00    -0.288 OA
ATOM      8  C   UNL     1      11.783  20.116  25.668  1.00  0.00     0.020 A 
ATOM      9  C   UNL     1      10.561  20.738  25.908  1.00  0.00     0.047 A 
ATOM     10  C   UNL     1      10.177  21.868  25.175  1.00  0.00     0.125 A 
ATOM     11  C   UNL     1      11.022  22.377  24.160  1.00  0.00     0.069 A 
ENDROOT
BRANCH   1  12
ATOM     12  C   UNL     1      16.070  19.999  23.130  1.00  0.00    -0.011 A 
ATOM     13  C   UNL     1      16.186  18.933  22.221  1.00  0.00     0.013 A 
ATOM     14  C   UNL     1      17.440  18.394  21.918  1.00  0.00     0.047 A 
ATOM     15  C   UNL     1      18.594  18.917  22.515  1.00  0.00     0.115 A 
ATOM     16  C   UNL     1      17.234  20.523  23.720  1.00  0.00     0.013 A 
ATOM     17  C   UNL     1      18.487  19.982  23.416  1.00  0.00     0.047 A 
BRANCH  15  18
ATOM     18  O   UNL     1      19.849  18.387  22.222  1.00  0.00    -0.508 OA
ATOM     19  H   UNL     1      20.167  18.280  21.267  1.00  0.00     0.293 HD
ENDBRANCH  15  18
ENDBRANCH   1  12
BRANCH  11  20
ATOM     20  C   UNL     1      10.640  23.620  23.362  1.00  0.00     0.188 C 
ATOM     21  C   UNL     1      11.175  24.888  24.059  1.00  0.00     0.179 C 
ATOM     22  O   UNL     1       9.231  23.678  23.187  1.00  0.00    -0.362 OA
ATOM     23  C   UNL     1      10.823  26.128  23.225  1.00  0.00     0.177 C 
ATOM     24  C   UNL     1       8.825  24.757  22.354  1.00  0.00     0.176 C 
ATOM     25  C   UNL     1       9.319  26.131  22.891  1.00  0.00     0.177 C 
BRANCH  21  26
ATOM     26  O   UNL     1      10.618  25.001  25.345  1.00  0.00    -0.387 OA
ATOM     27  H   UNL     1       9.660  24.755  25.266  1.00  0.00     0.211 HD
ENDBRANCH  21  26
BRANCH  23  28
ATOM     28  O   UNL     1      11.603  26.143  22.055  1.00  0.00    -0.387 OA
ATOM     29  H   UNL     1      12.350  25.503  22.193  1.00  0.00     0.211 HD
ENDBRANCH  23  28
BRANCH  24  30
ATOM     30  C   UNL     1       9.135  24.482  20.865  1.00  0.00     0.191 C 
BRANCH  30  31
ATOM     31  O   UNL     1       8.214  25.151  20.048  1.00  0.00    -0.394 OA
ATOM     32  H   UNL     1       8.660  25.275  19.170  1.00  0.00     0.210 HD
ENDBRANCH  30  31
ENDBRANCH  24  30
BRANCH  25  33
ATOM     33  O   UNL     1       9.027  27.169  21.990  1.00  0.00    -0.388 OA
ATOM     34  H   UNL     1       8.178  27.582  22.295  1.00  0.00     0.211 HD
ENDBRANCH  25  33
ENDBRANCH  11  20
BRANCH  10  35
ATOM     35  O   UNL     1       8.958  22.483  25.463  1.00  0.00    -0.507 OA
ATOM     36  H   UNL     1       8.301  22.084  26.123  1.00  0.00     0.293 HD
ENDBRANCH  10  35
TORSDOF 9
ENDMDL
MODEL 9
REMARK VINA RESULT:    -5.015     15.043     16.793
REMARK INTER + INTRA:          -7.840
REMARK INTER:                  -7.097
REMARK INTRA:                  -0.743
REMARK UNBOUND:                -1.066
REMARK SMILES O=c1c(-c2ccc(O)cc2)coc2c([C@H]3O[C@H](CO)[C@H](O)[C@H](O)[C@H]3O)c(O)ccc12
REMARK SMILES IDX 3 1 11 2 12 3 13 4 30 5 2 6 1 7 29 8 28 9 26 10 14 11 4 12
REMARK SMILES IDX 5 13 6 14 7 15 10 16 9 17 8 18 15 20 24 21 16 22 22 23 17 24
REMARK SMILES IDX 20 25 25 26 23 28 18 30 19 31 21 33 27 35
REMARK H PARENT 8 19 25 27 23 29 19 32 21 34 27 36
REMARK Flexibility Score: inf
ROOT
ATOM      1  C   UNL     1       9.190  28.329  21.494  1.00  0.00     0.065 A 
ATOM      2  C   UNL     1       9.804  27.702  22.587  1.00  0.00     0.208 A 
ATOM      3  O   UNL     1      10.319  26.483  22.473  1.00  0.00    -0.463 OA
ATOM      4  C   UNL     1      10.293  25.785  21.341  1.00  0.00     0.147 A 
ATOM      5  C   UNL     1       9.703  26.346  20.184  1.00  0.00     0.066 A 
ATOM      6  C   UNL     1       9.149  27.636  20.269  1.00  0.00     0.200 A 
ATOM      7  O   UNL     1       8.639  28.179  19.250  1.00  0.00    -0.288 OA
ATOM      8  C   UNL     1       9.695  25.616  18.986  1.00  0.00     0.020 A 
ATOM      9  C   UNL     1      10.275  24.352  18.932  1.00  0.00     0.047 A 
ATOM     10  C   UNL     1      10.866  23.785  20.069  1.00  0.00     0.125 A 
ATOM     11  C   UNL     1      10.858  24.488  21.297  1.00  0.00     0.069 A 
ENDROOT
BRANCH   1  12
ATOM     12  C   UNL     1       8.612  29.687  21.647  1.00  0.00    -0.011 A 
ATOM     13  C   UNL     1       8.892  30.696  20.709  1.00  0.00     0.013 A 
ATOM     14  C   UNL     1       8.338  31.972  20.854  1.00  0.00     0.047 A 
ATOM     15  C   UNL     1       7.493  32.253  21.936  1.00  0.00     0.115 A 
ATOM     16  C   UNL     1       7.758  29.976  22.726  1.00  0.00     0.013 A 
ATOM     17  C   UNL     1       7.205  31.253  22.869  1.00  0.00     0.047 A 
BRANCH  15  18
ATOM     18  O   UNL     1       6.936  33.520  22.091  1.00  0.00    -0.508 OA
ATOM     19  H   UNL     1       6.284  33.724  22.839  1.00  0.00     0.293 HD
ENDBRANCH  15  18
ENDBRANCH   1  12
BRANCH  11  20
ATOM     20  C   UNL     1      11.515  23.907  22.545  1.00  0.00     0.188 C 
ATOM     21  C   UNL     1      13.035  24.169  22.521  1.00  0.00     0.179 C 
ATOM     22  O   UNL     1      11.227  22.519  22.650  1.00  0.00    -0.362 OA
ATOM     23  C   UNL     1      13.678  23.618  23.802  1.00  0.00     0.177 C 
ATOM     24  C   UNL     1      11.721  21.946  23.855  1.00  0.00     0.176 C 
ATOM     25  C   UNL     1      13.254  22.152  24.019  1.00  0.00     0.177 C 
BRANCH  21  26
ATOM     26  O   UNL     1      13.610  23.556  21.394  1.00  0.00    -0.387 OA
ATOM     27  H   UNL     1      13.727  24.264  20.709  1.00  0.00     0.211 HD
ENDBRANCH  21  26
BRANCH  23  28
ATOM     28  O   UNL     1      13.308  24.421  24.895  1.00  0.00    -0.387 OA
ATOM     29  H   UNL     1      12.321  24.524  24.861  1.00  0.00     0.211 HD
ENDBRANCH  23  28
BRANCH  24  30
ATOM     30  C   UNL     1      10.867  22.353  25.077  1.00  0.00     0.191 C 
BRANCH  30  31
ATOM     31  O   UNL     1      10.811  21.300  26.001  1.00  0.00    -0.394 OA
ATOM     32  H   UNL     1       9.964  20.818  25.820  1.00  0.00     0.210 HD
ENDBRANCH  30  31
ENDBRANCH  24  30
BRANCH  25  33
ATOM     33  O   UNL     1      13.702  21.702  25.272  1.00  0.00    -0.388 OA
ATOM     34  H   UNL     1      13.931  22.509  25.801  1.00  0.00     0.211 HD
ENDBRANCH  25  33
ENDBRANCH  11  20
BRANCH  10  35
ATOM     35  O   UNL     1      11.463  22.529  19.970  1.00  0.00    -0.507 OA
ATOM     36  H   UNL     1      11.643  22.092  19.073  1.00  0.00     0.293 HD
ENDBRANCH  10  35
TORSDOF 9
ENDMDL
