MODEL 1
REMARK VINA RESULT:    -4.002      0.000      0.000
REMARK INTER + INTRA:         -10.175
REMARK INTER:                  -7.278
REMARK INTRA:                  -2.897
REMARK UNBOUND:                -2.897
REMARK SMILES CCCCCCCCCCCCCC[C@H](C)C(=O)[O-]
REMARK SMILES IDX 9 1 10 2 11 3 12 4 13 5 14 6 15 7 16 8 17 9 18 10 19 11 8 12
REMARK SMILES IDX 7 13 6 14 5 15 4 16 3 17 2 18 1 19
REMARK H PARENT
REMARK Flexibility Score: inf
ROOT
ATOM      1  C   UNL     1      -9.955   4.973  18.883  1.00  0.00     0.000 C 
ENDROOT
BRANCH   1   2
ATOM      2  C   UNL     1     -11.263   5.312  18.158  1.00  0.00     0.000 C 
BRANCH   2   3
ATOM      3  C   UNL     1     -12.458   4.615  18.826  1.00  0.00     0.000 C 
BRANCH   3   4
ATOM      4  C   UNL     1     -13.197   3.661  17.868  1.00  0.00     0.000 C 
BRANCH   4   5
ATOM      5  C   UNL     1     -12.419   3.367  16.571  1.00  0.00     0.001 C 
BRANCH   5   6
ATOM      6  C   UNL     1     -12.154   1.859  16.350  1.00  0.00     0.009 C 
BRANCH   6   7
ATOM      7  C   UNL     1     -10.698   1.542  15.941  1.00  0.00     0.032 C 
ATOM      8  C   UNL     1      -9.834   2.805  15.835  1.00  0.00     0.014 C 
BRANCH   7   9
ATOM      9  C   UNL     1     -10.686   0.812  14.626  1.00  0.00     0.044 C 
ATOM     10  O   UNL     1      -9.602   0.633  14.010  1.00  0.00    -0.550 OA
ATOM     11  O   UNL     1     -11.871   0.325  14.082  1.00  0.00    -0.550 OA
ENDBRANCH   7   9
ENDBRANCH   6   7
ENDBRANCH   5   6
ENDBRANCH   4   5
ENDBRANCH   3   4
ENDBRANCH   2   3
ENDBRANCH   1   2
BRANCH   1  12
ATOM     12  C   UNL     1     -10.173   3.867  19.923  1.00  0.00     0.000 C 
BRANCH  12  13
ATOM     13  C   UNL     1      -9.200   2.700  19.696  1.00  0.00    -0.000 C 
BRANCH  13  14
ATOM     14  C   UNL     1      -9.922   1.361  19.472  1.00  0.00    -0.000 C 
BRANCH  14  15
ATOM     15  C   UNL     1     -11.359   1.363  20.022  1.00  0.00    -0.000 C 
BRANCH  15  16
ATOM     16  C   UNL     1     -11.466   0.609  21.365  1.00  0.00    -0.000 C 
BRANCH  16  17
ATOM     17  C   UNL     1     -12.471   1.239  22.345  1.00  0.00    -0.000 C 
BRANCH  17  18
ATOM     18  C   UNL     1     -13.203   2.452  21.751  1.00  0.00    -0.003 C 
ATOM     19  C   UNL     1     -12.859   3.729  22.512  1.00  0.00     0.004 C 
ENDBRANCH  17  18
ENDBRANCH  16  17
ENDBRANCH  15  16
ENDBRANCH  14  15
ENDBRANCH  13  14
ENDBRANCH  12  13
ENDBRANCH   1  12
TORSDOF 14
ENDMDL
MODEL 2
REMARK VINA RESULT:    -3.919      1.986      3.757
REMARK INTER + INTRA:         -10.023
REMARK INTER:                  -8.431
REMARK INTRA:                  -1.592
REMARK UNBOUND:                -2.897
REMARK SMILES CCCCCCCCCCCCCC[C@H](C)C(=O)[O-]
REMARK SMILES IDX 9 1 10 2 11 3 12 4 13 5 14 6 15 7 16 8 17 9 18 10 19 11 8 12
REMARK SMILES IDX 7 13 6 14 5 15 4 16 3 17 2 18 1 19
REMARK H PARENT
REMARK Flexibility Score: inf
ROOT
ATOM      1  C   UNL     1     -11.175   1.375  20.536  1.00  0.00     0.000 C 
ENDROOT
BRANCH   1   2
ATOM      2  C   UNL     1      -9.862   2.146  20.348  1.00  0.00     0.000 C 
BRANCH   2   3
ATOM      3  C   UNL     1      -9.208   1.795  19.003  1.00  0.00     0.000 C 
BRANCH   3   4
ATOM      4  C   UNL     1     -10.185   1.926  17.819  1.00  0.00     0.000 C 
BRANCH   4   5
ATOM      5  C   UNL     1      -9.699   2.893  16.723  1.00  0.00     0.001 C 
BRANCH   5   6
ATOM      6  C   UNL     1     -10.194   2.509  15.309  1.00  0.00     0.009 C 
BRANCH   6   7
ATOM      7  C   UNL     1     -10.369   0.987  15.109  1.00  0.00     0.032 C 
ATOM      8  C   UNL     1      -9.447   0.433  14.015  1.00  0.00     0.014 C 
BRANCH   7   9
ATOM      9  C   UNL     1     -11.800   0.680  14.765  1.00  0.00     0.044 C 
ATOM     10  O   UNL     1     -12.734   1.120  15.488  1.00  0.00    -0.550 OA
ATOM     11  O   UNL     1     -12.105  -0.086  13.645  1.00  0.00    -0.550 OA
ENDBRANCH   7   9
ENDBRANCH   6   7
ENDBRANCH   5   6
ENDBRANCH   4   5
ENDBRANCH   3   4
ENDBRANCH   2   3
ENDBRANCH   1   2
BRANCH   1  12
ATOM     12  C   UNL     1     -12.287   2.298  21.049  1.00  0.00     0.000 C 
BRANCH  12  13
ATOM     13  C   UNL     1     -12.963   1.705  22.294  1.00  0.00    -0.000 C 
BRANCH  13  14
ATOM     14  C   UNL     1     -12.223   0.472  22.840  1.00  0.00    -0.000 C 
BRANCH  14  15
ATOM     15  C   UNL     1     -11.854   0.612  24.327  1.00  0.00    -0.000 C 
BRANCH  15  16
ATOM     16  C   UNL     1     -10.486  -0.025  24.648  1.00  0.00    -0.000 C 
BRANCH  16  17
ATOM     17  C   UNL     1      -9.353   0.452  23.723  1.00  0.00    -0.000 C 
BRANCH  17  18
ATOM     18  C   UNL     1      -8.447  -0.693  23.249  1.00  0.00    -0.003 C 
ATOM     19  C   UNL     1      -8.768  -1.090  21.811  1.00  0.00     0.004 C 
ENDBRANCH  17  18
ENDBRANCH  16  17
ENDBRANCH  15  16
ENDBRANCH  14  15
ENDBRANCH  13  14
ENDBRANCH  12  13
ENDBRANCH   1  12
TORSDOF 14
ENDMDL
MODEL 3
REMARK VINA RESULT:    -3.891      1.750      2.513
REMARK INTER + INTRA:          -9.973
REMARK INTER:                  -8.099
REMARK INTRA:                  -1.874
REMARK UNBOUND:                -2.897
REMARK SMILES CCCCCCCCCCCCCC[C@H](C)C(=O)[O-]
REMARK SMILES IDX 9 1 10 2 11 3 12 4 13 5 14 6 15 7 16 8 17 9 18 10 19 11 8 12
REMARK SMILES IDX 7 13 6 14 5 15 4 16 3 17 2 18 1 19
REMARK H PARENT
REMARK Flexibility Score: inf
ROOT
ATOM      1  C   UNL     1     -10.770   4.022  20.344  1.00  0.00     0.000 C 
ENDROOT
BRANCH   1   2
ATOM      2  C   UNL     1     -10.701   4.695  18.968  1.00  0.00     0.000 C 
BRANCH   2   3
ATOM      3  C   UNL     1     -12.109   4.948  18.409  1.00  0.00     0.000 C 
BRANCH   3   4
ATOM      4  C   UNL     1     -12.816   3.648  17.979  1.00  0.00     0.000 C 
BRANCH   4   5
ATOM      5  C   UNL     1     -12.505   3.228  16.530  1.00  0.00     0.001 C 
BRANCH   5   6
ATOM      6  C   UNL     1     -12.241   1.711  16.380  1.00  0.00     0.009 C 
BRANCH   6   7
ATOM      7  C   UNL     1     -10.802   1.377  15.928  1.00  0.00     0.032 C 
ATOM      8  C   UNL     1      -9.897   2.615  15.902  1.00  0.00     0.014 C 
BRANCH   7   9
ATOM      9  C   UNL     1     -10.831   0.745  14.564  1.00  0.00     0.044 C 
ATOM     10  O   UNL     1     -11.825   0.061  14.203  1.00  0.00    -0.550 OA
ATOM     11  O   UNL     1      -9.763   0.914  13.688  1.00  0.00    -0.550 OA
ENDBRANCH   7   9
ENDBRANCH   6   7
ENDBRANCH   5   6
ENDBRANCH   4   5
ENDBRANCH   3   4
ENDBRANCH   2   3
ENDBRANCH   1   2
BRANCH   1  12
ATOM     12  C   UNL     1      -9.691   2.941  20.484  1.00  0.00     0.000 C 
BRANCH  12  13
ATOM     13  C   UNL     1     -10.039   1.705  19.640  1.00  0.00    -0.000 C 
BRANCH  13  14
ATOM     14  C   UNL     1     -11.036   0.770  20.343  1.00  0.00    -0.000 C 
BRANCH  14  15
ATOM     15  C   UNL     1     -10.503   0.231  21.682  1.00  0.00    -0.000 C 
BRANCH  15  16
ATOM     16  C   UNL     1      -9.278  -0.688  21.491  1.00  0.00    -0.000 C 
BRANCH  16  17
ATOM     17  C   UNL     1      -8.444  -0.874  22.770  1.00  0.00    -0.000 C 
BRANCH  17  18
ATOM     18  C   UNL     1      -8.786   0.152  23.860  1.00  0.00    -0.003 C 
ATOM     19  C   UNL     1      -9.349  -0.532  25.103  1.00  0.00     0.004 C 
ENDBRANCH  17  18
ENDBRANCH  16  17
ENDBRANCH  15  16
ENDBRANCH  14  15
ENDBRANCH  13  14
ENDBRANCH  12  13
ENDBRANCH   1  12
TORSDOF 14
ENDMDL
MODEL 4
REMARK VINA RESULT:    -3.884      2.312      4.348
REMARK INTER + INTRA:          -9.959
REMARK INTER:                  -8.101
REMARK INTRA:                  -1.858
REMARK UNBOUND:                -2.897
REMARK SMILES CCCCCCCCCCCCCC[C@H](C)C(=O)[O-]
REMARK SMILES IDX 9 1 10 2 11 3 12 4 13 5 14 6 15 7 16 8 17 9 18 10 19 11 8 12
REMARK SMILES IDX 7 13 6 14 5 15 4 16 3 17 2 18 1 19
REMARK H PARENT
REMARK Flexibility Score: inf
ROOT
ATOM      1  C   UNL     1     -11.495   2.420  20.319  1.00  0.00     0.000 C 
ENDROOT
BRANCH   1   2
ATOM      2  C   UNL     1     -12.253   3.751  20.396  1.00  0.00     0.000 C 
BRANCH   2   3
ATOM      3  C   UNL     1     -13.050   4.004  19.107  1.00  0.00     0.000 C 
BRANCH   3   4
ATOM      4  C   UNL     1     -12.144   4.363  17.913  1.00  0.00     0.000 C 
BRANCH   4   5
ATOM      5  C   UNL     1     -12.441   3.540  16.645  1.00  0.00     0.001 C 
BRANCH   5   6
ATOM      6  C   UNL     1     -12.156   2.030  16.818  1.00  0.00     0.009 C 
BRANCH   6   7
ATOM      7  C   UNL     1     -10.961   1.529  15.977  1.00  0.00     0.032 C 
ATOM      8  C   UNL     1     -10.066   2.677  15.492  1.00  0.00     0.014 C 
BRANCH   7   9
ATOM      9  C   UNL     1     -11.463   0.748  14.793  1.00  0.00     0.044 C 
ATOM     10  O   UNL     1     -12.624   0.258  14.804  1.00  0.00    -0.550 OA
ATOM     11  O   UNL     1     -10.654   0.566  13.676  1.00  0.00    -0.550 OA
ENDBRANCH   7   9
ENDBRANCH   6   7
ENDBRANCH   5   6
ENDBRANCH   4   5
ENDBRANCH   3   4
ENDBRANCH   2   3
ENDBRANCH   1   2
BRANCH   1  12
ATOM     12  C   UNL     1      -9.981   2.641  20.423  1.00  0.00     0.000 C 
BRANCH  12  13
ATOM     13  C   UNL     1      -9.267   2.151  19.155  1.00  0.00    -0.000 C 
BRANCH  13  14
ATOM     14  C   UNL     1      -8.189   3.132  18.665  1.00  0.00    -0.000 C 
BRANCH  14  15
ATOM     15  C   UNL     1      -8.021   4.343  19.599  1.00  0.00    -0.000 C 
BRANCH  15  16
ATOM     16  C   UNL     1      -6.913   5.302  19.112  1.00  0.00    -0.000 C 
BRANCH  16  17
ATOM     17  C   UNL     1      -5.673   5.319  20.021  1.00  0.00    -0.000 C 
BRANCH  17  18
ATOM     18  C   UNL     1      -4.365   5.088  19.251  1.00  0.00    -0.003 C 
ATOM     19  C   UNL     1      -4.494   3.911  18.288  1.00  0.00     0.004 C 
ENDBRANCH  17  18
ENDBRANCH  16  17
ENDBRANCH  15  16
ENDBRANCH  14  15
ENDBRANCH  13  14
ENDBRANCH  12  13
ENDBRANCH   1  12
TORSDOF 14
ENDMDL
MODEL 5
REMARK VINA RESULT:    -3.851      0.848      2.554
REMARK INTER + INTRA:          -9.900
REMARK INTER:                  -7.370
REMARK INTRA:                  -2.530
REMARK UNBOUND:                -2.897
REMARK SMILES CCCCCCCCCCCCCC[C@H](C)C(=O)[O-]
REMARK SMILES IDX 9 1 10 2 11 3 12 4 13 5 14 6 15 7 16 8 17 9 18 10 19 11 8 12
REMARK SMILES IDX 7 13 6 14 5 15 4 16 3 17 2 18 1 19
REMARK H PARENT
REMARK Flexibility Score: inf
ROOT
ATOM      1  C   UNL     1     -13.590   4.303  20.381  1.00  0.00     0.000 C 
ENDROOT
BRANCH   1   2
ATOM      2  C   UNL     1     -12.798   5.436  19.718  1.00  0.00     0.000 C 
BRANCH   2   3
ATOM      3  C   UNL     1     -12.293   5.014  18.330  1.00  0.00     0.000 C 
BRANCH   3   4
ATOM      4  C   UNL     1     -12.793   3.615  17.920  1.00  0.00     0.000 C 
BRANCH   4   5
ATOM      5  C   UNL     1     -12.464   3.247  16.460  1.00  0.00     0.001 C 
BRANCH   5   6
ATOM      6  C   UNL     1     -12.218   1.733  16.256  1.00  0.00     0.009 C 
BRANCH   6   7
ATOM      7  C   UNL     1     -10.760   1.393  15.872  1.00  0.00     0.032 C 
ATOM      8  C   UNL     1      -9.867   2.638  15.813  1.00  0.00     0.014 C 
BRANCH   7   9
ATOM      9  C   UNL     1     -10.735   0.691  14.542  1.00  0.00     0.044 C 
ATOM     10  O   UNL     1      -9.706   0.741  13.818  1.00  0.00    -0.550 OA
ATOM     11  O   UNL     1     -11.846  -0.023  14.103  1.00  0.00    -0.550 OA
ENDBRANCH   7   9
ENDBRANCH   6   7
ENDBRANCH   5   6
ENDBRANCH   4   5
ENDBRANCH   3   4
ENDBRANCH   2   3
ENDBRANCH   1   2
BRANCH   1  12
ATOM     12  C   UNL     1     -12.826   3.724  21.578  1.00  0.00     0.000 C 
BRANCH  12  13
ATOM     13  C   UNL     1     -13.240   2.268  21.841  1.00  0.00    -0.000 C 
BRANCH  13  14
ATOM     14  C   UNL     1     -12.059   1.289  21.743  1.00  0.00    -0.000 C 
BRANCH  14  15
ATOM     15  C   UNL     1     -11.402   1.289  20.352  1.00  0.00    -0.000 C 
BRANCH  15  16
ATOM     16  C   UNL     1      -9.903   1.652  20.418  1.00  0.00    -0.000 C 
BRANCH  16  17
ATOM     17  C   UNL     1      -9.474   2.685  19.362  1.00  0.00    -0.000 C 
BRANCH  17  18
ATOM     18  C   UNL     1      -9.177   4.066  19.965  1.00  0.00    -0.003 C 
ATOM     19  C   UNL     1      -9.110   3.998  21.488  1.00  0.00     0.004 C 
ENDBRANCH  17  18
ENDBRANCH  16  17
ENDBRANCH  15  16
ENDBRANCH  14  15
ENDBRANCH  13  14
ENDBRANCH  12  13
ENDBRANCH   1  12
TORSDOF 14
ENDMDL
MODEL 6
REMARK VINA RESULT:    -3.827      1.324      2.964
REMARK INTER + INTRA:          -9.857
REMARK INTER:                  -7.258
REMARK INTRA:                  -2.599
REMARK UNBOUND:                -2.897
REMARK SMILES CCCCCCCCCCCCCC[C@H](C)C(=O)[O-]
REMARK SMILES IDX 9 1 10 2 11 3 12 4 13 5 14 6 15 7 16 8 17 9 18 10 19 11 8 12
REMARK SMILES IDX 7 13 6 14 5 15 4 16 3 17 2 18 1 19
REMARK H PARENT
REMARK Flexibility Score: inf
ROOT
ATOM      1  C   UNL     1     -12.500   2.938  20.335  1.00  0.00     0.000 C 
ENDROOT
BRANCH   1   2
ATOM      2  C   UNL     1     -12.353   4.445  20.092  1.00  0.00     0.000 C 
BRANCH   2   3
ATOM      3  C   UNL     1     -12.352   4.761  18.589  1.00  0.00     0.000 C 
BRANCH   3   4
ATOM      4  C   UNL     1     -13.060   3.675  17.756  1.00  0.00     0.000 C 
BRANCH   4   5
ATOM      5  C   UNL     1     -12.328   3.329  16.445  1.00  0.00     0.001 C 
BRANCH   5   6
ATOM      6  C   UNL     1     -12.211   1.807  16.197  1.00  0.00     0.009 C 
BRANCH   6   7
ATOM      7  C   UNL     1     -10.824   1.373  15.673  1.00  0.00     0.032 C 
ATOM      8  C   UNL     1      -9.932   2.571  15.323  1.00  0.00     0.014 C 
BRANCH   7   9
ATOM      9  C   UNL     1     -10.989   0.497  14.461  1.00  0.00     0.044 C 
ATOM     10  O   UNL     1     -10.000  -0.119  13.985  1.00  0.00    -0.550 OA
ATOM     11  O   UNL     1     -12.236   0.357  13.860  1.00  0.00    -0.550 OA
ENDBRANCH   7   9
ENDBRANCH   6   7
ENDBRANCH   5   6
ENDBRANCH   4   5
ENDBRANCH   3   4
ENDBRANCH   2   3
ENDBRANCH   1   2
BRANCH   1  12
ATOM     12  C   UNL     1     -11.149   2.300  20.679  1.00  0.00     0.000 C 
BRANCH  12  13
ATOM     13  C   UNL     1     -10.663   1.394  19.538  1.00  0.00    -0.000 C 
BRANCH  13  14
ATOM     14  C   UNL     1      -9.220   1.706  19.107  1.00  0.00    -0.000 C 
BRANCH  14  15
ATOM     15  C   UNL     1      -9.037   3.168  18.662  1.00  0.00    -0.000 C 
BRANCH  15  16
ATOM     16  C   UNL     1      -7.565   3.622  18.755  1.00  0.00    -0.000 C 
BRANCH  16  17
ATOM     17  C   UNL     1      -7.333   4.748  19.778  1.00  0.00    -0.000 C 
BRANCH  17  18
ATOM     18  C   UNL     1      -8.384   4.763  20.897  1.00  0.00    -0.003 C 
ATOM     19  C   UNL     1      -9.128   6.096  20.935  1.00  0.00     0.004 C 
ENDBRANCH  17  18
ENDBRANCH  16  17
ENDBRANCH  15  16
ENDBRANCH  14  15
ENDBRANCH  13  14
ENDBRANCH  12  13
ENDBRANCH   1  12
TORSDOF 14
ENDMDL
MODEL 7
REMARK VINA RESULT:    -3.775      3.787      6.517
REMARK INTER + INTRA:          -9.762
REMARK INTER:                  -7.989
REMARK INTRA:                  -1.773
REMARK UNBOUND:                -2.897
REMARK SMILES CCCCCCCCCCCCCC[C@H](C)C(=O)[O-]
REMARK SMILES IDX 9 1 10 2 11 3 12 4 13 5 14 6 15 7 16 8 17 9 18 10 19 11 8 12
REMARK SMILES IDX 7 13 6 14 5 15 4 16 3 17 2 18 1 19
REMARK H PARENT
REMARK Flexibility Score: inf
ROOT
ATOM      1  C   UNL     1     -11.029   2.039  19.458  1.00  0.00     0.000 C 
ENDROOT
BRANCH   1   2
ATOM      2  C   UNL     1      -9.621   2.470  19.887  1.00  0.00     0.000 C 
BRANCH   2   3
ATOM      3  C   UNL     1      -8.687   2.584  18.673  1.00  0.00     0.000 C 
BRANCH   3   4
ATOM      4  C   UNL     1      -8.206   4.028  18.431  1.00  0.00     0.000 C 
BRANCH   4   5
ATOM      5  C   UNL     1      -6.986   4.421  19.285  1.00  0.00     0.001 C 
BRANCH   5   6
ATOM      6  C   UNL     1      -5.646   3.913  18.702  1.00  0.00     0.009 C 
BRANCH   6   7
ATOM      7  C   UNL     1      -4.472   4.897  18.906  1.00  0.00     0.032 C 
ATOM      8  C   UNL     1      -4.504   5.564  20.287  1.00  0.00     0.014 C 
BRANCH   7   9
ATOM      9  C   UNL     1      -4.502   5.954  17.836  1.00  0.00     0.044 C 
ATOM     10  O   UNL     1      -4.973   7.095  18.086  1.00  0.00    -0.550 OA
ATOM     11  O   UNL     1      -4.007   5.681  16.565  1.00  0.00    -0.550 OA
ENDBRANCH   7   9
ENDBRANCH   6   7
ENDBRANCH   5   6
ENDBRANCH   4   5
ENDBRANCH   3   4
ENDBRANCH   2   3
ENDBRANCH   1   2
BRANCH   1  12
ATOM     12  C   UNL     1     -12.093   2.980  20.036  1.00  0.00     0.000 C 
BRANCH  12  13
ATOM     13  C   UNL     1     -12.622   3.938  18.958  1.00  0.00    -0.000 C 
BRANCH  13  14
ATOM     14  C   UNL     1     -12.584   3.324  17.549  1.00  0.00    -0.000 C 
BRANCH  14  15
ATOM     15  C   UNL     1     -11.811   4.195  16.543  1.00  0.00    -0.000 C 
BRANCH  15  16
ATOM     16  C   UNL     1     -10.785   3.374  15.733  1.00  0.00    -0.000 C 
BRANCH  16  17
ATOM     17  C   UNL     1     -11.083   1.864  15.716  1.00  0.00    -0.000 C 
BRANCH  17  18
ATOM     18  C   UNL     1      -9.824   1.010  15.508  1.00  0.00    -0.003 C 
ATOM     19  C   UNL     1      -9.744   0.488  14.076  1.00  0.00     0.004 C 
ENDBRANCH  17  18
ENDBRANCH  16  17
ENDBRANCH  15  16
ENDBRANCH  14  15
ENDBRANCH  13  14
ENDBRANCH  12  13
ENDBRANCH   1  12
TORSDOF 14
ENDMDL
MODEL 8
REMARK VINA RESULT:    -3.717      3.372      5.409
REMARK INTER + INTRA:          -9.656
REMARK INTER:                  -7.017
REMARK INTRA:                  -2.639
REMARK UNBOUND:                -2.897
REMARK SMILES CCCCCCCCCCCCCC[C@H](C)C(=O)[O-]
REMARK SMILES IDX 9 1 10 2 11 3 12 4 13 5 14 6 15 7 16 8 17 9 18 10 19 11 8 12
REMARK SMILES IDX 7 13 6 14 5 15 4 16 3 17 2 18 1 19
REMARK H PARENT
REMARK Flexibility Score: inf
ROOT
ATOM      1  C   UNL     1     -12.591   5.006  19.163  1.00  0.00     0.000 C 
ENDROOT
BRANCH   1   2
ATOM      2  C   UNL     1     -13.546   3.960  19.750  1.00  0.00     0.000 C 
BRANCH   2   3
ATOM      3  C   UNL     1     -13.238   3.707  21.234  1.00  0.00     0.000 C 
BRANCH   3   4
ATOM      4  C   UNL     1     -12.909   2.230  21.525  1.00  0.00     0.000 C 
BRANCH   4   5
ATOM      5  C   UNL     1     -11.781   1.664  20.641  1.00  0.00     0.001 C 
BRANCH   5   6
ATOM      6  C   UNL     1     -11.285   0.273  21.104  1.00  0.00     0.009 C 
BRANCH   6   7
ATOM      7  C   UNL     1      -9.764   0.219  21.370  1.00  0.00     0.032 C 
ATOM      8  C   UNL     1      -9.054  -0.813  20.484  1.00  0.00     0.014 C 
BRANCH   7   9
ATOM      9  C   UNL     1      -9.513  -0.102  22.818  1.00  0.00     0.044 C 
ATOM     10  O   UNL     1     -10.359   0.217  23.694  1.00  0.00    -0.550 OA
ATOM     11  O   UNL     1      -8.346  -0.756  23.200  1.00  0.00    -0.550 OA
ENDBRANCH   7   9
ENDBRANCH   6   7
ENDBRANCH   5   6
ENDBRANCH   4   5
ENDBRANCH   3   4
ENDBRANCH   2   3
ENDBRANCH   1   2
BRANCH   1  12
ATOM     12  C   UNL     1     -12.191   4.642  17.728  1.00  0.00     0.000 C 
BRANCH  12  13
ATOM     13  C   UNL     1     -12.868   3.337  17.283  1.00  0.00    -0.000 C 
BRANCH  13  14
ATOM     14  C   UNL     1     -11.856   2.233  16.935  1.00  0.00    -0.000 C 
BRANCH  14  15
ATOM     15  C   UNL     1     -10.400   2.728  16.978  1.00  0.00    -0.000 C 
BRANCH  15  16
ATOM     16  C   UNL     1      -9.541   1.921  17.974  1.00  0.00    -0.000 C 
BRANCH  16  17
ATOM     17  C   UNL     1      -8.485   2.770  18.703  1.00  0.00    -0.000 C 
BRANCH  17  18
ATOM     18  C   UNL     1      -9.082   4.011  19.383  1.00  0.00    -0.003 C 
ATOM     19  C   UNL     1      -9.023   3.887  20.903  1.00  0.00     0.004 C 
ENDBRANCH  17  18
ENDBRANCH  16  17
ENDBRANCH  15  16
ENDBRANCH  14  15
ENDBRANCH  13  14
ENDBRANCH  12  13
ENDBRANCH   1  12
TORSDOF 14
ENDMDL
MODEL 9
REMARK VINA RESULT:    -3.676      1.851      4.462
REMARK INTER + INTRA:          -9.582
REMARK INTER:                  -6.994
REMARK INTRA:                  -2.589
REMARK UNBOUND:                -2.897
REMARK SMILES CCCCCCCCCCCCCC[C@H](C)C(=O)[O-]
REMARK SMILES IDX 9 1 10 2 11 3 12 4 13 5 14 6 15 7 16 8 17 9 18 10 19 11 8 12
REMARK SMILES IDX 7 13 6 14 5 15 4 16 3 17 2 18 1 19
REMARK H PARENT
REMARK Flexibility Score: inf
ROOT
ATOM      1  C   UNL     1     -12.265   3.597  20.401  1.00  0.00     0.000 C 
ENDROOT
BRANCH   1   2
ATOM      2  C   UNL     1     -11.638   2.465  19.579  1.00  0.00     0.000 C 
BRANCH   2   3
ATOM      3  C   UNL     1     -10.230   2.128  20.092  1.00  0.00     0.000 C 
BRANCH   3   4
ATOM      4  C   UNL     1      -9.226   1.887  18.949  1.00  0.00     0.000 C 
BRANCH   4   5
ATOM      5  C   UNL     1      -9.870   1.307  17.675  1.00  0.00     0.001 C 
BRANCH   5   6
ATOM      6  C   UNL     1      -9.603   2.163  16.414  1.00  0.00     0.009 C 
BRANCH   6   7
ATOM      7  C   UNL     1     -10.733   2.082  15.364  1.00  0.00     0.032 C 
ATOM      8  C   UNL     1     -12.121   1.967  16.008  1.00  0.00     0.014 C 
BRANCH   7   9
ATOM      9  C   UNL     1     -10.501   0.905  14.457  1.00  0.00     0.044 C 
ATOM     10  O   UNL     1      -9.334   0.615  14.082  1.00  0.00    -0.550 OA
ATOM     11  O   UNL     1     -11.570   0.125  14.029  1.00  0.00    -0.550 OA
ENDBRANCH   7   9
ENDBRANCH   6   7
ENDBRANCH   5   6
ENDBRANCH   4   5
ENDBRANCH   3   4
ENDBRANCH   2   3
ENDBRANCH   1   2
BRANCH   1  12
ATOM     12  C   UNL     1     -11.920   4.967  19.805  1.00  0.00     0.000 C 
BRANCH  12  13
ATOM     13  C   UNL     1     -11.988   4.932  18.271  1.00  0.00    -0.000 C 
BRANCH  13  14
ATOM     14  C   UNL     1     -10.679   5.390  17.609  1.00  0.00    -0.000 C 
BRANCH  14  15
ATOM     15  C   UNL     1      -9.570   5.691  18.632  1.00  0.00    -0.000 C 
BRANCH  15  16
ATOM     16  C   UNL     1      -8.176   5.276  18.116  1.00  0.00    -0.000 C 
BRANCH  16  17
ATOM     17  C   UNL     1      -7.188   4.913  19.239  1.00  0.00    -0.000 C 
BRANCH  17  18
ATOM     18  C   UNL     1      -5.997   4.083  18.740  1.00  0.00    -0.003 C 
ATOM     19  C   UNL     1      -4.673   4.701  19.181  1.00  0.00     0.004 C 
ENDBRANCH  17  18
ENDBRANCH  16  17
ENDBRANCH  15  16
ENDBRANCH  14  15
ENDBRANCH  13  14
ENDBRANCH  12  13
ENDBRANCH   1  12
TORSDOF 14
ENDMDL
