MODEL 1
REMARK VINA RESULT:    -4.159      0.000      0.000
REMARK INTER + INTRA:          -5.222
REMARK INTER:                  -5.132
REMARK INTRA:                  -0.090
REMARK UNBOUND:                -0.090
REMARK SMILES CCCCCC(=O)[O-]
REMARK SMILES IDX 4 1 5 2 6 3 7 4 8 5 3 6 2 7 1 8
REMARK H PARENT
REMARK Flexibility Score: inf
ROOT
ATOM      1  C   UNL     1      -5.900   2.924  -1.209  1.00  0.00     0.006 C 
ENDROOT
BRANCH   1   2
ATOM      2  C   UNL     1      -5.179   1.633  -1.621  1.00  0.00     0.053 C 
BRANCH   2   3
ATOM      3  C   UNL     1      -5.275   1.432  -3.100  1.00  0.00     0.041 C 
ATOM      4  O   UNL     1      -6.401   1.397  -3.663  1.00  0.00    -0.550 OA
ATOM      5  O   UNL     1      -4.123   1.236  -3.852  1.00  0.00    -0.550 OA
ENDBRANCH   2   3
ENDBRANCH   1   2
BRANCH   1   6
ATOM      6  C   UNL     1      -5.555   3.362   0.223  1.00  0.00     0.000 C 
BRANCH   6   7
ATOM      7  C   UNL     1      -5.104   2.190   1.107  1.00  0.00    -0.003 C 
ATOM      8  C   UNL     1      -5.134   2.573   2.584  1.00  0.00     0.004 C 
ENDBRANCH   6   7
ENDBRANCH   1   6
TORSDOF 4
ENDMDL
MODEL 2
REMARK VINA RESULT:    -3.269      1.846      2.703
REMARK INTER + INTRA:          -4.123
REMARK INTER:                  -4.019
REMARK INTRA:                  -0.104
REMARK UNBOUND:                -0.090
REMARK SMILES CCCCCC(=O)[O-]
REMARK SMILES IDX 4 1 5 2 6 3 7 4 8 5 3 6 2 7 1 8
REMARK H PARENT
REMARK Flexibility Score: inf
ROOT
ATOM      1  C   UNL     1      -5.888   1.870  -2.643  1.00  0.00     0.006 C 
ENDROOT
BRANCH   1   2
ATOM      2  C   UNL     1      -7.246   2.584  -2.606  1.00  0.00     0.053 C 
BRANCH   2   3
ATOM      3  C   UNL     1      -8.063   2.212  -3.802  1.00  0.00     0.041 C 
ATOM      4  O   UNL     1      -7.832   1.138  -4.418  1.00  0.00    -0.550 OA
ATOM      5  O   UNL     1      -9.049   3.073  -4.267  1.00  0.00    -0.550 OA
ENDBRANCH   2   3
ENDBRANCH   1   2
BRANCH   1   6
ATOM      6  C   UNL     1      -5.242   1.755  -1.253  1.00  0.00     0.000 C 
BRANCH   6   7
ATOM      7  C   UNL     1      -5.675   2.884  -0.306  1.00  0.00    -0.003 C 
ATOM      8  C   UNL     1      -5.313   2.556   1.140  1.00  0.00     0.004 C 
ENDBRANCH   6   7
ENDBRANCH   1   6
TORSDOF 4
ENDMDL
MODEL 3
REMARK VINA RESULT:    -3.158      2.883      4.403
REMARK INTER + INTRA:          -3.986
REMARK INTER:                  -3.858
REMARK INTRA:                  -0.128
REMARK UNBOUND:                -0.090
REMARK SMILES CCCCCC(=O)[O-]
REMARK SMILES IDX 4 1 5 2 6 3 7 4 8 5 3 6 2 7 1 8
REMARK H PARENT
REMARK Flexibility Score: inf
ROOT
ATOM      1  C   UNL     1      -6.072   2.447  -1.762  1.00  0.00     0.006 C 
ENDROOT
BRANCH   1   2
ATOM      2  C   UNL     1      -5.596   1.866  -0.424  1.00  0.00     0.053 C 
BRANCH   2   3
ATOM      3  C   UNL     1      -5.240   2.966   0.525  1.00  0.00     0.041 C 
ATOM      4  O   UNL     1      -5.057   4.137   0.098  1.00  0.00    -0.550 OA
ATOM      5  O   UNL     1      -5.060   2.689   1.874  1.00  0.00    -0.550 OA
ENDBRANCH   2   3
ENDBRANCH   1   2
BRANCH   1   6
ATOM      6  C   UNL     1      -5.551   1.654  -2.971  1.00  0.00     0.000 C 
BRANCH   6   7
ATOM      7  C   UNL     1      -4.332   0.785  -2.626  1.00  0.00    -0.003 C 
ATOM      8  C   UNL     1      -3.476   0.525  -3.862  1.00  0.00     0.004 C 
ENDBRANCH   6   7
ENDBRANCH   1   6
TORSDOF 4
ENDMDL
MODEL 4
REMARK VINA RESULT:    -3.060     12.559     13.305
REMARK INTER + INTRA:          -3.866
REMARK INTER:                  -3.781
REMARK INTRA:                  -0.085
REMARK UNBOUND:                -0.090
REMARK SMILES CCCCCC(=O)[O-]
REMARK SMILES IDX 4 1 5 2 6 3 7 4 8 5 3 6 2 7 1 8
REMARK H PARENT
REMARK Flexibility Score: inf
ROOT
ATOM      1  C   UNL     1       4.315   8.334  -3.676  1.00  0.00     0.006 C 
ENDROOT
BRANCH   1   2
ATOM      2  C   UNL     1       4.848   7.080  -2.970  1.00  0.00     0.053 C 
BRANCH   2   3
ATOM      3  C   UNL     1       6.314   7.217  -2.702  1.00  0.00     0.041 C 
ATOM      4  O   UNL     1       6.738   8.135  -1.951  1.00  0.00    -0.550 OA
ATOM      5  O   UNL     1       7.217   6.361  -3.321  1.00  0.00    -0.550 OA
ENDBRANCH   2   3
ENDBRANCH   1   2
BRANCH   1   6
ATOM      6  C   UNL     1       5.117   8.688  -4.939  1.00  0.00     0.000 C 
BRANCH   6   7
ATOM      7  C   UNL     1       4.216   9.057  -6.127  1.00  0.00    -0.003 C 
ATOM      8  C   UNL     1       5.004   9.057  -7.433  1.00  0.00     0.004 C 
ENDBRANCH   6   7
ENDBRANCH   1   6
TORSDOF 4
ENDMDL
MODEL 5
REMARK VINA RESULT:    -3.057     12.505     13.287
REMARK INTER + INTRA:          -3.862
REMARK INTER:                  -3.761
REMARK INTRA:                  -0.101
REMARK UNBOUND:                -0.090
REMARK SMILES CCCCCC(=O)[O-]
REMARK SMILES IDX 4 1 5 2 6 3 7 4 8 5 3 6 2 7 1 8
REMARK H PARENT
REMARK Flexibility Score: inf
ROOT
ATOM      1  C   UNL     1       4.856   8.639  -4.810  1.00  0.00     0.006 C 
ENDROOT
BRANCH   1   2
ATOM      2  C   UNL     1       5.595   8.483  -3.474  1.00  0.00     0.053 C 
BRANCH   2   3
ATOM      3  C   UNL     1       5.710   7.037  -3.108  1.00  0.00     0.041 C 
ATOM      4  O   UNL     1       4.738   6.438  -2.578  1.00  0.00    -0.550 OA
ATOM      5  O   UNL     1       6.909   6.363  -3.307  1.00  0.00    -0.550 OA
ENDBRANCH   2   3
ENDBRANCH   1   2
BRANCH   1   6
ATOM      6  C   UNL     1       5.796   9.021  -5.964  1.00  0.00     0.000 C 
BRANCH   6   7
ATOM      7  C   UNL     1       5.097   8.983  -7.332  1.00  0.00    -0.003 C 
ATOM      8  C   UNL     1       3.581   9.042  -7.175  1.00  0.00     0.004 C 
ENDBRANCH   6   7
ENDBRANCH   1   6
TORSDOF 4
ENDMDL
MODEL 6
REMARK VINA RESULT:    -3.024     12.538     13.267
REMARK INTER + INTRA:          -3.822
REMARK INTER:                  -3.712
REMARK INTRA:                  -0.110
REMARK UNBOUND:                -0.090
REMARK SMILES CCCCCC(=O)[O-]
REMARK SMILES IDX 4 1 5 2 6 3 7 4 8 5 3 6 2 7 1 8
REMARK H PARENT
REMARK Flexibility Score: inf
ROOT
ATOM      1  C   UNL     1       4.404   8.399  -3.694  1.00  0.00     0.006 C 
ENDROOT
BRANCH   1   2
ATOM      2  C   UNL     1       4.886   7.130  -2.979  1.00  0.00     0.053 C 
BRANCH   2   3
ATOM      3  C   UNL     1       6.366   7.181  -2.769  1.00  0.00     0.041 C 
ATOM      4  O   UNL     1       7.113   6.320  -3.306  1.00  0.00    -0.550 OA
ATOM      5  O   UNL     1       6.919   8.150  -1.941  1.00  0.00    -0.550 OA
ENDBRANCH   2   3
ENDBRANCH   1   2
BRANCH   1   6
ATOM      6  C   UNL     1       5.165   8.667  -5.001  1.00  0.00     0.000 C 
BRANCH   6   7
ATOM      7  C   UNL     1       4.474   9.718  -5.883  1.00  0.00    -0.003 C 
ATOM      8  C   UNL     1       3.810   9.068  -7.093  1.00  0.00     0.004 C 
ENDBRANCH   6   7
ENDBRANCH   1   6
TORSDOF 4
ENDMDL
MODEL 7
REMARK VINA RESULT:    -2.949     13.516     13.876
REMARK INTER + INTRA:          -3.729
REMARK INTER:                  -3.677
REMARK INTRA:                  -0.052
REMARK UNBOUND:                -0.090
REMARK SMILES CCCCCC(=O)[O-]
REMARK SMILES IDX 4 1 5 2 6 3 7 4 8 5 3 6 2 7 1 8
REMARK H PARENT
REMARK Flexibility Score: inf
ROOT
ATOM      1  C   UNL     1       7.572   8.443  -1.234  1.00  0.00     0.006 C 
ENDROOT
BRANCH   1   2
ATOM      2  C   UNL     1       6.533   8.412  -2.363  1.00  0.00     0.053 C 
BRANCH   2   3
ATOM      3  C   UNL     1       6.388   7.023  -2.898  1.00  0.00     0.041 C 
ATOM      4  O   UNL     1       7.394   6.402  -3.332  1.00  0.00    -0.550 OA
ATOM      5  O   UNL     1       5.132   6.430  -2.965  1.00  0.00    -0.550 OA
ENDBRANCH   2   3
ENDBRANCH   1   2
BRANCH   1   6
ATOM      6  C   UNL     1       7.402   9.658  -0.308  1.00  0.00     0.000 C 
BRANCH   6   7
ATOM      7  C   UNL     1       8.307   9.587   0.931  1.00  0.00    -0.003 C 
ATOM      8  C   UNL     1       7.483   9.417   2.204  1.00  0.00     0.004 C 
ENDBRANCH   6   7
ENDBRANCH   1   6
TORSDOF 4
ENDMDL
MODEL 8
REMARK VINA RESULT:    -2.892     13.249     14.415
REMARK INTER + INTRA:          -3.658
REMARK INTER:                  -3.555
REMARK INTRA:                  -0.103
REMARK UNBOUND:                -0.090
REMARK SMILES CCCCCC(=O)[O-]
REMARK SMILES IDX 4 1 5 2 6 3 7 4 8 5 3 6 2 7 1 8
REMARK H PARENT
REMARK Flexibility Score: inf
ROOT
ATOM      1  C   UNL     1      -2.832  -7.655   9.379  1.00  0.00     0.006 C 
ENDROOT
BRANCH   1   2
ATOM      2  C   UNL     1      -2.891  -8.422   8.051  1.00  0.00     0.053 C 
BRANCH   2   3
ATOM      3  C   UNL     1      -3.893  -7.796   7.133  1.00  0.00     0.041 C 
ATOM      4  O   UNL     1      -5.103  -7.716   7.475  1.00  0.00    -0.550 OA
ATOM      5  O   UNL     1      -3.501  -7.345   5.879  1.00  0.00    -0.550 OA
ENDBRANCH   2   3
ENDBRANCH   1   2
BRANCH   1   6
ATOM      6  C   UNL     1      -1.451  -7.740  10.050  1.00  0.00     0.000 C 
BRANCH   6   7
ATOM      7  C   UNL     1      -0.571  -8.847   9.451  1.00  0.00    -0.003 C 
ATOM      8  C   UNL     1       0.908  -8.562   9.692  1.00  0.00     0.004 C 
ENDBRANCH   6   7
ENDBRANCH   1   6
TORSDOF 4
ENDMDL
MODEL 9
REMARK VINA RESULT:    -2.802     13.206     13.715
REMARK INTER + INTRA:          -3.547
REMARK INTER:                  -3.306
REMARK INTRA:                  -0.241
REMARK UNBOUND:                -0.090
REMARK SMILES CCCCCC(=O)[O-]
REMARK SMILES IDX 4 1 5 2 6 3 7 4 8 5 3 6 2 7 1 8
REMARK H PARENT
REMARK Flexibility Score: inf
ROOT
ATOM      1  C   UNL     1       6.782   8.946  -1.970  1.00  0.00     0.006 C 
ENDROOT
BRANCH   1   2
ATOM      2  C   UNL     1       7.815   8.338  -2.928  1.00  0.00     0.053 C 
BRANCH   2   3
ATOM      3  C   UNL     1       7.753   6.845  -2.882  1.00  0.00     0.041 C 
ATOM      4  O   UNL     1       6.766   6.236  -3.373  1.00  0.00    -0.550 OA
ATOM      5  O   UNL     1       8.761   6.125  -2.252  1.00  0.00    -0.550 OA
ENDBRANCH   2   3
ENDBRANCH   1   2
BRANCH   1   6
ATOM      6  C   UNL     1       5.697   9.751  -2.703  1.00  0.00     0.000 C 
BRANCH   6   7
ATOM      7  C   UNL     1       4.427   8.927  -2.966  1.00  0.00    -0.003 C 
ATOM      8  C   UNL     1       4.301   8.569  -4.444  1.00  0.00     0.004 C 
ENDBRANCH   6   7
ENDBRANCH   1   6
TORSDOF 4
ENDMDL
