MODEL 1
REMARK VINA RESULT:     0.580      0.000      0.000
REMARK INTER + INTRA:           0.212
REMARK INTER:                   1.054
REMARK INTRA:                  -0.842
REMARK UNBOUND:                -0.842
REMARK SMILES CCCCCC=CCC=CCCCCCCCC(=O)[O-]
REMARK SMILES IDX 11 1 12 2 13 3 14 4 15 5 16 6 17 7 18 8 19 9 20 10 10 11
REMARK SMILES IDX 9 12 8 13 7 14 6 15 5 16 4 17 3 18 2 19 1 20
REMARK H PARENT
REMARK Flexibility Score: inf
ROOT
ATOM      1  C   UNL     1     137.641 126.920 129.728  1.00  0.00     0.027 C 
ENDROOT
BRANCH   1   2
ATOM      2  C   UNL     1     138.335 128.038 130.524  1.00  0.00     0.004 C 
BRANCH   2   3
ATOM      3  C   UNL     1     139.792 128.247 130.075  1.00  0.00     0.000 C 
BRANCH   3   4
ATOM      4  C   UNL     1     140.792 128.110 131.234  1.00  0.00     0.000 C 
BRANCH   4   5
ATOM      5  C   UNL     1     142.253 128.114 130.761  1.00  0.00     0.000 C 
BRANCH   5   6
ATOM      6  C   UNL     1     142.335 128.269 129.235  1.00  0.00     0.006 C 
BRANCH   6   7
ATOM      7  C   UNL     1     143.771 128.137 128.712  1.00  0.00     0.053 C 
BRANCH   7   8
ATOM      8  C   UNL     1     143.862 128.462 127.252  1.00  0.00     0.041 C 
ATOM      9  O   UNL     1     144.035 129.651 126.876  1.00  0.00    -0.550 OA
ATOM     10  O   UNL     1     143.788 127.446 126.308  1.00  0.00    -0.550 OA
ENDBRANCH   7   8
ENDBRANCH   6   7
ENDBRANCH   5   6
ENDBRANCH   4   5
ENDBRANCH   3   4
ENDBRANCH   2   3
ENDBRANCH   1   2
BRANCH   1  11
ATOM     11  C   UNL     1     136.265 127.316 129.261  1.00  0.00    -0.031 C 
ATOM     12  C   UNL     1     135.434 128.021 130.042  1.00  0.00    -0.027 C 
BRANCH  12  13
ATOM     13  C   UNL     1     134.052 128.393 129.584  1.00  0.00     0.054 C 
BRANCH  13  14
ATOM     14  C   UNL     1     134.077 129.542 128.607  1.00  0.00    -0.027 C 
ATOM     15  C   UNL     1     133.275 129.655 127.530  1.00  0.00    -0.031 C 
BRANCH  15  16
ATOM     16  C   UNL     1     132.264 128.622 127.091  1.00  0.00     0.027 C 
BRANCH  16  17
ATOM     17  C   UNL     1     130.959 129.267 126.590  1.00  0.00     0.004 C 
BRANCH  17  18
ATOM     18  C   UNL     1     130.971 129.658 125.101  1.00  0.00     0.000 C 
BRANCH  18  19
ATOM     19  C   UNL     1     130.700 131.152 124.875  1.00  0.00    -0.003 C 
ATOM     20  C   UNL     1     131.933 131.989 125.201  1.00  0.00     0.004 C 
ENDBRANCH  18  19
ENDBRANCH  17  18
ENDBRANCH  16  17
ENDBRANCH  15  16
ENDBRANCH  13  14
ENDBRANCH  12  13
ENDBRANCH   1  11
TORSDOF 14
ENDMDL
MODEL 2
REMARK VINA RESULT:     0.714      1.229      2.465
REMARK INTER + INTRA:           0.456
REMARK INTER:                   1.194
REMARK INTRA:                  -0.738
REMARK UNBOUND:                -0.842
REMARK SMILES CCCCCC=CCC=CCCCCCCCC(=O)[O-]
REMARK SMILES IDX 11 1 12 2 13 3 14 4 15 5 16 6 17 7 18 8 19 9 20 10 10 11
REMARK SMILES IDX 9 12 8 13 7 14 6 15 5 16 4 17 3 18 2 19 1 20
REMARK H PARENT
REMARK Flexibility Score: inf
ROOT
ATOM      1  C   UNL     1     139.406 128.127 131.048  1.00  0.00     0.027 C 
ENDROOT
BRANCH   1   2
ATOM      2  C   UNL     1     140.286 128.350 129.808  1.00  0.00     0.004 C 
BRANCH   2   3
ATOM      3  C   UNL     1     141.764 128.563 130.179  1.00  0.00     0.000 C 
BRANCH   3   4
ATOM      4  C   UNL     1     142.725 127.873 129.198  1.00  0.00     0.000 C 
BRANCH   4   5
ATOM      5  C   UNL     1     143.150 128.788 128.040  1.00  0.00     0.000 C 
BRANCH   5   6
ATOM      6  C   UNL     1     144.125 128.065 127.100  1.00  0.00     0.006 C 
BRANCH   6   7
ATOM      7  C   UNL     1     143.635 128.058 125.646  1.00  0.00     0.053 C 
BRANCH   7   8
ATOM      8  C   UNL     1     143.182 129.417 125.206  1.00  0.00     0.041 C 
ATOM      9  O   UNL     1     144.010 130.360 125.105  1.00  0.00    -0.550 OA
ATOM     10  O   UNL     1     141.850 129.633 124.878  1.00  0.00    -0.550 OA
ENDBRANCH   7   8
ENDBRANCH   6   7
ENDBRANCH   5   6
ENDBRANCH   4   5
ENDBRANCH   3   4
ENDBRANCH   2   3
ENDBRANCH   1   2
BRANCH   1  11
ATOM     11  C   UNL     1     138.002 127.717 130.691  1.00  0.00    -0.031 C 
ATOM     12  C   UNL     1     137.658 127.410 129.432  1.00  0.00    -0.027 C 
BRANCH  12  13
ATOM     13  C   UNL     1     136.250 127.026 129.072  1.00  0.00     0.054 C 
BRANCH  13  14
ATOM     14  C   UNL     1     135.239 127.739 129.934  1.00  0.00    -0.027 C 
ATOM     15  C   UNL     1     134.380 128.680 129.495  1.00  0.00    -0.031 C 
BRANCH  15  16
ATOM     16  C   UNL     1     134.331 129.217 128.085  1.00  0.00     0.027 C 
BRANCH  16  17
ATOM     17  C   UNL     1     132.886 129.412 127.589  1.00  0.00     0.004 C 
BRANCH  17  18
ATOM     18  C   UNL     1     132.709 130.556 126.575  1.00  0.00     0.000 C 
BRANCH  18  19
ATOM     19  C   UNL     1     132.023 130.102 125.278  1.00  0.00    -0.003 C 
ATOM     20  C   UNL     1     130.600 130.645 125.191  1.00  0.00     0.004 C 
ENDBRANCH  18  19
ENDBRANCH  17  18
ENDBRANCH  16  17
ENDBRANCH  15  16
ENDBRANCH  13  14
ENDBRANCH  12  13
ENDBRANCH   1  11
TORSDOF 14
ENDMDL
MODEL 3
REMARK VINA RESULT:     1.056      4.306      9.740
REMARK INTER + INTRA:           1.079
REMARK INTER:                   1.757
REMARK INTRA:                  -0.678
REMARK UNBOUND:                -0.842
REMARK SMILES CCCCCC=CCC=CCCCCCCCC(=O)[O-]
REMARK SMILES IDX 11 1 12 2 13 3 14 4 15 5 16 6 17 7 18 8 19 9 20 10 10 11
REMARK SMILES IDX 9 12 8 13 7 14 6 15 5 16 4 17 3 18 2 19 1 20
REMARK H PARENT
REMARK Flexibility Score: inf
ROOT
ATOM      1  C   UNL     1     136.547 127.337 131.014  1.00  0.00     0.027 C 
ENDROOT
BRANCH   1   2
ATOM      2  C   UNL     1     135.821 127.486 129.667  1.00  0.00     0.004 C 
BRANCH   2   3
ATOM      3  C   UNL     1     134.669 128.503 129.742  1.00  0.00     0.000 C 
BRANCH   3   4
ATOM      4  C   UNL     1     134.120 128.877 128.355  1.00  0.00     0.000 C 
BRANCH   4   5
ATOM      5  C   UNL     1     132.732 128.279 128.085  1.00  0.00     0.000 C 
BRANCH   5   6
ATOM      6  C   UNL     1     132.212 128.703 126.704  1.00  0.00     0.006 C 
BRANCH   6   7
ATOM      7  C   UNL     1     132.463 130.190 126.419  1.00  0.00     0.053 C 
BRANCH   7   8
ATOM      8  C   UNL     1     131.518 130.725 125.386  1.00  0.00     0.041 C 
ATOM      9  O   UNL     1     130.577 130.009 124.955  1.00  0.00    -0.550 OA
ATOM     10  O   UNL     1     131.661 132.027 124.922  1.00  0.00    -0.550 OA
ENDBRANCH   7   8
ENDBRANCH   6   7
ENDBRANCH   5   6
ENDBRANCH   4   5
ENDBRANCH   3   4
ENDBRANCH   2   3
ENDBRANCH   1   2
BRANCH   1  11
ATOM     11  C   UNL     1     137.835 128.115 131.061  1.00  0.00    -0.031 C 
ATOM     12  C   UNL     1     138.604 128.270 129.973  1.00  0.00    -0.027 C 
BRANCH  12  13
ATOM     13  C   UNL     1     139.902 129.025 130.028  1.00  0.00     0.054 C 
BRANCH  13  14
ATOM     14  C   UNL     1     141.054 128.129 130.410  1.00  0.00    -0.027 C 
ATOM     15  C   UNL     1     142.220 128.047 129.739  1.00  0.00    -0.031 C 
BRANCH  15  16
ATOM     16  C   UNL     1     142.539 128.790 128.464  1.00  0.00     0.027 C 
BRANCH  16  17
ATOM     17  C   UNL     1     143.921 128.407 127.902  1.00  0.00     0.004 C 
BRANCH  17  18
ATOM     18  C   UNL     1     143.887 127.783 126.496  1.00  0.00     0.000 C 
BRANCH  18  19
ATOM     19  C   UNL     1     143.998 128.828 125.377  1.00  0.00    -0.003 C 
ATOM     20  C   UNL     1     142.618 129.247 124.879  1.00  0.00     0.004 C 
ENDBRANCH  18  19
ENDBRANCH  17  18
ENDBRANCH  16  17
ENDBRANCH  15  16
ENDBRANCH  13  14
ENDBRANCH  12  13
ENDBRANCH   1  11
TORSDOF 14
ENDMDL
MODEL 4
REMARK VINA RESULT:     1.741      3.590      8.123
REMARK INTER + INTRA:           2.324
REMARK INTER:                   3.712
REMARK INTRA:                  -1.389
REMARK UNBOUND:                -0.842
REMARK SMILES CCCCCC=CCC=CCCCCCCCC(=O)[O-]
REMARK SMILES IDX 11 1 12 2 13 3 14 4 15 5 16 6 17 7 18 8 19 9 20 10 10 11
REMARK SMILES IDX 9 12 8 13 7 14 6 15 5 16 4 17 3 18 2 19 1 20
REMARK H PARENT
REMARK Flexibility Score: inf
ROOT
ATOM      1  C   UNL     1     138.489 127.479 132.031  1.00  0.00     0.027 C 
ENDROOT
BRANCH   1   2
ATOM      2  C   UNL     1     137.468 127.069 130.958  1.00  0.00     0.004 C 
BRANCH   2   3
ATOM      3  C   UNL     1     136.237 127.993 130.950  1.00  0.00     0.000 C 
BRANCH   3   4
ATOM      4  C   UNL     1     135.435 127.896 129.642  1.00  0.00     0.000 C 
BRANCH   4   5
ATOM      5  C   UNL     1     136.257 127.312 128.483  1.00  0.00     0.000 C 
BRANCH   5   6
ATOM      6  C   UNL     1     136.396 128.330 127.343  1.00  0.00     0.006 C 
BRANCH   6   7
ATOM      7  C   UNL     1     137.823 128.883 127.227  1.00  0.00     0.053 C 
BRANCH   7   8
ATOM      8  C   UNL     1     137.982 129.760 126.022  1.00  0.00     0.041 C 
ATOM      9  O   UNL     1     137.434 130.893 125.984  1.00  0.00    -0.550 OA
ATOM     10  O   UNL     1     138.762 129.337 124.953  1.00  0.00    -0.550 OA
ENDBRANCH   7   8
ENDBRANCH   6   7
ENDBRANCH   5   6
ENDBRANCH   4   5
ENDBRANCH   3   4
ENDBRANCH   2   3
ENDBRANCH   1   2
BRANCH   1  11
ATOM     11  C   UNL     1     139.703 128.149 131.444  1.00  0.00    -0.031 C 
ATOM     12  C   UNL     1     139.914 128.185 130.120  1.00  0.00    -0.027 C 
BRANCH  12  13
ATOM     13  C   UNL     1     141.139 128.833 129.537  1.00  0.00     0.054 C 
BRANCH  13  14
ATOM     14  C   UNL     1     142.395 128.082 129.902  1.00  0.00    -0.027 C 
ATOM     15  C   UNL     1     143.523 128.065 129.166  1.00  0.00    -0.031 C 
BRANCH  15  16
ATOM     16  C   UNL     1     143.693 128.742 127.826  1.00  0.00     0.027 C 
BRANCH  16  17
ATOM     17  C   UNL     1     143.839 127.725 126.679  1.00  0.00     0.004 C 
BRANCH  17  18
ATOM     18  C   UNL     1     144.124 128.354 125.302  1.00  0.00     0.000 C 
BRANCH  18  19
ATOM     19  C   UNL     1     143.861 129.866 125.272  1.00  0.00    -0.003 C 
ATOM     20  C   UNL     1     142.419 130.164 124.875  1.00  0.00     0.004 C 
ENDBRANCH  18  19
ENDBRANCH  17  18
ENDBRANCH  16  17
ENDBRANCH  15  16
ENDBRANCH  13  14
ENDBRANCH  12  13
ENDBRANCH   1  11
TORSDOF 14
ENDMDL
MODEL 5
REMARK VINA RESULT:     2.164      1.384      2.727
REMARK INTER + INTRA:           3.092
REMARK INTER:                   3.603
REMARK INTRA:                  -0.511
REMARK UNBOUND:                -0.842
REMARK SMILES CCCCCC=CCC=CCCCCCCCC(=O)[O-]
REMARK SMILES IDX 11 1 12 2 13 3 14 4 15 5 16 6 17 7 18 8 19 9 20 10 10 11
REMARK SMILES IDX 9 12 8 13 7 14 6 15 5 16 4 17 3 18 2 19 1 20
REMARK H PARENT
REMARK Flexibility Score: inf
ROOT
ATOM      1  C   UNL     1     135.388 128.246 130.576  1.00  0.00     0.027 C 
ENDROOT
BRANCH   1   2
ATOM      2  C   UNL     1     136.075 126.871 130.601  1.00  0.00     0.004 C 
BRANCH   2   3
ATOM      3  C   UNL     1     137.004 126.668 129.391  1.00  0.00     0.000 C 
BRANCH   3   4
ATOM      4  C   UNL     1     138.338 127.415 129.540  1.00  0.00     0.000 C 
BRANCH   4   5
ATOM      5  C   UNL     1     138.586 127.910 130.973  1.00  0.00     0.000 C 
BRANCH   5   6
ATOM      6  C   UNL     1     140.059 128.292 131.174  1.00  0.00     0.006 C 
BRANCH   6   7
ATOM      7  C   UNL     1     140.776 128.564 129.845  1.00  0.00     0.053 C 
BRANCH   7   8
ATOM      8  C   UNL     1     142.238 128.243 129.927  1.00  0.00     0.041 C 
ATOM      9  O   UNL     1     142.724 127.762 130.985  1.00  0.00    -0.550 OA
ATOM     10  O   UNL     1     143.057 128.447 128.824  1.00  0.00    -0.550 OA
ENDBRANCH   7   8
ENDBRANCH   6   7
ENDBRANCH   5   6
ENDBRANCH   4   5
ENDBRANCH   3   4
ENDBRANCH   2   3
ENDBRANCH   1   2
BRANCH   1  11
ATOM     11  C   UNL     1     134.360 128.356 129.481  1.00  0.00    -0.031 C 
ATOM     12  C   UNL     1     134.150 129.508 128.827  1.00  0.00    -0.027 C 
BRANCH  12  13
ATOM     13  C   UNL     1     133.107 129.622 127.752  1.00  0.00     0.054 C 
BRANCH  13  14
ATOM     14  C   UNL     1     132.514 128.280 127.403  1.00  0.00    -0.027 C 
ATOM     15  C   UNL     1     131.330 128.097 126.786  1.00  0.00    -0.031 C 
BRANCH  15  16
ATOM     16  C   UNL     1     130.376 129.202 126.400  1.00  0.00     0.027 C 
BRANCH  16  17
ATOM     17  C   UNL     1     130.766 129.863 125.065  1.00  0.00     0.004 C 
BRANCH  17  18
ATOM     18  C   UNL     1     130.420 131.360 124.969  1.00  0.00     0.000 C 
BRANCH  18  19
ATOM     19  C   UNL     1     131.664 132.255 124.876  1.00  0.00    -0.003 C 
ATOM     20  C   UNL     1     132.897 131.538 125.415  1.00  0.00     0.004 C 
ENDBRANCH  18  19
ENDBRANCH  17  18
ENDBRANCH  16  17
ENDBRANCH  15  16
ENDBRANCH  13  14
ENDBRANCH  12  13
ENDBRANCH   1  11
TORSDOF 14
ENDMDL
MODEL 6
REMARK VINA RESULT:     2.198      1.691      2.636
REMARK INTER + INTRA:           3.155
REMARK INTER:                   3.916
REMARK INTRA:                  -0.760
REMARK UNBOUND:                -0.842
REMARK SMILES CCCCCC=CCC=CCCCCCCCC(=O)[O-]
REMARK SMILES IDX 11 1 12 2 13 3 14 4 15 5 16 6 17 7 18 8 19 9 20 10 10 11
REMARK SMILES IDX 9 12 8 13 7 14 6 15 5 16 4 17 3 18 2 19 1 20
REMARK H PARENT
REMARK Flexibility Score: inf
ROOT
ATOM      1  C   UNL     1     137.194 127.048 129.047  1.00  0.00     0.027 C 
ENDROOT
BRANCH   1   2
ATOM      2  C   UNL     1     136.893 126.473 130.441  1.00  0.00     0.004 C 
BRANCH   2   3
ATOM      3  C   UNL     1     137.125 127.508 131.555  1.00  0.00     0.000 C 
BRANCH   3   4
ATOM      4  C   UNL     1     138.606 127.627 131.951  1.00  0.00     0.000 C 
BRANCH   4   5
ATOM      5  C   UNL     1     139.128 129.070 131.868  1.00  0.00     0.000 C 
BRANCH   5   6
ATOM      6  C   UNL     1     139.626 129.391 130.451  1.00  0.00     0.006 C 
BRANCH   6   7
ATOM      7  C   UNL     1     140.303 128.186 129.785  1.00  0.00     0.053 C 
BRANCH   7   8
ATOM      8  C   UNL     1     141.790 128.212 129.969  1.00  0.00     0.041 C 
ATOM      9  O   UNL     1     142.544 128.498 129.002  1.00  0.00    -0.550 OA
ATOM     10  O   UNL     1     142.340 127.950 131.217  1.00  0.00    -0.550 OA
ENDBRANCH   7   8
ENDBRANCH   6   7
ENDBRANCH   5   6
ENDBRANCH   4   5
ENDBRANCH   3   4
ENDBRANCH   2   3
ENDBRANCH   1   2
BRANCH   1  11
ATOM     11  C   UNL     1     135.976 127.652 128.400  1.00  0.00    -0.031 C 
ATOM     12  C   UNL     1     135.017 128.247 129.124  1.00  0.00    -0.027 C 
BRANCH  12  13
ATOM     13  C   UNL     1     133.790 128.826 128.478  1.00  0.00     0.054 C 
BRANCH  13  14
ATOM     14  C   UNL     1     133.959 130.294 128.174  1.00  0.00    -0.027 C 
ATOM     15  C   UNL     1     133.486 130.912 127.075  1.00  0.00    -0.031 C 
BRANCH  15  16
ATOM     16  C   UNL     1     132.765 130.226 125.938  1.00  0.00     0.027 C 
BRANCH  16  17
ATOM     17  C   UNL     1     132.026 131.228 125.033  1.00  0.00     0.004 C 
BRANCH  17  18
ATOM     18  C   UNL     1     130.495 131.063 125.014  1.00  0.00     0.000 C 
BRANCH  18  19
ATOM     19  C   UNL     1     130.053 129.597 125.128  1.00  0.00    -0.003 C 
ATOM     20  C   UNL     1     129.774 129.219 126.580  1.00  0.00     0.004 C 
ENDBRANCH  18  19
ENDBRANCH  17  18
ENDBRANCH  16  17
ENDBRANCH  15  16
ENDBRANCH  13  14
ENDBRANCH  12  13
ENDBRANCH   1  11
TORSDOF 14
ENDMDL
MODEL 7
REMARK VINA RESULT:     2.549      4.304      9.771
REMARK INTER + INTRA:           3.794
REMARK INTER:                   3.909
REMARK INTRA:                  -0.116
REMARK UNBOUND:                -0.842
REMARK SMILES CCCCCC=CCC=CCCCCCCCC(=O)[O-]
REMARK SMILES IDX 11 1 12 2 13 3 14 4 15 5 16 6 17 7 18 8 19 9 20 10 10 11
REMARK SMILES IDX 9 12 8 13 7 14 6 15 5 16 4 17 3 18 2 19 1 20
REMARK H PARENT
REMARK Flexibility Score: inf
ROOT
ATOM      1  C   UNL     1     134.999 127.456 130.509  1.00  0.00     0.027 C 
ENDROOT
BRANCH   1   2
ATOM      2  C   UNL     1     134.319 128.724 129.969  1.00  0.00     0.004 C 
BRANCH   2   3
ATOM      3  C   UNL     1     134.567 128.916 128.463  1.00  0.00     0.000 C 
BRANCH   3   4
ATOM      4  C   UNL     1     134.097 130.290 127.957  1.00  0.00     0.000 C 
BRANCH   4   5
ATOM      5  C   UNL     1     132.945 130.188 126.947  1.00  0.00     0.000 C 
BRANCH   5   6
ATOM      6  C   UNL     1     132.816 131.482 126.131  1.00  0.00     0.006 C 
BRANCH   6   7
ATOM      7  C   UNL     1     131.710 131.395 125.071  1.00  0.00     0.053 C 
BRANCH   7   8
ATOM      8  C   UNL     1     130.999 130.077 125.118  1.00  0.00     0.041 C 
ATOM      9  O   UNL     1     129.762 130.031 125.348  1.00  0.00    -0.550 OA
ATOM     10  O   UNL     1     131.698 128.901 124.876  1.00  0.00    -0.550 OA
ENDBRANCH   7   8
ENDBRANCH   6   7
ENDBRANCH   5   6
ENDBRANCH   4   5
ENDBRANCH   3   4
ENDBRANCH   2   3
ENDBRANCH   1   2
BRANCH   1  11
ATOM     11  C   UNL     1     136.501 127.533 130.434  1.00  0.00    -0.031 C 
ATOM     12  C   UNL     1     137.250 127.736 131.528  1.00  0.00    -0.027 C 
BRANCH  12  13
ATOM     13  C   UNL     1     138.747 127.837 131.447  1.00  0.00     0.054 C 
BRANCH  13  14
ATOM     14  C   UNL     1     139.200 128.356 130.106  1.00  0.00    -0.027 C 
ATOM     15  C   UNL     1     140.486 128.474 129.720  1.00  0.00    -0.031 C 
BRANCH  15  16
ATOM     16  C   UNL     1     141.682 128.166 130.589  1.00  0.00     0.027 C 
BRANCH  16  17
ATOM     17  C   UNL     1     142.988 128.107 129.776  1.00  0.00     0.004 C 
BRANCH  17  18
ATOM     18  C   UNL     1     142.853 128.583 128.318  1.00  0.00     0.000 C 
BRANCH  18  19
ATOM     19  C   UNL     1     144.051 128.179 127.446  1.00  0.00    -0.003 C 
ATOM     20  C   UNL     1     143.912 128.735 126.032  1.00  0.00     0.004 C 
ENDBRANCH  18  19
ENDBRANCH  17  18
ENDBRANCH  16  17
ENDBRANCH  15  16
ENDBRANCH  13  14
ENDBRANCH  12  13
ENDBRANCH   1  11
TORSDOF 14
ENDMDL
MODEL 8
REMARK VINA RESULT:     2.920      4.574     10.100
REMARK INTER + INTRA:           4.467
REMARK INTER:                   4.718
REMARK INTRA:                  -0.251
REMARK UNBOUND:                -0.842
REMARK SMILES CCCCCC=CCC=CCCCCCCCC(=O)[O-]
REMARK SMILES IDX 11 1 12 2 13 3 14 4 15 5 16 6 17 7 18 8 19 9 20 10 10 11
REMARK SMILES IDX 9 12 8 13 7 14 6 15 5 16 4 17 3 18 2 19 1 20
REMARK H PARENT
REMARK Flexibility Score: inf
ROOT
ATOM      1  C   UNL     1     134.434 128.435 128.632  1.00  0.00     0.027 C 
ENDROOT
BRANCH   1   2
ATOM      2  C   UNL     1     134.013 129.906 128.778  1.00  0.00     0.004 C 
BRANCH   2   3
ATOM      3  C   UNL     1     133.972 130.632 127.422  1.00  0.00     0.000 C 
BRANCH   3   4
ATOM      4  C   UNL     1     132.741 130.251 126.584  1.00  0.00     0.000 C 
BRANCH   4   5
ATOM      5  C   UNL     1     132.457 131.254 125.456  1.00  0.00     0.000 C 
BRANCH   5   6
ATOM      6  C   UNL     1     130.955 131.320 125.148  1.00  0.00     0.006 C 
BRANCH   6   7
ATOM      7  C   UNL     1     130.299 129.933 125.146  1.00  0.00     0.053 C 
BRANCH   7   8
ATOM      8  C   UNL     1     129.868 129.520 126.520  1.00  0.00     0.041 C 
ATOM      9  O   UNL     1     129.309 130.350 127.286  1.00  0.00    -0.550 OA
ATOM     10  O   UNL     1     130.055 128.211 126.944  1.00  0.00    -0.550 OA
ENDBRANCH   7   8
ENDBRANCH   6   7
ENDBRANCH   5   6
ENDBRANCH   4   5
ENDBRANCH   3   4
ENDBRANCH   2   3
ENDBRANCH   1   2
BRANCH   1  11
ATOM     11  C   UNL     1     135.671 128.110 129.427  1.00  0.00    -0.031 C 
ATOM     12  C   UNL     1     136.386 126.999 129.193  1.00  0.00    -0.027 C 
BRANCH  12  13
ATOM     13  C   UNL     1     137.605 126.664 130.004  1.00  0.00     0.054 C 
BRANCH  13  14
ATOM     14  C   UNL     1     137.805 127.635 131.140  1.00  0.00    -0.027 C 
ATOM     15  C   UNL     1     138.876 128.439 131.287  1.00  0.00    -0.031 C 
BRANCH  15  16
ATOM     16  C   UNL     1     140.079 128.454 130.372  1.00  0.00     0.027 C 
BRANCH  16  17
ATOM     17  C   UNL     1     141.371 128.057 131.110  1.00  0.00     0.004 C 
BRANCH  17  18
ATOM     18  C   UNL     1     142.634 128.060 130.230  1.00  0.00     0.000 C 
BRANCH  18  19
ATOM     19  C   UNL     1     142.347 128.464 128.776  1.00  0.00    -0.003 C 
ATOM     20  C   UNL     1     143.626 128.467 127.945  1.00  0.00     0.004 C 
ENDBRANCH  18  19
ENDBRANCH  17  18
ENDBRANCH  16  17
ENDBRANCH  15  16
ENDBRANCH  13  14
ENDBRANCH  12  13
ENDBRANCH   1  11
TORSDOF 14
ENDMDL
MODEL 9
REMARK VINA RESULT:     3.067      2.913      3.713
REMARK INTER + INTRA:           4.735
REMARK INTER:                   5.691
REMARK INTRA:                  -0.956
REMARK UNBOUND:                -0.842
REMARK SMILES CCCCCC=CCC=CCCCCCCCC(=O)[O-]
REMARK SMILES IDX 11 1 12 2 13 3 14 4 15 5 16 6 17 7 18 8 19 9 20 10 10 11
REMARK SMILES IDX 9 12 8 13 7 14 6 15 5 16 4 17 3 18 2 19 1 20
REMARK H PARENT
REMARK Flexibility Score: inf
ROOT
ATOM      1  C   UNL     1     135.855 127.991 130.490  1.00  0.00     0.027 C 
ENDROOT
BRANCH   1   2
ATOM      2  C   UNL     1     136.469 126.623 130.152  1.00  0.00     0.004 C 
BRANCH   2   3
ATOM      3  C   UNL     1     137.820 126.760 129.428  1.00  0.00     0.000 C 
BRANCH   3   4
ATOM      4  C   UNL     1     137.980 128.119 128.728  1.00  0.00     0.000 C 
BRANCH   4   5
ATOM      5  C   UNL     1     139.263 128.854 129.145  1.00  0.00     0.000 C 
BRANCH   5   6
ATOM      6  C   UNL     1     140.272 127.882 129.772  1.00  0.00     0.006 C 
BRANCH   6   7
ATOM      7  C   UNL     1     140.563 128.213 131.242  1.00  0.00     0.053 C 
BRANCH   7   8
ATOM      8  C   UNL     1     139.302 128.382 132.034  1.00  0.00     0.041 C 
ATOM      9  O   UNL     1     138.864 127.436 132.739  1.00  0.00    -0.550 OA
ATOM     10  O   UNL     1     138.628 129.597 132.016  1.00  0.00    -0.550 OA
ENDBRANCH   7   8
ENDBRANCH   6   7
ENDBRANCH   5   6
ENDBRANCH   4   5
ENDBRANCH   3   4
ENDBRANCH   2   3
ENDBRANCH   1   2
BRANCH   1  11
ATOM     11  C   UNL     1     134.530 128.210 129.808  1.00  0.00    -0.031 C 
ATOM     12  C   UNL     1     134.443 128.836 128.625  1.00  0.00    -0.027 C 
BRANCH  12  13
ATOM     13  C   UNL     1     133.118 129.076 127.959  1.00  0.00     0.054 C 
BRANCH  13  14
ATOM     14  C   UNL     1     132.317 127.805 127.834  1.00  0.00    -0.027 C 
ATOM     15  C   UNL     1     131.096 127.716 127.269  1.00  0.00    -0.031 C 
BRANCH  15  16
ATOM     16  C   UNL     1     130.307 128.883 126.726  1.00  0.00     0.027 C 
BRANCH  16  17
ATOM     17  C   UNL     1     130.844 129.363 125.365  1.00  0.00     0.004 C 
BRANCH  17  18
ATOM     18  C   UNL     1     130.770 130.885 125.151  1.00  0.00     0.000 C 
BRANCH  18  19
ATOM     19  C   UNL     1     132.143 131.516 124.875  1.00  0.00    -0.003 C 
ATOM     20  C   UNL     1     132.129 133.012 125.173  1.00  0.00     0.004 C 
ENDBRANCH  18  19
ENDBRANCH  17  18
ENDBRANCH  16  17
ENDBRANCH  15  16
ENDBRANCH  13  14
ENDBRANCH  12  13
ENDBRANCH   1  11
TORSDOF 14
ENDMDL
