MODEL 1
REMARK VINA RESULT:    -5.904      0.000      0.000
REMARK INTER + INTRA:          -7.906
REMARK INTER:                  -7.630
REMARK INTRA:                  -0.275
REMARK UNBOUND:                -0.275
REMARK SMILES C=CC(=O)CCCCC
REMARK SMILES IDX 6 1 7 2 8 3 9 4 5 5 3 6 4 7 2 8 1 9
REMARK H PARENT
REMARK Flexibility Score: inf
ROOT
ATOM      1  C   UNL     1      11.181  20.226  23.025  1.00  0.00     0.008 C 
ENDROOT
BRANCH   1   2
ATOM      2  C   UNL     1      12.181  20.595  24.142  1.00  0.00     0.000 C 
BRANCH   2   3
ATOM      3  C   UNL     1      13.224  21.640  23.713  1.00  0.00    -0.003 C 
ATOM      4  C   UNL     1      13.121  22.946  24.498  1.00  0.00     0.004 C 
ENDBRANCH   2   3
ENDBRANCH   1   2
BRANCH   1   5
ATOM      5  C   UNL     1      10.035  21.247  22.910  1.00  0.00     0.080 C 
BRANCH   5   6
ATOM      6  C   UNL     1       8.833  20.887  23.752  1.00  0.00     0.155 C 
ATOM      7  O   UNL     1       8.495  21.622  24.719  1.00  0.00    -0.295 OA
BRANCH   6   8
ATOM      8  C   UNL     1       8.020  19.685  23.477  1.00  0.00     0.039 C 
ATOM      9  C   UNL     1       8.051  18.584  24.229  1.00  0.00     0.012 C 
ENDBRANCH   6   8
ENDBRANCH   5   6
ENDBRANCH   1   5
TORSDOF 5
ENDMDL
MODEL 2
REMARK VINA RESULT:    -5.903      1.565      4.720
REMARK INTER + INTRA:          -7.904
REMARK INTER:                  -7.646
REMARK INTRA:                  -0.258
REMARK UNBOUND:                -0.275
REMARK SMILES C=CC(=O)CCCCC
REMARK SMILES IDX 6 1 7 2 8 3 9 4 5 5 3 6 4 7 2 8 1 9
REMARK H PARENT
REMARK Flexibility Score: inf
ROOT
ATOM      1  C   UNL     1       9.969  21.678  23.268  1.00  0.00     0.008 C 
ENDROOT
BRANCH   1   2
ATOM      2  C   UNL     1       8.958  21.045  24.248  1.00  0.00     0.000 C 
BRANCH   2   3
ATOM      3  C   UNL     1       7.965  20.086  23.573  1.00  0.00    -0.003 C 
ATOM      4  C   UNL     1       8.006  18.674  24.152  1.00  0.00     0.004 C 
ENDBRANCH   2   3
ENDBRANCH   1   2
BRANCH   1   5
ATOM      5  C   UNL     1      11.080  20.695  22.860  1.00  0.00     0.080 C 
BRANCH   5   6
ATOM      6  C   UNL     1      12.325  20.824  23.707  1.00  0.00     0.155 C 
ATOM      7  O   UNL     1      12.673  19.880  24.468  1.00  0.00    -0.295 OA
BRANCH   6   8
ATOM      8  C   UNL     1      13.169  22.036  23.673  1.00  0.00     0.039 C 
ATOM      9  C   UNL     1      13.137  22.984  24.609  1.00  0.00     0.012 C 
ENDBRANCH   6   8
ENDBRANCH   5   6
ENDBRANCH   1   5
TORSDOF 5
ENDMDL
MODEL 3
REMARK VINA RESULT:    -3.326     11.872     12.730
REMARK INTER + INTRA:          -4.573
REMARK INTER:                  -4.281
REMARK INTRA:                  -0.292
REMARK UNBOUND:                -0.275
REMARK SMILES C=CC(=O)CCCCC
REMARK SMILES IDX 6 1 7 2 8 3 9 4 5 5 3 6 4 7 2 8 1 9
REMARK H PARENT
REMARK Flexibility Score: inf
ROOT
ATOM      1  C   UNL     1      15.299  13.318  16.288  1.00  0.00     0.008 C 
ENDROOT
BRANCH   1   2
ATOM      2  C   UNL     1      16.365  12.919  15.246  1.00  0.00     0.000 C 
BRANCH   2   3
ATOM      3  C   UNL     1      16.225  11.472  14.746  1.00  0.00    -0.003 C 
ATOM      4  C   UNL     1      17.524  10.906  14.178  1.00  0.00     0.004 C 
ENDBRANCH   2   3
ENDBRANCH   1   2
BRANCH   1   5
ATOM      5  C   UNL     1      14.471  14.535  15.839  1.00  0.00     0.080 C 
BRANCH   5   6
ATOM      6  C   UNL     1      13.412  14.188  14.818  1.00  0.00     0.155 C 
ATOM      7  O   UNL     1      13.223  14.938  13.822  1.00  0.00    -0.295 OA
BRANCH   6   8
ATOM      8  C   UNL     1      12.577  12.976  14.944  1.00  0.00     0.039 C 
ATOM      9  C   UNL     1      11.448  12.784  14.261  1.00  0.00     0.012 C 
ENDBRANCH   6   8
ENDBRANCH   5   6
ENDBRANCH   1   5
TORSDOF 5
ENDMDL
MODEL 4
REMARK VINA RESULT:    -3.249     12.063     13.344
REMARK INTER + INTRA:          -4.474
REMARK INTER:                  -4.200
REMARK INTRA:                  -0.274
REMARK UNBOUND:                -0.275
REMARK SMILES C=CC(=O)CCCCC
REMARK SMILES IDX 6 1 7 2 8 3 9 4 5 5 3 6 4 7 2 8 1 9
REMARK H PARENT
REMARK Flexibility Score: inf
ROOT
ATOM      1  C   UNL     1      14.389  14.530  15.823  1.00  0.00     0.008 C 
ENDROOT
BRANCH   1   2
ATOM      2  C   UNL     1      13.345  14.241  14.723  1.00  0.00     0.000 C 
BRANCH   2   3
ATOM      3  C   UNL     1      12.581  12.924  14.931  1.00  0.00    -0.003 C 
ATOM      4  C   UNL     1      11.292  12.844  14.116  1.00  0.00     0.004 C 
ENDBRANCH   2   3
ENDBRANCH   1   2
BRANCH   1   5
ATOM      5  C   UNL     1      15.127  13.258  16.275  1.00  0.00     0.080 C 
BRANCH   5   6
ATOM      6  C   UNL     1      16.273  12.883  15.363  1.00  0.00     0.155 C 
ATOM      7  O   UNL     1      17.251  13.667  15.221  1.00  0.00    -0.295 OA
BRANCH   6   8
ATOM      8  C   UNL     1      16.294  11.605  14.623  1.00  0.00     0.039 C 
ATOM      9  C   UNL     1      17.414  10.990  14.244  1.00  0.00     0.012 C 
ENDBRANCH   6   8
ENDBRANCH   5   6
ENDBRANCH   1   5
TORSDOF 5
ENDMDL
MODEL 5
REMARK VINA RESULT:    -3.233     10.290     11.815
REMARK INTER + INTRA:          -4.454
REMARK INTER:                  -4.012
REMARK INTRA:                  -0.442
REMARK UNBOUND:                -0.275
REMARK SMILES C=CC(=O)CCCCC
REMARK SMILES IDX 6 1 7 2 8 3 9 4 5 5 3 6 4 7 2 8 1 9
REMARK H PARENT
REMARK Flexibility Score: inf
ROOT
ATOM      1  C   UNL     1      13.732  27.511  15.178  1.00  0.00     0.008 C 
ENDROOT
BRANCH   1   2
ATOM      2  C   UNL     1      13.295  26.502  16.261  1.00  0.00     0.000 C 
BRANCH   2   3
ATOM      3  C   UNL     1      13.159  25.062  15.741  1.00  0.00    -0.003 C 
ATOM      4  C   UNL     1      11.894  24.363  16.234  1.00  0.00     0.004 C 
ENDBRANCH   2   3
ENDBRANCH   1   2
BRANCH   1   5
ATOM      5  C   UNL     1      14.894  26.980  14.320  1.00  0.00     0.080 C 
BRANCH   5   6
ATOM      6  C   UNL     1      16.251  27.259  14.923  1.00  0.00     0.155 C 
ATOM      7  O   UNL     1      16.603  28.446  15.168  1.00  0.00    -0.295 OA
BRANCH   6   8
ATOM      8  C   UNL     1      17.198  26.173  15.248  1.00  0.00     0.039 C 
ATOM      9  C   UNL     1      16.934  25.199  16.118  1.00  0.00     0.012 C 
ENDBRANCH   6   8
ENDBRANCH   5   6
ENDBRANCH   1   5
TORSDOF 5
ENDMDL
MODEL 6
REMARK VINA RESULT:    -3.231     10.886     11.776
REMARK INTER + INTRA:          -4.450
REMARK INTER:                  -3.939
REMARK INTRA:                  -0.511
REMARK UNBOUND:                -0.275
REMARK SMILES C=CC(=O)CCCCC
REMARK SMILES IDX 6 1 7 2 8 3 9 4 5 5 3 6 4 7 2 8 1 9
REMARK H PARENT
REMARK Flexibility Score: inf
ROOT
ATOM      1  C   UNL     1       7.565  30.396  17.417  1.00  0.00     0.008 C 
ENDROOT
BRANCH   1   2
ATOM      2  C   UNL     1       8.002  30.803  15.994  1.00  0.00     0.000 C 
BRANCH   2   3
ATOM      3  C   UNL     1       9.490  30.542  15.709  1.00  0.00    -0.003 C 
ATOM      4  C   UNL     1       9.760  29.139  15.168  1.00  0.00     0.004 C 
ENDBRANCH   2   3
ENDBRANCH   1   2
BRANCH   1   5
ATOM      5  C   UNL     1       6.148  29.796  17.442  1.00  0.00     0.080 C 
BRANCH   5   6
ATOM      6  C   UNL     1       6.001  28.583  16.552  1.00  0.00     0.155 C 
ATOM      7  O   UNL     1       5.266  28.635  15.529  1.00  0.00    -0.295 OA
BRANCH   6   8
ATOM      8  C   UNL     1       6.705  27.317  16.839  1.00  0.00     0.039 C 
ATOM      9  C   UNL     1       7.153  26.490  15.894  1.00  0.00     0.012 C 
ENDBRANCH   6   8
ENDBRANCH   5   6
ENDBRANCH   1   5
TORSDOF 5
ENDMDL
MODEL 7
REMARK VINA RESULT:    -3.226     10.477     11.797
REMARK INTER + INTRA:          -4.444
REMARK INTER:                  -4.264
REMARK INTRA:                  -0.180
REMARK UNBOUND:                -0.275
REMARK SMILES C=CC(=O)CCCCC
REMARK SMILES IDX 6 1 7 2 8 3 9 4 5 5 3 6 4 7 2 8 1 9
REMARK H PARENT
REMARK Flexibility Score: inf
ROOT
ATOM      1  C   UNL     1      17.370  25.180  15.971  1.00  0.00     0.008 C 
ENDROOT
BRANCH   1   2
ATOM      2  C   UNL     1      18.555  24.425  15.332  1.00  0.00     0.000 C 
BRANCH   2   3
ATOM      3  C   UNL     1      19.737  24.211  16.291  1.00  0.00    -0.003 C 
ATOM      4  C   UNL     1      21.070  24.682  15.715  1.00  0.00     0.004 C 
ENDBRANCH   2   3
ENDBRANCH   1   2
BRANCH   1   5
ATOM      5  C   UNL     1      17.034  26.481  15.220  1.00  0.00     0.080 C 
BRANCH   5   6
ATOM      6  C   UNL     1      15.589  26.897  15.373  1.00  0.00     0.155 C 
ATOM      7  O   UNL     1      15.230  28.064  15.055  1.00  0.00    -0.295 OA
BRANCH   6   8
ATOM      8  C   UNL     1      14.560  25.969  15.885  1.00  0.00     0.039 C 
ATOM      9  C   UNL     1      13.337  26.352  16.251  1.00  0.00     0.012 C 
ENDBRANCH   6   8
ENDBRANCH   5   6
ENDBRANCH   1   5
TORSDOF 5
ENDMDL
MODEL 8
REMARK VINA RESULT:    -3.165      9.815     10.749
REMARK INTER + INTRA:          -4.366
REMARK INTER:                  -4.054
REMARK INTRA:                  -0.312
REMARK UNBOUND:                -0.275
REMARK SMILES C=CC(=O)CCCCC
REMARK SMILES IDX 6 1 7 2 8 3 9 4 5 5 3 6 4 7 2 8 1 9
REMARK H PARENT
REMARK Flexibility Score: inf
ROOT
ATOM      1  C   UNL     1      16.130  25.594  15.863  1.00  0.00     0.008 C 
ENDROOT
BRANCH   1   2
ATOM      2  C   UNL     1      16.798  26.573  14.874  1.00  0.00     0.000 C 
BRANCH   2   3
ATOM      3  C   UNL     1      16.513  28.052  15.183  1.00  0.00    -0.003 C 
ATOM      4  C   UNL     1      15.389  28.636  14.331  1.00  0.00     0.004 C 
ENDBRANCH   2   3
ENDBRANCH   1   2
BRANCH   1   5
ATOM      5  C   UNL     1      14.871  24.936  15.271  1.00  0.00     0.080 C 
BRANCH   5   6
ATOM      6  C   UNL     1      13.588  25.465  15.870  1.00  0.00     0.155 C 
ATOM      7  O   UNL     1      13.603  26.512  16.573  1.00  0.00    -0.295 OA
BRANCH   6   8
ATOM      8  C   UNL     1      12.292  24.791  15.656  1.00  0.00     0.039 C 
ATOM      9  C   UNL     1      11.915  23.691  16.308  1.00  0.00     0.012 C 
ENDBRANCH   6   8
ENDBRANCH   5   6
ENDBRANCH   1   5
TORSDOF 5
ENDMDL
MODEL 9
REMARK VINA RESULT:    -3.152     11.222     12.345
REMARK INTER + INTRA:          -4.348
REMARK INTER:                  -3.892
REMARK INTRA:                  -0.456
REMARK UNBOUND:                -0.275
REMARK SMILES C=CC(=O)CCCCC
REMARK SMILES IDX 6 1 7 2 8 3 9 4 5 5 3 6 4 7 2 8 1 9
REMARK H PARENT
REMARK Flexibility Score: inf
ROOT
ATOM      1  C   UNL     1       7.982  30.698  15.907  1.00  0.00     0.008 C 
ENDROOT
BRANCH   1   2
ATOM      2  C   UNL     1       7.494  30.480  17.355  1.00  0.00     0.000 C 
BRANCH   2   3
ATOM      3  C   UNL     1       6.176  29.693  17.449  1.00  0.00    -0.003 C 
ATOM      4  C   UNL     1       6.343  28.207  17.141  1.00  0.00     0.004 C 
ENDBRANCH   2   3
ENDBRANCH   1   2
BRANCH   1   5
ATOM      5  C   UNL     1       9.500  30.495  15.766  1.00  0.00     0.080 C 
BRANCH   5   6
ATOM      6  C   UNL     1       9.864  29.191  15.092  1.00  0.00     0.155 C 
ATOM      7  O   UNL     1      11.068  28.819  15.045  1.00  0.00    -0.295 OA
BRANCH   6   8
ATOM      8  C   UNL     1       8.842  28.318  14.481  1.00  0.00     0.039 C 
ATOM      9  C   UNL     1       8.826  26.992  14.617  1.00  0.00     0.012 C 
ENDBRANCH   6   8
ENDBRANCH   5   6
ENDBRANCH   1   5
TORSDOF 5
ENDMDL
