MODEL 1
REMARK VINA RESULT:    -5.608      0.000      0.000
REMARK INTER + INTRA:          -8.697
REMARK INTER:                  -8.559
REMARK INTRA:                  -0.138
REMARK UNBOUND:                -0.138
REMARK SMILES CC1=CCC[C@H](C)C(=O)C[C@H](C(C)C)C(=O)C1
REMARK SMILES IDX 8 1 9 2 6 3 7 4 5 5 4 6 3 7 2 8 1 9 10 11 11 12 15 13 16 14
REMARK SMILES IDX 17 15 12 17 13 18 14 19
REMARK H PARENT
REMARK Flexibility Score: 70.00
ROOT
ATOM      1  C   UNL     1      -0.634  14.943  21.867  1.00  0.00     0.136 C 
ATOM      2  O   UNL     1      -0.520  16.138  21.638  1.00  0.00    -0.299 OA
ENDROOT
BRANCH   1   3
ATOM      3  C   UNL     1      -1.685  14.467  22.850  1.00  0.00     0.053 C 
ATOM      4  C   UNL     1      -1.889  15.534  23.930  1.00  0.00     0.016 C 
BRANCH   3   5
ATOM      5  C   UNL     1      -3.034  14.146  22.158  1.00  0.00     0.015 C 
BRANCH   5   6
ATOM      6  C   UNL     1      -3.023  12.856  21.322  1.00  0.00     0.028 C 
BRANCH   6   7
ATOM      7  C   UNL     1      -2.814  11.637  22.189  1.00  0.00    -0.028 C 
ATOM      8  C   UNL     1      -1.695  10.876  22.206  1.00  0.00    -0.070 CG0
ATOM      9  C   UNL     1      -1.653   9.699  23.148  1.00  0.00     0.039 C 
ATOM     10  G   UNL     1      -0.485  11.165  21.335  1.00  0.00     0.000 G0
ENDBRANCH   6   7
ENDBRANCH   5   6
ENDBRANCH   3   5
ENDBRANCH   1   3
BRANCH   1  11
ATOM     11  C   UNL     1       0.315  13.972  21.199  1.00  0.00     0.087 C 
BRANCH  11  12
ATOM     12  C   UNL     1       1.114  13.110  22.210  1.00  0.00     0.066 C 
BRANCH  12  13
ATOM     13  C   UNL     1       0.745  11.637  22.102  1.00  0.00     0.140 C 
ATOM     14  O   UNL     1       1.417  10.805  22.694  1.00  0.00    -0.299 OA
BRANCH  13  15
ATOM     15  C   UNL     1      -0.472  11.160  21.341  1.00  0.00     0.106 CG0
ATOM     16  G   UNL     1      -1.683  10.894  22.218  1.00  0.00     0.000 G0
ENDBRANCH  13  15
ENDBRANCH  12  13
BRANCH  12  17
ATOM     17  C   UNL     1       2.660  13.299  22.119  1.00  0.00    -0.006 C 
ATOM     18  C   UNL     1       3.082  14.737  22.465  1.00  0.00     0.008 C 
ATOM     19  C   UNL     1       3.267  12.886  20.767  1.00  0.00     0.008 C 
ENDBRANCH  12  17
ENDBRANCH  11  12
ENDBRANCH   1  11
TORSDOF 1
ENDMDL
MODEL 2
REMARK VINA RESULT:    -5.565      2.403      3.797
REMARK INTER + INTRA:          -8.631
REMARK INTER:                  -8.301
REMARK INTRA:                  -0.330
REMARK UNBOUND:                -0.138
REMARK SMILES CC1=CCC[C@H](C)C(=O)C[C@H](C(C)C)C(=O)C1
REMARK SMILES IDX 8 1 9 2 6 3 7 4 5 5 4 6 3 7 2 8 1 9 10 11 11 12 15 13 16 14
REMARK SMILES IDX 17 15 12 17 13 18 14 19
REMARK H PARENT
REMARK Flexibility Score: 70.00
ROOT
ATOM      1  C   UNL     1      -2.211  11.819  22.183  1.00  0.00     0.136 C 
ATOM      2  O   UNL     1      -2.810  10.777  21.962  1.00  0.00    -0.299 OA
ENDROOT
BRANCH   1   3
ATOM      3  C   UNL     1      -2.942  13.142  22.063  1.00  0.00     0.053 C 
ATOM      4  C   UNL     1      -2.068  14.258  22.642  1.00  0.00     0.016 C 
BRANCH   3   5
ATOM      5  C   UNL     1      -3.323  13.471  20.597  1.00  0.00     0.015 C 
BRANCH   5   6
ATOM      6  C   UNL     1      -2.280  14.317  19.848  1.00  0.00     0.028 C 
BRANCH   6   7
ATOM      7  C   UNL     1      -1.597  13.520  18.762  1.00  0.00    -0.028 C 
ATOM      8  C   UNL     1      -0.362  12.975  18.855  1.00  0.00    -0.070 CG0
ATOM      9  C   UNL     1       0.160  12.195  17.675  1.00  0.00     0.039 C 
ATOM     10  G   UNL     1       0.507  13.104  20.094  1.00  0.00     0.000 G0
ENDBRANCH   6   7
ENDBRANCH   5   6
ENDBRANCH   3   5
ENDBRANCH   1   3
BRANCH   1  11
ATOM     11  C   UNL     1      -0.738  11.762  22.524  1.00  0.00     0.087 C 
BRANCH  11  12
ATOM     12  C   UNL     1       0.084  10.911  21.522  1.00  0.00     0.066 C 
BRANCH  12  13
ATOM     13  C   UNL     1       0.985  11.782  20.657  1.00  0.00     0.140 C 
ATOM     14  O   UNL     1       2.100  11.381  20.359  1.00  0.00    -0.299 OA
BRANCH  13  15
ATOM     15  C   UNL     1       0.528  13.107  20.087  1.00  0.00     0.106 CG0
ATOM     16  G   UNL     1      -0.371  12.976  18.869  1.00  0.00     0.000 G0
ENDBRANCH  13  15
ENDBRANCH  12  13
BRANCH  12  17
ATOM     17  C   UNL     1       0.904   9.765  22.192  1.00  0.00    -0.006 C 
ATOM     18  C   UNL     1       0.318   8.380  21.870  1.00  0.00     0.008 C 
ATOM     19  C   UNL     1       1.079   9.920  23.712  1.00  0.00     0.008 C 
ENDBRANCH  12  17
ENDBRANCH  11  12
ENDBRANCH   1  11
TORSDOF 1
ENDMDL
MODEL 3
REMARK VINA RESULT:    -5.524      2.515      4.521
REMARK INTER + INTRA:          -8.568
REMARK INTER:                  -8.312
REMARK INTRA:                  -0.256
REMARK UNBOUND:                -0.138
REMARK SMILES CC1=CCC[C@H](C)C(=O)C[C@H](C(C)C)C(=O)C1
REMARK SMILES IDX 8 1 9 2 6 3 7 4 5 5 4 6 3 7 2 8 1 9 10 11 11 12 15 13 16 14
REMARK SMILES IDX 17 15 12 17 13 18 14 19
REMARK H PARENT
REMARK Flexibility Score: 70.00
ROOT
ATOM      1  C   UNL     1      -0.642  10.214  23.191  1.00  0.00     0.136 C 
ATOM      2  O   UNL     1      -1.291   9.532  23.970  1.00  0.00    -0.299 OA
ENDROOT
BRANCH   1   3
ATOM      3  C   UNL     1      -1.361  11.060  22.159  1.00  0.00     0.053 C 
ATOM      4  C   UNL     1      -2.841  10.666  22.123  1.00  0.00     0.016 C 
BRANCH   3   5
ATOM      5  C   UNL     1      -1.221  12.577  22.443  1.00  0.00     0.015 C 
BRANCH   5   6
ATOM      6  C   UNL     1      -0.431  13.350  21.374  1.00  0.00     0.028 C 
BRANCH   6   7
ATOM      7  C   UNL     1       0.737  14.093  21.978  1.00  0.00    -0.028 C 
ATOM      8  C   UNL     1       2.038  13.754  21.825  1.00  0.00    -0.070 CG0
ATOM      9  C   UNL     1       3.079  14.620  22.490  1.00  0.00     0.039 C 
ATOM     10  G   UNL     1       2.491  12.556  21.008  1.00  0.00     0.000 G0
ENDBRANCH   6   7
ENDBRANCH   5   6
ENDBRANCH   3   5
ENDBRANCH   1   3
BRANCH   1  11
ATOM     11  C   UNL     1       0.869  10.156  23.246  1.00  0.00     0.087 C 
BRANCH  11  12
ATOM     12  C   UNL     1       1.530  10.225  21.845  1.00  0.00     0.066 C 
BRANCH  12  13
ATOM     13  C   UNL     1       2.632  11.276  21.798  1.00  0.00     0.140 C 
ATOM     14  O   UNL     1       3.687  11.064  22.376  1.00  0.00    -0.299 OA
BRANCH  13  15
ATOM     15  C   UNL     1       2.499  12.555  21.001  1.00  0.00     0.106 CG0
ATOM     16  G   UNL     1       2.056  13.752  21.824  1.00  0.00     0.000 G0
ENDBRANCH  13  15
ENDBRANCH  12  13
BRANCH  12  17
ATOM     17  C   UNL     1       2.058   8.851  21.327  1.00  0.00    -0.006 C 
ATOM     18  C   UNL     1       2.677   8.968  19.924  1.00  0.00     0.008 C 
ATOM     19  C   UNL     1       1.009   7.726  21.345  1.00  0.00     0.008 C 
ENDBRANCH  12  17
ENDBRANCH  11  12
ENDBRANCH   1  11
TORSDOF 1
ENDMDL
MODEL 4
REMARK VINA RESULT:    -5.435      1.606      3.939
REMARK INTER + INTRA:          -8.433
REMARK INTER:                  -8.662
REMARK INTRA:                   0.229
REMARK UNBOUND:                -0.138
REMARK SMILES CC1=CCC[C@H](C)C(=O)C[C@H](C(C)C)C(=O)C1
REMARK SMILES IDX 8 1 9 2 6 3 7 4 5 5 4 6 3 7 2 8 1 9 10 11 11 12 15 13 16 14
REMARK SMILES IDX 17 15 12 17 13 18 14 19
REMARK H PARENT
REMARK Flexibility Score: 70.00
ROOT
ATOM      1  C   UNL     1       2.177  13.182  21.878  1.00  0.00     0.136 C 
ATOM      2  O   UNL     1       2.970  14.068  21.597  1.00  0.00    -0.299 OA
ENDROOT
BRANCH   1   3
ATOM      3  C   UNL     1       2.545  11.736  21.611  1.00  0.00     0.053 C 
ATOM      4  C   UNL     1       4.056  11.556  21.790  1.00  0.00     0.016 C 
BRANCH   3   5
ATOM      5  C   UNL     1       1.779  10.755  22.534  1.00  0.00     0.015 C 
BRANCH   5   6
ATOM      6  C   UNL     1       0.729   9.896  21.810  1.00  0.00     0.028 C 
BRANCH   6   7
ATOM      7  C   UNL     1      -0.675  10.320  22.167  1.00  0.00    -0.028 C 
ATOM      8  C   UNL     1      -1.362  11.322  21.570  1.00  0.00    -0.070 CG0
ATOM      9  C   UNL     1      -2.765  11.602  22.046  1.00  0.00     0.039 C 
ATOM     10  G   UNL     1      -0.788  12.159  20.440  1.00  0.00     0.000 G0
ENDBRANCH   6   7
ENDBRANCH   5   6
ENDBRANCH   3   5
ENDBRANCH   1   3
BRANCH   1  11
ATOM     11  C   UNL     1       0.824  13.558  22.443  1.00  0.00     0.087 C 
BRANCH  11  12
ATOM     12  C   UNL     1       0.003  14.469  21.495  1.00  0.00     0.066 C 
BRANCH  12  13
ATOM     13  C   UNL     1      -0.961  13.659  20.638  1.00  0.00     0.140 C 
ATOM     14  O   UNL     1      -1.863  14.232  20.045  1.00  0.00    -0.299 OA
BRANCH  13  15
ATOM     15  C   UNL     1      -0.805  12.169  20.431  1.00  0.00     0.106 CG0
ATOM     16  G   UNL     1      -1.357  11.327  21.568  1.00  0.00     0.000 G0
ENDBRANCH  13  15
ENDBRANCH  12  13
BRANCH  12  17
ATOM     17  C   UNL     1      -0.748  15.626  22.224  1.00  0.00    -0.006 C 
ATOM     18  C   UNL     1       0.022  16.953  22.134  1.00  0.00     0.008 C 
ATOM     19  C   UNL     1      -1.101  15.323  23.690  1.00  0.00     0.008 C 
ENDBRANCH  12  17
ENDBRANCH  11  12
ENDBRANCH   1  11
TORSDOF 1
ENDMDL
MODEL 5
REMARK VINA RESULT:    -5.435      2.208      4.529
REMARK INTER + INTRA:          -8.433
REMARK INTER:                  -8.235
REMARK INTRA:                  -0.198
REMARK UNBOUND:                -0.138
REMARK SMILES CC1=CCC[C@H](C)C(=O)C[C@H](C(C)C)C(=O)C1
REMARK SMILES IDX 8 1 9 2 6 3 7 4 5 5 4 6 3 7 2 8 1 9 10 11 11 12 15 13 16 14
REMARK SMILES IDX 17 15 12 17 13 18 14 19
REMARK H PARENT
REMARK Flexibility Score: 70.00
ROOT
ATOM      1  C   UNL     1       2.433  13.187  21.979  1.00  0.00     0.136 C 
ATOM      2  O   UNL     1       3.046  14.214  21.726  1.00  0.00    -0.299 OA
ENDROOT
BRANCH   1   3
ATOM      3  C   UNL     1       3.154  11.854  21.928  1.00  0.00     0.053 C 
ATOM      4  C   UNL     1       2.478  10.875  22.892  1.00  0.00     0.016 C 
BRANCH   3   5
ATOM      5  C   UNL     1       3.183  11.258  20.498  1.00  0.00     0.015 C 
BRANCH   5   6
ATOM      6  C   UNL     1       1.870  10.581  20.069  1.00  0.00     0.028 C 
BRANCH   6   7
ATOM      7  C   UNL     1       1.279  11.243  18.848  1.00  0.00    -0.028 C 
ATOM      8  C   UNL     1       0.145  11.982  18.835  1.00  0.00    -0.070 CG0
ATOM      9  C   UNL     1      -0.294  12.584  17.524  1.00  0.00     0.039 C 
ATOM     10  G   UNL     1      -0.688  12.240  20.078  1.00  0.00     0.000 G0
ENDBRANCH   6   7
ENDBRANCH   5   6
ENDBRANCH   3   5
ENDBRANCH   1   3
BRANCH   1  11
ATOM     11  C   UNL     1       0.955  13.271  22.290  1.00  0.00     0.087 C 
BRANCH  11  12
ATOM     12  C   UNL     1       0.215  14.334  21.438  1.00  0.00     0.066 C 
BRANCH  12  13
ATOM     13  C   UNL     1      -0.785  13.690  20.488  1.00  0.00     0.140 C 
ATOM     14  O   UNL     1      -1.666  14.376  19.989  1.00  0.00    -0.299 OA
BRANCH  13  15
ATOM     15  C   UNL     1      -0.692  12.238  20.074  1.00  0.00     0.106 CG0
ATOM     16  G   UNL     1       0.146  12.003  18.829  1.00  0.00     0.000 G0
ENDBRANCH  13  15
ENDBRANCH  12  13
BRANCH  12  17
ATOM     17  C   UNL     1      -0.469  15.455  22.281  1.00  0.00    -0.006 C 
ATOM     18  C   UNL     1       0.497  16.610  22.587  1.00  0.00     0.008 C 
ATOM     19  C   UNL     1      -1.119  14.956  23.583  1.00  0.00     0.008 C 
ENDBRANCH  12  17
ENDBRANCH  11  12
ENDBRANCH   1  11
TORSDOF 1
ENDMDL
MODEL 6
REMARK VINA RESULT:    -5.349      2.158      4.372
REMARK INTER + INTRA:          -8.301
REMARK INTER:                  -7.850
REMARK INTRA:                  -0.451
REMARK UNBOUND:                -0.138
REMARK SMILES CC1=CCC[C@H](C)C(=O)C[C@H](C(C)C)C(=O)C1
REMARK SMILES IDX 8 1 9 2 6 3 7 4 5 5 4 6 3 7 2 8 1 9 10 11 11 12 15 13 16 14
REMARK SMILES IDX 17 15 12 17 13 18 14 19
REMARK H PARENT
REMARK Flexibility Score: 70.00
ROOT
ATOM      1  C   UNL     1       2.056  13.023  21.384  1.00  0.00     0.136 C 
ATOM      2  O   UNL     1       2.887  13.843  21.747  1.00  0.00    -0.299 OA
ENDROOT
BRANCH   1   3
ATOM      3  C   UNL     1       2.511  11.744  20.711  1.00  0.00     0.053 C 
ATOM      4  C   UNL     1       3.337  12.091  19.469  1.00  0.00     0.016 C 
BRANCH   3   5
ATOM      5  C   UNL     1       3.336  10.841  21.663  1.00  0.00     0.015 C 
BRANCH   5   6
ATOM      6  C   UNL     1       2.645  10.538  23.002  1.00  0.00     0.028 C 
BRANCH   6   7
ATOM      7  C   UNL     1       1.647   9.413  22.868  1.00  0.00    -0.028 C 
ATOM      8  C   UNL     1       0.302   9.554  22.924  1.00  0.00    -0.070 CG0
ATOM      9  C   UNL     1      -0.549   8.320  22.755  1.00  0.00     0.039 C 
ATOM     10  G   UNL     1      -0.380  10.895  23.133  1.00  0.00     0.000 G0
ENDBRANCH   6   7
ENDBRANCH   5   6
ENDBRANCH   3   5
ENDBRANCH   1   3
BRANCH   1  11
ATOM     11  C   UNL     1       0.587  13.332  21.574  1.00  0.00     0.087 C 
BRANCH  11  12
ATOM     12  C   UNL     1      -0.345  12.302  20.885  1.00  0.00     0.066 C 
BRANCH  12  13
ATOM     13  C   UNL     1      -1.075  11.439  21.906  1.00  0.00     0.140 C 
ATOM     14  O   UNL     1      -2.238  11.125  21.702  1.00  0.00    -0.299 OA
BRANCH  13  15
ATOM     15  C   UNL     1      -0.394  10.891  23.140  1.00  0.00     0.106 CG0
ATOM     16  G   UNL     1       0.301   9.558  22.920  1.00  0.00     0.000 G0
ENDBRANCH  13  15
ENDBRANCH  12  13
BRANCH  12  17
ATOM     17  C   UNL     1      -1.353  12.936  19.878  1.00  0.00    -0.006 C 
ATOM     18  C   UNL     1      -0.732  13.112  18.482  1.00  0.00     0.008 C 
ATOM     19  C   UNL     1      -1.965  14.266  20.351  1.00  0.00     0.008 C 
ENDBRANCH  12  17
ENDBRANCH  11  12
ENDBRANCH   1  11
TORSDOF 1
ENDMDL
MODEL 7
REMARK VINA RESULT:    -5.331      1.994      5.362
REMARK INTER + INTRA:          -8.274
REMARK INTER:                  -8.373
REMARK INTRA:                   0.099
REMARK UNBOUND:                -0.138
REMARK SMILES CC1=CCC[C@H](C)C(=O)C[C@H](C(C)C)C(=O)C1
REMARK SMILES IDX 8 1 9 2 6 3 7 4 5 5 4 6 3 7 2 8 1 9 10 11 11 12 15 13 16 14
REMARK SMILES IDX 17 15 12 17 13 18 14 19
REMARK H PARENT
REMARK Flexibility Score: 70.00
ROOT
ATOM      1  C   UNL     1      -0.180  10.089  22.635  1.00  0.00     0.136 C 
ATOM      2  O   UNL     1      -0.924   9.982  23.599  1.00  0.00    -0.299 OA
ENDROOT
BRANCH   1   3
ATOM      3  C   UNL     1       1.068   9.232  22.554  1.00  0.00     0.053 C 
ATOM      4  C   UNL     1       1.199   8.662  21.138  1.00  0.00     0.016 C 
BRANCH   3   5
ATOM      5  C   UNL     1       2.347  10.021  22.930  1.00  0.00     0.015 C 
BRANCH   5   6
ATOM      6  C   UNL     1       3.011  10.748  21.749  1.00  0.00     0.028 C 
BRANCH   6   7
ATOM      7  C   UNL     1       3.459  12.138  22.136  1.00  0.00    -0.028 C 
ATOM      8  C   UNL     1       2.770  13.275  21.887  1.00  0.00    -0.070 CG0
ATOM      9  C   UNL     1       3.362  14.580  22.358  1.00  0.00     0.039 C 
ATOM     10  G   UNL     1       1.429  13.291  21.173  1.00  0.00     0.000 G0
ENDBRANCH   6   7
ENDBRANCH   5   6
ENDBRANCH   3   5
ENDBRANCH   1   3
BRANCH   1  11
ATOM     11  C   UNL     1      -0.503  11.113  21.568  1.00  0.00     0.087 C 
BRANCH  11  12
ATOM     12  C   UNL     1      -0.918  12.488  22.152  1.00  0.00     0.066 C 
BRANCH  12  13
ATOM     13  C   UNL     1       0.221  13.495  22.073  1.00  0.00     0.140 C 
ATOM     14  O   UNL     1       0.209  14.473  22.807  1.00  0.00    -0.299 OA
BRANCH  13  15
ATOM     15  C   UNL     1       1.416  13.299  21.166  1.00  0.00     0.106 CG0
ATOM     16  G   UNL     1       2.748  13.278  21.896  1.00  0.00     0.000 G0
ENDBRANCH  13  15
ENDBRANCH  12  13
BRANCH  12  17
ATOM     17  C   UNL     1      -2.218  13.076  21.521  1.00  0.00    -0.006 C 
ATOM     18  C   UNL     1      -3.479  12.373  22.050  1.00  0.00     0.008 C 
ATOM     19  C   UNL     1      -2.226  13.079  19.982  1.00  0.00     0.008 C 
ENDBRANCH  12  17
ENDBRANCH  11  12
ENDBRANCH   1  11
TORSDOF 1
ENDMDL
MODEL 8
REMARK VINA RESULT:    -5.314      2.113      3.221
REMARK INTER + INTRA:          -8.248
REMARK INTER:                  -8.258
REMARK INTRA:                   0.010
REMARK UNBOUND:                -0.138
REMARK SMILES CC1=CCC[C@H](C)C(=O)C[C@H](C(C)C)C(=O)C1
REMARK SMILES IDX 8 1 9 2 6 3 7 4 5 5 4 6 3 7 2 8 1 9 10 11 11 12 15 13 16 14
REMARK SMILES IDX 17 15 12 17 13 18 14 19
REMARK H PARENT
REMARK Flexibility Score: 70.00
ROOT
ATOM      1  C   UNL     1       0.744  14.747  22.356  1.00  0.00     0.136 C 
ATOM      2  O   UNL     1       1.590  15.312  23.034  1.00  0.00    -0.299 OA
ENDROOT
BRANCH   1   3
ATOM      3  C   UNL     1      -0.715  15.125  22.512  1.00  0.00     0.053 C 
ATOM      4  C   UNL     1      -1.041  15.280  24.001  1.00  0.00     0.016 C 
BRANCH   3   5
ATOM      5  C   UNL     1      -1.069  16.429  21.753  1.00  0.00     0.015 C 
BRANCH   5   6
ATOM      6  C   UNL     1      -2.055  16.234  20.589  1.00  0.00     0.028 C 
BRANCH   6   7
ATOM      7  C   UNL     1      -2.866  14.971  20.757  1.00  0.00    -0.028 C 
ATOM      8  C   UNL     1      -2.620  13.798  20.130  1.00  0.00    -0.070 CG0
ATOM      9  C   UNL     1      -3.527  12.630  20.427  1.00  0.00     0.039 C 
ATOM     10  G   UNL     1      -1.468  13.606  19.158  1.00  0.00     0.000 G0
ENDBRANCH   6   7
ENDBRANCH   5   6
ENDBRANCH   3   5
ENDBRANCH   1   3
BRANCH   1  11
ATOM     11  C   UNL     1       1.175  13.646  21.411  1.00  0.00     0.087 C 
BRANCH  11  12
ATOM     12  C   UNL     1       0.040  12.636  21.099  1.00  0.00     0.066 C 
BRANCH  12  13
ATOM     13  C   UNL     1      -0.373  12.696  19.635  1.00  0.00     0.140 C 
ATOM     14  O   UNL     1       0.151  11.937  18.832  1.00  0.00    -0.299 OA
BRANCH  13  15
ATOM     15  C   UNL     1      -1.468  13.615  19.138  1.00  0.00     0.106 CG0
ATOM     16  G   UNL     1      -2.614  13.794  20.118  1.00  0.00     0.000 G0
ENDBRANCH  13  15
ENDBRANCH  12  13
BRANCH  12  17
ATOM     17  C   UNL     1       0.368  11.170  21.520  1.00  0.00    -0.006 C 
ATOM     18  C   UNL     1      -0.739  10.568  22.401  1.00  0.00     0.008 C 
ATOM     19  C   UNL     1       1.734  11.001  22.206  1.00  0.00     0.008 C 
ENDBRANCH  12  17
ENDBRANCH  11  12
ENDBRANCH   1  11
TORSDOF 1
ENDMDL
MODEL 9
REMARK VINA RESULT:    -5.306      1.777      4.136
REMARK INTER + INTRA:          -8.236
REMARK INTER:                  -7.759
REMARK INTRA:                  -0.477
REMARK UNBOUND:                -0.138
REMARK SMILES CC1=CCC[C@H](C)C(=O)C[C@H](C(C)C)C(=O)C1
REMARK SMILES IDX 8 1 9 2 6 3 7 4 5 5 4 6 3 7 2 8 1 9 10 11 11 12 15 13 16 14
REMARK SMILES IDX 17 15 12 17 13 18 14 19
REMARK H PARENT
REMARK Flexibility Score: 70.00
ROOT
ATOM      1  C   UNL     1      -1.413  15.111  22.937  1.00  0.00     0.136 C 
ATOM      2  O   UNL     1      -2.147  15.710  23.710  1.00  0.00    -0.299 OA
ENDROOT
BRANCH   1   3
ATOM      3  C   UNL     1      -0.346  15.872  22.177  1.00  0.00     0.053 C 
ATOM      4  C   UNL     1      -0.975  17.103  21.515  1.00  0.00     0.016 C 
BRANCH   3   5
ATOM      5  C   UNL     1       0.831  16.302  23.089  1.00  0.00     0.015 C 
BRANCH   5   6
ATOM      6  C   UNL     1       1.717  15.140  23.566  1.00  0.00     0.028 C 
BRANCH   6   7
ATOM      7  C   UNL     1       2.462  14.503  22.417  1.00  0.00    -0.028 C 
ATOM      8  C   UNL     1       2.299  13.227  21.995  1.00  0.00    -0.070 CG0
ATOM      9  C   UNL     1       3.118  12.759  20.819  1.00  0.00     0.039 C 
ATOM     10  G   UNL     1       1.324  12.260  22.643  1.00  0.00     0.000 G0
ENDBRANCH   6   7
ENDBRANCH   5   6
ENDBRANCH   3   5
ENDBRANCH   1   3
BRANCH   1  11
ATOM     11  C   UNL     1      -1.625  13.628  22.723  1.00  0.00     0.087 C 
BRANCH  11  12
ATOM     12  C   UNL     1      -0.913  13.090  21.455  1.00  0.00     0.066 C 
BRANCH  12  13
ATOM     13  C   UNL     1       0.084  11.991  21.798  1.00  0.00     0.140 C 
ATOM     14  O   UNL     1      -0.078  10.870  21.340  1.00  0.00    -0.299 OA
BRANCH  13  15
ATOM     15  C   UNL     1       1.318  12.248  22.635  1.00  0.00     0.106 CG0
ATOM     16  G   UNL     1       2.300  13.219  22.003  1.00  0.00     0.000 G0
ENDBRANCH  13  15
ENDBRANCH  12  13
BRANCH  12  17
ATOM     17  C   UNL     1      -1.891  12.617  20.335  1.00  0.00    -0.006 C 
ATOM     18  C   UNL     1      -1.831  13.531  19.101  1.00  0.00     0.008 C 
ATOM     19  C   UNL     1      -3.349  12.455  20.798  1.00  0.00     0.008 C 
ENDBRANCH  12  17
ENDBRANCH  11  12
ENDBRANCH   1  11
TORSDOF 1
ENDMDL
