MODEL 1
REMARK VINA RESULT:    -5.832      0.000      0.000
REMARK INTER + INTRA:          -7.507
REMARK INTER:                  -7.025
REMARK INTRA:                  -0.482
REMARK UNBOUND:                -0.482
REMARK SMILES O=c1ccn([C@H]2O[C@@H](CO)[C@@H](O)[C@@H]2O)c(=O)[nH]1
REMARK SMILES IDX 6 1 13 2 11 3 8 4 7 5 5 6 3 7 4 8 2 9 17 10 1 11 15 12 16 14
REMARK SMILES IDX 14 15 12 17 9 19 10 20
REMARK H PARENT 17 13 14 16 12 18 10 21
REMARK Flexibility Score: inf
ROOT
ATOM      1  C   UNL     1      39.739  -8.272  -0.001  1.00  0.00     0.255 C 
ATOM      2  C   UNL     1      40.965  -9.032  -0.528  1.00  0.00     0.196 C 
ATOM      3  C   UNL     1      41.781  -9.295   0.719  1.00  0.00     0.179 C 
ATOM      4  C   UNL     1      41.268  -8.218   1.671  1.00  0.00     0.178 C 
ATOM      5  O   UNL     1      39.913  -7.987   1.373  1.00  0.00    -0.347 OA
ENDROOT
BRANCH   1   6
ATOM      6  N   UNL     1      38.507  -9.064  -0.209  1.00  0.00    -0.271 N 
ATOM      7  C   UNL     1      37.453 -11.168  -0.683  1.00  0.00     0.090 A 
ATOM      8  C   UNL     1      38.597 -10.410  -0.450  1.00  0.00     0.099 A 
ATOM      9  C   UNL     1      36.219 -10.529  -0.685  1.00  0.00     0.253 A 
ATOM     10  N   UNL     1      36.152  -9.189  -0.468  1.00  0.00    -0.274 N 
ATOM     11  O   UNL     1      35.167 -11.189  -0.892  1.00  0.00    -0.269 OA
ATOM     12  C   UNL     1      37.277  -8.455  -0.243  1.00  0.00     0.330 A 
ATOM     13  H   UNL     1      35.221  -8.713  -0.481  1.00  0.00     0.175 HD
ATOM     14  O   UNL     1      37.172  -7.209  -0.069  1.00  0.00    -0.248 OA
ENDBRANCH   1   6
BRANCH   2  15
ATOM     15  O   UNL     1      41.684  -8.217  -1.419  1.00  0.00    -0.386 OA
ATOM     16  H   UNL     1      42.097  -7.497  -0.873  1.00  0.00     0.211 HD
ENDBRANCH   2  15
BRANCH   3  17
ATOM     17  O   UNL     1      41.502 -10.581   1.213  1.00  0.00    -0.387 OA
ATOM     18  H   UNL     1      41.132 -10.460   2.126  1.00  0.00     0.211 HD
ENDBRANCH   3  17
BRANCH   4  19
ATOM     19  C   UNL     1      41.425  -8.575   3.157  1.00  0.00     0.191 C 
BRANCH  19  20
ATOM     20  O   UNL     1      40.410  -9.451   3.569  1.00  0.00    -0.394 OA
ATOM     21  H   UNL     1      39.700  -9.408   2.877  1.00  0.00     0.210 HD
ENDBRANCH  19  20
ENDBRANCH   4  19
TORSDOF 5
ENDMDL
MODEL 2
REMARK VINA RESULT:    -5.666      1.522      2.259
REMARK INTER + INTRA:          -7.307
REMARK INTER:                  -6.814
REMARK INTRA:                  -0.494
REMARK UNBOUND:                -0.482
REMARK SMILES O=c1ccn([C@H]2O[C@@H](CO)[C@@H](O)[C@@H]2O)c(=O)[nH]1
REMARK SMILES IDX 6 1 13 2 11 3 8 4 7 5 5 6 3 7 4 8 2 9 17 10 1 11 15 12 16 14
REMARK SMILES IDX 14 15 12 17 9 19 10 20
REMARK H PARENT 17 13 14 16 12 18 10 21
REMARK Flexibility Score: inf
ROOT
ATOM      1  C   UNL     1      38.932  -7.627   0.076  1.00  0.00     0.255 C 
ATOM      2  C   UNL     1      39.300  -6.820  -1.179  1.00  0.00     0.196 C 
ATOM      3  C   UNL     1      40.805  -6.952  -1.254  1.00  0.00     0.179 C 
ATOM      4  C   UNL     1      41.172  -7.292   0.187  1.00  0.00     0.178 C 
ATOM      5  O   UNL     1      40.113  -8.037   0.737  1.00  0.00    -0.347 OA
ENDROOT
BRANCH   1   6
ATOM      6  N   UNL     1      38.110  -8.803  -0.284  1.00  0.00    -0.271 N 
ATOM      7  C   UNL     1      37.888 -11.181  -0.518  1.00  0.00     0.090 A 
ATOM      8  C   UNL     1      38.632 -10.062  -0.152  1.00  0.00     0.099 A 
ATOM      9  C   UNL     1      36.613 -10.993  -1.039  1.00  0.00     0.253 A 
ATOM     10  N   UNL     1      36.123  -9.734  -1.185  1.00  0.00    -0.274 N 
ATOM     11  O   UNL     1      35.918 -11.987  -1.378  1.00  0.00    -0.269 OA
ATOM     12  C   UNL     1      36.857  -8.646  -0.825  1.00  0.00     0.330 A 
ATOM     13  H   UNL     1      35.166  -9.600  -1.587  1.00  0.00     0.175 HD
ATOM     14  O   UNL     1      36.373  -7.493  -1.000  1.00  0.00    -0.248 OA
ENDBRANCH   1   6
BRANCH   2  15
ATOM     15  O   UNL     1      38.936  -5.475  -1.003  1.00  0.00    -0.386 OA
ATOM     16  H   UNL     1      39.742  -5.005  -0.665  1.00  0.00     0.211 HD
ENDBRANCH   2  15
BRANCH   3  17
ATOM     17  O   UNL     1      41.153  -7.999  -2.125  1.00  0.00    -0.387 OA
ATOM     18  H   UNL     1      41.005  -8.844  -1.625  1.00  0.00     0.211 HD
ENDBRANCH   3  17
BRANCH   4  19
ATOM     19  C   UNL     1      42.488  -8.070   0.329  1.00  0.00     0.191 C 
BRANCH  19  20
ATOM     20  O   UNL     1      42.289  -9.437   0.089  1.00  0.00    -0.394 OA
ATOM     21  H   UNL     1      41.493  -9.704   0.620  1.00  0.00     0.210 HD
ENDBRANCH  19  20
ENDBRANCH   4  19
TORSDOF 5
ENDMDL
MODEL 3
REMARK VINA RESULT:    -5.487      2.202      5.183
REMARK INTER + INTRA:          -7.092
REMARK INTER:                  -6.710
REMARK INTRA:                  -0.382
REMARK UNBOUND:                -0.482
REMARK SMILES O=c1ccn([C@H]2O[C@@H](CO)[C@@H](O)[C@@H]2O)c(=O)[nH]1
REMARK SMILES IDX 6 1 13 2 11 3 8 4 7 5 5 6 3 7 4 8 2 9 17 10 1 11 15 12 16 14
REMARK SMILES IDX 14 15 12 17 9 19 10 20
REMARK H PARENT 17 13 14 16 12 18 10 21
REMARK Flexibility Score: inf
ROOT
ATOM      1  C   UNL     1      38.068  -7.970   0.358  1.00  0.00     0.255 C 
ATOM      2  C   UNL     1      37.875  -9.086   1.396  1.00  0.00     0.196 C 
ATOM      3  C   UNL     1      37.244 -10.206   0.598  1.00  0.00     0.179 C 
ATOM      4  C   UNL     1      36.639  -9.456  -0.586  1.00  0.00     0.178 C 
ATOM      5  O   UNL     1      37.463  -8.350  -0.862  1.00  0.00    -0.347 OA
ENDROOT
BRANCH   1   6
ATOM      6  N   UNL     1      39.507  -7.694   0.154  1.00  0.00    -0.271 N 
ATOM      7  C   UNL     1      41.802  -8.166   0.676  1.00  0.00     0.090 A 
ATOM      8  C   UNL     1      40.443  -8.432   0.827  1.00  0.00     0.099 A 
ATOM      9  C   UNL     1      42.187  -7.122  -0.157  1.00  0.00     0.253 A 
ATOM     10  N   UNL     1      41.242  -6.385  -0.797  1.00  0.00    -0.274 N 
ATOM     11  O   UNL     1      43.409  -6.858  -0.312  1.00  0.00    -0.269 OA
ATOM     12  C   UNL     1      39.916  -6.652  -0.643  1.00  0.00     0.330 A 
ATOM     13  H   UNL     1      41.540  -5.594  -1.415  1.00  0.00     0.175 HD
ATOM     14  O   UNL     1      39.071  -5.928  -1.238  1.00  0.00    -0.248 OA
ENDBRANCH   1   6
BRANCH   2  15
ATOM     15  O   UNL     1      36.999  -8.651   2.405  1.00  0.00    -0.386 OA
ATOM     16  H   UNL     1      36.140  -8.428   1.958  1.00  0.00     0.211 HD
ENDBRANCH   2  15
BRANCH   3  17
ATOM     17  O   UNL     1      38.233 -11.109   0.173  1.00  0.00    -0.387 OA
ATOM     18  H   UNL     1      38.429 -10.889  -0.775  1.00  0.00     0.211 HD
ENDBRANCH   3  17
BRANCH   4  19
ATOM     19  C   UNL     1      36.473 -10.315  -1.848  1.00  0.00     0.191 C 
BRANCH  19  20
ATOM     20  O   UNL     1      35.854 -11.536  -1.543  1.00  0.00    -0.394 OA
ATOM     21  H   UNL     1      35.567 -11.478  -0.594  1.00  0.00     0.210 HD
ENDBRANCH  19  20
ENDBRANCH   4  19
TORSDOF 5
ENDMDL
MODEL 4
REMARK VINA RESULT:    -5.344      2.246      3.637
REMARK INTER + INTRA:          -6.919
REMARK INTER:                  -6.490
REMARK INTRA:                  -0.429
REMARK UNBOUND:                -0.482
REMARK SMILES O=c1ccn([C@H]2O[C@@H](CO)[C@@H](O)[C@@H]2O)c(=O)[nH]1
REMARK SMILES IDX 6 1 13 2 11 3 8 4 7 5 5 6 3 7 4 8 2 9 17 10 1 11 15 12 16 14
REMARK SMILES IDX 14 15 12 17 9 19 10 20
REMARK H PARENT 17 13 14 16 12 18 10 21
REMARK Flexibility Score: inf
ROOT
ATOM      1  C   UNL     1      39.496  -8.887  -0.431  1.00  0.00     0.255 C 
ATOM      2  C   UNL     1      38.474  -9.851   0.189  1.00  0.00     0.196 C 
ATOM      3  C   UNL     1      38.924  -9.966   1.629  1.00  0.00     0.179 C 
ATOM      4  C   UNL     1      40.393  -9.559   1.540  1.00  0.00     0.178 C 
ATOM      5  O   UNL     1      40.516  -8.610   0.509  1.00  0.00    -0.347 OA
ENDROOT
BRANCH   1   6
ATOM      6  N   UNL     1      38.837  -7.633  -0.857  1.00  0.00    -0.271 N 
ATOM      7  C   UNL     1      36.896  -6.221  -0.892  1.00  0.00     0.090 A 
ATOM      8  C   UNL     1      37.547  -7.379  -0.473  1.00  0.00     0.099 A 
ATOM      9  C   UNL     1      37.575  -5.339  -1.724  1.00  0.00     0.253 A 
ATOM     10  N   UNL     1      38.846  -5.621  -2.114  1.00  0.00    -0.274 N 
ATOM     11  O   UNL     1      37.011  -4.284  -2.118  1.00  0.00    -0.269 OA
ATOM     12  C   UNL     1      39.474  -6.756  -1.700  1.00  0.00     0.330 A 
ATOM     13  H   UNL     1      39.347  -4.957  -2.748  1.00  0.00     0.175 HD
ATOM     14  O   UNL     1      40.647  -6.990  -2.105  1.00  0.00    -0.248 OA
ENDBRANCH   1   6
BRANCH   2  15
ATOM     15  O   UNL     1      38.550 -11.100  -0.447  1.00  0.00    -0.386 OA
ATOM     16  H   UNL     1      38.059 -11.011  -1.306  1.00  0.00     0.211 HD
ENDBRANCH   2  15
BRANCH   3  17
ATOM     17  O   UNL     1      38.199  -9.068   2.433  1.00  0.00    -0.387 OA
ATOM     18  H   UNL     1      38.848  -8.669   3.068  1.00  0.00     0.211 HD
ENDBRANCH   3  17
BRANCH   4  19
ATOM     19  C   UNL     1      40.962  -8.989   2.847  1.00  0.00     0.191 C 
BRANCH  19  20
ATOM     20  O   UNL     1      40.442  -9.672   3.957  1.00  0.00    -0.394 OA
ATOM     21  H   UNL     1      41.031 -10.457   4.108  1.00  0.00     0.210 HD
ENDBRANCH  19  20
ENDBRANCH   4  19
TORSDOF 5
ENDMDL
MODEL 5
REMARK VINA RESULT:    -5.335      2.349      5.013
REMARK INTER + INTRA:          -6.909
REMARK INTER:                  -6.368
REMARK INTRA:                  -0.541
REMARK UNBOUND:                -0.482
REMARK SMILES O=c1ccn([C@H]2O[C@@H](CO)[C@@H](O)[C@@H]2O)c(=O)[nH]1
REMARK SMILES IDX 6 1 13 2 11 3 8 4 7 5 5 6 3 7 4 8 2 9 17 10 1 11 15 12 16 14
REMARK SMILES IDX 14 15 12 17 9 19 10 20
REMARK H PARENT 17 13 14 16 12 18 10 21
REMARK Flexibility Score: inf
ROOT
ATOM      1  C   UNL     1      39.377  -8.568   1.042  1.00  0.00     0.255 C 
ATOM      2  C   UNL     1      39.858  -9.994   0.739  1.00  0.00     0.196 C 
ATOM      3  C   UNL     1      38.634 -10.664   0.155  1.00  0.00     0.179 C 
ATOM      4  C   UNL     1      37.502  -9.796   0.698  1.00  0.00     0.178 C 
ATOM      5  O   UNL     1      37.984  -8.480   0.811  1.00  0.00    -0.347 OA
ENDROOT
BRANCH   1   6
ATOM      6  N   UNL     1      40.100  -7.586   0.206  1.00  0.00    -0.271 N 
ATOM      7  C   UNL     1      40.202  -6.222  -1.767  1.00  0.00     0.090 A 
ATOM      8  C   UNL     1      39.525  -7.121  -0.947  1.00  0.00     0.099 A 
ATOM      9  C   UNL     1      41.482  -5.822  -1.402  1.00  0.00     0.253 A 
ATOM     10  N   UNL     1      42.045  -6.313  -0.268  1.00  0.00    -0.274 N 
ATOM     11  O   UNL     1      42.118  -5.010  -2.125  1.00  0.00    -0.269 OA
ATOM     12  C   UNL     1      41.376  -7.192   0.528  1.00  0.00     0.330 A 
ATOM     13  H   UNL     1      43.013  -6.014  -0.004  1.00  0.00     0.175 HD
ATOM     14  O   UNL     1      41.945  -7.641   1.561  1.00  0.00    -0.248 OA
ENDBRANCH   1   6
BRANCH   2  15
ATOM     15  O   UNL     1      40.242 -10.631   1.931  1.00  0.00    -0.386 OA
ATOM     16  H   UNL     1      41.213 -10.821   1.851  1.00  0.00     0.211 HD
ENDBRANCH   2  15
BRANCH   3  17
ATOM     17  O   UNL     1      38.682 -10.613  -1.249  1.00  0.00    -0.387 OA
ATOM     18  H   UNL     1      37.813 -10.966  -1.575  1.00  0.00     0.211 HD
ENDBRANCH   3  17
BRANCH   4  19
ATOM     19  C   UNL     1      36.232  -9.818  -0.164  1.00  0.00     0.191 C 
BRANCH  19  20
ATOM     20  O   UNL     1      36.158  -8.675  -0.973  1.00  0.00    -0.394 OA
ATOM     21  H   UNL     1      37.093  -8.421  -1.190  1.00  0.00     0.210 HD
ENDBRANCH  19  20
ENDBRANCH   4  19
TORSDOF 5
ENDMDL
MODEL 6
REMARK VINA RESULT:    -5.294      1.740      5.181
REMARK INTER + INTRA:          -6.860
REMARK INTER:                  -6.326
REMARK INTRA:                  -0.534
REMARK UNBOUND:                -0.482
REMARK SMILES O=c1ccn([C@H]2O[C@@H](CO)[C@@H](O)[C@@H]2O)c(=O)[nH]1
REMARK SMILES IDX 6 1 13 2 11 3 8 4 7 5 5 6 3 7 4 8 2 9 17 10 1 11 15 12 16 14
REMARK SMILES IDX 14 15 12 17 9 19 10 20
REMARK H PARENT 17 13 14 16 12 18 10 21
REMARK Flexibility Score: inf
ROOT
ATOM      1  C   UNL     1      38.540  -9.234  -1.245  1.00  0.00     0.255 C 
ATOM      2  C   UNL     1      37.219  -8.466  -1.084  1.00  0.00     0.196 C 
ATOM      3  C   UNL     1      36.166  -9.546  -1.204  1.00  0.00     0.179 C 
ATOM      4  C   UNL     1      36.913 -10.641  -1.960  1.00  0.00     0.178 C 
ATOM      5  O   UNL     1      38.267 -10.579  -1.584  1.00  0.00    -0.347 OA
ENDROOT
BRANCH   1   6
ATOM      6  N   UNL     1      39.334  -9.169   0.001  1.00  0.00    -0.271 N 
ATOM      7  C   UNL     1      39.712  -9.898   2.257  1.00  0.00     0.090 A 
ATOM      8  C   UNL     1      38.999  -9.967   1.062  1.00  0.00     0.099 A 
ATOM      9  C   UNL     1      40.758  -8.988   2.356  1.00  0.00     0.253 A 
ATOM     10  N   UNL     1      41.059  -8.188   1.301  1.00  0.00    -0.274 N 
ATOM     11  O   UNL     1      41.420  -8.903   3.424  1.00  0.00    -0.269 OA
ATOM     12  C   UNL     1      40.357  -8.262   0.137  1.00  0.00     0.330 A 
ATOM     13  H   UNL     1      41.842  -7.498   1.386  1.00  0.00     0.175 HD
ATOM     14  O   UNL     1      40.655  -7.484  -0.811  1.00  0.00    -0.248 OA
ENDBRANCH   1   6
BRANCH   2  15
ATOM     15  O   UNL     1      37.082  -7.532  -2.125  1.00  0.00    -0.386 OA
ATOM     16  H   UNL     1      36.154  -7.181  -2.069  1.00  0.00     0.211 HD
ENDBRANCH   2  15
BRANCH   3  17
ATOM     17  O   UNL     1      35.782  -9.986   0.075  1.00  0.00    -0.387 OA
ATOM     18  H   UNL     1      36.406  -9.562   0.720  1.00  0.00     0.211 HD
ENDBRANCH   3  17
BRANCH   4  19
ATOM     19  C   UNL     1      36.364 -12.054  -1.713  1.00  0.00     0.191 C 
BRANCH  19  20
ATOM     20  O   UNL     1      34.962 -12.043  -1.661  1.00  0.00    -0.394 OA
ATOM     21  H   UNL     1      34.657 -11.430  -2.381  1.00  0.00     0.210 HD
ENDBRANCH  19  20
ENDBRANCH   4  19
TORSDOF 5
ENDMDL
MODEL 7
REMARK VINA RESULT:    -5.262      2.395      5.128
REMARK INTER + INTRA:          -6.821
REMARK INTER:                  -6.192
REMARK INTRA:                  -0.629
REMARK UNBOUND:                -0.482
REMARK SMILES O=c1ccn([C@H]2O[C@@H](CO)[C@@H](O)[C@@H]2O)c(=O)[nH]1
REMARK SMILES IDX 6 1 13 2 11 3 8 4 7 5 5 6 3 7 4 8 2 9 17 10 1 11 15 12 16 14
REMARK SMILES IDX 14 15 12 17 9 19 10 20
REMARK H PARENT 17 13 14 16 12 18 10 21
REMARK Flexibility Score: inf
ROOT
ATOM      1  C   UNL     1      38.476  -7.586  -1.085  1.00  0.00     0.255 C 
ATOM      2  C   UNL     1      37.591  -7.243   0.122  1.00  0.00     0.196 C 
ATOM      3  C   UNL     1      37.102  -8.594   0.597  1.00  0.00     0.179 C 
ATOM      4  C   UNL     1      37.265  -9.453  -0.654  1.00  0.00     0.178 C 
ATOM      5  O   UNL     1      38.374  -8.967  -1.370  1.00  0.00    -0.347 OA
ENDROOT
BRANCH   1   6
ATOM      6  N   UNL     1      39.884  -7.220  -0.818  1.00  0.00    -0.271 N 
ATOM      7  C   UNL     1      42.042  -7.793   0.063  1.00  0.00     0.090 A 
ATOM      8  C   UNL     1      40.723  -8.129  -0.229  1.00  0.00     0.099 A 
ATOM      9  C   UNL     1      42.486  -6.511  -0.237  1.00  0.00     0.253 A 
ATOM     10  N   UNL     1      41.632  -5.615  -0.798  1.00  0.00    -0.274 N 
ATOM     11  O   UNL     1      43.674  -6.179   0.016  1.00  0.00    -0.269 OA
ATOM     12  C   UNL     1      40.343  -5.951  -1.080  1.00  0.00     0.330 A 
ATOM     13  H   UNL     1      41.970  -4.648  -1.012  1.00  0.00     0.175 HD
ATOM     14  O   UNL     1      39.576  -5.082  -1.579  1.00  0.00    -0.248 OA
ENDBRANCH   1   6
BRANCH   2  15
ATOM     15  O   UNL     1      36.507  -6.451  -0.292  1.00  0.00    -0.386 OA
ATOM     16  H   UNL     1      36.867  -5.538  -0.449  1.00  0.00     0.211 HD
ENDBRANCH   2  15
BRANCH   3  17
ATOM     17  O   UNL     1      37.920  -9.061   1.641  1.00  0.00    -0.387 OA
ATOM     18  H   UNL     1      37.331  -9.185   2.429  1.00  0.00     0.211 HD
ENDBRANCH   3  17
BRANCH   4  19
ATOM     19  C   UNL     1      37.444 -10.950  -0.363  1.00  0.00     0.191 C 
BRANCH  19  20
ATOM     20  O   UNL     1      38.738 -11.216   0.108  1.00  0.00    -0.394 OA
ATOM     21  H   UNL     1      39.251 -11.574  -0.663  1.00  0.00     0.210 HD
ENDBRANCH  19  20
ENDBRANCH   4  19
TORSDOF 5
ENDMDL
MODEL 8
REMARK VINA RESULT:    -5.127      2.820      5.032
REMARK INTER + INTRA:          -6.658
REMARK INTER:                  -6.414
REMARK INTRA:                  -0.244
REMARK UNBOUND:                -0.482
REMARK SMILES O=c1ccn([C@H]2O[C@@H](CO)[C@@H](O)[C@@H]2O)c(=O)[nH]1
REMARK SMILES IDX 6 1 13 2 11 3 8 4 7 5 5 6 3 7 4 8 2 9 17 10 1 11 15 12 16 14
REMARK SMILES IDX 14 15 12 17 9 19 10 20
REMARK H PARENT 17 13 14 16 12 18 10 21
REMARK Flexibility Score: inf
ROOT
ATOM      1  C   UNL     1      40.636  -8.803  -0.703  1.00  0.00     0.255 C 
ATOM      2  C   UNL     1      39.146  -8.951  -1.046  1.00  0.00     0.196 C 
ATOM      3  C   UNL     1      38.520  -9.370   0.266  1.00  0.00     0.179 C 
ATOM      4  C   UNL     1      39.712  -9.953   1.019  1.00  0.00     0.178 C 
ATOM      5  O   UNL     1      40.862  -9.248   0.620  1.00  0.00    -0.347 OA
ENDROOT
BRANCH   1   6
ATOM      6  N   UNL     1      41.067  -7.395  -0.851  1.00  0.00    -0.271 N 
ATOM      7  C   UNL     1      40.528  -5.101  -1.307  1.00  0.00     0.090 A 
ATOM      8  C   UNL     1      40.139  -6.426  -1.128  1.00  0.00     0.099 A 
ATOM      9  C   UNL     1      41.878  -4.785  -1.217  1.00  0.00     0.253 A 
ATOM     10  N   UNL     1      42.786  -5.764  -0.967  1.00  0.00    -0.274 N 
ATOM     11  O   UNL     1      42.259  -3.595  -1.374  1.00  0.00    -0.269 OA
ATOM     12  C   UNL     1      42.397  -7.058  -0.794  1.00  0.00     0.330 A 
ATOM     13  H   UNL     1      43.802  -5.521  -0.911  1.00  0.00     0.175 HD
ATOM     14  O   UNL     1      43.275  -7.940  -0.586  1.00  0.00    -0.248 OA
ENDBRANCH   1   6
BRANCH   2  15
ATOM     15  O   UNL     1      38.978  -9.958  -2.011  1.00  0.00    -0.386 OA
ATOM     16  H   UNL     1      39.848 -10.047  -2.482  1.00  0.00     0.211 HD
ENDBRANCH   2  15
BRANCH   3  17
ATOM     17  O   UNL     1      38.003  -8.245   0.932  1.00  0.00    -0.387 OA
ATOM     18  H   UNL     1      37.017  -8.279   0.821  1.00  0.00     0.211 HD
ENDBRANCH   3  17
BRANCH   4  19
ATOM     19  C   UNL     1      39.570  -9.903   2.547  1.00  0.00     0.191 C 
BRANCH  19  20
ATOM     20  O   UNL     1      40.699  -9.314   3.135  1.00  0.00    -0.394 OA
ATOM     21  H   UNL     1      41.117  -8.746   2.436  1.00  0.00     0.210 HD
ENDBRANCH  19  20
ENDBRANCH   4  19
TORSDOF 5
ENDMDL
MODEL 9
REMARK VINA RESULT:    -4.966      2.481      4.382
REMARK INTER + INTRA:          -6.464
REMARK INTER:                  -6.109
REMARK INTRA:                  -0.355
REMARK UNBOUND:                -0.482
REMARK SMILES O=c1ccn([C@H]2O[C@@H](CO)[C@@H](O)[C@@H]2O)c(=O)[nH]1
REMARK SMILES IDX 6 1 13 2 11 3 8 4 7 5 5 6 3 7 4 8 2 9 17 10 1 11 15 12 16 14
REMARK SMILES IDX 14 15 12 17 9 19 10 20
REMARK H PARENT 17 13 14 16 12 18 10 21
REMARK Flexibility Score: inf
ROOT
ATOM      1  C   UNL     1      41.209  -7.989  -1.117  1.00  0.00     0.255 C 
ATOM      2  C   UNL     1      42.498  -7.183  -0.897  1.00  0.00     0.196 C 
ATOM      3  C   UNL     1      42.091  -5.766  -1.233  1.00  0.00     0.179 C 
ATOM      4  C   UNL     1      40.867  -5.984  -2.119  1.00  0.00     0.178 C 
ATOM      5  O   UNL     1      40.217  -7.150  -1.677  1.00  0.00    -0.347 OA
ENDROOT
BRANCH   1   6
ATOM      6  N   UNL     1      40.732  -8.567   0.158  1.00  0.00    -0.271 N 
ATOM      7  C   UNL     1      40.977  -8.836   2.531  1.00  0.00     0.090 A 
ATOM      8  C   UNL     1      41.388  -8.275   1.324  1.00  0.00     0.099 A 
ATOM      9  C   UNL     1      39.900  -9.713   2.525  1.00  0.00     0.253 A 
ATOM     10  N   UNL     1      39.277 -10.010   1.354  1.00  0.00    -0.274 N 
ATOM     11  O   UNL     1      39.506 -10.235   3.601  1.00  0.00    -0.269 OA
ATOM     12  C   UNL     1      39.686  -9.457   0.179  1.00  0.00     0.330 A 
ATOM     13  H   UNL     1      38.472 -10.679   1.356  1.00  0.00     0.175 HD
ATOM     14  O   UNL     1      39.094  -9.778  -0.889  1.00  0.00    -0.248 OA
ENDBRANCH   1   6
BRANCH   2  15
ATOM     15  O   UNL     1      43.494  -7.628  -1.781  1.00  0.00    -0.386 OA
ATOM     16  H   UNL     1      44.169  -6.902  -1.836  1.00  0.00     0.211 HD
ENDBRANCH   2  15
BRANCH   3  17
ATOM     17  O   UNL     1      41.748  -5.073  -0.059  1.00  0.00    -0.387 OA
ATOM     18  H   UNL     1      42.596  -4.734   0.328  1.00  0.00     0.211 HD
ENDBRANCH   3  17
BRANCH   4  19
ATOM     19  C   UNL     1      39.883  -4.805  -2.124  1.00  0.00     0.191 C 
BRANCH  19  20
ATOM     20  O   UNL     1      38.765  -5.085  -1.324  1.00  0.00    -0.394 OA
ATOM     21  H   UNL     1      37.983  -4.676  -1.778  1.00  0.00     0.210 HD
ENDBRANCH  19  20
ENDBRANCH   4  19
TORSDOF 5
ENDMDL
