MODEL 1
REMARK VINA RESULT:    -6.109      0.000      0.000
REMARK INTER + INTRA:          -6.837
REMARK INTER:                  -6.644
REMARK INTRA:                  -0.192
REMARK UNBOUND:                -0.192
REMARK SMILES Cc1ccc(C(C)C)c(O)c1
REMARK SMILES IDX 1 1 2 2 11 3 9 4 5 5 4 6 3 7 10 8 6 10 7 11 8 12
REMARK H PARENT 10 9
REMARK Flexibility Score: inf
ROOT
ATOM      1  C   UNL     1     -15.012  60.527  39.402  1.00  0.00     0.044 C 
ATOM      2  C   UNL     1     -13.654  61.163  39.465  1.00  0.00    -0.047 A 
ATOM      3  C   UNL     1     -12.574  60.467  40.021  1.00  0.00     0.049 A 
ATOM      4  C   UNL     1     -11.309  61.067  40.117  1.00  0.00     0.119 A 
ATOM      5  C   UNL     1     -11.119  62.393  39.662  1.00  0.00    -0.004 A 
ATOM      6  C   UNL     1     -12.218  63.087  39.122  1.00  0.00     0.008 A 
ATOM      7  C   UNL     1     -13.472  62.482  39.031  1.00  0.00     0.004 A 
ENDROOT
BRANCH   4   8
ATOM      8  O   UNL     1     -10.251  60.343  40.667  1.00  0.00    -0.508 OA
ATOM      9  H   UNL     1      -9.394  60.180  40.153  1.00  0.00     0.293 HD
ENDBRANCH   4   8
BRANCH   5  10
ATOM     10  C   UNL     1      -9.771  63.098  39.738  1.00  0.00     0.017 C 
ATOM     11  C   UNL     1      -9.568  64.069  38.569  1.00  0.00     0.012 C 
ATOM     12  C   UNL     1      -9.567  63.794  41.091  1.00  0.00     0.012 C 
ENDBRANCH   5  10
TORSDOF 2
ENDMDL
MODEL 2
REMARK VINA RESULT:    -5.893      1.796      4.487
REMARK INTER + INTRA:          -6.603
REMARK INTER:                  -6.407
REMARK INTRA:                  -0.196
REMARK UNBOUND:                -0.192
REMARK SMILES Cc1ccc(C(C)C)c(O)c1
REMARK SMILES IDX 1 1 2 2 11 3 9 4 5 5 4 6 3 7 10 8 6 10 7 11 8 12
REMARK H PARENT 10 9
REMARK Flexibility Score: inf
ROOT
ATOM      1  C   UNL     1      -8.392  64.021  39.800  1.00  0.00     0.044 C 
ATOM      2  C   UNL     1      -9.651  63.204  39.770  1.00  0.00    -0.047 A 
ATOM      3  C   UNL     1     -10.874  63.802  39.440  1.00  0.00     0.049 A 
ATOM      4  C   UNL     1     -12.061  63.054  39.446  1.00  0.00     0.119 A 
ATOM      5  C   UNL     1     -12.033  61.684  39.800  1.00  0.00    -0.004 A 
ATOM      6  C   UNL     1     -10.800  61.101  40.147  1.00  0.00     0.008 A 
ATOM      7  C   UNL     1      -9.624  61.853  40.139  1.00  0.00     0.004 A 
ENDROOT
BRANCH   4   8
ATOM      8  O   UNL     1     -13.260  63.677  39.103  1.00  0.00    -0.508 OA
ATOM      9  H   UNL     1     -14.037  63.731  39.751  1.00  0.00     0.293 HD
ENDBRANCH   4   8
BRANCH   5  10
ATOM     10  C   UNL     1     -13.287  60.821  39.823  1.00  0.00     0.017 C 
ATOM     11  C   UNL     1     -13.414  59.966  38.556  1.00  0.00     0.012 C 
ATOM     12  C   UNL     1     -13.364  59.962  41.093  1.00  0.00     0.012 C 
ENDBRANCH   5  10
TORSDOF 2
ENDMDL
MODEL 3
REMARK VINA RESULT:    -5.862      1.984      2.795
REMARK INTER + INTRA:          -6.568
REMARK INTER:                  -6.424
REMARK INTRA:                  -0.144
REMARK UNBOUND:                -0.192
REMARK SMILES Cc1ccc(C(C)C)c(O)c1
REMARK SMILES IDX 1 1 2 2 11 3 9 4 5 5 4 6 3 7 10 8 6 10 7 11 8 12
REMARK H PARENT 10 9
REMARK Flexibility Score: inf
ROOT
ATOM      1  C   UNL     1     -16.236  59.976  38.618  1.00  0.00     0.044 C 
ATOM      2  C   UNL     1     -14.898  60.610  38.860  1.00  0.00    -0.047 A 
ATOM      3  C   UNL     1     -14.769  62.005  38.876  1.00  0.00     0.049 A 
ATOM      4  C   UNL     1     -13.516  62.606  39.064  1.00  0.00     0.119 A 
ATOM      5  C   UNL     1     -12.363  61.802  39.228  1.00  0.00    -0.004 A 
ATOM      6  C   UNL     1     -12.504  60.402  39.191  1.00  0.00     0.008 A 
ATOM      7  C   UNL     1     -13.755  59.813  39.002  1.00  0.00     0.004 A 
ENDROOT
BRANCH   4   8
ATOM      8  O   UNL     1     -13.423  63.997  39.084  1.00  0.00    -0.508 OA
ATOM      9  H   UNL     1     -14.050  64.565  39.642  1.00  0.00     0.293 HD
ENDBRANCH   4   8
BRANCH   5  10
ATOM     10  C   UNL     1     -10.976  62.396  39.437  1.00  0.00     0.017 C 
ATOM     11  C   UNL     1     -10.031  61.405  40.129  1.00  0.00     0.012 C 
ATOM     12  C   UNL     1     -10.378  62.923  38.126  1.00  0.00     0.012 C 
ENDBRANCH   5  10
TORSDOF 2
ENDMDL
MODEL 4
REMARK VINA RESULT:    -5.704      1.296      4.171
REMARK INTER + INTRA:          -6.396
REMARK INTER:                  -6.371
REMARK INTRA:                  -0.026
REMARK UNBOUND:                -0.192
REMARK SMILES Cc1ccc(C(C)C)c(O)c1
REMARK SMILES IDX 1 1 2 2 11 3 9 4 5 5 4 6 3 7 10 8 6 10 7 11 8 12
REMARK H PARENT 10 9
REMARK Flexibility Score: inf
ROOT
ATOM      1  C   UNL     1      -8.728  64.589  39.177  1.00  0.00     0.044 C 
ATOM      2  C   UNL     1      -9.710  63.477  39.407  1.00  0.00    -0.047 A 
ATOM      3  C   UNL     1      -9.634  62.696  40.567  1.00  0.00     0.049 A 
ATOM      4  C   UNL     1     -10.524  61.632  40.772  1.00  0.00     0.119 A 
ATOM      5  C   UNL     1     -11.503  61.330  39.797  1.00  0.00    -0.004 A 
ATOM      6  C   UNL     1     -11.556  62.111  38.627  1.00  0.00     0.008 A 
ATOM      7  C   UNL     1     -10.666  63.168  38.431  1.00  0.00     0.004 A 
ENDROOT
BRANCH   4   8
ATOM      8  O   UNL     1     -10.429  60.880  41.943  1.00  0.00    -0.508 OA
ATOM      9  H   UNL     1      -9.605  60.912  42.532  1.00  0.00     0.293 HD
ENDBRANCH   4   8
BRANCH   5  10
ATOM     10  C   UNL     1     -12.498  60.188  39.963  1.00  0.00     0.017 C 
ATOM     11  C   UNL     1     -13.465  60.440  41.126  1.00  0.00     0.012 C 
ATOM     12  C   UNL     1     -13.249  59.891  38.658  1.00  0.00     0.012 C 
ENDBRANCH   5  10
TORSDOF 2
ENDMDL
MODEL 5
REMARK VINA RESULT:    -5.514     12.393     14.395
REMARK INTER + INTRA:          -6.190
REMARK INTER:                  -5.998
REMARK INTRA:                  -0.192
REMARK UNBOUND:                -0.192
REMARK SMILES Cc1ccc(C(C)C)c(O)c1
REMARK SMILES IDX 1 1 2 2 11 3 9 4 5 5 4 6 3 7 10 8 6 10 7 11 8 12
REMARK H PARENT 10 9
REMARK Flexibility Score: inf
ROOT
ATOM      1  C   UNL     1      -6.705  60.984  55.599  1.00  0.00     0.044 C 
ATOM      2  C   UNL     1      -6.747  61.962  54.462  1.00  0.00    -0.047 A 
ATOM      3  C   UNL     1      -7.783  62.900  54.375  1.00  0.00     0.049 A 
ATOM      4  C   UNL     1      -7.852  63.794  53.296  1.00  0.00     0.119 A 
ATOM      5  C   UNL     1      -6.875  63.744  52.274  1.00  0.00    -0.004 A 
ATOM      6  C   UNL     1      -5.850  62.784  52.364  1.00  0.00     0.008 A 
ATOM      7  C   UNL     1      -5.791  61.899  53.441  1.00  0.00     0.004 A 
ENDROOT
BRANCH   4   8
ATOM      8  O   UNL     1      -8.891  64.723  53.245  1.00  0.00    -0.508 OA
ATOM      9  H   UNL     1      -9.097  65.336  54.024  1.00  0.00     0.293 HD
ENDBRANCH   4   8
BRANCH   5  10
ATOM     10  C   UNL     1      -6.895  64.688  51.078  1.00  0.00     0.017 C 
ATOM     11  C   UNL     1      -6.174  66.007  51.381  1.00  0.00     0.012 C 
ATOM     12  C   UNL     1      -6.338  64.019  49.814  1.00  0.00     0.012 C 
ENDBRANCH   5  10
TORSDOF 2
ENDMDL
MODEL 6
REMARK VINA RESULT:    -5.474     17.649     19.207
REMARK INTER + INTRA:          -6.147
REMARK INTER:                  -6.169
REMARK INTRA:                   0.023
REMARK UNBOUND:                -0.192
REMARK SMILES Cc1ccc(C(C)C)c(O)c1
REMARK SMILES IDX 1 1 2 2 11 3 9 4 5 5 4 6 3 7 10 8 6 10 7 11 8 12
REMARK H PARENT 10 9
REMARK Flexibility Score: inf
ROOT
ATOM      1  C   UNL     1      -8.208  49.611  55.803  1.00  0.00     0.044 C 
ATOM      2  C   UNL     1      -9.532  49.713  55.104  1.00  0.00    -0.047 A 
ATOM      3  C   UNL     1      -9.901  50.901  54.461  1.00  0.00     0.049 A 
ATOM      4  C   UNL     1     -11.152  51.018  53.837  1.00  0.00     0.119 A 
ATOM      5  C   UNL     1     -12.061  49.933  53.865  1.00  0.00    -0.004 A 
ATOM      6  C   UNL     1     -11.684  48.752  54.532  1.00  0.00     0.008 A 
ATOM      7  C   UNL     1     -10.437  48.646  55.150  1.00  0.00     0.004 A 
ENDROOT
BRANCH   4   8
ATOM      8  O   UNL     1     -11.486  52.210  53.197  1.00  0.00    -0.508 OA
ATOM      9  H   UNL     1     -10.851  53.000  53.175  1.00  0.00     0.293 HD
ENDBRANCH   4   8
BRANCH   5  10
ATOM     10  C   UNL     1     -13.433  50.000  53.206  1.00  0.00     0.017 C 
ATOM     11  C   UNL     1     -13.326  50.199  51.689  1.00  0.00     0.012 C 
ATOM     12  C   UNL     1     -14.293  48.778  53.556  1.00  0.00     0.012 C 
ENDBRANCH   5  10
TORSDOF 2
ENDMDL
MODEL 7
REMARK VINA RESULT:    -5.316     15.769     17.506
REMARK INTER + INTRA:          -5.975
REMARK INTER:                  -5.780
REMARK INTRA:                  -0.195
REMARK UNBOUND:                -0.192
REMARK SMILES Cc1ccc(C(C)C)c(O)c1
REMARK SMILES IDX 1 1 2 2 11 3 9 4 5 5 4 6 3 7 10 8 6 10 7 11 8 12
REMARK H PARENT 10 9
REMARK Flexibility Score: inf
ROOT
ATOM      1  C   UNL     1      -7.745  61.528  53.729  1.00  0.00     0.044 C 
ATOM      2  C   UNL     1      -6.572  60.967  54.479  1.00  0.00    -0.047 A 
ATOM      3  C   UNL     1      -5.266  61.243  54.056  1.00  0.00     0.049 A 
ATOM      4  C   UNL     1      -4.164  60.693  54.728  1.00  0.00     0.119 A 
ATOM      5  C   UNL     1      -4.367  59.840  55.839  1.00  0.00    -0.004 A 
ATOM      6  C   UNL     1      -5.686  59.557  56.242  1.00  0.00     0.008 A 
ATOM      7  C   UNL     1      -6.775  60.108  55.566  1.00  0.00     0.004 A 
ENDROOT
BRANCH   4   8
ATOM      8  O   UNL     1      -2.876  60.995  54.288  1.00  0.00    -0.508 OA
ATOM      9  H   UNL     1      -2.422  60.456  53.561  1.00  0.00     0.293 HD
ENDBRANCH   4   8
BRANCH   5  10
ATOM     10  C   UNL     1      -3.213  59.214  56.610  1.00  0.00     0.017 C 
ATOM     11  C   UNL     1      -3.375  59.395  58.125  1.00  0.00     0.012 C 
ATOM     12  C   UNL     1      -3.010  57.740  56.237  1.00  0.00     0.012 C 
ENDBRANCH   5  10
TORSDOF 2
ENDMDL
MODEL 8
REMARK VINA RESULT:    -5.283     17.227     18.946
REMARK INTER + INTRA:          -5.939
REMARK INTER:                  -5.814
REMARK INTRA:                  -0.124
REMARK UNBOUND:                -0.192
REMARK SMILES Cc1ccc(C(C)C)c(O)c1
REMARK SMILES IDX 1 1 2 2 11 3 9 4 5 5 4 6 3 7 10 8 6 10 7 11 8 12
REMARK H PARENT 10 9
REMARK Flexibility Score: inf
ROOT
ATOM      1  C   UNL     1     -10.376  51.756  53.999  1.00  0.00     0.044 C 
ATOM      2  C   UNL     1     -11.506  50.820  53.682  1.00  0.00    -0.047 A 
ATOM      3  C   UNL     1     -12.249  50.981  52.507  1.00  0.00     0.049 A 
ATOM      4  C   UNL     1     -13.330  50.134  52.221  1.00  0.00     0.119 A 
ATOM      5  C   UNL     1     -13.687  49.111  53.131  1.00  0.00    -0.004 A 
ATOM      6  C   UNL     1     -12.943  48.972  54.318  1.00  0.00     0.008 A 
ATOM      7  C   UNL     1     -11.870  49.821  54.594  1.00  0.00     0.004 A 
ENDROOT
BRANCH   4   8
ATOM      8  O   UNL     1     -14.044  50.315  51.037  1.00  0.00    -0.508 OA
ATOM      9  H   UNL     1     -13.602  50.228  50.130  1.00  0.00     0.293 HD
ENDBRANCH   4   8
BRANCH   5  10
ATOM     10  C   UNL     1     -14.849  48.160  52.877  1.00  0.00     0.017 C 
ATOM     11  C   UNL     1     -14.725  46.875  53.705  1.00  0.00     0.012 C 
ATOM     12  C   UNL     1     -16.205  48.844  53.097  1.00  0.00     0.012 C 
ENDBRANCH   5  10
TORSDOF 2
ENDMDL
MODEL 9
REMARK VINA RESULT:    -5.272      2.046      3.016
REMARK INTER + INTRA:          -5.927
REMARK INTER:                  -5.730
REMARK INTRA:                  -0.197
REMARK UNBOUND:                -0.192
REMARK SMILES Cc1ccc(C(C)C)c(O)c1
REMARK SMILES IDX 1 1 2 2 11 3 9 4 5 5 4 6 3 7 10 8 6 10 7 11 8 12
REMARK H PARENT 10 9
REMARK Flexibility Score: inf
ROOT
ATOM      1  C   UNL     1     -12.113  60.009  40.102  1.00  0.00     0.044 C 
ATOM      2  C   UNL     1     -11.315  61.279  40.144  1.00  0.00    -0.047 A 
ATOM      3  C   UNL     1     -11.218  62.091  39.007  1.00  0.00     0.049 A 
ATOM      4  C   UNL     1     -10.444  63.260  39.025  1.00  0.00     0.119 A 
ATOM      5  C   UNL     1      -9.742  63.625  40.198  1.00  0.00    -0.004 A 
ATOM      6  C   UNL     1      -9.833  62.791  41.328  1.00  0.00     0.008 A 
ATOM      7  C   UNL     1     -10.605  61.628  41.299  1.00  0.00     0.004 A 
ENDROOT
BRANCH   4   8
ATOM      8  O   UNL     1     -10.376  64.052  37.879  1.00  0.00    -0.508 OA
ATOM      9  H   UNL     1     -10.013  63.693  37.005  1.00  0.00     0.293 HD
ENDBRANCH   4   8
BRANCH   5  10
ATOM     10  C   UNL     1      -8.886  64.883  40.281  1.00  0.00     0.017 C 
ATOM     11  C   UNL     1      -9.059  65.602  41.624  1.00  0.00     0.012 C 
ATOM     12  C   UNL     1      -7.410  64.589  39.984  1.00  0.00     0.012 C 
ENDBRANCH   5  10
TORSDOF 2
ENDMDL
