MODEL 1
REMARK VINA RESULT:    -6.733      0.000      0.000
REMARK INTER + INTRA:          -8.225
REMARK INTER:                  -7.914
REMARK INTRA:                  -0.311
REMARK UNBOUND:                -0.311
REMARK SMILES O=c1c(O)c(-c2ccc(O)c(O)c2)oc2cc(O)ccc12
REMARK SMILES IDX 5 1 3 2 2 3 1 4 21 5 15 6 14 7 16 8 17 9 19 10 20 11 6 12
REMARK SMILES IDX 7 13 8 14 9 15 13 16 11 17 10 18 12 20 4 22 18 24
REMARK H PARENT 10 19 12 21 4 23 18 25
REMARK Flexibility Score: inf
ROOT
ATOM      1  C   UNL     1      -1.947  -4.343  -6.497  1.00  0.00     0.180 A 
ATOM      2  C   UNL     1      -1.131  -3.318  -7.021  1.00  0.00     0.208 A 
ATOM      3  C   UNL     1      -1.214  -3.021  -8.391  1.00  0.00     0.235 A 
ATOM      4  O   UNL     1      -0.502  -2.101  -8.881  1.00  0.00    -0.285 OA
ATOM      5  C   UNL     1      -2.087  -3.759  -9.206  1.00  0.00     0.069 A 
ATOM      6  C   UNL     1      -2.852  -4.785  -8.609  1.00  0.00     0.142 A 
ATOM      7  O   UNL     1      -2.751  -5.029  -7.308  1.00  0.00    -0.452 OA
ATOM      8  C   UNL     1      -3.726  -5.550  -9.390  1.00  0.00     0.094 A 
ATOM      9  C   UNL     1      -3.847  -5.300 -10.764  1.00  0.00     0.119 A 
ATOM     10  C   UNL     1      -3.090  -4.284 -11.356  1.00  0.00     0.047 A 
ATOM     11  C   UNL     1      -2.213  -3.515 -10.585  1.00  0.00     0.020 A 
ENDROOT
BRANCH   1  12
ATOM     12  C   UNL     1      -1.931  -4.703  -5.061  1.00  0.00     0.025 A 
ATOM     13  C   UNL     1      -2.721  -3.977  -4.160  1.00  0.00     0.016 A 
ATOM     14  C   UNL     1      -2.706  -4.286  -2.798  1.00  0.00     0.051 A 
ATOM     15  C   UNL     1      -1.893  -5.314  -2.309  1.00  0.00     0.157 A 
ATOM     16  C   UNL     1      -1.095  -5.720  -4.570  1.00  0.00     0.062 A 
ATOM     17  C   UNL     1      -1.071  -6.036  -3.206  1.00  0.00     0.158 A 
BRANCH  15  18
ATOM     18  O   UNL     1      -1.930  -5.578  -0.938  1.00  0.00    -0.504 OA
ATOM     19  H   UNL     1      -1.156  -5.412  -0.310  1.00  0.00     0.293 HD
ENDBRANCH  15  18
BRANCH  17  20
ATOM     20  O   UNL     1      -0.218  -7.060  -2.788  1.00  0.00    -0.504 OA
ATOM     21  H   UNL     1      -0.140  -7.955  -3.250  1.00  0.00     0.293 HD
ENDBRANCH  17  20
ENDBRANCH   1  12
BRANCH   2  22
ATOM     22  O   UNL     1      -0.236  -2.634  -6.195  1.00  0.00    -0.502 OA
ATOM     23  H   UNL     1       0.767  -2.680  -6.328  1.00  0.00     0.293 HD
ENDBRANCH   2  22
BRANCH   9  24
ATOM     24  O   UNL     1      -4.714  -6.057 -11.548  1.00  0.00    -0.508 OA
ATOM     25  H   UNL     1      -5.009  -6.986 -11.268  1.00  0.00     0.293 HD
ENDBRANCH   9  24
TORSDOF 5
ENDMDL
MODEL 2
REMARK VINA RESULT:    -6.691      1.945      3.734
REMARK INTER + INTRA:          -8.175
REMARK INTER:                  -7.872
REMARK INTRA:                  -0.303
REMARK UNBOUND:                -0.311
REMARK SMILES O=c1c(O)c(-c2ccc(O)c(O)c2)oc2cc(O)ccc12
REMARK SMILES IDX 5 1 3 2 2 3 1 4 21 5 15 6 14 7 16 8 17 9 19 10 20 11 6 12
REMARK SMILES IDX 7 13 8 14 9 15 13 16 11 17 10 18 12 20 4 22 18 24
REMARK H PARENT 10 19 12 21 4 23 18 25
REMARK Flexibility Score: inf
ROOT
ATOM      1  C   UNL     1      -2.350  -3.757  -7.768  1.00  0.00     0.180 A 
ATOM      2  C   UNL     1      -3.139  -4.535  -8.642  1.00  0.00     0.208 A 
ATOM      3  C   UNL     1      -2.971  -4.377 -10.027  1.00  0.00     0.235 A 
ATOM      4  O   UNL     1      -3.658  -5.070 -10.828  1.00  0.00    -0.285 OA
ATOM      5  C   UNL     1      -2.041  -3.442 -10.507  1.00  0.00     0.069 A 
ATOM      6  C   UNL     1      -1.307  -2.685  -9.568  1.00  0.00     0.142 A 
ATOM      7  O   UNL     1      -1.490  -2.870  -8.266  1.00  0.00    -0.452 OA
ATOM      8  C   UNL     1      -0.379  -1.735 -10.008  1.00  0.00     0.094 A 
ATOM      9  C   UNL     1      -0.172  -1.533 -11.379  1.00  0.00     0.119 A 
ATOM     10  C   UNL     1      -0.897  -2.282 -12.311  1.00  0.00     0.047 A 
ATOM     11  C   UNL     1      -1.829  -3.232 -11.882  1.00  0.00     0.020 A 
ENDROOT
BRANCH   1  12
ATOM     12  C   UNL     1      -2.456  -3.878  -6.297  1.00  0.00     0.025 A 
ATOM     13  C   UNL     1      -1.768  -4.907  -5.639  1.00  0.00     0.016 A 
ATOM     14  C   UNL     1      -1.870  -5.053  -4.254  1.00  0.00     0.051 A 
ATOM     15  C   UNL     1      -2.668  -4.185  -3.501  1.00  0.00     0.157 A 
ATOM     16  C   UNL     1      -3.277  -3.018  -5.548  1.00  0.00     0.062 A 
ATOM     17  C   UNL     1      -3.387  -3.158  -4.158  1.00  0.00     0.158 A 
BRANCH  15  18
ATOM     18  O   UNL     1      -2.720  -4.379  -2.120  1.00  0.00    -0.504 OA
ATOM     19  H   UNL     1      -3.375  -3.913  -1.508  1.00  0.00     0.293 HD
ENDBRANCH  15  18
BRANCH  17  20
ATOM     20  O   UNL     1      -4.219  -2.267  -3.477  1.00  0.00    -0.504 OA
ATOM     21  H   UNL     1      -5.042  -2.543  -2.961  1.00  0.00     0.293 HD
ENDBRANCH  17  20
ENDBRANCH   1  12
BRANCH   2  22
ATOM     22  O   UNL     1      -4.091  -5.422  -8.134  1.00  0.00    -0.502 OA
ATOM     23  H   UNL     1      -5.015  -5.121  -7.847  1.00  0.00     0.293 HD
ENDBRANCH   2  22
BRANCH   9  24
ATOM     24  O   UNL     1       0.751  -0.589 -11.825  1.00  0.00    -0.508 OA
ATOM     25  H   UNL     1       0.679  -0.173 -12.747  1.00  0.00     0.293 HD
ENDBRANCH   9  24
TORSDOF 5
ENDMDL
MODEL 3
REMARK VINA RESULT:    -6.675      1.518      2.239
REMARK INTER + INTRA:          -8.157
REMARK INTER:                  -7.834
REMARK INTRA:                  -0.323
REMARK UNBOUND:                -0.311
REMARK SMILES O=c1c(O)c(-c2ccc(O)c(O)c2)oc2cc(O)ccc12
REMARK SMILES IDX 5 1 3 2 2 3 1 4 21 5 15 6 14 7 16 8 17 9 19 10 20 11 6 12
REMARK SMILES IDX 7 13 8 14 9 15 13 16 11 17 10 18 12 20 4 22 18 24
REMARK H PARENT 10 19 12 21 4 23 18 25
REMARK Flexibility Score: inf
ROOT
ATOM      1  C   UNL     1      -2.319  -3.816  -7.771  1.00  0.00     0.180 A 
ATOM      2  C   UNL     1      -1.374  -2.968  -8.387  1.00  0.00     0.208 A 
ATOM      3  C   UNL     1      -1.348  -2.890  -9.788  1.00  0.00     0.235 A 
ATOM      4  O   UNL     1      -0.520  -2.130 -10.362  1.00  0.00    -0.285 OA
ATOM      5  C   UNL     1      -2.246  -3.665 -10.540  1.00  0.00     0.069 A 
ATOM      6  C   UNL     1      -3.144  -4.507  -9.849  1.00  0.00     0.142 A 
ATOM      7  O   UNL     1      -3.142  -4.546  -8.521  1.00  0.00    -0.452 OA
ATOM      8  C   UNL     1      -4.046  -5.303 -10.563  1.00  0.00     0.094 A 
ATOM      9  C   UNL     1      -4.063  -5.268 -11.963  1.00  0.00     0.119 A 
ATOM     10  C   UNL     1      -3.174  -4.434 -12.650  1.00  0.00     0.047 A 
ATOM     11  C   UNL     1      -2.268  -3.636 -11.946  1.00  0.00     0.020 A 
ENDROOT
BRANCH   1  12
ATOM     12  C   UNL     1      -2.421  -3.940  -6.299  1.00  0.00     0.025 A 
ATOM     13  C   UNL     1      -1.743  -4.979  -5.646  1.00  0.00     0.016 A 
ATOM     14  C   UNL     1      -1.842  -5.127  -4.261  1.00  0.00     0.051 A 
ATOM     15  C   UNL     1      -2.628  -4.252  -3.504  1.00  0.00     0.157 A 
ATOM     16  C   UNL     1      -3.230  -3.073  -5.545  1.00  0.00     0.062 A 
ATOM     17  C   UNL     1      -3.337  -3.215  -4.156  1.00  0.00     0.158 A 
BRANCH  15  18
ATOM     18  O   UNL     1      -2.678  -4.449  -2.123  1.00  0.00    -0.504 OA
ATOM     19  H   UNL     1      -3.516  -4.345  -1.568  1.00  0.00     0.293 HD
ENDBRANCH  15  18
BRANCH  17  20
ATOM     20  O   UNL     1      -4.157  -2.316  -3.469  1.00  0.00    -0.504 OA
ATOM     21  H   UNL     1      -5.122  -2.498  -3.234  1.00  0.00     0.293 HD
ENDBRANCH  17  20
ENDBRANCH   1  12
BRANCH   2  22
ATOM     22  O   UNL     1      -0.462  -2.246  -7.614  1.00  0.00    -0.502 OA
ATOM     23  H   UNL     1      -0.718  -1.395  -7.127  1.00  0.00     0.293 HD
ENDBRANCH   2  22
BRANCH   9  24
ATOM     24  O   UNL     1      -4.958  -6.057 -12.682  1.00  0.00    -0.508 OA
ATOM     25  H   UNL     1      -5.827  -6.380 -12.273  1.00  0.00     0.293 HD
ENDBRANCH   9  24
TORSDOF 5
ENDMDL
MODEL 4
REMARK VINA RESULT:    -6.244      1.382      2.975
REMARK INTER + INTRA:          -7.650
REMARK INTER:                  -7.328
REMARK INTRA:                  -0.322
REMARK UNBOUND:                -0.311
REMARK SMILES O=c1c(O)c(-c2ccc(O)c(O)c2)oc2cc(O)ccc12
REMARK SMILES IDX 5 1 3 2 2 3 1 4 21 5 15 6 14 7 16 8 17 9 19 10 20 11 6 12
REMARK SMILES IDX 7 13 8 14 9 15 13 16 11 17 10 18 12 20 4 22 18 24
REMARK H PARENT 10 19 12 21 4 23 18 25
REMARK Flexibility Score: inf
ROOT
ATOM      1  C   UNL     1      -1.878  -5.084  -5.894  1.00  0.00     0.180 A 
ATOM      2  C   UNL     1      -2.564  -5.970  -6.751  1.00  0.00     0.208 A 
ATOM      3  C   UNL     1      -2.660  -5.652  -8.116  1.00  0.00     0.235 A 
ATOM      4  O   UNL     1      -3.259  -6.435  -8.904  1.00  0.00    -0.285 OA
ATOM      5  C   UNL     1      -2.089  -4.460  -8.588  1.00  0.00     0.069 A 
ATOM      6  C   UNL     1      -1.441  -3.615  -7.662  1.00  0.00     0.142 A 
ATOM      7  O   UNL     1      -1.365  -3.955  -6.381  1.00  0.00    -0.452 OA
ATOM      8  C   UNL     1      -0.870  -2.412  -8.093  1.00  0.00     0.094 A 
ATOM      9  C   UNL     1      -0.937  -2.043  -9.443  1.00  0.00     0.119 A 
ATOM     10  C   UNL     1      -1.579  -2.879 -10.362  1.00  0.00     0.047 A 
ATOM     11  C   UNL     1      -2.154  -4.082  -9.942  1.00  0.00     0.020 A 
ENDROOT
BRANCH   1  12
ATOM     12  C   UNL     1      -1.719  -5.356  -4.447  1.00  0.00     0.025 A 
ATOM     13  C   UNL     1      -2.623  -4.791  -3.536  1.00  0.00     0.016 A 
ATOM     14  C   UNL     1      -2.480  -5.018  -2.166  1.00  0.00     0.051 A 
ATOM     15  C   UNL     1      -1.427  -5.799  -1.678  1.00  0.00     0.157 A 
ATOM     16  C   UNL     1      -0.647  -6.121  -3.959  1.00  0.00     0.062 A 
ATOM     17  C   UNL     1      -0.494  -6.353  -2.586  1.00  0.00     0.158 A 
BRANCH  15  18
ATOM     18  O   UNL     1      -1.345  -5.995  -0.298  1.00  0.00    -0.504 OA
ATOM     19  H   UNL     1      -2.141  -6.181   0.295  1.00  0.00     0.293 HD
ENDBRANCH  15  18
BRANCH  17  20
ATOM     20  O   UNL     1       0.594  -7.125  -2.172  1.00  0.00    -0.504 OA
ATOM     21  H   UNL     1       0.545  -7.828  -1.449  1.00  0.00     0.293 HD
ENDBRANCH  17  20
ENDBRANCH   1  12
BRANCH   2  22
ATOM     22  O   UNL     1      -3.163  -7.125  -6.243  1.00  0.00    -0.502 OA
ATOM     23  H   UNL     1      -2.746  -8.042  -6.346  1.00  0.00     0.293 HD
ENDBRANCH   2  22
BRANCH   9  24
ATOM     24  O   UNL     1      -0.372  -0.848  -9.880  1.00  0.00    -0.508 OA
ATOM     25  H   UNL     1      -0.291  -0.044  -9.268  1.00  0.00     0.293 HD
ENDBRANCH   9  24
TORSDOF 5
ENDMDL
MODEL 5
REMARK VINA RESULT:    -6.161      1.770      6.830
REMARK INTER + INTRA:          -7.552
REMARK INTER:                  -7.253
REMARK INTRA:                  -0.299
REMARK UNBOUND:                -0.311
REMARK SMILES O=c1c(O)c(-c2ccc(O)c(O)c2)oc2cc(O)ccc12
REMARK SMILES IDX 5 1 3 2 2 3 1 4 21 5 15 6 14 7 16 8 17 9 19 10 20 11 6 12
REMARK SMILES IDX 7 13 8 14 9 15 13 16 11 17 10 18 12 20 4 22 18 24
REMARK H PARENT 10 19 12 21 4 23 18 25
REMARK Flexibility Score: inf
ROOT
ATOM      1  C   UNL     1      -1.920  -3.940  -6.251  1.00  0.00     0.180 A 
ATOM      2  C   UNL     1      -2.980  -3.243  -5.633  1.00  0.00     0.208 A 
ATOM      3  C   UNL     1      -3.222  -3.454  -4.266  1.00  0.00     0.235 A 
ATOM      4  O   UNL     1      -4.158  -2.835  -3.689  1.00  0.00    -0.285 OA
ATOM      5  C   UNL     1      -2.421  -4.362  -3.555  1.00  0.00     0.069 A 
ATOM      6  C   UNL     1      -1.395  -5.037  -4.252  1.00  0.00     0.142 A 
ATOM      7  O   UNL     1      -1.193  -4.803  -5.543  1.00  0.00    -0.452 OA
ATOM      8  C   UNL     1      -0.582  -5.957  -3.580  1.00  0.00     0.094 A 
ATOM      9  C   UNL     1      -0.780  -6.210  -2.216  1.00  0.00     0.119 A 
ATOM     10  C   UNL     1      -1.796  -5.541  -1.525  1.00  0.00     0.047 A 
ATOM     11  C   UNL     1      -2.615  -4.621  -2.186  1.00  0.00     0.020 A 
ENDROOT
BRANCH   1  12
ATOM     12  C   UNL     1      -1.589  -3.758  -7.682  1.00  0.00     0.025 A 
ATOM     13  C   UNL     1      -0.817  -2.657  -8.077  1.00  0.00     0.016 A 
ATOM     14  C   UNL     1      -0.511  -2.455  -9.424  1.00  0.00     0.051 A 
ATOM     15  C   UNL     1      -0.980  -3.337 -10.403  1.00  0.00     0.157 A 
ATOM     16  C   UNL     1      -2.082  -4.633  -8.665  1.00  0.00     0.062 A 
ATOM     17  C   UNL     1      -1.782  -4.438 -10.019  1.00  0.00     0.158 A 
BRANCH  15  18
ATOM     18  O   UNL     1      -0.631  -3.083 -11.731  1.00  0.00    -0.504 OA
ATOM     19  H   UNL     1      -1.219  -2.584 -12.384  1.00  0.00     0.293 HD
ENDBRANCH  15  18
BRANCH  17  20
ATOM     20  O   UNL     1      -2.303  -5.348 -10.941  1.00  0.00    -0.504 OA
ATOM     21  H   UNL     1      -3.032  -6.014 -10.728  1.00  0.00     0.293 HD
ENDBRANCH  17  20
ENDBRANCH   1  12
BRANCH   2  22
ATOM     22  O   UNL     1      -3.791  -2.384  -6.378  1.00  0.00    -0.502 OA
ATOM     23  H   UNL     1      -3.674  -2.257  -7.376  1.00  0.00     0.293 HD
ENDBRANCH   2  22
BRANCH   9  24
ATOM     24  O   UNL     1       0.024  -7.124  -1.540  1.00  0.00    -0.508 OA
ATOM     25  H   UNL     1       0.519  -7.859  -2.032  1.00  0.00     0.293 HD
ENDBRANCH   9  24
TORSDOF 5
ENDMDL
MODEL 6
REMARK VINA RESULT:    -6.131      3.327      7.580
REMARK INTER + INTRA:          -7.517
REMARK INTER:                  -7.193
REMARK INTRA:                  -0.324
REMARK UNBOUND:                -0.311
REMARK SMILES O=c1c(O)c(-c2ccc(O)c(O)c2)oc2cc(O)ccc12
REMARK SMILES IDX 5 1 3 2 2 3 1 4 21 5 15 6 14 7 16 8 17 9 19 10 20 11 6 12
REMARK SMILES IDX 7 13 8 14 9 15 13 16 11 17 10 18 12 20 4 22 18 24
REMARK H PARENT 10 19 12 21 4 23 18 25
REMARK Flexibility Score: inf
ROOT
ATOM      1  C   UNL     1      -0.570  -2.777 -10.189  1.00  0.00     0.180 A 
ATOM      2  C   UNL     1      -1.578  -3.554 -10.799  1.00  0.00     0.208 A 
ATOM      3  C   UNL     1      -2.586  -4.107  -9.993  1.00  0.00     0.235 A 
ATOM      4  O   UNL     1      -3.504  -4.796 -10.517  1.00  0.00    -0.285 OA
ATOM      5  C   UNL     1      -2.557  -3.892  -8.606  1.00  0.00     0.069 A 
ATOM      6  C   UNL     1      -1.501  -3.124  -8.070  1.00  0.00     0.142 A 
ATOM      7  O   UNL     1      -0.572  -2.610  -8.868  1.00  0.00    -0.452 OA
ATOM      8  C   UNL     1      -1.431  -2.896  -6.691  1.00  0.00     0.094 A 
ATOM      9  C   UNL     1      -2.408  -3.427  -5.838  1.00  0.00     0.119 A 
ATOM     10  C   UNL     1      -3.455  -4.189  -6.368  1.00  0.00     0.047 A 
ATOM     11  C   UNL     1      -3.533  -4.423  -7.744  1.00  0.00     0.020 A 
ENDROOT
BRANCH   1  12
ATOM     12  C   UNL     1       0.516  -2.145 -10.972  1.00  0.00     0.025 A 
ATOM     13  C   UNL     1       1.738  -2.815 -11.121  1.00  0.00     0.016 A 
ATOM     14  C   UNL     1       2.783  -2.228 -11.838  1.00  0.00     0.051 A 
ATOM     15  C   UNL     1       2.634  -0.959 -12.407  1.00  0.00     0.157 A 
ATOM     16  C   UNL     1       0.370  -0.861 -11.522  1.00  0.00     0.062 A 
ATOM     17  C   UNL     1       1.413  -0.263 -12.241  1.00  0.00     0.158 A 
BRANCH  15  18
ATOM     18  O   UNL     1       3.714  -0.432 -13.118  1.00  0.00    -0.504 OA
ATOM     19  H   UNL     1       4.536  -0.962 -13.371  1.00  0.00     0.293 HD
ENDBRANCH  15  18
BRANCH  17  20
ATOM     20  O   UNL     1       1.198   1.015 -12.762  1.00  0.00    -0.504 OA
ATOM     21  H   UNL     1       1.551   1.863 -12.343  1.00  0.00     0.293 HD
ENDBRANCH  17  20
ENDBRANCH   1  12
BRANCH   2  22
ATOM     22  O   UNL     1      -1.554  -3.791 -12.175  1.00  0.00    -0.502 OA
ATOM     23  H   UNL     1      -1.118  -4.613 -12.576  1.00  0.00     0.293 HD
ENDBRANCH   2  22
BRANCH   9  24
ATOM     24  O   UNL     1      -2.346  -3.205  -4.464  1.00  0.00    -0.508 OA
ATOM     25  H   UNL     1      -2.490  -3.957  -3.800  1.00  0.00     0.293 HD
ENDBRANCH   9  24
TORSDOF 5
ENDMDL
MODEL 7
REMARK VINA RESULT:    -6.102      1.496      3.048
REMARK INTER + INTRA:          -7.483
REMARK INTER:                  -7.164
REMARK INTRA:                  -0.319
REMARK UNBOUND:                -0.311
REMARK SMILES O=c1c(O)c(-c2ccc(O)c(O)c2)oc2cc(O)ccc12
REMARK SMILES IDX 5 1 3 2 2 3 1 4 21 5 15 6 14 7 16 8 17 9 19 10 20 11 6 12
REMARK SMILES IDX 7 13 8 14 9 15 13 16 11 17 10 18 12 20 4 22 18 24
REMARK H PARENT 10 19 12 21 4 23 18 25
REMARK Flexibility Score: inf
ROOT
ATOM      1  C   UNL     1      -2.286  -4.213  -7.360  1.00  0.00     0.180 A 
ATOM      2  C   UNL     1      -3.369  -4.575  -8.188  1.00  0.00     0.208 A 
ATOM      3  C   UNL     1      -3.283  -4.320  -9.566  1.00  0.00     0.235 A 
ATOM      4  O   UNL     1      -4.235  -4.645 -10.328  1.00  0.00    -0.285 OA
ATOM      5  C   UNL     1      -2.135  -3.697 -10.082  1.00  0.00     0.069 A 
ATOM      6  C   UNL     1      -1.105  -3.344  -9.184  1.00  0.00     0.142 A 
ATOM      7  O   UNL     1      -1.222  -3.610  -7.888  1.00  0.00    -0.452 OA
ATOM      8  C   UNL     1       0.050  -2.712  -9.659  1.00  0.00     0.094 A 
ATOM      9  C   UNL     1       0.189  -2.430 -11.024  1.00  0.00     0.119 A 
ATOM     10  C   UNL     1      -0.831  -2.779 -11.915  1.00  0.00     0.047 A 
ATOM     11  C   UNL     1      -1.989  -3.410 -11.451  1.00  0.00     0.020 A 
ENDROOT
BRANCH   1  12
ATOM     12  C   UNL     1      -2.293  -4.465  -5.901  1.00  0.00     0.025 A 
ATOM     13  C   UNL     1      -2.818  -3.494  -5.037  1.00  0.00     0.016 A 
ATOM     14  C   UNL     1      -2.816  -3.702  -3.656  1.00  0.00     0.051 A 
ATOM     15  C   UNL     1      -2.279  -4.874  -3.111  1.00  0.00     0.157 A 
ATOM     16  C   UNL     1      -1.732  -5.632  -5.357  1.00  0.00     0.062 A 
ATOM     17  C   UNL     1      -1.723  -5.849  -3.973  1.00  0.00     0.158 A 
BRANCH  15  18
ATOM     18  O   UNL     1      -2.316  -5.024  -1.724  1.00  0.00    -0.504 OA
ATOM     19  H   UNL     1      -2.058  -5.873  -1.241  1.00  0.00     0.293 HD
ENDBRANCH  15  18
BRANCH  17  20
ATOM     20  O   UNL     1      -1.151  -7.033  -3.501  1.00  0.00    -0.504 OA
ATOM     21  H   UNL     1      -0.786  -7.760  -4.098  1.00  0.00     0.293 HD
ENDBRANCH  17  20
ENDBRANCH   1  12
BRANCH   2  22
ATOM     22  O   UNL     1      -4.519  -5.149  -7.639  1.00  0.00    -0.502 OA
ATOM     23  H   UNL     1      -4.539  -5.530  -6.700  1.00  0.00     0.293 HD
ENDBRANCH   2  22
BRANCH   9  24
ATOM     24  O   UNL     1       1.336  -1.801 -11.505  1.00  0.00    -0.508 OA
ATOM     25  H   UNL     1       1.541  -1.759 -12.496  1.00  0.00     0.293 HD
ENDBRANCH   9  24
TORSDOF 5
ENDMDL
MODEL 8
REMARK VINA RESULT:    -5.967      2.109      7.078
REMARK INTER + INTRA:          -7.325
REMARK INTER:                  -7.023
REMARK INTRA:                  -0.302
REMARK UNBOUND:                -0.311
REMARK SMILES O=c1c(O)c(-c2ccc(O)c(O)c2)oc2cc(O)ccc12
REMARK SMILES IDX 5 1 3 2 2 3 1 4 21 5 15 6 14 7 16 8 17 9 19 10 20 11 6 12
REMARK SMILES IDX 7 13 8 14 9 15 13 16 11 17 10 18 12 20 4 22 18 24
REMARK H PARENT 10 19 12 21 4 23 18 25
REMARK Flexibility Score: inf
ROOT
ATOM      1  C   UNL     1      -2.985  -4.877  -8.183  1.00  0.00     0.180 A 
ATOM      2  C   UNL     1      -2.159  -5.910  -7.690  1.00  0.00     0.208 A 
ATOM      3  C   UNL     1      -1.899  -5.968  -6.312  1.00  0.00     0.235 A 
ATOM      4  O   UNL     1      -1.172  -6.888  -5.846  1.00  0.00    -0.285 OA
ATOM      5  C   UNL     1      -2.447  -4.992  -5.464  1.00  0.00     0.069 A 
ATOM      6  C   UNL     1      -3.243  -3.978  -6.038  1.00  0.00     0.142 A 
ATOM      7  O   UNL     1      -3.472  -3.963  -7.346  1.00  0.00    -0.452 OA
ATOM      8  C   UNL     1      -3.798  -2.982  -5.228  1.00  0.00     0.094 A 
ATOM      9  C   UNL     1      -3.569  -2.987  -3.845  1.00  0.00     0.119 A 
ATOM     10  C   UNL     1      -2.781  -3.992  -3.275  1.00  0.00     0.047 A 
ATOM     11  C   UNL     1      -2.220  -4.991  -4.076  1.00  0.00     0.020 A 
ENDROOT
BRANCH   1  12
ATOM     12  C   UNL     1      -3.321  -4.758  -9.620  1.00  0.00     0.025 A 
ATOM     13  C   UNL     1      -2.435  -4.098 -10.483  1.00  0.00     0.016 A 
ATOM     14  C   UNL     1      -2.741  -3.957 -11.838  1.00  0.00     0.051 A 
ATOM     15  C   UNL     1      -3.941  -4.458 -12.354  1.00  0.00     0.157 A 
ATOM     16  C   UNL     1      -4.537  -5.242 -10.130  1.00  0.00     0.062 A 
ATOM     17  C   UNL     1      -4.854  -5.103 -11.488  1.00  0.00     0.158 A 
BRANCH  15  18
ATOM     18  O   UNL     1      -4.184  -4.291 -13.719  1.00  0.00    -0.504 OA
ATOM     19  H   UNL     1      -3.918  -4.962 -14.426  1.00  0.00     0.293 HD
ENDBRANCH  15  18
BRANCH  17  20
ATOM     20  O   UNL     1      -6.080  -5.609 -11.926  1.00  0.00    -0.504 OA
ATOM     21  H   UNL     1      -6.181  -6.455 -12.469  1.00  0.00     0.293 HD
ENDBRANCH  17  20
ENDBRANCH   1  12
BRANCH   2  22
ATOM     22  O   UNL     1      -1.588  -6.838  -8.565  1.00  0.00    -0.502 OA
ATOM     23  H   UNL     1      -2.125  -7.306  -9.284  1.00  0.00     0.293 HD
ENDBRANCH   2  22
BRANCH   9  24
ATOM     24  O   UNL     1      -4.118  -2.000  -3.031  1.00  0.00    -0.508 OA
ATOM     25  H   UNL     1      -5.059  -1.652  -3.180  1.00  0.00     0.293 HD
ENDBRANCH   9  24
TORSDOF 5
ENDMDL
MODEL 9
REMARK VINA RESULT:    -5.617      3.767      5.863
REMARK INTER + INTRA:          -6.913
REMARK INTER:                  -6.653
REMARK INTRA:                  -0.260
REMARK UNBOUND:                -0.311
REMARK SMILES O=c1c(O)c(-c2ccc(O)c(O)c2)oc2cc(O)ccc12
REMARK SMILES IDX 5 1 3 2 2 3 1 4 21 5 15 6 14 7 16 8 17 9 19 10 20 11 6 12
REMARK SMILES IDX 7 13 8 14 9 15 13 16 11 17 10 18 12 20 4 22 18 24
REMARK H PARENT 10 19 12 21 4 23 18 25
REMARK Flexibility Score: inf
ROOT
ATOM      1  C   UNL     1      -0.219  -2.553 -10.243  1.00  0.00     0.180 A 
ATOM      2  C   UNL     1      -0.676  -1.628 -11.205  1.00  0.00     0.208 A 
ATOM      3  C   UNL     1       0.150  -1.327 -12.300  1.00  0.00     0.235 A 
ATOM      4  O   UNL     1      -0.242  -0.511 -13.179  1.00  0.00    -0.285 OA
ATOM      5  C   UNL     1       1.411  -1.936 -12.401  1.00  0.00     0.069 A 
ATOM      6  C   UNL     1       1.804  -2.833 -11.384  1.00  0.00     0.142 A 
ATOM      7  O   UNL     1       0.990  -3.097 -10.369  1.00  0.00    -0.452 OA
ATOM      8  C   UNL     1       3.058  -3.451 -11.444  1.00  0.00     0.094 A 
ATOM      9  C   UNL     1       3.925  -3.186 -12.512  1.00  0.00     0.119 A 
ATOM     10  C   UNL     1       3.537  -2.299 -13.521  1.00  0.00     0.047 A 
ATOM     11  C   UNL     1       2.287  -1.674 -13.470  1.00  0.00     0.020 A 
ENDROOT
BRANCH   1  12
ATOM     12  C   UNL     1      -1.038  -2.936  -9.070  1.00  0.00     0.025 A 
ATOM     13  C   UNL     1      -0.659  -2.501  -7.793  1.00  0.00     0.016 A 
ATOM     14  C   UNL     1      -1.405  -2.867  -6.671  1.00  0.00     0.051 A 
ATOM     15  C   UNL     1      -2.533  -3.685  -6.799  1.00  0.00     0.157 A 
ATOM     16  C   UNL     1      -2.156  -3.777  -9.201  1.00  0.00     0.062 A 
ATOM     17  C   UNL     1      -2.910  -4.151  -8.081  1.00  0.00     0.158 A 
BRANCH  15  18
ATOM     18  O   UNL     1      -3.240  -4.008  -5.639  1.00  0.00    -0.504 OA
ATOM     19  H   UNL     1      -4.247  -4.066  -5.590  1.00  0.00     0.293 HD
ENDBRANCH  15  18
BRANCH  17  20
ATOM     20  O   UNL     1      -4.010  -4.987  -8.285  1.00  0.00    -0.504 OA
ATOM     21  H   UNL     1      -4.710  -4.836  -8.996  1.00  0.00     0.293 HD
ENDBRANCH  17  20
ENDBRANCH   1  12
BRANCH   2  22
ATOM     22  O   UNL     1      -1.915  -1.002 -11.052  1.00  0.00    -0.502 OA
ATOM     23  H   UNL     1      -2.403  -0.975 -10.165  1.00  0.00     0.293 HD
ENDBRANCH   2  22
BRANCH   9  24
ATOM     24  O   UNL     1       5.175  -3.798 -12.580  1.00  0.00    -0.508 OA
ATOM     25  H   UNL     1       5.830  -3.751 -11.808  1.00  0.00     0.293 HD
ENDBRANCH   9  24
TORSDOF 5
ENDMDL
