MODEL 1
REMARK VINA RESULT:    -7.416      0.000      0.000
REMARK INTER + INTRA:         -12.011
REMARK INTER:                 -10.017
REMARK INTRA:                  -1.994
REMARK UNBOUND:                -1.994
REMARK SMILES CC[C@@H](CC[C@@H](C)[C@H]1CC[C@H]2[C@H]3CC(=O)C4=CC(=O)CC[C@]4(C)[C@@H]3CC[C@]12C)C(C)C
REMARK SMILES IDX 4 1 3 2 2 3 1 4 29 5 30 6 31 7 5 8 6 9 7 10 8 11 9 12 27 13
REMARK SMILES IDX 10 14 11 15 26 16 28 17 12 18 25 19 24 20 13 21 22 22 14 23
REMARK SMILES IDX 16 24 21 25 23 26 15 27 17 28 20 29 18 30 19 31
REMARK H PARENT
REMARK Flexibility Score: inf
ROOT
ATOM      1  C   UNL     1       7.290 -19.951  20.972  1.00  0.00     0.004 C 
ENDROOT
BRANCH   1   2
ATOM      2  C   UNL     1       7.547 -18.581  20.282  1.00  0.00    -0.009 C 
BRANCH   2   3
ATOM      3  C   UNL     1       8.563 -18.746  19.115  1.00  0.00     0.000 C 
ATOM      4  C   UNL     1       9.841 -17.922  19.286  1.00  0.00     0.004 C 
ENDBRANCH   2   3
BRANCH   2   5
ATOM      5  C   UNL     1       7.967 -17.468  21.304  1.00  0.00    -0.014 C 
ATOM      6  C   UNL     1       7.818 -17.891  22.774  1.00  0.00     0.007 C 
ATOM      7  C   UNL     1       7.229 -16.140  21.059  1.00  0.00     0.007 C 
ENDBRANCH   2   5
ENDBRANCH   1   2
BRANCH   1   8
ATOM      8  C   UNL     1       8.046 -21.124  20.303  1.00  0.00     0.004 C 
BRANCH   8   9
ATOM      9  C   UNL     1       8.835 -22.031  21.302  1.00  0.00    -0.011 C 
ATOM     10  C   UNL     1       8.182 -23.426  21.302  1.00  0.00     0.008 C 
BRANCH   9  11
ATOM     11  C   UNL     1      10.361 -22.116  20.939  1.00  0.00    -0.002 C 
ATOM     12  C   UNL     1      10.684 -21.542  19.534  1.00  0.00     0.005 C 
ATOM     13  C   UNL     1      11.392 -21.401  21.875  1.00  0.00    -0.026 C 
ATOM     14  C   UNL     1      12.117 -20.988  19.578  1.00  0.00     0.005 C 
ATOM     15  C   UNL     1      12.623 -21.399  20.948  1.00  0.00    -0.001 C 
ATOM     16  C   UNL     1      11.754 -22.180  23.190  1.00  0.00     0.007 C 
ATOM     17  C   UNL     1      10.892 -19.958  22.210  1.00  0.00     0.012 C 
ATOM     18  C   UNL     1      13.921 -20.764  21.520  1.00  0.00     0.004 C 
ATOM     19  C   UNL     1      13.274 -22.225  23.521  1.00  0.00     0.005 C 
ATOM     20  C   UNL     1      14.009 -20.938  23.063  1.00  0.00     0.003 C 
ATOM     21  C   UNL     1      14.181 -19.289  21.161  1.00  0.00     0.085 C 
ATOM     22  C   UNL     1      15.492 -20.764  23.574  1.00  0.00    -0.000 C 
ATOM     23  C   UNL     1      15.447 -18.808  21.826  1.00  0.00     0.159 C 
ATOM     24  C   UNL     1      16.220 -19.710  22.722  1.00  0.00     0.005 C 
ATOM     25  C   UNL     1      16.288 -22.101  23.502  1.00  0.00     0.020 C 
ATOM     26  C   UNL     1      15.455 -20.254  25.038  1.00  0.00     0.017 C 
ATOM     27  O   UNL     1      15.868 -17.645  21.577  1.00  0.00    -0.295 OA
ATOM     28  C   UNL     1      17.563 -19.657  22.701  1.00  0.00     0.055 C 
ATOM     29  C   UNL     1      17.761 -21.938  23.921  1.00  0.00     0.081 C 
ATOM     30  C   UNL     1      18.384 -20.704  23.333  1.00  0.00     0.156 C 
ATOM     31  O   UNL     1      19.635 -20.565  23.377  1.00  0.00    -0.295 OA
ENDBRANCH   9  11
ENDBRANCH   8   9
ENDBRANCH   1   8
TORSDOF 6
ENDMDL
MODEL 2
REMARK VINA RESULT:    -7.287      2.062      3.320
REMARK INTER + INTRA:         -11.838
REMARK INTER:                 -10.284
REMARK INTRA:                  -1.553
REMARK UNBOUND:                -1.994
REMARK SMILES CC[C@@H](CC[C@@H](C)[C@H]1CC[C@H]2[C@H]3CC(=O)C4=CC(=O)CC[C@]4(C)[C@@H]3CC[C@]12C)C(C)C
REMARK SMILES IDX 4 1 3 2 2 3 1 4 29 5 30 6 31 7 5 8 6 9 7 10 8 11 9 12 27 13
REMARK SMILES IDX 10 14 11 15 26 16 28 17 12 18 25 19 24 20 13 21 22 22 14 23
REMARK SMILES IDX 16 24 21 25 23 26 15 27 17 28 20 29 18 30 19 31
REMARK H PARENT
REMARK Flexibility Score: inf
ROOT
ATOM      1  C   UNL     1      10.734 -16.529  22.602  1.00  0.00     0.004 C 
ENDROOT
BRANCH   1   2
ATOM      2  C   UNL     1       9.423 -15.944  23.200  1.00  0.00    -0.009 C 
BRANCH   2   3
ATOM      3  C   UNL     1       9.506 -15.906  24.752  1.00  0.00     0.000 C 
ATOM      4  C   UNL     1      10.504 -16.905  25.343  1.00  0.00     0.004 C 
ENDBRANCH   2   3
BRANCH   2   5
ATOM      5  C   UNL     1       8.144 -16.685  22.675  1.00  0.00    -0.014 C 
ATOM      6  C   UNL     1       7.330 -15.869  21.658  1.00  0.00     0.007 C 
ATOM      7  C   UNL     1       7.235 -17.165  23.819  1.00  0.00     0.007 C 
ENDBRANCH   2   5
ENDBRANCH   1   2
BRANCH   1   8
ATOM      8  C   UNL     1      10.512 -17.835  21.803  1.00  0.00     0.004 C 
BRANCH   8   9
ATOM      9  C   UNL     1      10.760 -19.140  22.625  1.00  0.00    -0.011 C 
ATOM     10  C   UNL     1       9.484 -20.000  22.557  1.00  0.00     0.008 C 
BRANCH   9  11
ATOM     11  C   UNL     1      12.011 -19.935  22.104  1.00  0.00    -0.002 C 
ATOM     12  C   UNL     1      12.589 -19.359  20.783  1.00  0.00     0.005 C 
ATOM     13  C   UNL     1      13.264 -20.049  23.035  1.00  0.00    -0.026 C 
ATOM     14  C   UNL     1      14.098 -19.649  20.772  1.00  0.00     0.005 C 
ATOM     15  C   UNL     1      14.310 -20.512  22.003  1.00  0.00    -0.001 C 
ATOM     16  C   UNL     1      13.160 -21.133  24.166  1.00  0.00     0.007 C 
ATOM     17  C   UNL     1      13.602 -18.649  23.643  1.00  0.00     0.012 C 
ATOM     18  C   UNL     1      15.748 -20.762  22.537  1.00  0.00     0.004 C 
ATOM     19  C   UNL     1      14.428 -22.021  24.333  1.00  0.00     0.005 C 
ATOM     20  C   UNL     1      15.731 -21.243  24.016  1.00  0.00     0.003 C 
ATOM     21  C   UNL     1      16.748 -19.600  22.394  1.00  0.00     0.085 C 
ATOM     22  C   UNL     1      17.082 -21.963  24.398  1.00  0.00    -0.000 C 
ATOM     23  C   UNL     1      18.077 -19.979  22.998  1.00  0.00     0.159 C 
ATOM     24  C   UNL     1      18.257 -21.301  23.658  1.00  0.00     0.005 C 
ATOM     25  C   UNL     1      17.052 -23.477  24.036  1.00  0.00     0.020 C 
ATOM     26  C   UNL     1      17.320 -21.793  25.922  1.00  0.00     0.017 C 
ATOM     27  O   UNL     1      19.048 -19.181  22.897  1.00  0.00    -0.295 OA
ATOM     28  C   UNL     1      19.426 -21.950  23.512  1.00  0.00     0.055 C 
ATOM     29  C   UNL     1      18.389 -24.184  24.327  1.00  0.00     0.081 C 
ATOM     30  C   UNL     1      19.570 -23.367  23.885  1.00  0.00     0.156 C 
ATOM     31  O   UNL     1      20.706 -23.908  23.826  1.00  0.00    -0.295 OA
ENDBRANCH   9  11
ENDBRANCH   8   9
ENDBRANCH   1   8
TORSDOF 6
ENDMDL
MODEL 3
REMARK VINA RESULT:    -7.247      1.643      3.329
REMARK INTER + INTRA:         -11.783
REMARK INTER:                 -10.272
REMARK INTRA:                  -1.512
REMARK UNBOUND:                -1.994
REMARK SMILES CC[C@@H](CC[C@@H](C)[C@H]1CC[C@H]2[C@H]3CC(=O)C4=CC(=O)CC[C@]4(C)[C@@H]3CC[C@]12C)C(C)C
REMARK SMILES IDX 4 1 3 2 2 3 1 4 29 5 30 6 31 7 5 8 6 9 7 10 8 11 9 12 27 13
REMARK SMILES IDX 10 14 11 15 26 16 28 17 12 18 25 19 24 20 13 21 22 22 14 23
REMARK SMILES IDX 16 24 21 25 23 26 15 27 17 28 20 29 18 30 19 31
REMARK H PARENT
REMARK Flexibility Score: inf
ROOT
ATOM      1  C   UNL     1       8.370 -18.920  21.442  1.00  0.00     0.004 C 
ENDROOT
BRANCH   1   2
ATOM      2  C   UNL     1       7.965 -20.240  20.725  1.00  0.00    -0.009 C 
BRANCH   2   3
ATOM      3  C   UNL     1       7.256 -21.201  21.721  1.00  0.00     0.000 C 
ATOM      4  C   UNL     1       6.713 -20.506  22.972  1.00  0.00     0.004 C 
ENDBRANCH   2   3
BRANCH   2   5
ATOM      5  C   UNL     1       9.174 -20.911  19.984  1.00  0.00    -0.014 C 
ATOM      6  C   UNL     1       8.933 -21.130  18.482  1.00  0.00     0.007 C 
ATOM      7  C   UNL     1       9.608 -22.229  20.648  1.00  0.00     0.007 C 
ENDBRANCH   2   5
ENDBRANCH   1   2
BRANCH   1   8
ATOM      8  C   UNL     1       9.805 -18.454  21.100  1.00  0.00     0.004 C 
BRANCH   8   9
ATOM      9  C   UNL     1      10.838 -18.658  22.254  1.00  0.00    -0.011 C 
ATOM     10  C   UNL     1      10.098 -19.274  23.457  1.00  0.00     0.008 C 
BRANCH   9  11
ATOM     11  C   UNL     1      12.048 -19.556  21.809  1.00  0.00    -0.002 C 
ATOM     12  C   UNL     1      12.718 -19.064  20.498  1.00  0.00     0.005 C 
ATOM     13  C   UNL     1      13.252 -19.728  22.795  1.00  0.00    -0.026 C 
ATOM     14  C   UNL     1      14.202 -19.460  20.559  1.00  0.00     0.005 C 
ATOM     15  C   UNL     1      14.302 -20.296  21.822  1.00  0.00    -0.001 C 
ATOM     16  C   UNL     1      13.024 -20.766  23.952  1.00  0.00     0.007 C 
ATOM     17  C   UNL     1      13.664 -18.336  23.377  1.00  0.00     0.012 C 
ATOM     18  C   UNL     1      15.695 -20.631  22.422  1.00  0.00     0.004 C 
ATOM     19  C   UNL     1      14.217 -21.735  24.198  1.00  0.00     0.005 C 
ATOM     20  C   UNL     1      15.585 -21.062  23.913  1.00  0.00     0.003 C 
ATOM     21  C   UNL     1      16.781 -19.547  22.288  1.00  0.00     0.085 C 
ATOM     22  C   UNL     1      16.865 -21.863  24.372  1.00  0.00    -0.000 C 
ATOM     23  C   UNL     1      18.054 -20.000  22.959  1.00  0.00     0.159 C 
ATOM     24  C   UNL     1      18.112 -21.310  23.663  1.00  0.00     0.005 C 
ATOM     25  C   UNL     1      16.740 -23.382  24.053  1.00  0.00     0.020 C 
ATOM     26  C   UNL     1      17.053 -21.662  25.899  1.00  0.00     0.017 C 
ATOM     27  O   UNL     1      19.084 -19.276  22.876  1.00  0.00    -0.295 OA
ATOM     28  C   UNL     1      19.236 -22.044  23.586  1.00  0.00     0.055 C 
ATOM     29  C   UNL     1      18.010 -24.172  24.421  1.00  0.00     0.081 C 
ATOM     30  C   UNL     1      19.264 -23.455  24.005  1.00  0.00     0.156 C 
ATOM     31  O   UNL     1      20.359 -24.077  24.010  1.00  0.00    -0.295 OA
ENDBRANCH   9  11
ENDBRANCH   8   9
ENDBRANCH   1   8
TORSDOF 6
ENDMDL
MODEL 4
REMARK VINA RESULT:    -7.216      3.266      8.934
REMARK INTER + INTRA:         -11.740
REMARK INTER:                 -10.775
REMARK INTRA:                  -0.965
REMARK UNBOUND:                -1.994
REMARK SMILES CC[C@@H](CC[C@@H](C)[C@H]1CC[C@H]2[C@H]3CC(=O)C4=CC(=O)CC[C@]4(C)[C@@H]3CC[C@]12C)C(C)C
REMARK SMILES IDX 4 1 3 2 2 3 1 4 29 5 30 6 31 7 5 8 6 9 7 10 8 11 9 12 27 13
REMARK SMILES IDX 10 14 11 15 26 16 28 17 12 18 25 19 24 20 13 21 22 22 14 23
REMARK SMILES IDX 16 24 21 25 23 26 15 27 17 28 20 29 18 30 19 31
REMARK H PARENT
REMARK Flexibility Score: inf
ROOT
ATOM      1  C   UNL     1      17.628 -23.513  23.901  1.00  0.00     0.004 C 
ENDROOT
BRANCH   1   2
ATOM      2  C   UNL     1      18.944 -23.823  23.132  1.00  0.00    -0.009 C 
BRANCH   2   3
ATOM      3  C   UNL     1      18.871 -25.235  22.483  1.00  0.00     0.000 C 
ATOM      4  C   UNL     1      17.837 -26.161  23.129  1.00  0.00     0.004 C 
ENDBRANCH   2   3
BRANCH   2   5
ATOM      5  C   UNL     1      20.218 -23.627  24.026  1.00  0.00    -0.014 C 
ATOM      6  C   UNL     1      20.811 -24.944  24.553  1.00  0.00     0.007 C 
ATOM      7  C   UNL     1      19.971 -22.654  25.191  1.00  0.00     0.007 C 
ENDBRANCH   2   5
ENDBRANCH   1   2
BRANCH   1   8
ATOM      8  C   UNL     1      16.843 -22.317  23.311  1.00  0.00     0.004 C 
BRANCH   8   9
ATOM      9  C   UNL     1      15.751 -21.733  24.264  1.00  0.00    -0.011 C 
ATOM     10  C   UNL     1      16.406 -21.453  25.630  1.00  0.00     0.008 C 
BRANCH   9  11
ATOM     11  C   UNL     1      15.086 -20.438  23.675  1.00  0.00    -0.002 C 
ATOM     12  C   UNL     1      15.245 -20.322  22.135  1.00  0.00     0.005 C 
ATOM     13  C   UNL     1      13.554 -20.214  23.905  1.00  0.00    -0.026 C 
ATOM     14  C   UNL     1      14.028 -19.550  21.601  1.00  0.00     0.005 C 
ATOM     15  C   UNL     1      13.295 -19.115  22.857  1.00  0.00    -0.001 C 
ATOM     16  C   UNL     1      13.166 -19.659  25.322  1.00  0.00     0.007 C 
ATOM     17  C   UNL     1      12.773 -21.533  23.597  1.00  0.00     0.012 C 
ATOM     18  C   UNL     1      11.839 -18.579  22.760  1.00  0.00     0.004 C 
ATOM     19  C   UNL     1      12.128 -18.499  25.302  1.00  0.00     0.005 C 
ATOM     20  C   UNL     1      11.116 -18.640  24.136  1.00  0.00     0.003 C 
ATOM     21  C   UNL     1      10.940 -19.219  21.686  1.00  0.00     0.085 C 
ATOM     22  C   UNL     1       9.873 -17.670  24.171  1.00  0.00    -0.000 C 
ATOM     23  C   UNL     1       9.553 -18.629  21.750  1.00  0.00     0.159 C 
ATOM     24  C   UNL     1       9.210 -17.615  22.784  1.00  0.00     0.005 C 
ATOM     25  C   UNL     1      10.279 -16.226  24.588  1.00  0.00     0.020 C 
ATOM     26  C   UNL     1       8.833 -18.233  25.175  1.00  0.00     0.017 C 
ATOM     27  O   UNL     1       8.699 -18.971  20.887  1.00  0.00    -0.295 OA
ATOM     28  C   UNL     1       8.394 -16.598  22.456  1.00  0.00     0.055 C 
ATOM     29  C   UNL     1       9.094 -15.242  24.553  1.00  0.00     0.081 C 
ATOM     30  C   UNL     1       8.247 -15.419  23.325  1.00  0.00     0.156 C 
ATOM     31  O   UNL     1       7.398 -14.536  23.030  1.00  0.00    -0.295 OA
ENDBRANCH   9  11
ENDBRANCH   8   9
ENDBRANCH   1   8
TORSDOF 6
ENDMDL
MODEL 5
REMARK VINA RESULT:    -7.036      2.912      8.922
REMARK INTER + INTRA:         -11.497
REMARK INTER:                 -10.139
REMARK INTRA:                  -1.358
REMARK UNBOUND:                -1.994
REMARK SMILES CC[C@@H](CC[C@@H](C)[C@H]1CC[C@H]2[C@H]3CC(=O)C4=CC(=O)CC[C@]4(C)[C@@H]3CC[C@]12C)C(C)C
REMARK SMILES IDX 4 1 3 2 2 3 1 4 29 5 30 6 31 7 5 8 6 9 7 10 8 11 9 12 27 13
REMARK SMILES IDX 10 14 11 15 26 16 28 17 12 18 25 19 24 20 13 21 22 22 14 23
REMARK SMILES IDX 16 24 21 25 23 26 15 27 17 28 20 29 18 30 19 31
REMARK H PARENT
REMARK Flexibility Score: inf
ROOT
ATOM      1  C   UNL     1      18.066 -21.937  24.512  1.00  0.00     0.004 C 
ENDROOT
BRANCH   1   2
ATOM      2  C   UNL     1      19.032 -23.126  24.781  1.00  0.00    -0.009 C 
BRANCH   2   3
ATOM      3  C   UNL     1      20.499 -22.618  24.883  1.00  0.00     0.000 C 
ATOM      4  C   UNL     1      21.515 -23.719  25.195  1.00  0.00     0.004 C 
ENDBRANCH   2   3
BRANCH   2   5
ATOM      5  C   UNL     1      18.858 -24.284  23.737  1.00  0.00    -0.014 C 
ATOM      6  C   UNL     1      18.012 -23.892  22.515  1.00  0.00     0.007 C 
ATOM      7  C   UNL     1      18.303 -25.568  24.375  1.00  0.00     0.007 C 
ENDBRANCH   2   5
ENDBRANCH   1   2
BRANCH   1   8
ATOM      8  C   UNL     1      16.892 -21.865  25.517  1.00  0.00     0.004 C 
BRANCH   8   9
ATOM      9  C   UNL     1      15.542 -22.429  24.967  1.00  0.00    -0.011 C 
ATOM     10  C   UNL     1      15.368 -23.863  25.502  1.00  0.00     0.008 C 
BRANCH   9  11
ATOM     11  C   UNL     1      14.321 -21.522  25.362  1.00  0.00    -0.002 C 
ATOM     12  C   UNL     1      14.681 -20.447  26.421  1.00  0.00     0.005 C 
ATOM     13  C   UNL     1      13.605 -20.704  24.235  1.00  0.00    -0.026 C 
ATOM     14  C   UNL     1      13.764 -19.237  26.183  1.00  0.00     0.005 C 
ATOM     15  C   UNL     1      12.808 -19.713  25.105  1.00  0.00    -0.001 C 
ATOM     16  C   UNL     1      12.595 -21.524  23.354  1.00  0.00     0.007 C 
ATOM     17  C   UNL     1      14.669 -19.993  23.337  1.00  0.00     0.012 C 
ATOM     18  C   UNL     1      11.917 -18.688  24.349  1.00  0.00     0.004 C 
ATOM     19  C   UNL     1      11.234 -20.814  23.097  1.00  0.00     0.005 C 
ATOM     20  C   UNL     1      11.385 -19.273  23.009  1.00  0.00     0.003 C 
ATOM     21  C   UNL     1      12.533 -17.302  24.087  1.00  0.00     0.085 C 
ATOM     22  C   UNL     1      10.123 -18.477  22.499  1.00  0.00    -0.000 C 
ATOM     23  C   UNL     1      11.569 -16.443  23.307  1.00  0.00     0.159 C 
ATOM     24  C   UNL     1      10.257 -16.989  22.866  1.00  0.00     0.005 C 
ATOM     25  C   UNL     1       8.804 -19.027  23.119  1.00  0.00     0.020 C 
ATOM     26  C   UNL     1      10.060 -18.585  20.953  1.00  0.00     0.017 C 
ATOM     27  O   UNL     1      11.868 -15.240  23.074  1.00  0.00    -0.295 OA
ATOM     28  C   UNL     1       9.176 -16.190  22.888  1.00  0.00     0.055 C 
ATOM     29  C   UNL     1       7.566 -18.215  22.697  1.00  0.00     0.081 C 
ATOM     30  C   UNL     1       7.815 -16.734  22.748  1.00  0.00     0.156 C 
ATOM     31  O   UNL     1       6.838 -15.942  22.674  1.00  0.00    -0.295 OA
ENDBRANCH   9  11
ENDBRANCH   8   9
ENDBRANCH   1   8
TORSDOF 6
ENDMDL
MODEL 6
REMARK VINA RESULT:    -7.010      2.759      5.163
REMARK INTER + INTRA:         -11.462
REMARK INTER:                  -9.997
REMARK INTRA:                  -1.465
REMARK UNBOUND:                -1.994
REMARK SMILES CC[C@@H](CC[C@@H](C)[C@H]1CC[C@H]2[C@H]3CC(=O)C4=CC(=O)CC[C@]4(C)[C@@H]3CC[C@]12C)C(C)C
REMARK SMILES IDX 4 1 3 2 2 3 1 4 29 5 30 6 31 7 5 8 6 9 7 10 8 11 9 12 27 13
REMARK SMILES IDX 10 14 11 15 26 16 28 17 12 18 25 19 24 20 13 21 22 22 14 23
REMARK SMILES IDX 16 24 21 25 23 26 15 27 17 28 20 29 18 30 19 31
REMARK H PARENT
REMARK Flexibility Score: inf
ROOT
ATOM      1  C   UNL     1       8.506 -19.047  24.162  1.00  0.00     0.004 C 
ENDROOT
BRANCH   1   2
ATOM      2  C   UNL     1       7.525 -19.574  23.075  1.00  0.00    -0.009 C 
BRANCH   2   3
ATOM      3  C   UNL     1       6.434 -20.473  23.723  1.00  0.00     0.000 C 
ATOM      4  C   UNL     1       6.673 -20.768  25.205  1.00  0.00     0.004 C 
ENDBRANCH   2   3
BRANCH   2   5
ATOM      5  C   UNL     1       8.272 -20.279  21.890  1.00  0.00    -0.014 C 
ATOM      6  C   UNL     1       7.449 -20.345  20.593  1.00  0.00     0.007 C 
ATOM      7  C   UNL     1       8.777 -21.682  22.268  1.00  0.00     0.007 C 
ENDBRANCH   2   5
ENDBRANCH   1   2
BRANCH   1   8
ATOM      8  C   UNL     1       8.787 -17.530  24.046  1.00  0.00     0.004 C 
BRANCH   8   9
ATOM      9  C   UNL     1       9.056 -17.037  22.587  1.00  0.00    -0.011 C 
ATOM     10  C   UNL     1       8.029 -15.938  22.255  1.00  0.00     0.008 C 
BRANCH   9  11
ATOM     11  C   UNL     1      10.527 -16.517  22.404  1.00  0.00    -0.002 C 
ATOM     12  C   UNL     1      11.255 -16.268  23.752  1.00  0.00     0.005 C 
ATOM     13  C   UNL     1      11.536 -17.401  21.597  1.00  0.00    -0.026 C 
ATOM     14  C   UNL     1      12.755 -16.509  23.520  1.00  0.00     0.005 C 
ATOM     15  C   UNL     1      12.859 -16.733  22.022  1.00  0.00    -0.001 C 
ATOM     16  C   UNL     1      11.405 -17.308  20.035  1.00  0.00     0.007 C 
ATOM     17  C   UNL     1      11.436 -18.887  22.072  1.00  0.00     0.012 C 
ATOM     18  C   UNL     1      14.161 -17.324  21.413  1.00  0.00     0.004 C 
ATOM     19  C   UNL     1      12.758 -17.161  19.278  1.00  0.00     0.005 C 
ATOM     20  C   UNL     1      13.912 -17.909  19.993  1.00  0.00     0.003 C 
ATOM     21  C   UNL     1      14.909 -18.366  22.266  1.00  0.00     0.085 C 
ATOM     22  C   UNL     1      15.261 -18.043  19.187  1.00  0.00    -0.000 C 
ATOM     23  C   UNL     1      16.117 -18.876  21.522  1.00  0.00     0.159 C 
ATOM     24  C   UNL     1      16.411 -18.402  20.142  1.00  0.00     0.005 C 
ATOM     25  C   UNL     1      15.623 -16.723  18.443  1.00  0.00     0.020 C 
ATOM     26  C   UNL     1      15.113 -19.198  18.161  1.00  0.00     0.017 C 
ATOM     27  O   UNL     1      16.903 -19.675  22.101  1.00  0.00    -0.295 OA
ATOM     28  C   UNL     1      17.690 -18.198  19.780  1.00  0.00     0.055 C 
ATOM     29  C   UNL     1      16.976 -16.804  17.713  1.00  0.00     0.081 C 
ATOM     30  C   UNL     1      18.034 -17.464  18.551  1.00  0.00     0.156 C 
ATOM     31  O   UNL     1      19.240 -17.383  18.198  1.00  0.00    -0.295 OA
ENDBRANCH   9  11
ENDBRANCH   8   9
ENDBRANCH   1   8
TORSDOF 6
ENDMDL
MODEL 7
REMARK VINA RESULT:    -6.959      2.297      3.734
REMARK INTER + INTRA:         -11.394
REMARK INTER:                  -9.440
REMARK INTRA:                  -1.954
REMARK UNBOUND:                -1.994
REMARK SMILES CC[C@@H](CC[C@@H](C)[C@H]1CC[C@H]2[C@H]3CC(=O)C4=CC(=O)CC[C@]4(C)[C@@H]3CC[C@]12C)C(C)C
REMARK SMILES IDX 4 1 3 2 2 3 1 4 29 5 30 6 31 7 5 8 6 9 7 10 8 11 9 12 27 13
REMARK SMILES IDX 10 14 11 15 26 16 28 17 12 18 25 19 24 20 13 21 22 22 14 23
REMARK SMILES IDX 16 24 21 25 23 26 15 27 17 28 20 29 18 30 19 31
REMARK H PARENT
REMARK Flexibility Score: inf
ROOT
ATOM      1  C   UNL     1       7.421 -17.061  22.515  1.00  0.00     0.004 C 
ENDROOT
BRANCH   1   2
ATOM      2  C   UNL     1       7.916 -17.631  23.875  1.00  0.00    -0.009 C 
BRANCH   2   3
ATOM      3  C   UNL     1       6.873 -18.628  24.455  1.00  0.00     0.000 C 
ATOM      4  C   UNL     1       6.607 -19.838  23.556  1.00  0.00     0.004 C 
ENDBRANCH   2   3
BRANCH   2   5
ATOM      5  C   UNL     1       8.310 -16.500  24.888  1.00  0.00    -0.014 C 
ATOM      6  C   UNL     1       8.698 -15.174  24.214  1.00  0.00     0.007 C 
ATOM      7  C   UNL     1       9.417 -16.944  25.859  1.00  0.00     0.007 C 
ENDBRANCH   2   5
ENDBRANCH   1   2
BRANCH   1   8
ATOM      8  C   UNL     1       8.506 -17.081  21.412  1.00  0.00     0.004 C 
BRANCH   8   9
ATOM      9  C   UNL     1       9.241 -18.451  21.260  1.00  0.00    -0.011 C 
ATOM     10  C   UNL     1       9.045 -18.942  19.812  1.00  0.00     0.008 C 
BRANCH   9  11
ATOM     11  C   UNL     1      10.765 -18.346  21.625  1.00  0.00    -0.002 C 
ATOM     12  C   UNL     1      11.135 -17.000  22.302  1.00  0.00     0.005 C 
ATOM     13  C   UNL     1      11.379 -19.422  22.583  1.00  0.00    -0.026 C 
ATOM     14  C   UNL     1      12.321 -17.265  23.243  1.00  0.00     0.005 C 
ATOM     15  C   UNL     1      12.692 -18.709  22.960  1.00  0.00    -0.001 C 
ATOM     16  C   UNL     1      11.729 -20.796  21.907  1.00  0.00     0.007 C 
ATOM     17  C   UNL     1      10.438 -19.636  23.812  1.00  0.00     0.012 C 
ATOM     18  C   UNL     1      13.641 -19.471  23.927  1.00  0.00     0.004 C 
ATOM     19  C   UNL     1      13.122 -21.373  22.293  1.00  0.00     0.005 C 
ATOM     20  C   UNL     1      13.521 -21.012  23.747  1.00  0.00     0.003 C 
ATOM     21  C   UNL     1      13.522 -19.125  25.423  1.00  0.00     0.085 C 
ATOM     22  C   UNL     1      14.787 -21.754  24.327  1.00  0.00    -0.000 C 
ATOM     23  C   UNL     1      14.469 -19.977  26.231  1.00  0.00     0.159 C 
ATOM     24  C   UNL     1      15.311 -21.009  25.566  1.00  0.00     0.005 C 
ATOM     25  C   UNL     1      15.934 -21.846  23.277  1.00  0.00     0.020 C 
ATOM     26  C   UNL     1      14.366 -23.180  24.768  1.00  0.00     0.017 C 
ATOM     27  O   UNL     1      14.574 -19.773  27.471  1.00  0.00    -0.295 OA
ATOM     28  C   UNL     1      16.567 -21.207  26.003  1.00  0.00     0.055 C 
ATOM     29  C   UNL     1      17.208 -22.497  23.845  1.00  0.00     0.081 C 
ATOM     30  C   UNL     1      17.539 -21.990  25.221  1.00  0.00     0.156 C 
ATOM     31  O   UNL     1      18.672 -22.236  25.712  1.00  0.00    -0.295 OA
ENDBRANCH   9  11
ENDBRANCH   8   9
ENDBRANCH   1   8
TORSDOF 6
ENDMDL
MODEL 8
REMARK VINA RESULT:    -6.899      3.471      4.787
REMARK INTER + INTRA:         -11.313
REMARK INTER:                  -9.375
REMARK INTRA:                  -1.938
REMARK UNBOUND:                -1.994
REMARK SMILES CC[C@@H](CC[C@@H](C)[C@H]1CC[C@H]2[C@H]3CC(=O)C4=CC(=O)CC[C@]4(C)[C@@H]3CC[C@]12C)C(C)C
REMARK SMILES IDX 4 1 3 2 2 3 1 4 29 5 30 6 31 7 5 8 6 9 7 10 8 11 9 12 27 13
REMARK SMILES IDX 10 14 11 15 26 16 28 17 12 18 25 19 24 20 13 21 22 22 14 23
REMARK SMILES IDX 16 24 21 25 23 26 15 27 17 28 20 29 18 30 19 31
REMARK H PARENT
REMARK Flexibility Score: inf
ROOT
ATOM      1  C   UNL     1       7.112 -20.517  21.826  1.00  0.00     0.004 C 
ENDROOT
BRANCH   1   2
ATOM      2  C   UNL     1       8.139 -19.682  22.643  1.00  0.00    -0.009 C 
BRANCH   2   3
ATOM      3  C   UNL     1       7.959 -19.943  24.165  1.00  0.00     0.000 C 
ATOM      4  C   UNL     1       6.713 -20.764  24.510  1.00  0.00     0.004 C 
ENDBRANCH   2   3
BRANCH   2   5
ATOM      5  C   UNL     1       8.096 -18.158  22.275  1.00  0.00    -0.014 C 
ATOM      6  C   UNL     1       7.315 -17.301  23.285  1.00  0.00     0.007 C 
ATOM      7  C   UNL     1       7.566 -17.914  20.852  1.00  0.00     0.007 C 
ENDBRANCH   2   5
ENDBRANCH   1   2
BRANCH   1   8
ATOM      8  C   UNL     1       7.776 -21.541  20.875  1.00  0.00     0.004 C 
BRANCH   8   9
ATOM      9  C   UNL     1       9.334 -21.597  20.979  1.00  0.00    -0.011 C 
ATOM     10  C   UNL     1       9.736 -23.022  21.406  1.00  0.00     0.008 C 
BRANCH   9  11
ATOM     11  C   UNL     1      10.030 -21.189  19.630  1.00  0.00    -0.002 C 
ATOM     12  C   UNL     1       9.089 -20.408  18.675  1.00  0.00     0.005 C 
ATOM     13  C   UNL     1      11.314 -20.296  19.693  1.00  0.00    -0.026 C 
ATOM     14  C   UNL     1       9.962 -19.461  17.836  1.00  0.00     0.005 C 
ATOM     15  C   UNL     1      11.380 -19.838  18.224  1.00  0.00    -0.001 C 
ATOM     16  C   UNL     1      12.642 -21.060  20.042  1.00  0.00     0.007 C 
ATOM     17  C   UNL     1      11.086 -19.108  20.683  1.00  0.00     0.012 C 
ATOM     18  C   UNL     1      12.563 -18.906  17.841  1.00  0.00     0.004 C 
ATOM     19  C   UNL     1      13.860 -20.683  19.149  1.00  0.00     0.005 C 
ATOM     20  C   UNL     1      13.823 -19.198  18.706  1.00  0.00     0.003 C 
ATOM     21  C   UNL     1      12.280 -17.392  17.855  1.00  0.00     0.085 C 
ATOM     22  C   UNL     1      15.130 -18.643  18.018  1.00  0.00    -0.000 C 
ATOM     23  C   UNL     1      13.532 -16.625  17.510  1.00  0.00     0.159 C 
ATOM     24  C   UNL     1      14.813 -17.342  17.262  1.00  0.00     0.005 C 
ATOM     25  C   UNL     1      15.734 -19.669  17.014  1.00  0.00     0.020 C 
ATOM     26  C   UNL     1      16.170 -18.315  19.121  1.00  0.00     0.017 C 
ATOM     27  O   UNL     1      13.471 -15.371  17.387  1.00  0.00    -0.295 OA
ATOM     28  C   UNL     1      15.639 -16.890  16.301  1.00  0.00     0.055 C 
ATOM     29  C   UNL     1      16.966 -19.119  16.272  1.00  0.00     0.081 C 
ATOM     30  C   UNL     1      16.764 -17.703  15.810  1.00  0.00     0.156 C 
ATOM     31  O   UNL     1      17.571 -17.204  14.983  1.00  0.00    -0.295 OA
ENDBRANCH   9  11
ENDBRANCH   8   9
ENDBRANCH   1   8
TORSDOF 6
ENDMDL
MODEL 9
REMARK VINA RESULT:    -6.893      2.096      3.910
REMARK INTER + INTRA:         -11.304
REMARK INTER:                  -9.430
REMARK INTRA:                  -1.874
REMARK UNBOUND:                -1.994
REMARK SMILES CC[C@@H](CC[C@@H](C)[C@H]1CC[C@H]2[C@H]3CC(=O)C4=CC(=O)CC[C@]4(C)[C@@H]3CC[C@]12C)C(C)C
REMARK SMILES IDX 4 1 3 2 2 3 1 4 29 5 30 6 31 7 5 8 6 9 7 10 8 11 9 12 27 13
REMARK SMILES IDX 10 14 11 15 26 16 28 17 12 18 25 19 24 20 13 21 22 22 14 23
REMARK SMILES IDX 16 24 21 25 23 26 15 27 17 28 20 29 18 30 19 31
REMARK H PARENT
REMARK Flexibility Score: inf
ROOT
ATOM      1  C   UNL     1       7.926 -17.777  22.054  1.00  0.00     0.004 C 
ENDROOT
BRANCH   1   2
ATOM      2  C   UNL     1       8.094 -19.222  21.503  1.00  0.00    -0.009 C 
BRANCH   2   3
ATOM      3  C   UNL     1       7.527 -19.319  20.059  1.00  0.00     0.000 C 
ATOM      4  C   UNL     1       8.560 -19.749  19.015  1.00  0.00     0.004 C 
ENDBRANCH   2   3
BRANCH   2   5
ATOM      5  C   UNL     1       7.494 -20.302  22.469  1.00  0.00    -0.014 C 
ATOM      6  C   UNL     1       7.774 -20.026  23.955  1.00  0.00     0.007 C 
ATOM      7  C   UNL     1       7.940 -21.728  22.103  1.00  0.00     0.007 C 
ENDBRANCH   2   5
ENDBRANCH   1   2
BRANCH   1   8
ATOM      8  C   UNL     1       9.273 -17.085  22.373  1.00  0.00     0.004 C 
BRANCH   8   9
ATOM      9  C   UNL     1      10.509 -17.731  21.670  1.00  0.00    -0.011 C 
ATOM     10  C   UNL     1      10.789 -16.946  20.374  1.00  0.00     0.008 C 
BRANCH   9  11
ATOM     11  C   UNL     1      11.772 -17.757  22.604  1.00  0.00    -0.002 C 
ATOM     12  C   UNL     1      11.433 -17.462  24.090  1.00  0.00     0.005 C 
ATOM     13  C   UNL     1      12.622 -19.069  22.673  1.00  0.00    -0.026 C 
ATOM     14  C   UNL     1      12.458 -18.210  24.956  1.00  0.00     0.005 C 
ATOM     15  C   UNL     1      13.440 -18.778  23.947  1.00  0.00    -0.001 C 
ATOM     16  C   UNL     1      13.616 -19.285  21.476  1.00  0.00     0.007 C 
ATOM     17  C   UNL     1      11.679 -20.305  22.836  1.00  0.00     0.012 C 
ATOM     18  C   UNL     1      14.457 -19.869  24.382  1.00  0.00     0.004 C 
ATOM     19  C   UNL     1      15.044 -19.743  21.893  1.00  0.00     0.005 C 
ATOM     20  C   UNL     1      15.024 -20.642  23.157  1.00  0.00     0.003 C 
ATOM     21  C   UNL     1      13.973 -20.880  25.438  1.00  0.00     0.085 C 
ATOM     22  C   UNL     1      16.376 -21.370  23.516  1.00  0.00    -0.000 C 
ATOM     23  C   UNL     1      15.051 -21.897  25.718  1.00  0.00     0.159 C 
ATOM     24  C   UNL     1      16.340 -21.855  24.975  1.00  0.00     0.005 C 
ATOM     25  C   UNL     1      17.604 -20.429  23.333  1.00  0.00     0.020 C 
ATOM     26  C   UNL     1      16.529 -22.613  22.601  1.00  0.00     0.017 C 
ATOM     27  O   UNL     1      14.866 -22.756  26.623  1.00  0.00    -0.295 OA
ATOM     28  C   UNL     1      17.479 -22.152  25.626  1.00  0.00     0.055 C 
ATOM     29  C   UNL     1      18.929 -21.093  23.754  1.00  0.00     0.081 C 
ATOM     30  C   UNL     1      18.798 -21.853  25.043  1.00  0.00     0.156 C 
ATOM     31  O   UNL     1      19.838 -22.237  25.640  1.00  0.00    -0.295 OA
ENDBRANCH   9  11
ENDBRANCH   8   9
ENDBRANCH   1   8
TORSDOF 6
ENDMDL
