MODEL 1
REMARK VINA RESULT:    -4.929      0.000      0.000
REMARK INTER + INTRA:          -6.164
REMARK INTER:                  -5.650
REMARK INTRA:                  -0.514
REMARK UNBOUND:                -0.514
REMARK SMILES C=C(C)[C@@H]1CC[C@]2(C(=O)[O-])CC[C@@]3(C)[C@H](CC[C@@H]4[C@@]5(C)CC[C@H](O)C(C)(C)[C@H]5CC[C@@]43C)[C@H]12
REMARK SMILES IDX 7 1 6 2 33 3 11 4 5 5 15 6 4 7 12 8 16 9 13 10 17 11 31 12
REMARK SMILES IDX 14 13 18 14 30 15 32 16 19 17 29 18 21 19 20 20 28 21 22 22
REMARK SMILES IDX 25 23 23 24 26 25 27 26 8 27 9 28 10 29 2 30 3 31 1 32 24 33
REMARK H PARENT 24 34
REMARK Flexibility Score: inf
ROOT
ATOM      1  C   UNL     1     -44.368  10.126 -28.325  1.00  0.00     0.014 C 
ATOM      2  C   UNL     1     -44.907  10.339 -29.761  1.00  0.00     0.014 C 
ATOM      3  C   UNL     1     -44.675  11.491 -27.643  1.00  0.00     0.012 C 
ATOM      4  C   UNL     1     -45.051   8.875 -27.671  1.00  0.00     0.014 C 
ATOM      5  C   UNL     1     -44.661  11.797 -30.111  1.00  0.00     0.009 C 
ATOM      6  C   UNL     1     -45.921  11.450 -26.696  1.00  0.00     0.000 C 
ATOM      7  C   UNL     1     -44.626  12.563 -28.776  1.00  0.00     0.018 C 
ATOM      8  C   UNL     1     -45.511   8.970 -26.193  1.00  0.00     0.008 C 
ATOM      9  C   UNL     1     -47.247  11.197 -27.423  1.00  0.00     0.005 C 
ATOM     10  C   UNL     1     -45.724  10.399 -25.551  1.00  0.00    -0.024 C 
ATOM     11  C   UNL     1     -48.414  11.383 -26.477  1.00  0.00     0.005 C 
ATOM     12  C   UNL     1     -46.989  10.411 -24.521  1.00  0.00    -0.024 C 
ATOM     13  C   UNL     1     -44.398  10.750 -24.774  1.00  0.00     0.012 C 
ATOM     14  C   UNL     1     -48.399  10.381 -25.279  1.00  0.00     0.002 C 
ATOM     15  C   UNL     1     -46.919  11.672 -23.582  1.00  0.00     0.008 C 
ATOM     16  C   UNL     1     -46.857   9.141 -23.613  1.00  0.00     0.012 C 
ATOM     17  C   UNL     1     -49.711  10.539 -24.350  1.00  0.00    -0.026 C 
ATOM     18  C   UNL     1     -48.216  12.457 -23.320  1.00  0.00     0.005 C 
ATOM     19  C   UNL     1     -50.099   9.169 -23.706  1.00  0.00     0.010 C 
ATOM     20  C   UNL     1     -50.946  10.898 -25.250  1.00  0.00     0.012 C 
ATOM     21  C   UNL     1     -49.547  11.666 -23.240  1.00  0.00     0.003 C 
ATOM     22  C   UNL     1     -51.279   9.216 -22.715  1.00  0.00     0.033 C 
ATOM     23  C   UNL     1     -50.042  11.315 -21.769  1.00  0.00    -0.006 C 
ATOM     24  C   UNL     1     -51.369  10.496 -21.845  1.00  0.00     0.120 C 
ATOM     25  C   UNL     1     -49.009  10.535 -20.916  1.00  0.00     0.014 C 
ATOM     26  C   UNL     1     -50.346  12.629 -20.983  1.00  0.00     0.014 C 
ENDROOT
BRANCH   1  27
ATOM     27  C   UNL     1     -42.860   9.860 -28.401  1.00  0.00     0.048 C 
ATOM     28  O   UNL     1     -42.116   9.998 -27.391  1.00  0.00    -0.550 OA
ATOM     29  O   UNL     1     -42.301   9.363 -29.578  1.00  0.00    -0.550 OA
ENDBRANCH   1  27
BRANCH   7  30
ATOM     30  C   UNL     1     -45.567  13.765 -28.618  1.00  0.00    -0.077 C 
ATOM     31  C   UNL     1     -45.751  14.515 -27.315  1.00  0.00     0.039 C 
ATOM     32  C   UNL     1     -46.392  14.067 -29.634  1.00  0.00     0.008 C 
ENDBRANCH   7  30
BRANCH  24  33
ATOM     33  O   UNL     1     -52.412  11.317 -22.318  1.00  0.00    -0.393 OA
ATOM     34  H   UNL     1     -52.163  12.257 -22.116  1.00  0.00     0.210 HD
ENDBRANCH  24  33
TORSDOF 3
ENDMDL
MODEL 2
REMARK VINA RESULT:    -4.591      1.942      7.723
REMARK INTER + INTRA:          -5.776
REMARK INTER:                  -5.471
REMARK INTRA:                  -0.305
REMARK UNBOUND:                -0.514
REMARK SMILES C=C(C)[C@@H]1CC[C@]2(C(=O)[O-])CC[C@@]3(C)[C@H](CC[C@@H]4[C@@]5(C)CC[C@H](O)C(C)(C)[C@H]5CC[C@@]43C)[C@H]12
REMARK SMILES IDX 7 1 6 2 33 3 11 4 5 5 15 6 4 7 12 8 16 9 13 10 17 11 31 12
REMARK SMILES IDX 14 13 18 14 30 15 32 16 19 17 29 18 21 19 20 20 28 21 22 22
REMARK SMILES IDX 25 23 23 24 26 25 27 26 8 27 9 28 10 29 2 30 3 31 1 32 24 33
REMARK H PARENT 24 34
REMARK Flexibility Score: inf
ROOT
ATOM      1  C   UNL     1     -49.170  11.568 -20.685  1.00  0.00     0.014 C 
ATOM      2  C   UNL     1     -49.735  12.974 -20.363  1.00  0.00     0.014 C 
ATOM      3  C   UNL     1     -50.029  11.131 -21.909  1.00  0.00     0.012 C 
ATOM      4  C   UNL     1     -47.625  11.651 -20.939  1.00  0.00     0.014 C 
ATOM      5  C   UNL     1     -51.221  12.933 -20.677  1.00  0.00     0.009 C 
ATOM      6  C   UNL     1     -49.274  11.251 -23.275  1.00  0.00     0.000 C 
ATOM      7  C   UNL     1     -51.409  11.842 -21.746  1.00  0.00     0.018 C 
ATOM      8  C   UNL     1     -47.023  10.843 -22.118  1.00  0.00     0.008 C 
ATOM      9  C   UNL     1     -48.933  12.692 -23.674  1.00  0.00     0.005 C 
ATOM     10  C   UNL     1     -47.979  10.368 -23.284  1.00  0.00    -0.024 C 
ATOM     11  C   UNL     1     -48.402  12.738 -25.090  1.00  0.00     0.005 C 
ATOM     12  C   UNL     1     -47.236  10.433 -24.734  1.00  0.00    -0.024 C 
ATOM     13  C   UNL     1     -48.389   8.880 -22.958  1.00  0.00     0.012 C 
ATOM     14  C   UNL     1     -47.078  11.931 -25.277  1.00  0.00     0.002 C 
ATOM     15  C   UNL     1     -48.017   9.566 -25.790  1.00  0.00     0.008 C 
ATOM     16  C   UNL     1     -45.818   9.790 -24.554  1.00  0.00     0.012 C 
ATOM     17  C   UNL     1     -46.486  12.088 -26.772  1.00  0.00    -0.026 C 
ATOM     18  C   UNL     1     -48.230  10.150 -27.197  1.00  0.00     0.005 C 
ATOM     19  C   UNL     1     -44.925  11.995 -26.760  1.00  0.00     0.010 C 
ATOM     20  C   UNL     1     -46.775  13.539 -27.295  1.00  0.00     0.012 C 
ATOM     21  C   UNL     1     -47.113  11.045 -27.794  1.00  0.00     0.003 C 
ATOM     22  C   UNL     1     -44.252  12.029 -28.146  1.00  0.00     0.033 C 
ATOM     23  C   UNL     1     -46.111  10.308 -28.787  1.00  0.00    -0.006 C 
ATOM     24  C   UNL     1     -45.029  11.317 -29.283  1.00  0.00     0.120 C 
ATOM     25  C   UNL     1     -45.410   9.064 -28.181  1.00  0.00     0.014 C 
ATOM     26  C   UNL     1     -46.886   9.796 -30.041  1.00  0.00     0.014 C 
ENDROOT
BRANCH   1  27
ATOM     27  C   UNL     1     -49.407  10.656 -19.476  1.00  0.00     0.048 C 
ATOM     28  O   UNL     1     -49.314  11.091 -18.295  1.00  0.00    -0.550 OA
ATOM     29  O   UNL     1     -49.827   9.341 -19.671  1.00  0.00    -0.550 OA
ENDBRANCH   1  27
BRANCH   7  30
ATOM     30  C   UNL     1     -52.132  12.229 -23.044  1.00  0.00    -0.077 C 
ATOM     31  C   UNL     1     -52.073  11.401 -24.311  1.00  0.00     0.039 C 
ATOM     32  C   UNL     1     -52.709  13.440 -23.114  1.00  0.00     0.008 C 
ENDBRANCH   7  30
BRANCH  24  33
ATOM     33  O   UNL     1     -45.621  12.279 -30.125  1.00  0.00    -0.393 OA
ATOM     34  H   UNL     1     -44.887  12.743 -30.606  1.00  0.00     0.210 HD
ENDBRANCH  24  33
TORSDOF 3
ENDMDL
MODEL 3
REMARK VINA RESULT:    -3.516      1.329      7.814
REMARK INTER + INTRA:          -4.543
REMARK INTER:                  -4.274
REMARK INTRA:                  -0.269
REMARK UNBOUND:                -0.514
REMARK SMILES C=C(C)[C@@H]1CC[C@]2(C(=O)[O-])CC[C@@]3(C)[C@H](CC[C@@H]4[C@@]5(C)CC[C@H](O)C(C)(C)[C@H]5CC[C@@]43C)[C@H]12
REMARK SMILES IDX 7 1 6 2 33 3 11 4 5 5 15 6 4 7 12 8 16 9 13 10 17 11 31 12
REMARK SMILES IDX 14 13 18 14 30 15 32 16 19 17 29 18 21 19 20 20 28 21 22 22
REMARK SMILES IDX 25 23 23 24 26 25 27 26 8 27 9 28 10 29 2 30 3 31 1 32 24 33
REMARK H PARENT 24 34
REMARK Flexibility Score: inf
ROOT
ATOM      1  C   UNL     1     -50.591   9.841 -22.465  1.00  0.00     0.014 C 
ATOM      2  C   UNL     1     -49.915   9.209 -21.223  1.00  0.00     0.014 C 
ATOM      3  C   UNL     1     -49.839  11.198 -22.605  1.00  0.00     0.012 C 
ATOM      4  C   UNL     1     -50.475   8.875 -23.695  1.00  0.00     0.014 C 
ATOM      5  C   UNL     1     -49.569  10.351 -20.282  1.00  0.00     0.009 C 
ATOM      6  C   UNL     1     -48.768  11.203 -23.747  1.00  0.00     0.000 C 
ATOM      7  C   UNL     1     -49.404  11.603 -21.162  1.00  0.00     0.018 C 
ATOM      8  C   UNL     1     -50.115   9.477 -25.079  1.00  0.00     0.008 C 
ATOM      9  C   UNL     1     -47.589  10.255 -23.499  1.00  0.00     0.005 C 
ATOM     10  C   UNL     1     -49.424  10.897 -25.137  1.00  0.00    -0.024 C 
ATOM     11  C   UNL     1     -46.506  10.476 -24.532  1.00  0.00     0.005 C 
ATOM     12  C   UNL     1     -48.321  10.979 -26.335  1.00  0.00    -0.024 C 
ATOM     13  C   UNL     1     -50.570  11.949 -25.390  1.00  0.00     0.012 C 
ATOM     14  C   UNL     1     -46.978  10.178 -25.991  1.00  0.00     0.002 C 
ATOM     15  C   UNL     1     -47.975  12.479 -26.660  1.00  0.00     0.008 C 
ATOM     16  C   UNL     1     -48.985  10.362 -27.614  1.00  0.00     0.012 C 
ATOM     17  C   UNL     1     -45.770  10.323 -27.054  1.00  0.00    -0.026 C 
ATOM     18  C   UNL     1     -46.500  12.855 -26.878  1.00  0.00     0.005 C 
ATOM     19  C   UNL     1     -45.972   9.343 -28.255  1.00  0.00     0.010 C 
ATOM     20  C   UNL     1     -44.433   9.838 -26.390  1.00  0.00     0.012 C 
ATOM     21  C   UNL     1     -45.573  11.816 -27.562  1.00  0.00     0.003 C 
ATOM     22  C   UNL     1     -44.932   9.463 -29.386  1.00  0.00     0.033 C 
ATOM     23  C   UNL     1     -45.349  12.029 -29.122  1.00  0.00    -0.006 C 
ATOM     24  C   UNL     1     -44.427  10.899 -29.678  1.00  0.00     0.120 C 
ATOM     25  C   UNL     1     -46.655  12.078 -29.956  1.00  0.00     0.014 C 
ATOM     26  C   UNL     1     -44.627  13.390 -29.374  1.00  0.00     0.014 C 
ENDROOT
BRANCH   1  27
ATOM     27  C   UNL     1     -52.079  10.049 -22.161  1.00  0.00     0.048 C 
ATOM     28  O   UNL     1     -52.614  11.190 -22.243  1.00  0.00    -0.550 OA
ATOM     29  O   UNL     1     -52.890   8.951 -21.879  1.00  0.00    -0.550 OA
ENDBRANCH   1  27
BRANCH   7  30
ATOM     30  C   UNL     1     -48.092  12.391 -21.044  1.00  0.00    -0.077 C 
ATOM     31  C   UNL     1     -47.636  13.411 -22.067  1.00  0.00     0.039 C 
ATOM     32  C   UNL     1     -47.226  12.046 -20.076  1.00  0.00     0.008 C 
ENDBRANCH   7  30
BRANCH  24  33
ATOM     33  O   UNL     1     -43.122  11.053 -29.170  1.00  0.00    -0.393 OA
ATOM     34  H   UNL     1     -43.165  11.727 -28.442  1.00  0.00     0.210 HD
ENDBRANCH  24  33
TORSDOF 3
ENDMDL
MODEL 4
REMARK VINA RESULT:    -3.447      1.620      2.023
REMARK INTER + INTRA:          -4.465
REMARK INTER:                  -5.152
REMARK INTRA:                   0.687
REMARK UNBOUND:                -0.514
REMARK SMILES C=C(C)[C@@H]1CC[C@]2(C(=O)[O-])CC[C@@]3(C)[C@H](CC[C@@H]4[C@@]5(C)CC[C@H](O)C(C)(C)[C@H]5CC[C@@]43C)[C@H]12
REMARK SMILES IDX 7 1 6 2 33 3 11 4 5 5 15 6 4 7 12 8 16 9 13 10 17 11 31 12
REMARK SMILES IDX 14 13 18 14 30 15 32 16 19 17 29 18 21 19 20 20 28 21 22 22
REMARK SMILES IDX 25 23 23 24 26 25 27 26 8 27 9 28 10 29 2 30 3 31 1 32 24 33
REMARK H PARENT 24 34
REMARK Flexibility Score: inf
ROOT
ATOM      1  C   UNL     1     -46.180  10.926 -28.979  1.00  0.00     0.014 C 
ATOM      2  C   UNL     1     -47.196  11.582 -29.946  1.00  0.00     0.014 C 
ATOM      3  C   UNL     1     -45.824  12.098 -28.017  1.00  0.00     0.012 C 
ATOM      4  C   UNL     1     -46.818   9.664 -28.299  1.00  0.00     0.014 C 
ATOM      5  C   UNL     1     -46.762  13.027 -30.125  1.00  0.00     0.009 C 
ATOM      6  C   UNL     1     -46.531  11.998 -26.624  1.00  0.00     0.000 C 
ATOM      7  C   UNL     1     -45.985  13.407 -28.851  1.00  0.00     0.018 C 
ATOM      8  C   UNL     1     -46.581   9.441 -26.782  1.00  0.00     0.008 C 
ATOM      9  C   UNL     1     -48.055  12.143 -26.686  1.00  0.00     0.005 C 
ATOM     10  C   UNL     1     -46.144  10.669 -25.889  1.00  0.00    -0.024 C 
ATOM     11  C   UNL     1     -48.636  12.249 -25.293  1.00  0.00     0.005 C 
ATOM     12  C   UNL     1     -46.819  10.603 -24.406  1.00  0.00    -0.024 C 
ATOM     13  C   UNL     1     -44.573  10.605 -25.767  1.00  0.00     0.012 C 
ATOM     14  C   UNL     1     -48.374  10.980 -24.420  1.00  0.00     0.002 C 
ATOM     15  C   UNL     1     -46.052  11.552 -23.412  1.00  0.00     0.008 C 
ATOM     16  C   UNL     1     -46.642   9.135 -23.885  1.00  0.00     0.012 C 
ATOM     17  C   UNL     1     -49.095  11.086 -22.978  1.00  0.00    -0.026 C 
ATOM     18  C   UNL     1     -46.881  12.426 -22.455  1.00  0.00     0.005 C 
ATOM     19  C   UNL     1     -49.509   9.669 -22.463  1.00  0.00     0.010 C 
ATOM     20  C   UNL     1     -50.460  11.845 -23.134  1.00  0.00     0.012 C 
ATOM     21  C   UNL     1     -48.209  11.849 -21.901  1.00  0.00     0.003 C 
ATOM     22  C   UNL     1     -50.116   9.633 -21.047  1.00  0.00     0.033 C 
ATOM     23  C   UNL     1     -48.118  11.207 -20.449  1.00  0.00    -0.006 C 
ATOM     24  C   UNL     1     -49.513  10.642 -20.037  1.00  0.00     0.120 C 
ATOM     25  C   UNL     1     -47.053  10.087 -20.310  1.00  0.00     0.014 C 
ATOM     26  C   UNL     1     -47.728  12.302 -19.407  1.00  0.00     0.014 C 
ENDROOT
BRANCH   1  27
ATOM     27  C   UNL     1     -44.960  10.467 -29.784  1.00  0.00     0.048 C 
ATOM     28  O   UNL     1     -44.052  11.276 -30.123  1.00  0.00    -0.550 OA
ATOM     29  O   UNL     1     -44.789   9.114 -30.075  1.00  0.00    -0.550 OA
ENDBRANCH   1  27
BRANCH   7  30
ATOM     30  C   UNL     1     -46.443  14.653 -28.080  1.00  0.00    -0.077 C 
ATOM     31  C   UNL     1     -47.038  15.876 -28.748  1.00  0.00     0.039 C 
ATOM     32  C   UNL     1     -46.153  14.734 -26.771  1.00  0.00     0.008 C 
ENDBRANCH   7  30
BRANCH  24  33
ATOM     33  O   UNL     1     -50.417  11.703 -19.832  1.00  0.00    -0.393 OA
ATOM     34  H   UNL     1     -50.656  11.706 -18.868  1.00  0.00     0.210 HD
ENDBRANCH  24  33
TORSDOF 3
ENDMDL
MODEL 5
REMARK VINA RESULT:    -3.126      2.204      3.600
REMARK INTER + INTRA:          -4.097
REMARK INTER:                  -4.515
REMARK INTRA:                   0.418
REMARK UNBOUND:                -0.514
REMARK SMILES C=C(C)[C@@H]1CC[C@]2(C(=O)[O-])CC[C@@]3(C)[C@H](CC[C@@H]4[C@@]5(C)CC[C@H](O)C(C)(C)[C@H]5CC[C@@]43C)[C@H]12
REMARK SMILES IDX 7 1 6 2 33 3 11 4 5 5 15 6 4 7 12 8 16 9 13 10 17 11 31 12
REMARK SMILES IDX 14 13 18 14 30 15 32 16 19 17 29 18 21 19 20 20 28 21 22 22
REMARK SMILES IDX 25 23 23 24 26 25 27 26 8 27 9 28 10 29 2 30 3 31 1 32 24 33
REMARK H PARENT 24 34
REMARK Flexibility Score: inf
ROOT
ATOM      1  C   UNL     1     -45.981  11.681 -28.572  1.00  0.00     0.014 C 
ATOM      2  C   UNL     1     -45.762  10.278 -29.188  1.00  0.00     0.014 C 
ATOM      3  C   UNL     1     -47.519  11.706 -28.327  1.00  0.00     0.012 C 
ATOM      4  C   UNL     1     -45.092  11.856 -27.292  1.00  0.00     0.014 C 
ATOM      5  C   UNL     1     -46.991   9.969 -30.027  1.00  0.00     0.009 C 
ATOM      6  C   UNL     1     -47.917  11.482 -26.829  1.00  0.00     0.000 C 
ATOM      7  C   UNL     1     -48.147  10.784 -29.419  1.00  0.00     0.018 C 
ATOM      8  C   UNL     1     -45.715  12.531 -26.042  1.00  0.00     0.008 C 
ATOM      9  C   UNL     1     -47.572  10.087 -26.295  1.00  0.00     0.005 C 
ATOM     10  C   UNL     1     -47.289  12.584 -25.908  1.00  0.00    -0.024 C 
ATOM     11  C   UNL     1     -48.175   9.881 -24.923  1.00  0.00     0.005 C 
ATOM     12  C   UNL     1     -47.766  12.394 -24.361  1.00  0.00    -0.024 C 
ATOM     13  C   UNL     1     -47.742  13.997 -26.440  1.00  0.00     0.012 C 
ATOM     14  C   UNL     1     -47.629  10.882 -23.855  1.00  0.00     0.002 C 
ATOM     15  C   UNL     1     -49.253  12.880 -24.182  1.00  0.00     0.008 C 
ATOM     16  C   UNL     1     -46.860  13.324 -23.482  1.00  0.00     0.012 C 
ATOM     17  C   UNL     1     -48.214  10.566 -22.383  1.00  0.00    -0.026 C 
ATOM     18  C   UNL     1     -50.205  12.012 -23.342  1.00  0.00     0.005 C 
ATOM     19  C   UNL     1     -47.179  10.962 -21.281  1.00  0.00     0.010 C 
ATOM     20  C   UNL     1     -48.377   9.015 -22.210  1.00  0.00     0.012 C 
ATOM     21  C   UNL     1     -49.621  11.257 -22.120  1.00  0.00     0.003 C 
ATOM     22  C   UNL     1     -47.668  10.802 -19.828  1.00  0.00     0.033 C 
ATOM     23  C   UNL     1     -49.827  11.977 -20.715  1.00  0.00    -0.006 C 
ATOM     24  C   UNL     1     -49.165  11.123 -19.588  1.00  0.00     0.120 C 
ATOM     25  C   UNL     1     -49.273  13.424 -20.651  1.00  0.00     0.014 C 
ATOM     26  C   UNL     1     -51.350  12.084 -20.391  1.00  0.00     0.014 C 
ENDROOT
BRANCH   1  27
ATOM     27  C   UNL     1     -45.556  12.740 -29.595  1.00  0.00     0.048 C 
ATOM     28  O   UNL     1     -44.382  12.775 -30.058  1.00  0.00    -0.550 OA
ATOM     29  O   UNL     1     -46.500  13.629 -30.106  1.00  0.00    -0.550 OA
ENDBRANCH   1  27
BRANCH   7  30
ATOM     30  C   UNL     1     -49.421  10.027 -29.019  1.00  0.00    -0.077 C 
ATOM     31  C   UNL     1     -49.434   8.875 -28.036  1.00  0.00     0.039 C 
ATOM     32  C   UNL     1     -50.553  10.286 -29.694  1.00  0.00     0.008 C 
ENDBRANCH   7  30
BRANCH  24  33
ATOM     33  O   UNL     1     -49.884   9.924 -19.412  1.00  0.00    -0.393 OA
ATOM     34  H   UNL     1     -49.354   9.197 -19.830  1.00  0.00     0.210 HD
ENDBRANCH  24  33
TORSDOF 3
ENDMDL
MODEL 6
REMARK VINA RESULT:    -2.056      2.614      4.229
REMARK INTER + INTRA:          -2.871
REMARK INTER:                  -2.576
REMARK INTRA:                  -0.295
REMARK UNBOUND:                -0.514
REMARK SMILES C=C(C)[C@@H]1CC[C@]2(C(=O)[O-])CC[C@@]3(C)[C@H](CC[C@@H]4[C@@]5(C)CC[C@H](O)C(C)(C)[C@H]5CC[C@@]43C)[C@H]12
REMARK SMILES IDX 7 1 6 2 33 3 11 4 5 5 15 6 4 7 12 8 16 9 13 10 17 11 31 12
REMARK SMILES IDX 14 13 18 14 30 15 32 16 19 17 29 18 21 19 20 20 28 21 22 22
REMARK SMILES IDX 25 23 23 24 26 25 27 26 8 27 9 28 10 29 2 30 3 31 1 32 24 33
REMARK H PARENT 24 34
REMARK Flexibility Score: inf
ROOT
ATOM      1  C   UNL     1     -46.147  13.877 -28.173  1.00  0.00     0.014 C 
ATOM      2  C   UNL     1     -45.121  12.974 -28.899  1.00  0.00     0.014 C 
ATOM      3  C   UNL     1     -47.405  12.962 -28.092  1.00  0.00     0.012 C 
ATOM      4  C   UNL     1     -45.569  14.353 -26.795  1.00  0.00     0.014 C 
ATOM      5  C   UNL     1     -45.903  12.129 -29.891  1.00  0.00     0.009 C 
ATOM      6  C   UNL     1     -47.631  12.335 -26.675  1.00  0.00     0.000 C 
ATOM      7  C   UNL     1     -47.332  12.015 -29.331  1.00  0.00     0.018 C 
ATOM      8  C   UNL     1     -46.504  14.348 -25.557  1.00  0.00     0.008 C 
ATOM      9  C   UNL     1     -46.539  11.347 -26.249  1.00  0.00     0.005 C 
ATOM     10  C   UNL     1     -47.804  13.450 -25.587  1.00  0.00    -0.024 C 
ATOM     11  C   UNL     1     -46.937  10.632 -24.976  1.00  0.00     0.005 C 
ATOM     12  C   UNL     1     -48.117  12.797 -24.125  1.00  0.00    -0.024 C 
ATOM     13  C   UNL     1     -48.995  14.388 -26.020  1.00  0.00     0.012 C 
ATOM     14  C   UNL     1     -47.120  11.597 -23.762  1.00  0.00     0.002 C 
ATOM     15  C   UNL     1     -49.605  12.288 -24.059  1.00  0.00     0.008 C 
ATOM     16  C   UNL     1     -47.963  13.943 -23.067  1.00  0.00     0.012 C 
ATOM     17  C   UNL     1     -47.443  10.792 -22.399  1.00  0.00    -0.026 C 
ATOM     18  C   UNL     1     -49.877  10.918 -23.415  1.00  0.00     0.005 C 
ATOM     19  C   UNL     1     -46.875  11.555 -21.159  1.00  0.00     0.010 C 
ATOM     20  C   UNL     1     -46.656   9.433 -22.401  1.00  0.00     0.012 C 
ATOM     21  C   UNL     1     -48.991  10.482 -22.219  1.00  0.00     0.003 C 
ATOM     22  C   UNL     1     -47.210  10.932 -19.790  1.00  0.00     0.033 C 
ATOM     23  C   UNL     1     -49.621  10.734 -20.780  1.00  0.00    -0.006 C 
ATOM     24  C   UNL     1     -48.611  10.278 -19.680  1.00  0.00     0.120 C 
ATOM     25  C   UNL     1     -50.037  12.203 -20.512  1.00  0.00     0.014 C 
ATOM     26  C   UNL     1     -50.917   9.882 -20.610  1.00  0.00     0.014 C 
ENDROOT
BRANCH   1  27
ATOM     27  C   UNL     1     -46.408  15.118 -29.034  1.00  0.00     0.048 C 
ATOM     28  O   UNL     1     -47.212  15.087 -30.007  1.00  0.00    -0.550 OA
ATOM     29  O   UNL     1     -45.824  16.336 -28.691  1.00  0.00    -0.550 OA
ENDBRANCH   1  27
BRANCH   7  30
ATOM     30  C   UNL     1     -47.918  10.608 -29.147  1.00  0.00    -0.077 C 
ATOM     31  C   UNL     1     -47.068   9.373 -28.928  1.00  0.00     0.039 C 
ATOM     32  C   UNL     1     -49.234  10.434 -29.353  1.00  0.00     0.008 C 
ENDBRANCH   7  30
BRANCH  24  33
ATOM     33  O   UNL     1     -48.481   8.875 -19.702  1.00  0.00    -0.393 OA
ATOM     34  H   UNL     1     -49.281   8.497 -19.251  1.00  0.00     0.210 HD
ENDBRANCH  24  33
TORSDOF 3
ENDMDL
