MODEL 1
REMARK VINA RESULT:    -3.224      0.000      0.000
REMARK INTER + INTRA:          -5.127
REMARK INTER:                  -4.920
REMARK INTRA:                  -0.207
REMARK UNBOUND:                -0.207
REMARK SMILES O=C([O-])CCCCCCCCC(=O)[O-]
REMARK SMILES IDX 7 1 6 2 5 3 4 4 2 5 1 6 3 7 8 8 9 9 10 10 11 11 12 12 13 13
REMARK SMILES IDX 14 14
REMARK H PARENT
REMARK Flexibility Score: inf
ROOT
ATOM      1  C   UNL     1       4.435 -18.746  19.770  1.00  0.00     0.000 C 
ENDROOT
BRANCH   1   2
ATOM      2  C   UNL     1       5.621 -18.238  18.932  1.00  0.00     0.000 C 
BRANCH   2   3
ATOM      3  C   UNL     1       6.920 -19.008  19.222  1.00  0.00     0.006 C 
BRANCH   3   4
ATOM      4  C   UNL     1       7.821 -19.136  17.986  1.00  0.00     0.053 C 
BRANCH   4   5
ATOM      5  C   UNL     1       9.140 -18.474  18.233  1.00  0.00     0.041 C 
ATOM      6  O   UNL     1       9.187 -17.272  18.602  1.00  0.00    -0.550 OA
ATOM      7  O   UNL     1      10.317 -19.200  18.102  1.00  0.00    -0.550 OA
ENDBRANCH   4   5
ENDBRANCH   3   4
ENDBRANCH   2   3
ENDBRANCH   1   2
BRANCH   1   8
ATOM      8  C   UNL     1       3.202 -19.092  18.916  1.00  0.00     0.000 C 
BRANCH   8   9
ATOM      9  C   UNL     1       2.049 -19.773  19.677  1.00  0.00     0.000 C 
BRANCH   9  10
ATOM     10  C   UNL     1       0.902 -20.216  18.758  1.00  0.00     0.006 C 
BRANCH  10  11
ATOM     11  C   UNL     1      -0.334 -20.607  19.573  1.00  0.00     0.053 C 
BRANCH  11  12
ATOM     12  C   UNL     1      -1.575 -20.068  18.934  1.00  0.00     0.041 C 
ATOM     13  O   UNL     1      -2.692 -20.602  19.167  1.00  0.00    -0.550 OA
ATOM     14  O   UNL     1      -1.492 -19.007  18.040  1.00  0.00    -0.550 OA
ENDBRANCH  11  12
ENDBRANCH  10  11
ENDBRANCH   9  10
ENDBRANCH   8   9
ENDBRANCH   1   8
TORSDOF 9
ENDMDL
MODEL 2
REMARK VINA RESULT:    -3.166      6.068      8.560
REMARK INTER + INTRA:          -5.038
REMARK INTER:                  -3.938
REMARK INTRA:                  -1.100
REMARK UNBOUND:                -0.207
REMARK SMILES O=C([O-])CCCCCCCCC(=O)[O-]
REMARK SMILES IDX 7 1 6 2 5 3 4 4 2 5 1 6 3 7 8 8 9 9 10 10 11 11 12 12 13 13
REMARK SMILES IDX 14 14
REMARK H PARENT
REMARK Flexibility Score: inf
ROOT
ATOM      1  C   UNL     1       7.472 -17.801  18.470  1.00  0.00     0.000 C 
ENDROOT
BRANCH   1   2
ATOM      2  C   UNL     1       7.980 -19.173  17.992  1.00  0.00     0.000 C 
BRANCH   2   3
ATOM      3  C   UNL     1       8.446 -20.066  19.154  1.00  0.00     0.006 C 
BRANCH   3   4
ATOM      4  C   UNL     1       7.504 -20.002  20.364  1.00  0.00     0.053 C 
BRANCH   4   5
ATOM      5  C   UNL     1       8.277 -19.705  21.610  1.00  0.00     0.041 C 
ATOM      6  O   UNL     1       9.138 -20.520  22.032  1.00  0.00    -0.550 OA
ATOM      7  O   UNL     1       8.079 -18.504  22.280  1.00  0.00    -0.550 OA
ENDBRANCH   4   5
ENDBRANCH   3   4
ENDBRANCH   2   3
ENDBRANCH   1   2
BRANCH   1   8
ATOM      8  C   UNL     1       8.539 -16.697  18.366  1.00  0.00     0.000 C 
BRANCH   8   9
ATOM      9  C   UNL     1       9.165 -16.265  19.705  1.00  0.00     0.000 C 
BRANCH   9  10
ATOM     10  C   UNL     1      10.688 -16.454  19.745  1.00  0.00     0.006 C 
BRANCH  10  11
ATOM     11  C   UNL     1      11.100 -17.341  20.924  1.00  0.00     0.053 C 
BRANCH  11  12
ATOM     12  C   UNL     1      11.715 -18.612  20.433  1.00  0.00     0.041 C 
ATOM     13  O   UNL     1      12.237 -19.420  21.246  1.00  0.00    -0.550 OA
ATOM     14  O   UNL     1      11.757 -18.884  19.071  1.00  0.00    -0.550 OA
ENDBRANCH  11  12
ENDBRANCH  10  11
ENDBRANCH   9  10
ENDBRANCH   8   9
ENDBRANCH   1   8
TORSDOF 9
ENDMDL
MODEL 3
REMARK VINA RESULT:    -3.161      1.743      2.523
REMARK INTER + INTRA:          -5.030
REMARK INTER:                  -4.616
REMARK INTRA:                  -0.414
REMARK UNBOUND:                -0.207
REMARK SMILES O=C([O-])CCCCCCCCC(=O)[O-]
REMARK SMILES IDX 7 1 6 2 5 3 4 4 2 5 1 6 3 7 8 8 9 9 10 10 11 11 12 12 13 13
REMARK SMILES IDX 14 14
REMARK H PARENT
REMARK Flexibility Score: inf
ROOT
ATOM      1  C   UNL     1       6.447 -18.796  20.168  1.00  0.00     0.000 C 
ENDROOT
BRANCH   1   2
ATOM      2  C   UNL     1       6.943 -18.853  18.713  1.00  0.00     0.000 C 
BRANCH   2   3
ATOM      3  C   UNL     1       8.183 -19.746  18.547  1.00  0.00     0.006 C 
BRANCH   3   4
ATOM      4  C   UNL     1       9.421 -18.962  18.091  1.00  0.00     0.053 C 
BRANCH   4   5
ATOM      5  C   UNL     1      10.468 -18.975  19.160  1.00  0.00     0.041 C 
ATOM      6  O   UNL     1      11.682 -19.114  18.857  1.00  0.00    -0.550 OA
ATOM      7  O   UNL     1      10.108 -18.785  20.488  1.00  0.00    -0.550 OA
ENDBRANCH   4   5
ENDBRANCH   3   4
ENDBRANCH   2   3
ENDBRANCH   1   2
BRANCH   1   8
ATOM      8  C   UNL     1       4.916 -18.906  20.285  1.00  0.00     0.000 C 
BRANCH   8   9
ATOM      9  C   UNL     1       4.128 -18.374  19.074  1.00  0.00     0.000 C 
BRANCH   9  10
ATOM     10  C   UNL     1       2.810 -19.126  18.837  1.00  0.00     0.006 C 
BRANCH  10  11
ATOM     11  C   UNL     1       2.252 -19.681  20.151  1.00  0.00     0.053 C 
BRANCH  11  12
ATOM     12  C   UNL     1       1.020 -20.490  19.896  1.00  0.00     0.041 C 
ATOM     13  O   UNL     1       0.537 -20.563  18.734  1.00  0.00    -0.550 OA
ATOM     14  O   UNL     1       0.375 -21.125  20.950  1.00  0.00    -0.550 OA
ENDBRANCH  11  12
ENDBRANCH  10  11
ENDBRANCH   9  10
ENDBRANCH   8   9
ENDBRANCH   1   8
TORSDOF 9
ENDMDL
MODEL 4
REMARK VINA RESULT:    -3.114      1.316      8.018
REMARK INTER + INTRA:          -4.959
REMARK INTER:                  -4.421
REMARK INTRA:                  -0.537
REMARK UNBOUND:                -0.207
REMARK SMILES O=C([O-])CCCCCCCCC(=O)[O-]
REMARK SMILES IDX 7 1 6 2 5 3 4 4 2 5 1 6 3 7 8 8 9 9 10 10 11 11 12 12 13 13
REMARK SMILES IDX 14 14
REMARK H PARENT
REMARK Flexibility Score: inf
ROOT
ATOM      1  C   UNL     1       2.052 -19.125  20.091  1.00  0.00     0.000 C 
ENDROOT
BRANCH   1   2
ATOM      2  C   UNL     1       1.113 -20.343  20.034  1.00  0.00     0.000 C 
BRANCH   2   3
ATOM      3  C   UNL     1       0.564 -20.598  18.621  1.00  0.00     0.006 C 
BRANCH   3   4
ATOM      4  C   UNL     1      -0.432 -19.521  18.170  1.00  0.00     0.053 C 
BRANCH   4   5
ATOM      5  C   UNL     1      -1.590 -19.454  19.115  1.00  0.00     0.041 C 
ATOM      6  O   UNL     1      -1.847 -18.386  19.729  1.00  0.00    -0.550 OA
ATOM      7  O   UNL     1      -2.416 -20.559  19.281  1.00  0.00    -0.550 OA
ENDBRANCH   4   5
ENDBRANCH   3   4
ENDBRANCH   2   3
ENDBRANCH   1   2
BRANCH   1   8
ATOM      8  C   UNL     1       3.155 -19.167  19.018  1.00  0.00     0.000 C 
BRANCH   8   9
ATOM      9  C   UNL     1       3.547 -17.799  18.430  1.00  0.00     0.000 C 
BRANCH   9  10
ATOM     10  C   UNL     1       5.037 -17.472  18.614  1.00  0.00     0.006 C 
BRANCH  10  11
ATOM     11  C   UNL     1       5.804 -18.687  19.140  1.00  0.00     0.053 C 
BRANCH  11  12
ATOM     12  C   UNL     1       7.158 -18.765  18.509  1.00  0.00     0.041 C 
ATOM     13  O   UNL     1       7.835 -19.824  18.587  1.00  0.00    -0.550 OA
ATOM     14  O   UNL     1       7.695 -17.651  17.875  1.00  0.00    -0.550 OA
ENDBRANCH  11  12
ENDBRANCH  10  11
ENDBRANCH   9  10
ENDBRANCH   8   9
ENDBRANCH   1   8
TORSDOF 9
ENDMDL
MODEL 5
REMARK VINA RESULT:    -3.099      5.752      9.839
REMARK INTER + INTRA:          -4.936
REMARK INTER:                  -4.139
REMARK INTRA:                  -0.797
REMARK UNBOUND:                -0.207
REMARK SMILES O=C([O-])CCCCCCCCC(=O)[O-]
REMARK SMILES IDX 7 1 6 2 5 3 4 4 2 5 1 6 3 7 8 8 9 9 10 10 11 11 12 12 13 13
REMARK SMILES IDX 14 14
REMARK H PARENT
REMARK Flexibility Score: inf
ROOT
ATOM      1  C   UNL     1      10.432 -19.303  18.208  1.00  0.00     0.000 C 
ENDROOT
BRANCH   1   2
ATOM      2  C   UNL     1       9.165 -18.432  18.251  1.00  0.00     0.000 C 
BRANCH   2   3
ATOM      3  C   UNL     1       7.874 -19.267  18.215  1.00  0.00     0.006 C 
BRANCH   3   4
ATOM      4  C   UNL     1       6.993 -19.048  19.452  1.00  0.00     0.053 C 
BRANCH   4   5
ATOM      5  C   UNL     1       7.574 -19.754  20.637  1.00  0.00     0.041 C 
ATOM      6  O   UNL     1       7.679 -19.158  21.741  1.00  0.00    -0.550 OA
ATOM      7  O   UNL     1       7.956 -21.086  20.534  1.00  0.00    -0.550 OA
ENDBRANCH   4   5
ENDBRANCH   3   4
ENDBRANCH   2   3
ENDBRANCH   1   2
BRANCH   1   8
ATOM      8  C   UNL     1      11.427 -18.970  19.334  1.00  0.00     0.000 C 
BRANCH   8   9
ATOM      9  C   UNL     1      10.922 -17.953  20.373  1.00  0.00     0.000 C 
BRANCH   9  10
ATOM     10  C   UNL     1      11.395 -18.267  21.800  1.00  0.00     0.006 C 
BRANCH  10  11
ATOM     11  C   UNL     1      12.362 -19.454  21.809  1.00  0.00     0.053 C 
BRANCH  11  12
ATOM     12  C   UNL     1      13.738 -19.007  22.189  1.00  0.00     0.041 C 
ATOM     13  O   UNL     1      14.422 -19.681  23.003  1.00  0.00    -0.550 OA
ATOM     14  O   UNL     1      14.247 -17.817  21.682  1.00  0.00    -0.550 OA
ENDBRANCH  11  12
ENDBRANCH  10  11
ENDBRANCH   9  10
ENDBRANCH   8   9
ENDBRANCH   1   8
TORSDOF 9
ENDMDL
MODEL 6
REMARK VINA RESULT:    -3.089      6.041      8.667
REMARK INTER + INTRA:          -4.922
REMARK INTER:                  -4.240
REMARK INTRA:                  -0.681
REMARK UNBOUND:                -0.207
REMARK SMILES O=C([O-])CCCCCCCCC(=O)[O-]
REMARK SMILES IDX 7 1 6 2 5 3 4 4 2 5 1 6 3 7 8 8 9 9 10 10 11 11 12 12 13 13
REMARK SMILES IDX 14 14
REMARK H PARENT
REMARK Flexibility Score: inf
ROOT
ATOM      1  C   UNL     1      11.937 -18.383  22.115  1.00  0.00     0.000 C 
ENDROOT
BRANCH   1   2
ATOM      2  C   UNL     1      13.389 -18.836  21.883  1.00  0.00     0.000 C 
BRANCH   2   3
ATOM      3  C   UNL     1      14.416 -17.806  22.384  1.00  0.00     0.006 C 
BRANCH   3   4
ATOM      4  C   UNL     1      15.064 -17.013  21.242  1.00  0.00     0.053 C 
BRANCH   4   5
ATOM      5  C   UNL     1      14.432 -15.662  21.122  1.00  0.00     0.041 C 
ATOM      6  O   UNL     1      13.385 -15.509  20.439  1.00  0.00    -0.550 OA
ATOM      7  O   UNL     1      14.972 -14.579  21.806  1.00  0.00    -0.550 OA
ENDBRANCH   4   5
ENDBRANCH   3   4
ENDBRANCH   2   3
ENDBRANCH   1   2
BRANCH   1   8
ATOM      8  C   UNL     1      11.136 -18.246  20.808  1.00  0.00     0.000 C 
BRANCH   8   9
ATOM      9  C   UNL     1      11.773 -18.917  19.577  1.00  0.00     0.000 C 
BRANCH   9  10
ATOM     10  C   UNL     1      10.743 -19.313  18.509  1.00  0.00     0.006 C 
BRANCH  10  11
ATOM     11  C   UNL     1       9.453 -18.502  18.663  1.00  0.00     0.053 C 
BRANCH  11  12
ATOM     12  C   UNL     1       8.260 -19.403  18.624  1.00  0.00     0.041 C 
ATOM     13  O   UNL     1       7.140 -18.958  18.257  1.00  0.00    -0.550 OA
ATOM     14  O   UNL     1       8.372 -20.724  19.039  1.00  0.00    -0.550 OA
ENDBRANCH  11  12
ENDBRANCH  10  11
ENDBRANCH   9  10
ENDBRANCH   8   9
ENDBRANCH   1   8
TORSDOF 9
ENDMDL
MODEL 7
REMARK VINA RESULT:    -3.075      0.798      8.360
REMARK INTER + INTRA:          -4.900
REMARK INTER:                  -4.569
REMARK INTRA:                  -0.331
REMARK UNBOUND:                -0.207
REMARK SMILES O=C([O-])CCCCCCCCC(=O)[O-]
REMARK SMILES IDX 7 1 6 2 5 3 4 4 2 5 1 6 3 7 8 8 9 9 10 10 11 11 12 12 13 13
REMARK SMILES IDX 14 14
REMARK H PARENT
REMARK Flexibility Score: inf
ROOT
ATOM      1  C   UNL     1       3.854 -18.887  19.850  1.00  0.00     0.000 C 
ENDROOT
BRANCH   1   2
ATOM      2  C   UNL     1       2.464 -19.449  20.199  1.00  0.00     0.000 C 
BRANCH   2   3
ATOM      3  C   UNL     1       1.743 -20.039  18.975  1.00  0.00     0.006 C 
BRANCH   3   4
ATOM      4  C   UNL     1       0.466 -20.802  19.352  1.00  0.00     0.053 C 
BRANCH   4   5
ATOM      5  C   UNL     1      -0.735 -20.127  18.768  1.00  0.00     0.041 C 
ATOM      6  O   UNL     1      -0.598 -19.249  17.876  1.00  0.00    -0.550 OA
ATOM      7  O   UNL     1      -2.009 -20.503  19.174  1.00  0.00    -0.550 OA
ENDBRANCH   4   5
ENDBRANCH   3   4
ENDBRANCH   2   3
ENDBRANCH   1   2
BRANCH   1   8
ATOM      8  C   UNL     1       4.918 -19.219  20.911  1.00  0.00     0.000 C 
BRANCH   8   9
ATOM      9  C   UNL     1       6.377 -19.113  20.430  1.00  0.00     0.000 C 
BRANCH   9  10
ATOM     10  C   UNL     1       6.500 -18.561  19.002  1.00  0.00     0.006 C 
BRANCH  10  11
ATOM     11  C   UNL     1       7.668 -19.215  18.260  1.00  0.00     0.053 C 
BRANCH  11  12
ATOM     12  C   UNL     1       8.913 -18.402  18.424  1.00  0.00     0.041 C 
ATOM     13  O   UNL     1       8.853 -17.144  18.436  1.00  0.00    -0.550 OA
ATOM     14  O   UNL     1      10.148 -19.032  18.515  1.00  0.00    -0.550 OA
ENDBRANCH  11  12
ENDBRANCH  10  11
ENDBRANCH   9  10
ENDBRANCH   8   9
ENDBRANCH   1   8
TORSDOF 9
ENDMDL
MODEL 8
REMARK VINA RESULT:    -3.048      6.317      7.709
REMARK INTER + INTRA:          -4.858
REMARK INTER:                  -3.780
REMARK INTRA:                  -1.079
REMARK UNBOUND:                -0.207
REMARK SMILES O=C([O-])CCCCCCCCC(=O)[O-]
REMARK SMILES IDX 7 1 6 2 5 3 4 4 2 5 1 6 3 7 8 8 9 9 10 10 11 11 12 12 13 13
REMARK SMILES IDX 14 14
REMARK H PARENT
REMARK Flexibility Score: inf
ROOT
ATOM      1  C   UNL     1       6.818 -18.670  19.317  1.00  0.00     0.000 C 
ENDROOT
BRANCH   1   2
ATOM      2  C   UNL     1       7.725 -19.327  18.262  1.00  0.00     0.000 C 
BRANCH   2   3
ATOM      3  C   UNL     1       9.022 -18.537  18.026  1.00  0.00     0.006 C 
BRANCH   3   4
ATOM      4  C   UNL     1      10.276 -19.321  18.438  1.00  0.00     0.053 C 
BRANCH   4   5
ATOM      5  C   UNL     1      11.047 -18.563  19.471  1.00  0.00     0.041 C 
ATOM      6  O   UNL     1      12.172 -18.980  19.856  1.00  0.00    -0.550 OA
ATOM      7  O   UNL     1      10.546 -17.369  19.976  1.00  0.00    -0.550 OA
ENDBRANCH   4   5
ENDBRANCH   3   4
ENDBRANCH   2   3
ENDBRANCH   1   2
BRANCH   1   8
ATOM      8  C   UNL     1       7.137 -19.129  20.751  1.00  0.00     0.000 C 
BRANCH   8   9
ATOM      9  C   UNL     1       7.538 -20.608  20.891  1.00  0.00     0.000 C 
BRANCH   9  10
ATOM     10  C   UNL     1       8.574 -20.848  21.999  1.00  0.00     0.006 C 
BRANCH  10  11
ATOM     11  C   UNL     1       9.182 -19.527  22.476  1.00  0.00     0.053 C 
BRANCH  11  12
ATOM     12  C   UNL     1      10.588 -19.736  22.944  1.00  0.00     0.041 C 
ATOM     13  O   UNL     1      11.011 -20.898  23.184  1.00  0.00    -0.550 OA
ATOM     14  O   UNL     1      11.417 -18.643  23.164  1.00  0.00    -0.550 OA
ENDBRANCH  11  12
ENDBRANCH  10  11
ENDBRANCH   9  10
ENDBRANCH   8   9
ENDBRANCH   1   8
TORSDOF 9
ENDMDL
MODEL 9
REMARK VINA RESULT:    -3.025      4.922      7.971
REMARK INTER + INTRA:          -4.823
REMARK INTER:                  -3.873
REMARK INTRA:                  -0.949
REMARK UNBOUND:                -0.207
REMARK SMILES O=C([O-])CCCCCCCCC(=O)[O-]
REMARK SMILES IDX 7 1 6 2 5 3 4 4 2 5 1 6 3 7 8 8 9 9 10 10 11 11 12 12 13 13
REMARK SMILES IDX 14 14
REMARK H PARENT
REMARK Flexibility Score: inf
ROOT
ATOM      1  C   UNL     1      -1.609 -19.194  19.224  1.00  0.00     0.000 C 
ENDROOT
BRANCH   1   2
ATOM      2  C   UNL     1      -2.538 -20.406  19.415  1.00  0.00     0.000 C 
BRANCH   2   3
ATOM      3  C   UNL     1      -2.392 -21.046  20.805  1.00  0.00     0.006 C 
BRANCH   3   4
ATOM      4  C   UNL     1      -2.755 -20.081  21.942  1.00  0.00     0.053 C 
BRANCH   4   5
ATOM      5  C   UNL     1      -1.604 -19.932  22.885  1.00  0.00     0.041 C 
ATOM      6  O   UNL     1      -1.193 -20.921  23.546  1.00  0.00    -0.550 OA
ATOM      7  O   UNL     1      -0.953 -18.709  22.999  1.00  0.00    -0.550 OA
ENDBRANCH   4   5
ENDBRANCH   3   4
ENDBRANCH   2   3
ENDBRANCH   1   2
BRANCH   1   8
ATOM      8  C   UNL     1      -0.492 -19.451  18.197  1.00  0.00     0.000 C 
BRANCH   8   9
ATOM      9  C   UNL     1       0.552 -20.502  18.616  1.00  0.00     0.000 C 
BRANCH   9  10
ATOM     10  C   UNL     1       1.520 -19.991  19.694  1.00  0.00     0.006 C 
BRANCH  10  11
ATOM     11  C   UNL     1       1.347 -20.769  21.001  1.00  0.00     0.053 C 
BRANCH  11  12
ATOM     12  C   UNL     1       2.204 -20.182  22.077  1.00  0.00     0.041 C 
ATOM     13  O   UNL     1       2.168 -20.653  23.245  1.00  0.00    -0.550 OA
ATOM     14  O   UNL     1       3.007 -19.081  21.804  1.00  0.00    -0.550 OA
ENDBRANCH  11  12
ENDBRANCH  10  11
ENDBRANCH   9  10
ENDBRANCH   8   9
ENDBRANCH   1   8
TORSDOF 9
ENDMDL
