MODEL 1
REMARK VINA RESULT:    -3.384      0.000      0.000
REMARK INTER + INTRA:          -4.354
REMARK INTER:                  -4.175
REMARK INTRA:                  -0.179
REMARK UNBOUND:                -0.179
REMARK SMILES CCCCCC(=O)[O-]
REMARK SMILES IDX 4 1 5 2 6 3 7 4 8 5 3 6 2 7 1 8
REMARK H PARENT
REMARK Flexibility Score: inf
ROOT
ATOM      1  C   UNL     1      24.770  -3.375  17.301  1.00  0.00     0.006 C 
ENDROOT
BRANCH   1   2
ATOM      2  C   UNL     1      25.837  -4.463  17.443  1.00  0.00     0.053 C 
BRANCH   2   3
ATOM      3  C   UNL     1      25.277  -5.658  18.146  1.00  0.00     0.041 C 
ATOM      4  O   UNL     1      24.301  -5.532  18.932  1.00  0.00    -0.550 OA
ATOM      5  O   UNL     1      25.802  -6.921  17.898  1.00  0.00    -0.550 OA
ENDBRANCH   2   3
ENDBRANCH   1   2
BRANCH   1   6
ATOM      6  C   UNL     1      25.104  -2.158  18.172  1.00  0.00     0.000 C 
BRANCH   6   7
ATOM      7  C   UNL     1      23.829  -1.439  18.626  1.00  0.00    -0.003 C 
ATOM      8  C   UNL     1      22.669  -2.417  18.780  1.00  0.00     0.004 C 
ENDBRANCH   6   7
ENDBRANCH   1   6
TORSDOF 4
ENDMDL
MODEL 2
REMARK VINA RESULT:    -3.152      1.176      1.799
REMARK INTER + INTRA:          -4.068
REMARK INTER:                  -3.906
REMARK INTRA:                  -0.163
REMARK UNBOUND:                -0.179
REMARK SMILES CCCCCC(=O)[O-]
REMARK SMILES IDX 4 1 5 2 6 3 7 4 8 5 3 6 2 7 1 8
REMARK H PARENT
REMARK Flexibility Score: inf
ROOT
ATOM      1  C   UNL     1      24.656  -4.514  18.632  1.00  0.00     0.006 C 
ENDROOT
BRANCH   1   2
ATOM      2  C   UNL     1      24.033  -5.672  17.847  1.00  0.00     0.053 C 
BRANCH   2   3
ATOM      3  C   UNL     1      25.099  -6.524  17.235  1.00  0.00     0.041 C 
ATOM      4  O   UNL     1      25.878  -7.189  17.967  1.00  0.00    -0.550 OA
ATOM      5  O   UNL     1      25.201  -6.622  15.852  1.00  0.00    -0.550 OA
ENDBRANCH   2   3
ENDBRANCH   1   2
BRANCH   1   6
ATOM      6  C   UNL     1      25.328  -3.509  17.690  1.00  0.00     0.000 C 
BRANCH   6   7
ATOM      7  C   UNL     1      25.074  -2.068  18.149  1.00  0.00    -0.003 C 
ATOM      8  C   UNL     1      23.638  -1.887  18.629  1.00  0.00     0.004 C 
ENDBRANCH   6   7
ENDBRANCH   1   6
TORSDOF 4
ENDMDL
MODEL 3
REMARK VINA RESULT:    -3.131      1.063      1.949
REMARK INTER + INTRA:          -4.043
REMARK INTER:                  -3.899
REMARK INTRA:                  -0.144
REMARK UNBOUND:                -0.179
REMARK SMILES CCCCCC(=O)[O-]
REMARK SMILES IDX 4 1 5 2 6 3 7 4 8 5 3 6 2 7 1 8
REMARK H PARENT
REMARK Flexibility Score: inf
ROOT
ATOM      1  C   UNL     1      25.783  -4.481  17.368  1.00  0.00     0.006 C 
ENDROOT
BRANCH   1   2
ATOM      2  C   UNL     1      25.160  -5.504  18.322  1.00  0.00     0.053 C 
BRANCH   2   3
ATOM      3  C   UNL     1      24.163  -6.354  17.601  1.00  0.00     0.041 C 
ATOM      4  O   UNL     1      24.538  -7.133  16.686  1.00  0.00    -0.550 OA
ATOM      5  O   UNL     1      22.824  -6.322  17.973  1.00  0.00    -0.550 OA
ENDBRANCH   2   3
ENDBRANCH   1   2
BRANCH   1   6
ATOM      6  C   UNL     1      24.838  -3.296  17.137  1.00  0.00     0.000 C 
BRANCH   6   7
ATOM      7  C   UNL     1      25.104  -2.174  18.147  1.00  0.00    -0.003 C 
ATOM      8  C   UNL     1      23.801  -1.535  18.617  1.00  0.00     0.004 C 
ENDBRANCH   6   7
ENDBRANCH   1   6
TORSDOF 4
ENDMDL
MODEL 4
REMARK VINA RESULT:    -3.076      2.411      3.799
REMARK INTER + INTRA:          -3.974
REMARK INTER:                  -3.745
REMARK INTRA:                  -0.229
REMARK UNBOUND:                -0.179
REMARK SMILES CCCCCC(=O)[O-]
REMARK SMILES IDX 4 1 5 2 6 3 7 4 8 5 3 6 2 7 1 8
REMARK H PARENT
REMARK Flexibility Score: inf
ROOT
ATOM      1  C   UNL     1      24.852  -3.283  17.074  1.00  0.00     0.006 C 
ENDROOT
BRANCH   1   2
ATOM      2  C   UNL     1      24.977  -2.217  18.166  1.00  0.00     0.053 C 
BRANCH   2   3
ATOM      3  C   UNL     1      23.623  -1.768  18.617  1.00  0.00     0.041 C 
ATOM      4  O   UNL     1      23.505  -0.758  19.360  1.00  0.00    -0.550 OA
ATOM      5  O   UNL     1      22.487  -2.437  18.178  1.00  0.00    -0.550 OA
ENDBRANCH   2   3
ENDBRANCH   1   2
BRANCH   1   6
ATOM      6  C   UNL     1      25.691  -4.520  17.413  1.00  0.00     0.000 C 
BRANCH   6   7
ATOM      7  C   UNL     1      25.014  -5.364  18.499  1.00  0.00    -0.003 C 
ATOM      8  C   UNL     1      23.619  -5.803  18.067  1.00  0.00     0.004 C 
ENDBRANCH   6   7
ENDBRANCH   1   6
TORSDOF 4
ENDMDL
MODEL 5
REMARK VINA RESULT:    -3.042      1.927      2.847
REMARK INTER + INTRA:          -3.932
REMARK INTER:                  -3.718
REMARK INTRA:                  -0.214
REMARK UNBOUND:                -0.179
REMARK SMILES CCCCCC(=O)[O-]
REMARK SMILES IDX 4 1 5 2 6 3 7 4 8 5 3 6 2 7 1 8
REMARK H PARENT
REMARK Flexibility Score: inf
ROOT
ATOM      1  C   UNL     1      25.036  -5.558  18.351  1.00  0.00     0.006 C 
ENDROOT
BRANCH   1   2
ATOM      2  C   UNL     1      23.704  -5.899  17.677  1.00  0.00     0.053 C 
BRANCH   2   3
ATOM      3  C   UNL     1      22.560  -5.601  18.594  1.00  0.00     0.041 C 
ATOM      4  O   UNL     1      22.670  -4.708  19.474  1.00  0.00    -0.550 OA
ATOM      5  O   UNL     1      21.356  -6.277  18.444  1.00  0.00    -0.550 OA
ENDBRANCH   2   3
ENDBRANCH   1   2
BRANCH   1   6
ATOM      6  C   UNL     1      25.851  -4.580  17.499  1.00  0.00     0.000 C 
BRANCH   6   7
ATOM      7  C   UNL     1      25.004  -3.370  17.087  1.00  0.00    -0.003 C 
ATOM      8  C   UNL     1      25.066  -2.269  18.140  1.00  0.00     0.004 C 
ENDBRANCH   6   7
ENDBRANCH   1   6
TORSDOF 4
ENDMDL
MODEL 6
REMARK VINA RESULT:    -3.004     11.826     12.392
REMARK INTER + INTRA:          -3.886
REMARK INTER:                  -3.652
REMARK INTRA:                  -0.234
REMARK UNBOUND:                -0.179
REMARK SMILES CCCCCC(=O)[O-]
REMARK SMILES IDX 4 1 5 2 6 3 7 4 8 5 3 6 2 7 1 8
REMARK H PARENT
REMARK Flexibility Score: inf
ROOT
ATOM      1  C   UNL     1      26.825   0.017   5.974  1.00  0.00     0.006 C 
ENDROOT
BRANCH   1   2
ATOM      2  C   UNL     1      27.514  -1.333   6.192  1.00  0.00     0.053 C 
BRANCH   2   3
ATOM      3  C   UNL     1      28.030  -1.438   7.592  1.00  0.00     0.041 C 
ATOM      4  O   UNL     1      27.562  -0.699   8.498  1.00  0.00    -0.550 OA
ATOM      5  O   UNL     1      28.995  -2.388   7.908  1.00  0.00    -0.550 OA
ENDBRANCH   2   3
ENDBRANCH   1   2
BRANCH   1   6
ATOM      6  C   UNL     1      27.809   1.054   5.421  1.00  0.00     0.000 C 
BRANCH   6   7
ATOM      7  C   UNL     1      28.068   2.167   6.444  1.00  0.00    -0.003 C 
ATOM      8  C   UNL     1      26.795   2.528   7.202  1.00  0.00     0.004 C 
ENDBRANCH   6   7
ENDBRANCH   1   6
TORSDOF 4
ENDMDL
MODEL 7
REMARK VINA RESULT:    -2.976     11.186     11.857
REMARK INTER + INTRA:          -3.851
REMARK INTER:                  -3.604
REMARK INTRA:                  -0.247
REMARK UNBOUND:                -0.179
REMARK SMILES CCCCCC(=O)[O-]
REMARK SMILES IDX 4 1 5 2 6 3 7 4 8 5 3 6 2 7 1 8
REMARK H PARENT
REMARK Flexibility Score: inf
ROOT
ATOM      1  C   UNL     1      26.311   1.111   7.805  1.00  0.00     0.006 C 
ENDROOT
BRANCH   1   2
ATOM      2  C   UNL     1      26.871   0.707   9.172  1.00  0.00     0.053 C 
BRANCH   2   3
ATOM      3  C   UNL     1      27.793  -0.463   9.035  1.00  0.00     0.041 C 
ATOM      4  O   UNL     1      27.371  -1.631   9.242  1.00  0.00    -0.550 OA
ATOM      5  O   UNL     1      29.108  -0.267   8.631  1.00  0.00    -0.550 OA
ENDBRANCH   2   3
ENDBRANCH   1   2
BRANCH   1   6
ATOM      6  C   UNL     1      26.918   2.437   7.332  1.00  0.00     0.000 C 
BRANCH   6   7
ATOM      7  C   UNL     1      28.073   2.197   6.354  1.00  0.00    -0.003 C 
ATOM      8  C   UNL     1      27.779   1.019   5.430  1.00  0.00     0.004 C 
ENDBRANCH   6   7
ENDBRANCH   1   6
TORSDOF 4
ENDMDL
MODEL 8
REMARK VINA RESULT:    -2.951      1.390      2.148
REMARK INTER + INTRA:          -3.820
REMARK INTER:                  -3.686
REMARK INTRA:                  -0.135
REMARK UNBOUND:                -0.179
REMARK SMILES CCCCCC(=O)[O-]
REMARK SMILES IDX 4 1 5 2 6 3 7 4 8 5 3 6 2 7 1 8
REMARK H PARENT
REMARK Flexibility Score: inf
ROOT
ATOM      1  C   UNL     1      25.056  -2.283  18.241  1.00  0.00     0.006 C 
ENDROOT
BRANCH   1   2
ATOM      2  C   UNL     1      24.931  -3.260  17.069  1.00  0.00     0.053 C 
BRANCH   2   3
ATOM      3  C   UNL     1      25.023  -4.673  17.552  1.00  0.00     0.041 C 
ATOM      4  O   UNL     1      25.446  -5.579  16.787  1.00  0.00    -0.550 OA
ATOM      5  O   UNL     1      24.689  -4.981  18.865  1.00  0.00    -0.550 OA
ENDBRANCH   2   3
ENDBRANCH   1   2
BRANCH   1   6
ATOM      6  C   UNL     1      23.825  -1.374  18.335  1.00  0.00     0.000 C 
BRANCH   6   7
ATOM      7  C   UNL     1      23.368  -0.920  16.944  1.00  0.00    -0.003 C 
ATOM      8  C   UNL     1      23.415   0.599  16.815  1.00  0.00     0.004 C 
ENDBRANCH   6   7
ENDBRANCH   1   6
TORSDOF 4
ENDMDL
MODEL 9
REMARK VINA RESULT:    -2.911     12.489     13.218
REMARK INTER + INTRA:          -3.771
REMARK INTER:                  -3.697
REMARK INTRA:                  -0.074
REMARK UNBOUND:                -0.179
REMARK SMILES CCCCCC(=O)[O-]
REMARK SMILES IDX 4 1 5 2 6 3 7 4 8 5 3 6 2 7 1 8
REMARK H PARENT
REMARK Flexibility Score: inf
ROOT
ATOM      1  C   UNL     1      27.644  -0.281   6.401  1.00  0.00     0.006 C 
ENDROOT
BRANCH   1   2
ATOM      2  C   UNL     1      27.940   0.935   5.518  1.00  0.00     0.053 C 
BRANCH   2   3
ATOM      3  C   UNL     1      26.751   1.840   5.457  1.00  0.00     0.041 C 
ATOM      4  O   UNL     1      26.012   1.849   4.438  1.00  0.00    -0.550 OA
ATOM      5  O   UNL     1      26.430   2.640   6.548  1.00  0.00    -0.550 OA
ENDBRANCH   2   3
ENDBRANCH   1   2
BRANCH   1   6
ATOM      6  C   UNL     1      28.304  -0.137   7.777  1.00  0.00     0.000 C 
BRANCH   6   7
ATOM      7  C   UNL     1      28.815  -1.489   8.288  1.00  0.00    -0.003 C 
ATOM      8  C   UNL     1      29.125  -1.434   9.780  1.00  0.00     0.004 C 
ENDBRANCH   6   7
ENDBRANCH   1   6
TORSDOF 4
ENDMDL
