MODEL 1
REMARK VINA RESULT:    -4.619      0.000      0.000
REMARK INTER + INTRA:          -5.051
REMARK INTER:                  -5.024
REMARK INTRA:                  -0.027
REMARK UNBOUND:                -0.027
REMARK SMILES O=C([O-])c1ccc(O)cc1
REMARK SMILES IDX 7 1 6 2 9 3 5 4 10 5 4 6 8 7 2 9 1 10 3 11
REMARK H PARENT 8 8
REMARK Flexibility Score: inf
ROOT
ATOM      1  C   UNL     1      80.474 -18.526  43.462  1.00  0.00     0.115 A 
ATOM      2  C   UNL     1      80.555 -19.483  42.447  1.00  0.00     0.047 A 
ATOM      3  C   UNL     1      80.039 -18.902  44.739  1.00  0.00     0.047 A 
ATOM      4  C   UNL     1      80.205 -20.812  42.702  1.00  0.00     0.014 A 
ATOM      5  C   UNL     1      79.688 -20.232  44.998  1.00  0.00     0.014 A 
ATOM      6  C   UNL     1      79.768 -21.200  43.982  1.00  0.00    -0.003 A 
ENDROOT
BRANCH   1   7
ATOM      7  O   UNL     1      80.826 -17.205  43.193  1.00  0.00    -0.508 OA
ATOM      8  H   UNL     1      80.217 -16.434  43.440  1.00  0.00     0.293 HD
ENDBRANCH   1   7
BRANCH   6   9
ATOM      9  C   UNL     1      79.395 -22.605  44.259  1.00  0.00     0.071 C 
ATOM     10  O   UNL     1      80.268 -23.440  44.619  1.00  0.00    -0.545 OA
ATOM     11  O   UNL     1      78.077 -23.024  44.128  1.00  0.00    -0.545 OA
ENDBRANCH   6   9
TORSDOF 2
ENDMDL
MODEL 2
REMARK VINA RESULT:    -4.615      0.061      1.533
REMARK INTER + INTRA:          -5.046
REMARK INTER:                  -5.019
REMARK INTRA:                  -0.027
REMARK UNBOUND:                -0.027
REMARK SMILES O=C([O-])c1ccc(O)cc1
REMARK SMILES IDX 7 1 6 2 9 3 5 4 10 5 4 6 8 7 2 9 1 10 3 11
REMARK H PARENT 8 8
REMARK Flexibility Score: inf
ROOT
ATOM      1  C   UNL     1      80.448 -18.508  43.412  1.00  0.00     0.115 A 
ATOM      2  C   UNL     1      80.005 -18.852  44.693  1.00  0.00     0.047 A 
ATOM      3  C   UNL     1      80.549 -19.495  42.424  1.00  0.00     0.047 A 
ATOM      4  C   UNL     1      79.663 -20.175  44.988  1.00  0.00     0.014 A 
ATOM      5  C   UNL     1      80.206 -20.820  42.715  1.00  0.00     0.014 A 
ATOM      6  C   UNL     1      79.759 -21.173  44.001  1.00  0.00    -0.003 A 
ENDROOT
BRANCH   1   7
ATOM      7  O   UNL     1      80.786 -17.186  43.133  1.00  0.00    -0.508 OA
ATOM      8  H   UNL     1      81.736 -16.919  42.904  1.00  0.00     0.293 HD
ENDBRANCH   1   7
BRANCH   6   9
ATOM      9  C   UNL     1      79.398 -22.575  44.307  1.00  0.00     0.071 C 
ATOM     10  O   UNL     1      80.272 -23.387  44.715  1.00  0.00    -0.545 OA
ATOM     11  O   UNL     1      78.091 -23.017  44.149  1.00  0.00    -0.545 OA
ENDBRANCH   6   9
TORSDOF 2
ENDMDL
MODEL 3
REMARK VINA RESULT:    -4.569      2.199      3.777
REMARK INTER + INTRA:          -4.997
REMARK INTER:                  -4.968
REMARK INTRA:                  -0.029
REMARK UNBOUND:                -0.027
REMARK SMILES O=C([O-])c1ccc(O)cc1
REMARK SMILES IDX 7 1 6 2 9 3 5 4 10 5 4 6 8 7 2 9 1 10 3 11
REMARK H PARENT 8 8
REMARK Flexibility Score: inf
ROOT
ATOM      1  C   UNL     1      79.736 -19.775  45.450  1.00  0.00     0.115 A 
ATOM      2  C   UNL     1      79.765 -20.828  44.530  1.00  0.00     0.047 A 
ATOM      3  C   UNL     1      80.046 -18.476  45.029  1.00  0.00     0.047 A 
ATOM      4  C   UNL     1      80.100 -20.587  43.195  1.00  0.00     0.014 A 
ATOM      5  C   UNL     1      80.381 -18.231  43.693  1.00  0.00     0.014 A 
ATOM      6  C   UNL     1      80.412 -19.285  42.762  1.00  0.00    -0.003 A 
ENDROOT
BRANCH   1   7
ATOM      7  O   UNL     1      79.400 -20.030  46.777  1.00  0.00    -0.508 OA
ATOM      8  H   UNL     1      79.212 -20.970  47.105  1.00  0.00     0.293 HD
ENDBRANCH   1   7
BRANCH   6   9
ATOM      9  C   UNL     1      80.768 -19.023  41.350  1.00  0.00     0.071 C 
ATOM     10  O   UNL     1      81.779 -19.568  40.832  1.00  0.00    -0.545 OA
ATOM     11  O   UNL     1      79.991 -18.171  40.574  1.00  0.00    -0.545 OA
ENDBRANCH   6   9
TORSDOF 2
ENDMDL
MODEL 4
REMARK VINA RESULT:    -4.568      2.194      3.921
REMARK INTER + INTRA:          -4.995
REMARK INTER:                  -4.966
REMARK INTRA:                  -0.029
REMARK UNBOUND:                -0.027
REMARK SMILES O=C([O-])c1ccc(O)cc1
REMARK SMILES IDX 7 1 6 2 9 3 5 4 10 5 4 6 8 7 2 9 1 10 3 11
REMARK H PARENT 8 8
REMARK Flexibility Score: inf
ROOT
ATOM      1  C   UNL     1      79.748 -19.777  45.417  1.00  0.00     0.115 A 
ATOM      2  C   UNL     1      80.042 -18.472  45.011  1.00  0.00     0.047 A 
ATOM      3  C   UNL     1      79.784 -20.820  44.484  1.00  0.00     0.047 A 
ATOM      4  C   UNL     1      80.371 -18.207  43.678  1.00  0.00     0.014 A 
ATOM      5  C   UNL     1      80.114 -20.559  43.150  1.00  0.00     0.014 A 
ATOM      6  C   UNL     1      80.411 -19.249  42.734  1.00  0.00    -0.003 A 
ENDROOT
BRANCH   1   7
ATOM      7  O   UNL     1      79.421 -20.025  46.748  1.00  0.00    -0.508 OA
ATOM      8  H   UNL     1      78.461 -20.005  47.071  1.00  0.00     0.293 HD
ENDBRANCH   1   7
BRANCH   6   9
ATOM      9  C   UNL     1      80.759 -18.976  41.322  1.00  0.00     0.071 C 
ATOM     10  O   UNL     1      81.772 -19.511  40.797  1.00  0.00    -0.545 OA
ATOM     11  O   UNL     1      79.973 -18.126  40.554  1.00  0.00    -0.545 OA
ENDBRANCH   6   9
TORSDOF 2
ENDMDL
MODEL 5
REMARK VINA RESULT:    -4.390      1.425      2.259
REMARK INTER + INTRA:          -4.802
REMARK INTER:                  -4.766
REMARK INTRA:                  -0.036
REMARK UNBOUND:                -0.027
REMARK SMILES O=C([O-])c1ccc(O)cc1
REMARK SMILES IDX 7 1 6 2 9 3 5 4 10 5 4 6 8 7 2 9 1 10 3 11
REMARK H PARENT 8 8
REMARK Flexibility Score: inf
ROOT
ATOM      1  C   UNL     1      81.437 -17.718  42.259  1.00  0.00     0.115 A 
ATOM      2  C   UNL     1      80.519 -17.847  43.305  1.00  0.00     0.047 A 
ATOM      3  C   UNL     1      81.914 -18.862  41.608  1.00  0.00     0.047 A 
ATOM      4  C   UNL     1      80.077 -19.112  43.702  1.00  0.00     0.014 A 
ATOM      5  C   UNL     1      81.473 -20.130  42.002  1.00  0.00     0.014 A 
ATOM      6  C   UNL     1      80.549 -20.268  43.053  1.00  0.00    -0.003 A 
ENDROOT
BRANCH   1   7
ATOM      7  O   UNL     1      81.869 -16.450  41.875  1.00  0.00    -0.508 OA
ATOM      8  H   UNL     1      82.853 -16.211  41.849  1.00  0.00     0.293 HD
ENDBRANCH   1   7
BRANCH   6   9
ATOM      9  C   UNL     1      80.085 -21.610  43.468  1.00  0.00     0.071 C 
ATOM     10  O   UNL     1      80.383 -22.629  42.788  1.00  0.00    -0.545 OA
ATOM     11  O   UNL     1      79.316 -21.767  44.614  1.00  0.00    -0.545 OA
ENDBRANCH   6   9
TORSDOF 2
ENDMDL
MODEL 6
REMARK VINA RESULT:    -4.334      1.019      4.317
REMARK INTER + INTRA:          -4.741
REMARK INTER:                  -4.707
REMARK INTRA:                  -0.035
REMARK UNBOUND:                -0.027
REMARK SMILES O=C([O-])c1ccc(O)cc1
REMARK SMILES IDX 7 1 6 2 9 3 5 4 10 5 4 6 8 7 2 9 1 10 3 11
REMARK H PARENT 8 8
REMARK Flexibility Score: inf
ROOT
ATOM      1  C   UNL     1      79.731 -21.646  44.144  1.00  0.00     0.115 A 
ATOM      2  C   UNL     1      80.346 -21.596  42.890  1.00  0.00     0.047 A 
ATOM      3  C   UNL     1      79.601 -20.475  44.901  1.00  0.00     0.047 A 
ATOM      4  C   UNL     1      80.830 -20.383  42.390  1.00  0.00     0.014 A 
ATOM      5  C   UNL     1      80.084 -19.259  44.404  1.00  0.00     0.014 A 
ATOM      6  C   UNL     1      80.703 -19.201  43.143  1.00  0.00    -0.003 A 
ENDROOT
BRANCH   1   7
ATOM      7  O   UNL     1      79.254 -22.861  44.629  1.00  0.00    -0.508 OA
ATOM      8  H   UNL     1      79.872 -23.539  45.061  1.00  0.00     0.293 HD
ENDBRANCH   1   7
BRANCH   6   9
ATOM      9  C   UNL     1      81.213 -17.914  42.621  1.00  0.00     0.071 C 
ATOM     10  O   UNL     1      80.765 -16.822  43.061  1.00  0.00    -0.545 OA
ATOM     11  O   UNL     1      82.194 -17.892  41.637  1.00  0.00    -0.545 OA
ENDBRANCH   6   9
TORSDOF 2
ENDMDL
MODEL 7
REMARK VINA RESULT:    -4.304     18.135     18.707
REMARK INTER + INTRA:          -4.708
REMARK INTER:                  -4.673
REMARK INTRA:                  -0.036
REMARK UNBOUND:                -0.027
REMARK SMILES O=C([O-])c1ccc(O)cc1
REMARK SMILES IDX 7 1 6 2 9 3 5 4 10 5 4 6 8 7 2 9 1 10 3 11
REMARK H PARENT 8 8
REMARK Flexibility Score: inf
ROOT
ATOM      1  C   UNL     1      63.494 -11.199  40.652  1.00  0.00     0.115 A 
ATOM      2  C   UNL     1      62.877 -12.402  40.297  1.00  0.00     0.047 A 
ATOM      3  C   UNL     1      64.548 -10.702  39.875  1.00  0.00     0.047 A 
ATOM      4  C   UNL     1      63.308 -13.108  39.170  1.00  0.00     0.014 A 
ATOM      5  C   UNL     1      64.981 -11.407  38.747  1.00  0.00     0.014 A 
ATOM      6  C   UNL     1      64.365 -12.617  38.383  1.00  0.00    -0.003 A 
ENDROOT
BRANCH   1   7
ATOM      7  O   UNL     1      63.053 -10.506  41.777  1.00  0.00    -0.508 OA
ATOM      8  H   UNL     1      62.151 -10.044  41.796  1.00  0.00     0.293 HD
ENDBRANCH   1   7
BRANCH   6   9
ATOM      9  C   UNL     1      64.827 -13.360  37.189  1.00  0.00     0.071 C 
ATOM     10  O   UNL     1      64.456 -14.548  36.991  1.00  0.00    -0.545 OA
ATOM     11  O   UNL     1      65.676 -12.757  36.269  1.00  0.00    -0.545 OA
ENDBRANCH   6   9
TORSDOF 2
ENDMDL
MODEL 8
REMARK VINA RESULT:    -4.214      2.035      3.078
REMARK INTER + INTRA:          -4.611
REMARK INTER:                  -4.575
REMARK INTRA:                  -0.036
REMARK UNBOUND:                -0.027
REMARK SMILES O=C([O-])c1ccc(O)cc1
REMARK SMILES IDX 7 1 6 2 9 3 5 4 10 5 4 6 8 7 2 9 1 10 3 11
REMARK H PARENT 8 8
REMARK Flexibility Score: inf
ROOT
ATOM      1  C   UNL     1      81.857 -18.128  41.407  1.00  0.00     0.115 A 
ATOM      2  C   UNL     1      81.209 -17.276  42.307  1.00  0.00     0.047 A 
ATOM      3  C   UNL     1      81.829 -19.512  41.617  1.00  0.00     0.047 A 
ATOM      4  C   UNL     1      80.535 -17.802  43.413  1.00  0.00     0.014 A 
ATOM      5  C   UNL     1      81.154 -20.042  42.722  1.00  0.00     0.014 A 
ATOM      6  C   UNL     1      80.500 -19.191  43.631  1.00  0.00    -0.003 A 
ENDROOT
BRANCH   1   7
ATOM      7  O   UNL     1      82.526 -17.589  40.310  1.00  0.00    -0.508 OA
ATOM      8  H   UNL     1      82.086 -16.907  39.704  1.00  0.00     0.293 HD
ENDBRANCH   1   7
BRANCH   6   9
ATOM      9  C   UNL     1      79.787 -19.755  44.799  1.00  0.00     0.071 C 
ATOM     10  O   UNL     1      79.367 -19.002  45.718  1.00  0.00    -0.545 OA
ATOM     11  O   UNL     1      79.571 -21.124  44.900  1.00  0.00    -0.545 OA
ENDBRANCH   6   9
TORSDOF 2
ENDMDL
MODEL 9
REMARK VINA RESULT:    -4.038     16.662     17.379
REMARK INTER + INTRA:          -4.419
REMARK INTER:                  -4.383
REMARK INTRA:                  -0.036
REMARK UNBOUND:                -0.027
REMARK SMILES O=C([O-])c1ccc(O)cc1
REMARK SMILES IDX 7 1 6 2 9 3 5 4 10 5 4 6 8 7 2 9 1 10 3 11
REMARK H PARENT 8 8
REMARK Flexibility Score: inf
ROOT
ATOM      1  C   UNL     1      66.383 -12.056  33.729  1.00  0.00     0.115 A 
ATOM      2  C   UNL     1      67.758 -11.810  33.784  1.00  0.00     0.047 A 
ATOM      3  C   UNL     1      65.912 -13.374  33.722  1.00  0.00     0.047 A 
ATOM      4  C   UNL     1      68.662 -12.876  33.833  1.00  0.00     0.014 A 
ATOM      5  C   UNL     1      66.814 -14.443  33.772  1.00  0.00     0.014 A 
ATOM      6  C   UNL     1      68.198 -14.204  33.828  1.00  0.00    -0.003 A 
ENDROOT
BRANCH   1   7
ATOM      7  O   UNL     1      65.495 -10.984  33.681  1.00  0.00    -0.508 OA
ATOM      8  H   UNL     1      64.862 -10.785  34.447  1.00  0.00     0.293 HD
ENDBRANCH   1   7
BRANCH   6   9
ATOM      9  C   UNL     1      69.149 -15.337  33.879  1.00  0.00     0.071 C 
ATOM     10  O   UNL     1      68.731 -16.525  33.868  1.00  0.00    -0.545 OA
ATOM     11  O   UNL     1      70.518 -15.106  33.939  1.00  0.00    -0.545 OA
ENDBRANCH   6   9
TORSDOF 2
ENDMDL
