MODEL 1
REMARK VINA RESULT:    -4.336      0.000      0.000
REMARK INTER + INTRA:          -6.570
REMARK INTER:                  -5.857
REMARK INTRA:                  -0.713
REMARK UNBOUND:                -0.713
REMARK SMILES CCCCCCC=CC(=O)[O-]
REMARK SMILES IDX 5 1 6 2 7 3 8 4 9 5 10 6 11 7 4 8 3 9 2 10 1 11
REMARK H PARENT
REMARK Flexibility Score: inf
ROOT
ATOM      1  C   UNL     1      35.379   0.250   3.000  1.00  0.00     0.004 C 
ENDROOT
BRANCH   1   2
ATOM      2  C   UNL     1      34.263   1.280   3.251  1.00  0.00     0.027 C 
BRANCH   2   3
ATOM      3  C   UNL     1      34.550   2.171   4.427  1.00  0.00    -0.025 C 
ATOM      4  C   UNL     1      33.799   2.133   5.532  1.00  0.00     0.020 C 
BRANCH   4   5
ATOM      5  C   UNL     1      34.067   3.003   6.687  1.00  0.00     0.064 C 
ATOM      6  O   UNL     1      33.453   4.096   6.798  1.00  0.00    -0.545 OA
ATOM      7  O   UNL     1      34.988   2.636   7.663  1.00  0.00    -0.545 OA
ENDBRANCH   4   5
ENDBRANCH   2   3
ENDBRANCH   1   2
BRANCH   1   8
ATOM      8  C   UNL     1      35.306  -0.994   3.904  1.00  0.00     0.000 C 
BRANCH   8   9
ATOM      9  C   UNL     1      36.548  -1.159   4.792  1.00  0.00    -0.000 C 
BRANCH   9  10
ATOM     10  C   UNL     1      36.294  -0.603   6.198  1.00  0.00    -0.003 C 
ATOM     11  C   UNL     1      37.437   0.303   6.647  1.00  0.00     0.004 C 
ENDBRANCH   9  10
ENDBRANCH   8   9
ENDBRANCH   1   8
TORSDOF 6
ENDMDL
MODEL 2
REMARK VINA RESULT:    -4.323      1.017      2.940
REMARK INTER + INTRA:          -6.552
REMARK INTER:                  -5.865
REMARK INTRA:                  -0.687
REMARK UNBOUND:                -0.713
REMARK SMILES CCCCCCC=CC(=O)[O-]
REMARK SMILES IDX 5 1 6 2 7 3 8 4 9 5 10 6 11 7 4 8 3 9 2 10 1 11
REMARK H PARENT
REMARK Flexibility Score: inf
ROOT
ATOM      1  C   UNL     1      36.262  -0.730   6.118  1.00  0.00     0.004 C 
ENDROOT
BRANCH   1   2
ATOM      2  C   UNL     1      37.197   0.438   6.474  1.00  0.00     0.027 C 
BRANCH   2   3
ATOM      3  C   UNL     1      36.449   1.688   6.847  1.00  0.00    -0.025 C 
ATOM      4  C   UNL     1      35.193   1.641   7.301  1.00  0.00     0.020 C 
BRANCH   4   5
ATOM      5  C   UNL     1      34.449   2.857   7.664  1.00  0.00     0.064 C 
ATOM      6  O   UNL     1      34.567   3.334   8.823  1.00  0.00    -0.545 OA
ATOM      7  O   UNL     1      33.618   3.490   6.746  1.00  0.00    -0.545 OA
ENDBRANCH   4   5
ENDBRANCH   2   3
ENDBRANCH   1   2
BRANCH   1   8
ATOM      8  C   UNL     1      36.171  -1.030   4.610  1.00  0.00     0.000 C 
BRANCH   8   9
ATOM      9  C   UNL     1      34.748  -0.867   4.056  1.00  0.00    -0.000 C 
BRANCH   9  10
ATOM     10  C   UNL     1      34.698   0.234   2.990  1.00  0.00    -0.003 C 
ATOM     11  C   UNL     1      34.450   1.601   3.620  1.00  0.00     0.004 C 
ENDBRANCH   9  10
ENDBRANCH   8   9
ENDBRANCH   1   8
TORSDOF 6
ENDMDL
MODEL 3
REMARK VINA RESULT:    -4.307      2.670      5.261
REMARK INTER + INTRA:          -6.531
REMARK INTER:                  -5.905
REMARK INTRA:                  -0.626
REMARK UNBOUND:                -0.713
REMARK SMILES CCCCCCC=CC(=O)[O-]
REMARK SMILES IDX 5 1 6 2 7 3 8 4 9 5 10 6 11 7 4 8 3 9 2 10 1 11
REMARK H PARENT
REMARK Flexibility Score: inf
ROOT
ATOM      1  C   UNL     1      35.393   4.471   8.278  1.00  0.00     0.004 C 
ENDROOT
BRANCH   1   2
ATOM      2  C   UNL     1      36.866   4.576   7.845  1.00  0.00     0.027 C 
BRANCH   2   3
ATOM      3  C   UNL     1      37.401   3.284   7.292  1.00  0.00    -0.025 C 
ATOM      4  C   UNL     1      36.672   2.164   7.304  1.00  0.00     0.020 C 
BRANCH   4   5
ATOM      5  C   UNL     1      37.186   0.894   6.769  1.00  0.00     0.064 C 
ATOM      6  O   UNL     1      36.614   0.356   5.785  1.00  0.00    -0.545 OA
ATOM      7  O   UNL     1      38.298   0.276   7.333  1.00  0.00    -0.545 OA
ENDBRANCH   4   5
ENDBRANCH   2   3
ENDBRANCH   1   2
BRANCH   1   8
ATOM      8  C   UNL     1      34.391   5.024   7.247  1.00  0.00     0.000 C 
BRANCH   8   9
ATOM      9  C   UNL     1      33.478   3.936   6.663  1.00  0.00    -0.000 C 
BRANCH   9  10
ATOM     10  C   UNL     1      33.677   3.809   5.148  1.00  0.00    -0.003 C 
ATOM     11  C   UNL     1      33.855   2.351   4.734  1.00  0.00     0.004 C 
ENDBRANCH   9  10
ENDBRANCH   8   9
ENDBRANCH   1   8
TORSDOF 6
ENDMDL
MODEL 4
REMARK VINA RESULT:    -4.305      2.554      4.626
REMARK INTER + INTRA:          -6.529
REMARK INTER:                  -5.887
REMARK INTRA:                  -0.642
REMARK UNBOUND:                -0.713
REMARK SMILES CCCCCCC=CC(=O)[O-]
REMARK SMILES IDX 5 1 6 2 7 3 8 4 9 5 10 6 11 7 4 8 3 9 2 10 1 11
REMARK H PARENT
REMARK Flexibility Score: inf
ROOT
ATOM      1  C   UNL     1      33.495   3.912   6.834  1.00  0.00     0.004 C 
ENDROOT
BRANCH   1   2
ATOM      2  C   UNL     1      33.511   3.524   5.344  1.00  0.00     0.027 C 
BRANCH   2   3
ATOM      3  C   UNL     1      34.122   2.172   5.103  1.00  0.00    -0.025 C 
ATOM      4  C   UNL     1      34.306   1.300   6.099  1.00  0.00     0.020 C 
BRANCH   4   5
ATOM      5  C   UNL     1      34.906  -0.023   5.877  1.00  0.00     0.064 C 
ATOM      6  O   UNL     1      35.945  -0.349   6.508  1.00  0.00    -0.545 OA
ATOM      7  O   UNL     1      34.343  -0.924   4.979  1.00  0.00    -0.545 OA
ENDBRANCH   4   5
ENDBRANCH   2   3
ENDBRANCH   1   2
BRANCH   1   8
ATOM      8  C   UNL     1      34.494   5.023   7.208  1.00  0.00     0.000 C 
BRANCH   8   9
ATOM      9  C   UNL     1      35.426   4.620   8.360  1.00  0.00    -0.000 C 
BRANCH   9  10
ATOM     10  C   UNL     1      36.890   4.614   7.904  1.00  0.00    -0.003 C 
ATOM     11  C   UNL     1      37.255   3.290   7.239  1.00  0.00     0.004 C 
ENDBRANCH   9  10
ENDBRANCH   8   9
ENDBRANCH   1   8
TORSDOF 6
ENDMDL
MODEL 5
REMARK VINA RESULT:    -4.300      2.990      5.141
REMARK INTER + INTRA:          -6.521
REMARK INTER:                  -5.883
REMARK INTRA:                  -0.639
REMARK UNBOUND:                -0.713
REMARK SMILES CCCCCCC=CC(=O)[O-]
REMARK SMILES IDX 5 1 6 2 7 3 8 4 9 5 10 6 11 7 4 8 3 9 2 10 1 11
REMARK H PARENT
REMARK Flexibility Score: inf
ROOT
ATOM      1  C   UNL     1      34.245   1.873   8.762  1.00  0.00     0.004 C 
ENDROOT
BRANCH   1   2
ATOM      2  C   UNL     1      33.394   0.874   7.958  1.00  0.00     0.027 C 
BRANCH   2   3
ATOM      3  C   UNL     1      34.227  -0.053   7.117  1.00  0.00    -0.025 C 
ATOM      4  C   UNL     1      34.227   0.024   5.783  1.00  0.00     0.020 C 
BRANCH   4   5
ATOM      5  C   UNL     1      35.034  -0.880   4.950  1.00  0.00     0.064 C 
ATOM      6  O   UNL     1      34.526  -1.396   3.920  1.00  0.00    -0.545 OA
ATOM      7  O   UNL     1      36.353  -1.172   5.280  1.00  0.00    -0.545 OA
ENDBRANCH   4   5
ENDBRANCH   2   3
ENDBRANCH   1   2
BRANCH   1   8
ATOM      8  C   UNL     1      34.703   3.103   7.957  1.00  0.00     0.000 C 
BRANCH   8   9
ATOM      9  C   UNL     1      33.555   3.773   7.189  1.00  0.00    -0.000 C 
BRANCH   9  10
ATOM     10  C   UNL     1      33.986   4.133   5.762  1.00  0.00    -0.003 C 
ATOM     11  C   UNL     1      33.102   3.443   4.728  1.00  0.00     0.004 C 
ENDBRANCH   9  10
ENDBRANCH   8   9
ENDBRANCH   1   8
TORSDOF 6
ENDMDL
MODEL 6
REMARK VINA RESULT:    -4.299     20.268     21.109
REMARK INTER + INTRA:          -6.520
REMARK INTER:                  -5.854
REMARK INTRA:                  -0.666
REMARK UNBOUND:                -0.713
REMARK SMILES CCCCCCC=CC(=O)[O-]
REMARK SMILES IDX 5 1 6 2 7 3 8 4 9 5 10 6 11 7 4 8 3 9 2 10 1 11
REMARK H PARENT
REMARK Flexibility Score: inf
ROOT
ATOM      1  C   UNL     1      50.091   9.789  -7.383  1.00  0.00     0.004 C 
ENDROOT
BRANCH   1   2
ATOM      2  C   UNL     1      48.935   8.816  -7.673  1.00  0.00     0.027 C 
BRANCH   2   3
ATOM      3  C   UNL     1      47.811   9.462  -8.434  1.00  0.00    -0.025 C 
ATOM      4  C   UNL     1      47.878  10.736  -8.834  1.00  0.00     0.020 C 
BRANCH   4   5
ATOM      5  C   UNL     1      46.783  11.379  -9.576  1.00  0.00     0.064 C 
ATOM      6  O   UNL     1      46.364  10.858 -10.642  1.00  0.00    -0.545 OA
ATOM      7  O   UNL     1      46.201  12.556  -9.116  1.00  0.00    -0.545 OA
ENDBRANCH   4   5
ENDBRANCH   2   3
ENDBRANCH   1   2
BRANCH   1   8
ATOM      8  C   UNL     1      50.271  10.131  -5.892  1.00  0.00     0.000 C 
BRANCH   8   9
ATOM      9  C   UNL     1      49.957  11.601  -5.577  1.00  0.00    -0.000 C 
BRANCH   9  10
ATOM     10  C   UNL     1      48.764  11.713  -4.620  1.00  0.00    -0.003 C 
ATOM     11  C   UNL     1      47.500  12.138  -5.362  1.00  0.00     0.004 C 
ENDBRANCH   9  10
ENDBRANCH   8   9
ENDBRANCH   1   8
TORSDOF 6
ENDMDL
MODEL 7
REMARK VINA RESULT:    -4.293      1.146      2.800
REMARK INTER + INTRA:          -6.512
REMARK INTER:                  -5.761
REMARK INTRA:                  -0.750
REMARK UNBOUND:                -0.713
REMARK SMILES CCCCCCC=CC(=O)[O-]
REMARK SMILES IDX 5 1 6 2 7 3 8 4 9 5 10 6 11 7 4 8 3 9 2 10 1 11
REMARK H PARENT
REMARK Flexibility Score: inf
ROOT
ATOM      1  C   UNL     1      36.057  -0.033   6.301  1.00  0.00     0.004 C 
ENDROOT
BRANCH   1   2
ATOM      2  C   UNL     1      34.595  -0.163   6.763  1.00  0.00     0.027 C 
BRANCH   2   3
ATOM      3  C   UNL     1      33.795   1.086   6.516  1.00  0.00    -0.025 C 
ATOM      4  C   UNL     1      34.388   2.266   6.310  1.00  0.00     0.020 C 
BRANCH   4   5
ATOM      5  C   UNL     1      33.616   3.495   6.072  1.00  0.00     0.064 C 
ATOM      6  O   UNL     1      33.639   4.419   6.926  1.00  0.00    -0.545 OA
ATOM      7  O   UNL     1      32.861   3.655   4.915  1.00  0.00    -0.545 OA
ENDBRANCH   4   5
ENDBRANCH   2   3
ENDBRANCH   1   2
BRANCH   1   8
ATOM      8  C   UNL     1      36.481  -1.073   5.247  1.00  0.00     0.000 C 
BRANCH   8   9
ATOM      9  C   UNL     1      35.499  -1.160   4.069  1.00  0.00    -0.000 C 
BRANCH   9  10
ATOM     10  C   UNL     1      35.650   0.049   3.139  1.00  0.00    -0.003 C 
ATOM     11  C   UNL     1      34.305   0.727   2.894  1.00  0.00     0.004 C 
ENDBRANCH   9  10
ENDBRANCH   8   9
ENDBRANCH   1   8
TORSDOF 6
ENDMDL
MODEL 8
REMARK VINA RESULT:    -4.276     20.366     21.279
REMARK INTER + INTRA:          -6.489
REMARK INTER:                  -5.896
REMARK INTRA:                  -0.593
REMARK UNBOUND:                -0.713
REMARK SMILES CCCCCCC=CC(=O)[O-]
REMARK SMILES IDX 5 1 6 2 7 3 8 4 9 5 10 6 11 7 4 8 3 9 2 10 1 11
REMARK H PARENT
REMARK Flexibility Score: inf
ROOT
ATOM      1  C   UNL     1      45.536  12.366  -9.287  1.00  0.00     0.004 C 
ENDROOT
BRANCH   1   2
ATOM      2  C   UNL     1      45.808  12.696  -7.809  1.00  0.00     0.027 C 
BRANCH   2   3
ATOM      3  C   UNL     1      47.230  12.421  -7.406  1.00  0.00    -0.025 C 
ATOM      4  C   UNL     1      48.159  12.081  -8.305  1.00  0.00     0.020 C 
BRANCH   4   5
ATOM      5  C   UNL     1      49.551  11.806  -7.922  1.00  0.00     0.064 C 
ATOM      6  O   UNL     1      50.464  12.592  -8.288  1.00  0.00    -0.545 OA
ATOM      7  O   UNL     1      49.878  10.689  -7.160  1.00  0.00    -0.545 OA
ENDBRANCH   4   5
ENDBRANCH   2   3
ENDBRANCH   1   2
BRANCH   1   8
ATOM      8  C   UNL     1      44.586  11.174  -9.504  1.00  0.00     0.000 C 
BRANCH   8   9
ATOM      9  C   UNL     1      45.132  10.153 -10.513  1.00  0.00    -0.000 C 
BRANCH   9  10
ATOM     10  C   UNL     1      45.288   8.772  -9.866  1.00  0.00    -0.003 C 
ATOM     11  C   UNL     1      46.342   8.796  -8.763  1.00  0.00     0.004 C 
ENDBRANCH   9  10
ENDBRANCH   8   9
ENDBRANCH   1   8
TORSDOF 6
ENDMDL
MODEL 9
REMARK VINA RESULT:    -4.274     20.107     20.888
REMARK INTER + INTRA:          -6.486
REMARK INTER:                  -5.749
REMARK INTRA:                  -0.737
REMARK UNBOUND:                -0.713
REMARK SMILES CCCCCCC=CC(=O)[O-]
REMARK SMILES IDX 5 1 6 2 7 3 8 4 9 5 10 6 11 7 4 8 3 9 2 10 1 11
REMARK H PARENT
REMARK Flexibility Score: inf
ROOT
ATOM      1  C   UNL     1      48.576  11.209  -4.549  1.00  0.00     0.004 C 
ENDROOT
BRANCH   1   2
ATOM      2  C   UNL     1      47.750  12.372  -5.127  1.00  0.00     0.027 C 
BRANCH   2   3
ATOM      3  C   UNL     1      47.035  12.002  -6.396  1.00  0.00    -0.025 C 
ATOM      4  C   UNL     1      47.503  12.365  -7.594  1.00  0.00     0.020 C 
BRANCH   4   5
ATOM      5  C   UNL     1      46.810  12.012  -8.842  1.00  0.00     0.064 C 
ATOM      6  O   UNL     1      47.423  11.369  -9.733  1.00  0.00    -0.545 OA
ATOM      7  O   UNL     1      45.485  12.377  -9.054  1.00  0.00    -0.545 OA
ENDBRANCH   4   5
ENDBRANCH   2   3
ENDBRANCH   1   2
BRANCH   1   8
ATOM      8  C   UNL     1      50.006  11.109  -5.110  1.00  0.00     0.000 C 
BRANCH   8   9
ATOM      9  C   UNL     1      50.299   9.747  -5.754  1.00  0.00    -0.000 C 
BRANCH   9  10
ATOM     10  C   UNL     1      50.006   9.777  -7.258  1.00  0.00    -0.003 C 
ATOM     11  C   UNL     1      48.970   8.723  -7.640  1.00  0.00     0.004 C 
ENDBRANCH   9  10
ENDBRANCH   8   9
ENDBRANCH   1   8
TORSDOF 6
ENDMDL
