MODEL 1
REMARK VINA RESULT:    -4.783      0.000      0.000
REMARK INTER + INTRA:          -5.830
REMARK INTER:                  -5.482
REMARK INTRA:                  -0.348
REMARK UNBOUND:                -0.348
REMARK SMILES COc1ccc(C(C)=O)c(O)c1
REMARK SMILES IDX 6 1 10 2 12 3 3 4 4 5 5 6 7 7 8 8 9 9 11 10 2 12 1 13
REMARK H PARENT 11 11
REMARK Flexibility Score: inf
ROOT
ATOM      1  C   UNL     1     -15.273  44.100  33.391  1.00  0.00     0.059 A 
ATOM      2  C   UNL     1     -14.931  42.742  33.183  1.00  0.00     0.130 A 
ATOM      3  C   UNL     1     -15.930  41.814  32.867  1.00  0.00     0.093 A 
ATOM      4  C   UNL     1     -17.263  42.210  32.721  1.00  0.00     0.122 A 
ATOM      5  C   UNL     1     -17.598  43.563  32.897  1.00  0.00     0.047 A 
ATOM      6  C   UNL     1     -16.613  44.495  33.229  1.00  0.00     0.019 A 
ENDROOT
BRANCH   1   7
ATOM      7  C   UNL     1     -14.271  45.108  33.809  1.00  0.00     0.163 C 
ATOM      8  C   UNL     1     -14.503  45.983  35.002  1.00  0.00     0.093 C 
ATOM      9  O   UNL     1     -13.166  45.184  33.206  1.00  0.00    -0.294 OA
ENDBRANCH   1   7
BRANCH   2  10
ATOM     10  O   UNL     1     -13.613  42.283  33.249  1.00  0.00    -0.507 OA
ATOM     11  H   UNL     1     -13.115  42.148  34.119  1.00  0.00     0.293 HD
ENDBRANCH   2  10
BRANCH   4  12
ATOM     12  O   UNL     1     -18.217  41.233  32.396  1.00  0.00    -0.497 OA
ATOM     13  C   UNL     1     -17.902  39.906  31.990  1.00  0.00     0.278 C 
ENDBRANCH   4  12
TORSDOF 3
ENDMDL
MODEL 2
REMARK VINA RESULT:    -4.701      2.286      3.140
REMARK INTER + INTRA:          -5.736
REMARK INTER:                  -5.436
REMARK INTRA:                  -0.300
REMARK UNBOUND:                -0.348
REMARK SMILES COc1ccc(C(C)=O)c(O)c1
REMARK SMILES IDX 6 1 10 2 12 3 3 4 4 5 5 6 7 7 8 8 9 9 11 10 2 12 1 13
REMARK H PARENT 11 11
REMARK Flexibility Score: inf
ROOT
ATOM      1  C   UNL     1     -13.532  44.375  32.356  1.00  0.00     0.059 A 
ATOM      2  C   UNL     1     -13.865  44.498  33.727  1.00  0.00     0.130 A 
ATOM      3  C   UNL     1     -15.208  44.583  34.110  1.00  0.00     0.093 A 
ATOM      4  C   UNL     1     -16.235  44.516  33.164  1.00  0.00     0.122 A 
ATOM      5  C   UNL     1     -15.906  44.364  31.807  1.00  0.00     0.047 A 
ATOM      6  C   UNL     1     -14.569  44.296  31.410  1.00  0.00     0.019 A 
ENDROOT
BRANCH   1   7
ATOM      7  C   UNL     1     -12.127  44.366  31.885  1.00  0.00     0.163 C 
ATOM      8  C   UNL     1     -11.771  44.802  30.498  1.00  0.00     0.093 C 
ATOM      9  O   UNL     1     -11.198  44.065  32.684  1.00  0.00    -0.294 OA
ENDBRANCH   1   7
BRANCH   2  10
ATOM     10  O   UNL     1     -12.897  44.507  34.734  1.00  0.00    -0.507 OA
ATOM     11  H   UNL     1     -13.122  44.519  35.720  1.00  0.00     0.293 HD
ENDBRANCH   2  10
BRANCH   4  12
ATOM     12  O   UNL     1     -17.562  44.600  33.613  1.00  0.00    -0.497 OA
ATOM     13  C   UNL     1     -18.623  43.774  33.145  1.00  0.00     0.278 C 
ENDBRANCH   4  12
TORSDOF 3
ENDMDL
MODEL 3
REMARK VINA RESULT:    -4.692      2.150      4.670
REMARK INTER + INTRA:          -5.726
REMARK INTER:                  -5.395
REMARK INTRA:                  -0.332
REMARK UNBOUND:                -0.348
REMARK SMILES COc1ccc(C(C)=O)c(O)c1
REMARK SMILES IDX 6 1 10 2 12 3 3 4 4 5 5 6 7 7 8 8 9 9 11 10 2 12 1 13
REMARK H PARENT 11 11
REMARK Flexibility Score: inf
ROOT
ATOM      1  C   UNL     1     -17.176  43.759  32.954  1.00  0.00     0.059 A 
ATOM      2  C   UNL     1     -16.889  44.448  31.750  1.00  0.00     0.130 A 
ATOM      3  C   UNL     1     -15.560  44.717  31.403  1.00  0.00     0.093 A 
ATOM      4  C   UNL     1     -14.502  44.288  32.210  1.00  0.00     0.122 A 
ATOM      5  C   UNL     1     -14.784  43.578  33.389  1.00  0.00     0.047 A 
ATOM      6  C   UNL     1     -16.106  43.319  33.755  1.00  0.00     0.019 A 
ENDROOT
BRANCH   1   7
ATOM      7  C   UNL     1     -18.564  43.522  33.413  1.00  0.00     0.163 C 
ATOM      8  C   UNL     1     -19.011  42.165  33.862  1.00  0.00     0.093 C 
ATOM      9  O   UNL     1     -19.368  44.488  33.508  1.00  0.00    -0.294 OA
ENDBRANCH   1   7
BRANCH   2  10
ATOM     10  O   UNL     1     -17.889  44.851  30.863  1.00  0.00    -0.507 OA
ATOM     11  H   UNL     1     -17.874  44.639  29.874  1.00  0.00     0.293 HD
ENDBRANCH   2  10
BRANCH   4  12
ATOM     12  O   UNL     1     -13.191  44.582  31.802  1.00  0.00    -0.497 OA
ATOM     13  C   UNL     1     -12.021  44.080  32.438  1.00  0.00     0.278 C 
ENDBRANCH   4  12
TORSDOF 3
ENDMDL
MODEL 4
REMARK VINA RESULT:    -4.649      2.125      2.747
REMARK INTER + INTRA:          -5.677
REMARK INTER:                  -5.368
REMARK INTRA:                  -0.309
REMARK UNBOUND:                -0.348
REMARK SMILES COc1ccc(C(C)=O)c(O)c1
REMARK SMILES IDX 6 1 10 2 12 3 3 4 4 5 5 6 7 7 8 8 9 9 11 10 2 12 1 13
REMARK H PARENT 11 11
REMARK Flexibility Score: inf
ROOT
ATOM      1  C   UNL     1     -14.444  44.276  32.253  1.00  0.00     0.059 A 
ATOM      2  C   UNL     1     -15.120  43.904  33.440  1.00  0.00     0.130 A 
ATOM      3  C   UNL     1     -16.519  43.889  33.468  1.00  0.00     0.093 A 
ATOM      4  C   UNL     1     -17.267  44.204  32.330  1.00  0.00     0.122 A 
ATOM      5  C   UNL     1     -16.598  44.544  31.143  1.00  0.00     0.047 A 
ATOM      6  C   UNL     1     -15.202  44.580  31.108  1.00  0.00     0.019 A 
ENDROOT
BRANCH   1   7
ATOM      7  C   UNL     1     -12.968  44.392  32.190  1.00  0.00     0.163 C 
ATOM      8  C   UNL     1     -12.252  44.475  30.878  1.00  0.00     0.093 C 
ATOM      9  O   UNL     1     -12.301  44.505  33.254  1.00  0.00    -0.294 OA
ENDBRANCH   1   7
BRANCH   2  10
ATOM     10  O   UNL     1     -14.440  43.516  34.597  1.00  0.00    -0.507 OA
ATOM     11  H   UNL     1     -14.357  42.553  34.896  1.00  0.00     0.293 HD
ENDBRANCH   2  10
BRANCH   4  12
ATOM     12  O   UNL     1     -18.667  44.162  32.421  1.00  0.00    -0.497 OA
ATOM     13  C   UNL     1     -19.395  44.175  33.644  1.00  0.00     0.278 C 
ENDBRANCH   4  12
TORSDOF 3
ENDMDL
MODEL 5
REMARK VINA RESULT:    -4.638      2.738      4.729
REMARK INTER + INTRA:          -5.664
REMARK INTER:                  -5.327
REMARK INTRA:                  -0.336
REMARK UNBOUND:                -0.348
REMARK SMILES COc1ccc(C(C)=O)c(O)c1
REMARK SMILES IDX 6 1 10 2 12 3 3 4 4 5 5 6 7 7 8 8 9 9 11 10 2 12 1 13
REMARK H PARENT 11 11
REMARK Flexibility Score: inf
ROOT
ATOM      1  C   UNL     1     -14.802  44.096  32.671  1.00  0.00     0.059 A 
ATOM      2  C   UNL     1     -13.569  43.966  33.355  1.00  0.00     0.130 A 
ATOM      3  C   UNL     1     -12.367  44.157  32.664  1.00  0.00     0.093 A 
ATOM      4  C   UNL     1     -12.360  44.507  31.311  1.00  0.00     0.122 A 
ATOM      5  C   UNL     1     -13.583  44.666  30.639  1.00  0.00     0.047 A 
ATOM      6  C   UNL     1     -14.788  44.461  31.312  1.00  0.00     0.019 A 
ENDROOT
BRANCH   1   7
ATOM      7  C   UNL     1     -16.100  43.822  33.330  1.00  0.00     0.163 C 
ATOM      8  C   UNL     1     -17.350  44.527  32.903  1.00  0.00     0.093 C 
ATOM      9  O   UNL     1     -16.181  42.925  34.212  1.00  0.00    -0.294 OA
ENDBRANCH   1   7
BRANCH   2  10
ATOM     10  O   UNL     1     -13.497  43.681  34.721  1.00  0.00    -0.507 OA
ATOM     11  H   UNL     1     -13.291  44.378  35.424  1.00  0.00     0.293 HD
ENDBRANCH   2  10
BRANCH   4  12
ATOM     12  O   UNL     1     -11.122  44.692  30.676  1.00  0.00    -0.497 OA
ATOM     13  C   UNL     1     -10.961  44.938  29.283  1.00  0.00     0.278 C 
ENDBRANCH   4  12
TORSDOF 3
ENDMDL
MODEL 6
REMARK VINA RESULT:    -4.562      2.160      4.252
REMARK INTER + INTRA:          -5.576
REMARK INTER:                  -5.232
REMARK INTRA:                  -0.345
REMARK UNBOUND:                -0.348
REMARK SMILES COc1ccc(C(C)=O)c(O)c1
REMARK SMILES IDX 6 1 10 2 12 3 3 4 4 5 5 6 7 7 8 8 9 9 11 10 2 12 1 13
REMARK H PARENT 11 11
REMARK Flexibility Score: inf
ROOT
ATOM      1  C   UNL     1     -16.967  43.765  32.661  1.00  0.00     0.059 A 
ATOM      2  C   UNL     1     -15.636  43.569  33.102  1.00  0.00     0.130 A 
ATOM      3  C   UNL     1     -14.568  43.937  32.276  1.00  0.00     0.093 A 
ATOM      4  C   UNL     1     -14.792  44.529  31.029  1.00  0.00     0.122 A 
ATOM      5  C   UNL     1     -16.112  44.752  30.604  1.00  0.00     0.047 A 
ATOM      6  C   UNL     1     -17.185  44.372  31.412  1.00  0.00     0.019 A 
ENDROOT
BRANCH   1   7
ATOM      7  C   UNL     1     -18.134  43.317  33.458  1.00  0.00     0.163 C 
ATOM      8  C   UNL     1     -19.374  44.150  33.552  1.00  0.00     0.093 C 
ATOM      9  O   UNL     1     -18.123  42.180  34.003  1.00  0.00    -0.294 OA
ENDBRANCH   1   7
BRANCH   2  10
ATOM     10  O   UNL     1     -15.334  43.043  34.361  1.00  0.00    -0.507 OA
ATOM     11  H   UNL     1     -14.947  43.594  35.115  1.00  0.00     0.293 HD
ENDBRANCH   2  10
BRANCH   4  12
ATOM     12  O   UNL     1     -13.679  44.883  30.250  1.00  0.00    -0.497 OA
ATOM     13  C   UNL     1     -12.347  44.453  30.508  1.00  0.00     0.278 C 
ENDBRANCH   4  12
TORSDOF 3
ENDMDL
MODEL 7
REMARK VINA RESULT:    -4.460      3.532      4.640
REMARK INTER + INTRA:          -5.459
REMARK INTER:                  -5.122
REMARK INTRA:                  -0.337
REMARK UNBOUND:                -0.348
REMARK SMILES COc1ccc(C(C)=O)c(O)c1
REMARK SMILES IDX 6 1 10 2 12 3 3 4 4 5 5 6 7 7 8 8 9 9 11 10 2 12 1 13
REMARK H PARENT 11 11
REMARK Flexibility Score: inf
ROOT
ATOM      1  C   UNL     1     -17.222  43.369  31.367  1.00  0.00     0.059 A 
ATOM      2  C   UNL     1     -16.953  44.341  30.373  1.00  0.00     0.130 A 
ATOM      3  C   UNL     1     -16.167  44.003  29.266  1.00  0.00     0.093 A 
ATOM      4  C   UNL     1     -15.664  42.709  29.104  1.00  0.00     0.122 A 
ATOM      5  C   UNL     1     -15.955  41.736  30.075  1.00  0.00     0.047 A 
ATOM      6  C   UNL     1     -16.724  42.065  31.193  1.00  0.00     0.019 A 
ENDROOT
BRANCH   1   7
ATOM      7  C   UNL     1     -17.977  43.692  32.600  1.00  0.00     0.163 C 
ATOM      8  C   UNL     1     -18.920  42.705  33.214  1.00  0.00     0.093 C 
ATOM      9  O   UNL     1     -17.768  44.784  33.197  1.00  0.00    -0.294 OA
ENDBRANCH   1   7
BRANCH   2  10
ATOM     10  O   UNL     1     -17.473  45.636  30.433  1.00  0.00    -0.507 OA
ATOM     11  H   UNL     1     -17.538  46.170  31.289  1.00  0.00     0.293 HD
ENDBRANCH   2  10
BRANCH   4  12
ATOM     12  O   UNL     1     -14.888  42.431  27.968  1.00  0.00    -0.497 OA
ATOM     13  C   UNL     1     -13.530  42.007  28.007  1.00  0.00     0.278 C 
ENDBRANCH   4  12
TORSDOF 3
ENDMDL
MODEL 8
REMARK VINA RESULT:    -4.388      2.786      4.936
REMARK INTER + INTRA:          -5.377
REMARK INTER:                  -5.049
REMARK INTRA:                  -0.328
REMARK UNBOUND:                -0.348
REMARK SMILES COc1ccc(C(C)=O)c(O)c1
REMARK SMILES IDX 6 1 10 2 12 3 3 4 4 5 5 6 7 7 8 8 9 9 11 10 2 12 1 13
REMARK H PARENT 11 11
REMARK Flexibility Score: inf
ROOT
ATOM      1  C   UNL     1     -15.696  44.351  30.848  1.00  0.00     0.059 A 
ATOM      2  C   UNL     1     -16.692  44.473  31.848  1.00  0.00     0.130 A 
ATOM      3  C   UNL     1     -16.318  44.691  33.179  1.00  0.00     0.093 A 
ATOM      4  C   UNL     1     -14.974  44.824  33.539  1.00  0.00     0.122 A 
ATOM      5  C   UNL     1     -13.987  44.732  32.543  1.00  0.00     0.047 A 
ATOM      6  C   UNL     1     -14.346  44.497  31.215  1.00  0.00     0.019 A 
ENDROOT
BRANCH   1   7
ATOM      7  C   UNL     1     -16.029  44.036  29.440  1.00  0.00     0.163 C 
ATOM      8  C   UNL     1     -15.556  42.769  28.796  1.00  0.00     0.093 C 
ATOM      9  O   UNL     1     -16.790  44.801  28.788  1.00  0.00    -0.294 OA
ENDBRANCH   1   7
BRANCH   2  10
ATOM     10  O   UNL     1     -18.056  44.416  31.555  1.00  0.00    -0.507 OA
ATOM     11  H   UNL     1     -18.731  43.939  32.139  1.00  0.00     0.293 HD
ENDBRANCH   2  10
BRANCH   4  12
ATOM     12  O   UNL     1     -14.664  45.049  34.889  1.00  0.00    -0.497 OA
ATOM     13  C   UNL     1     -14.224  46.296  35.415  1.00  0.00     0.278 C 
ENDBRANCH   4  12
TORSDOF 3
ENDMDL
MODEL 9
REMARK VINA RESULT:    -4.351      2.813      3.561
REMARK INTER + INTRA:          -5.335
REMARK INTER:                  -4.993
REMARK INTRA:                  -0.342
REMARK UNBOUND:                -0.348
REMARK SMILES COc1ccc(C(C)=O)c(O)c1
REMARK SMILES IDX 6 1 10 2 12 3 3 4 4 5 5 6 7 7 8 8 9 9 11 10 2 12 1 13
REMARK H PARENT 11 11
REMARK Flexibility Score: inf
ROOT
ATOM      1  C   UNL     1     -17.572  42.433  32.406  1.00  0.00     0.059 A 
ATOM      2  C   UNL     1     -16.546  42.385  31.431  1.00  0.00     0.130 A 
ATOM      3  C   UNL     1     -16.181  41.158  30.865  1.00  0.00     0.093 A 
ATOM      4  C   UNL     1     -16.837  39.976  31.220  1.00  0.00     0.122 A 
ATOM      5  C   UNL     1     -17.875  40.027  32.165  1.00  0.00     0.047 A 
ATOM      6  C   UNL     1     -18.236  41.242  32.750  1.00  0.00     0.019 A 
ENDROOT
BRANCH   1   7
ATOM      7  C   UNL     1     -17.940  43.689  33.099  1.00  0.00     0.163 C 
ATOM      8  C   UNL     1     -19.356  43.967  33.499  1.00  0.00     0.093 C 
ATOM      9  O   UNL     1     -17.043  44.508  33.435  1.00  0.00    -0.294 OA
ENDBRANCH   1   7
BRANCH   2  10
ATOM     10  O   UNL     1     -15.890  43.532  30.978  1.00  0.00    -0.507 OA
ATOM     11  H   UNL     1     -15.517  44.240  31.597  1.00  0.00     0.293 HD
ENDBRANCH   2  10
BRANCH   4  12
ATOM     12  O   UNL     1     -16.430  38.779  30.611  1.00  0.00    -0.497 OA
ATOM     13  C   UNL     1     -15.122  38.540  30.103  1.00  0.00     0.278 C 
ENDBRANCH   4  12
TORSDOF 3
ENDMDL
