MODEL 1
REMARK VINA RESULT:    -6.742      0.000      0.000
REMARK INTER + INTRA:          -8.363
REMARK INTER:                  -8.122
REMARK INTRA:                  -0.241
REMARK UNBOUND:                -0.241
REMARK SMILES O=c1c(O)c(-c2ccc(O)c(O)c2)oc2cc(O)cc(O)c12
REMARK SMILES IDX 5 1 3 2 2 3 1 4 22 5 20 6 19 7 17 8 16 9 15 10 14 11 6 12
REMARK SMILES IDX 7 13 8 14 9 15 13 16 11 17 10 18 12 20 4 22 21 24 18 26
REMARK H PARENT 10 19 12 21 4 23 21 25 18 27
REMARK Flexibility Score: inf
ROOT
ATOM      1  C   UNL     1       9.285  52.751  20.261  1.00  0.00     0.180 A 
ATOM      2  C   UNL     1      10.149  53.346  19.327  1.00  0.00     0.208 A 
ATOM      3  C   UNL     1      11.537  53.250  19.525  1.00  0.00     0.238 A 
ATOM      4  O   UNL     1      12.306  53.738  18.657  1.00  0.00    -0.285 OA
ATOM      5  C   UNL     1      12.041  52.575  20.663  1.00  0.00     0.111 A 
ATOM      6  C   UNL     1      13.426  52.453  20.984  1.00  0.00     0.134 A 
ATOM      7  C   UNL     1      13.816  51.652  22.065  1.00  0.00     0.093 A 
ATOM      8  C   UNL     1      12.866  51.023  22.875  1.00  0.00     0.123 A 
ATOM      9  C   UNL     1      11.510  51.186  22.604  1.00  0.00     0.094 A 
ATOM     10  C   UNL     1      11.091  51.948  21.512  1.00  0.00     0.146 A 
ATOM     11  O   UNL     1       9.789  52.068  21.284  1.00  0.00    -0.452 OA
ENDROOT
BRANCH   1  12
ATOM     12  C   UNL     1       7.811  52.831  20.134  1.00  0.00     0.025 A 
ATOM     13  C   UNL     1       7.045  53.631  20.999  1.00  0.00     0.016 A 
ATOM     14  C   UNL     1       5.653  53.673  20.875  1.00  0.00     0.051 A 
ATOM     15  C   UNL     1       5.008  52.908  19.896  1.00  0.00     0.157 A 
ATOM     16  C   UNL     1       7.157  52.049  19.168  1.00  0.00     0.062 A 
ATOM     17  C   UNL     1       5.764  52.090  19.040  1.00  0.00     0.158 A 
BRANCH  15  18
ATOM     18  O   UNL     1       3.619  52.954  19.773  1.00  0.00    -0.504 OA
ATOM     19  H   UNL     1       3.134  52.449  19.040  1.00  0.00     0.293 HD
ENDBRANCH  15  18
BRANCH  17  20
ATOM     20  O   UNL     1       5.150  51.310  18.060  1.00  0.00    -0.504 OA
ATOM     21  H   UNL     1       5.552  50.440  17.734  1.00  0.00     0.293 HD
ENDBRANCH  17  20
ENDBRANCH   1  12
BRANCH   2  22
ATOM     22  O   UNL     1       9.631  53.988  18.199  1.00  0.00    -0.502 OA
ATOM     23  H   UNL     1      10.204  54.554  17.584  1.00  0.00     0.293 HD
ENDBRANCH   2  22
BRANCH   6  24
ATOM     24  O   UNL     1      14.448  53.112  20.297  1.00  0.00    -0.507 OA
ATOM     25  H   UNL     1      14.848  52.801  19.425  1.00  0.00     0.293 HD
ENDBRANCH   6  24
BRANCH   8  26
ATOM     26  O   UNL     1      13.262  50.241  23.958  1.00  0.00    -0.508 OA
ATOM     27  H   UNL     1      13.597  49.293  23.833  1.00  0.00     0.293 HD
ENDBRANCH   8  26
TORSDOF 6
ENDMDL
MODEL 2
REMARK VINA RESULT:    -6.541      1.633      3.137
REMARK INTER + INTRA:          -8.120
REMARK INTER:                  -7.993
REMARK INTRA:                  -0.127
REMARK UNBOUND:                -0.241
REMARK SMILES O=c1c(O)c(-c2ccc(O)c(O)c2)oc2cc(O)cc(O)c12
REMARK SMILES IDX 5 1 3 2 2 3 1 4 22 5 20 6 19 7 17 8 16 9 15 10 14 11 6 12
REMARK SMILES IDX 7 13 8 14 9 15 13 16 11 17 10 18 12 20 4 22 21 24 18 26
REMARK H PARENT 10 19 12 21 4 23 21 25 18 27
REMARK Flexibility Score: inf
ROOT
ATOM      1  C   UNL     1       8.408  52.346  21.679  1.00  0.00     0.180 A 
ATOM      2  C   UNL     1       8.323  52.116  23.063  1.00  0.00     0.208 A 
ATOM      3  C   UNL     1       9.496  51.829  23.780  1.00  0.00     0.238 A 
ATOM      4  O   UNL     1       9.420  51.677  25.027  1.00  0.00    -0.285 OA
ATOM      5  C   UNL     1      10.737  51.758  23.102  1.00  0.00     0.111 A 
ATOM      6  C   UNL     1      11.981  51.435  23.721  1.00  0.00     0.134 A 
ATOM      7  C   UNL     1      13.166  51.523  22.978  1.00  0.00     0.093 A 
ATOM      8  C   UNL     1      13.141  51.858  21.622  1.00  0.00     0.123 A 
ATOM      9  C   UNL     1      11.926  52.117  20.995  1.00  0.00     0.094 A 
ATOM     10  C   UNL     1      10.731  52.074  21.717  1.00  0.00     0.146 A 
ATOM     11  O   UNL     1       9.596  52.338  21.083  1.00  0.00    -0.452 OA
ENDROOT
BRANCH   1  12
ATOM     12  C   UNL     1       7.213  52.630  20.852  1.00  0.00     0.025 A 
ATOM     13  C   UNL     1       6.415  53.763  21.083  1.00  0.00     0.016 A 
ATOM     14  C   UNL     1       5.278  53.997  20.304  1.00  0.00     0.051 A 
ATOM     15  C   UNL     1       4.917  53.097  19.293  1.00  0.00     0.157 A 
ATOM     16  C   UNL     1       6.835  51.719  19.851  1.00  0.00     0.062 A 
ATOM     17  C   UNL     1       5.698  51.951  19.068  1.00  0.00     0.158 A 
BRANCH  15  18
ATOM     18  O   UNL     1       3.783  53.335  18.516  1.00  0.00    -0.504 OA
ATOM     19  H   UNL     1       3.029  52.660  18.457  1.00  0.00     0.293 HD
ENDBRANCH  15  18
BRANCH  17  20
ATOM     20  O   UNL     1       5.360  51.033  18.075  1.00  0.00    -0.504 OA
ATOM     21  H   UNL     1       4.422  50.664  17.979  1.00  0.00     0.293 HD
ENDBRANCH  17  20
ENDBRANCH   1  12
BRANCH   2  22
ATOM     22  O   UNL     1       7.091  52.212  23.717  1.00  0.00    -0.502 OA
ATOM     23  H   UNL     1       6.919  51.785  24.619  1.00  0.00     0.293 HD
ENDBRANCH   2  22
BRANCH   6  24
ATOM     24  O   UNL     1      12.106  51.000  25.043  1.00  0.00    -0.507 OA
ATOM     25  H   UNL     1      12.449  50.092  25.319  1.00  0.00     0.293 HD
ENDBRANCH   6  24
BRANCH   8  26
ATOM     26  O   UNL     1      14.323  51.928  20.886  1.00  0.00    -0.508 OA
ATOM     27  H   UNL     1      14.368  51.613  19.924  1.00  0.00     0.293 HD
ENDBRANCH   8  26
TORSDOF 6
ENDMDL
MODEL 3
REMARK VINA RESULT:    -6.208      1.168      2.844
REMARK INTER + INTRA:          -7.719
REMARK INTER:                  -7.438
REMARK INTRA:                  -0.282
REMARK UNBOUND:                -0.241
REMARK SMILES O=c1c(O)c(-c2ccc(O)c(O)c2)oc2cc(O)cc(O)c12
REMARK SMILES IDX 5 1 3 2 2 3 1 4 22 5 20 6 19 7 17 8 16 9 15 10 14 11 6 12
REMARK SMILES IDX 7 13 8 14 9 15 13 16 11 17 10 18 12 20 4 22 21 24 18 26
REMARK H PARENT 10 19 12 21 4 23 21 25 18 27
REMARK Flexibility Score: inf
ROOT
ATOM      1  C   UNL     1       9.070  52.445  20.820  1.00  0.00     0.180 A 
ATOM      2  C   UNL     1       9.464  51.669  21.923  1.00  0.00     0.208 A 
ATOM      3  C   UNL     1      10.834  51.496  22.181  1.00  0.00     0.238 A 
ATOM      4  O   UNL     1      11.180  50.846  23.201  1.00  0.00    -0.285 OA
ATOM      5  C   UNL     1      11.792  52.087  21.323  1.00  0.00     0.111 A 
ATOM      6  C   UNL     1      13.205  51.944  21.465  1.00  0.00     0.134 A 
ATOM      7  C   UNL     1      14.061  52.681  20.636  1.00  0.00     0.093 A 
ATOM      8  C   UNL     1      13.553  53.503  19.627  1.00  0.00     0.123 A 
ATOM      9  C   UNL     1      12.177  53.602  19.442  1.00  0.00     0.094 A 
ATOM     10  C   UNL     1      11.297  52.909  20.276  1.00  0.00     0.146 A 
ATOM     11  O   UNL     1       9.993  53.041  20.072  1.00  0.00    -0.452 OA
ENDROOT
BRANCH   1  12
ATOM     12  C   UNL     1       7.646  52.651  20.469  1.00  0.00     0.025 A 
ATOM     13  C   UNL     1       6.843  53.562  21.176  1.00  0.00     0.016 A 
ATOM     14  C   UNL     1       5.495  53.723  20.842  1.00  0.00     0.051 A 
ATOM     15  C   UNL     1       4.929  52.968  19.807  1.00  0.00     0.157 A 
ATOM     16  C   UNL     1       7.068  51.881  19.446  1.00  0.00     0.062 A 
ATOM     17  C   UNL     1       5.720  52.040  19.108  1.00  0.00     0.158 A 
BRANCH  15  18
ATOM     18  O   UNL     1       3.584  53.132  19.475  1.00  0.00    -0.504 OA
ATOM     19  H   UNL     1       2.844  52.861  20.111  1.00  0.00     0.293 HD
ENDBRANCH  15  18
BRANCH  17  20
ATOM     20  O   UNL     1       5.183  51.268  18.078  1.00  0.00    -0.504 OA
ATOM     21  H   UNL     1       5.765  50.715  17.460  1.00  0.00     0.293 HD
ENDBRANCH  17  20
ENDBRANCH   1  12
BRANCH   2  22
ATOM     22  O   UNL     1       8.502  51.112  22.771  1.00  0.00    -0.502 OA
ATOM     23  H   UNL     1       7.511  51.287  22.658  1.00  0.00     0.293 HD
ENDBRANCH   2  22
BRANCH   6  24
ATOM     24  O   UNL     1      13.814  51.080  22.379  1.00  0.00    -0.507 OA
ATOM     25  H   UNL     1      14.785  51.122  22.649  1.00  0.00     0.293 HD
ENDBRANCH   6  24
BRANCH   8  26
ATOM     26  O   UNL     1      14.413  54.219  18.796  1.00  0.00    -0.508 OA
ATOM     27  H   UNL     1      14.634  55.192  18.974  1.00  0.00     0.293 HD
ENDBRANCH   8  26
TORSDOF 6
ENDMDL
MODEL 4
REMARK VINA RESULT:    -6.117      1.671      6.620
REMARK INTER + INTRA:          -7.610
REMARK INTER:                  -7.923
REMARK INTRA:                   0.313
REMARK UNBOUND:                -0.241
REMARK SMILES O=c1c(O)c(-c2ccc(O)c(O)c2)oc2cc(O)cc(O)c12
REMARK SMILES IDX 5 1 3 2 2 3 1 4 22 5 20 6 19 7 17 8 16 9 15 10 14 11 6 12
REMARK SMILES IDX 7 13 8 14 9 15 13 16 11 17 10 18 12 20 4 22 21 24 18 26
REMARK H PARENT 10 19 12 21 4 23 21 25 18 27
REMARK Flexibility Score: inf
ROOT
ATOM      1  C   UNL     1       9.089  52.434  20.681  1.00  0.00     0.180 A 
ATOM      2  C   UNL     1       9.623  52.657  19.400  1.00  0.00     0.208 A 
ATOM      3  C   UNL     1       8.746  52.911  18.332  1.00  0.00     0.238 A 
ATOM      4  O   UNL     1       9.232  53.164  17.199  1.00  0.00    -0.285 OA
ATOM      5  C   UNL     1       7.348  52.921  18.555  1.00  0.00     0.111 A 
ATOM      6  C   UNL     1       6.367  53.126  17.539  1.00  0.00     0.134 A 
ATOM      7  C   UNL     1       5.018  53.246  17.896  1.00  0.00     0.093 A 
ATOM      8  C   UNL     1       4.609  53.102  19.224  1.00  0.00     0.123 A 
ATOM      9  C   UNL     1       5.553  52.842  20.214  1.00  0.00     0.094 A 
ATOM     10  C   UNL     1       6.910  52.753  19.895  1.00  0.00     0.146 A 
ATOM     11  O   UNL     1       7.777  52.515  20.871  1.00  0.00    -0.452 OA
ENDROOT
BRANCH   1  12
ATOM     12  C   UNL     1       9.947  52.135  21.851  1.00  0.00     0.025 A 
ATOM     13  C   UNL     1       9.587  52.544  23.147  1.00  0.00     0.016 A 
ATOM     14  C   UNL     1      10.424  52.271  24.232  1.00  0.00     0.051 A 
ATOM     15  C   UNL     1      11.636  51.598  24.037  1.00  0.00     0.157 A 
ATOM     16  C   UNL     1      11.175  51.480  21.658  1.00  0.00     0.062 A 
ATOM     17  C   UNL     1      12.015  51.203  22.743  1.00  0.00     0.158 A 
BRANCH  15  18
ATOM     18  O   UNL     1      12.469  51.326  25.123  1.00  0.00    -0.504 OA
ATOM     19  H   UNL     1      12.093  51.134  26.044  1.00  0.00     0.293 HD
ENDBRANCH  15  18
BRANCH  17  20
ATOM     20  O   UNL     1      13.219  50.539  22.516  1.00  0.00    -0.504 OA
ATOM     21  H   UNL     1      13.926  50.445  23.234  1.00  0.00     0.293 HD
ENDBRANCH  17  20
ENDBRANCH   1  12
BRANCH   2  22
ATOM     22  O   UNL     1      11.007  52.665  19.206  1.00  0.00    -0.502 OA
ATOM     23  H   UNL     1      11.428  52.844  18.303  1.00  0.00     0.293 HD
ENDBRANCH   2  22
BRANCH   6  24
ATOM     24  O   UNL     1       6.659  53.192  16.174  1.00  0.00    -0.507 OA
ATOM     25  H   UNL     1       5.972  53.315  15.445  1.00  0.00     0.293 HD
ENDBRANCH   6  24
BRANCH   8  26
ATOM     26  O   UNL     1       3.263  53.207  19.568  1.00  0.00    -0.508 OA
ATOM     27  H   UNL     1       2.680  52.386  19.688  1.00  0.00     0.293 HD
ENDBRANCH   8  26
TORSDOF 6
ENDMDL
MODEL 5
REMARK VINA RESULT:    -6.064      2.501      3.636
REMARK INTER + INTRA:          -7.546
REMARK INTER:                  -7.467
REMARK INTRA:                  -0.079
REMARK UNBOUND:                -0.241
REMARK SMILES O=c1c(O)c(-c2ccc(O)c(O)c2)oc2cc(O)cc(O)c12
REMARK SMILES IDX 5 1 3 2 2 3 1 4 22 5 20 6 19 7 17 8 16 9 15 10 14 11 6 12
REMARK SMILES IDX 7 13 8 14 9 15 13 16 11 17 10 18 12 20 4 22 21 24 18 26
REMARK H PARENT 10 19 12 21 4 23 21 25 18 27
REMARK Flexibility Score: inf
ROOT
ATOM      1  C   UNL     1       6.987  52.712  19.243  1.00  0.00     0.180 A 
ATOM      2  C   UNL     1       8.352  52.741  18.910  1.00  0.00     0.208 A 
ATOM      3  C   UNL     1       9.306  52.596  19.931  1.00  0.00     0.238 A 
ATOM      4  O   UNL     1      10.525  52.568  19.620  1.00  0.00    -0.285 OA
ATOM      5  C   UNL     1       8.883  52.441  21.274  1.00  0.00     0.111 A 
ATOM      6  C   UNL     1       9.763  52.327  22.392  1.00  0.00     0.134 A 
ATOM      7  C   UNL     1       9.236  52.047  23.659  1.00  0.00     0.093 A 
ATOM      8  C   UNL     1       7.857  51.942  23.858  1.00  0.00     0.123 A 
ATOM      9  C   UNL     1       6.988  52.111  22.783  1.00  0.00     0.094 A 
ATOM     10  C   UNL     1       7.484  52.356  21.501  1.00  0.00     0.146 A 
ATOM     11  O   UNL     1       6.622  52.500  20.503  1.00  0.00    -0.452 OA
ENDROOT
BRANCH   1  12
ATOM     12  C   UNL     1       5.924  52.884  18.227  1.00  0.00     0.025 A 
ATOM     13  C   UNL     1       4.967  53.907  18.335  1.00  0.00     0.016 A 
ATOM     14  C   UNL     1       3.959  54.035  17.376  1.00  0.00     0.051 A 
ATOM     15  C   UNL     1       3.885  53.137  16.304  1.00  0.00     0.157 A 
ATOM     16  C   UNL     1       5.833  51.972  17.162  1.00  0.00     0.062 A 
ATOM     17  C   UNL     1       4.825  52.098  16.199  1.00  0.00     0.158 A 
BRANCH  15  18
ATOM     18  O   UNL     1       2.878  53.268  15.347  1.00  0.00    -0.504 OA
ATOM     19  H   UNL     1       1.899  53.289  15.607  1.00  0.00     0.293 HD
ENDBRANCH  15  18
BRANCH  17  20
ATOM     20  O   UNL     1       4.773  51.183  15.148  1.00  0.00    -0.504 OA
ATOM     21  H   UNL     1       3.899  50.906  14.717  1.00  0.00     0.293 HD
ENDBRANCH  17  20
ENDBRANCH   1  12
BRANCH   2  22
ATOM     22  O   UNL     1       8.748  52.872  17.576  1.00  0.00    -0.502 OA
ATOM     23  H   UNL     1       8.142  53.263  16.865  1.00  0.00     0.293 HD
ENDBRANCH   2  22
BRANCH   6  24
ATOM     24  O   UNL     1      11.147  52.505  22.318  1.00  0.00    -0.507 OA
ATOM     25  H   UNL     1      11.633  52.913  21.533  1.00  0.00     0.293 HD
ENDBRANCH   6  24
BRANCH   8  26
ATOM     26  O   UNL     1       7.340  51.679  25.125  1.00  0.00    -0.508 OA
ATOM     27  H   UNL     1       6.750  50.874  25.301  1.00  0.00     0.293 HD
ENDBRANCH   8  26
TORSDOF 6
ENDMDL
MODEL 6
REMARK VINA RESULT:    -6.059      2.148      7.490
REMARK INTER + INTRA:          -7.541
REMARK INTER:                  -7.288
REMARK INTRA:                  -0.252
REMARK UNBOUND:                -0.241
REMARK SMILES O=c1c(O)c(-c2ccc(O)c(O)c2)oc2cc(O)cc(O)c12
REMARK SMILES IDX 5 1 3 2 2 3 1 4 22 5 20 6 19 7 17 8 16 9 15 10 14 11 6 12
REMARK SMILES IDX 7 13 8 14 9 15 13 16 11 17 10 18 12 20 4 22 21 24 18 26
REMARK H PARENT 10 19 12 21 4 23 21 25 18 27
REMARK Flexibility Score: inf
ROOT
ATOM      1  C   UNL     1       8.721  52.659  19.497  1.00  0.00     0.180 A 
ATOM      2  C   UNL     1       8.016  52.635  20.712  1.00  0.00     0.208 A 
ATOM      3  C   UNL     1       6.627  52.848  20.698  1.00  0.00     0.238 A 
ATOM      4  O   UNL     1       5.993  52.771  21.783  1.00  0.00    -0.285 OA
ATOM      5  C   UNL     1       5.965  53.100  19.473  1.00  0.00     0.111 A 
ATOM      6  C   UNL     1       4.569  53.369  19.346  1.00  0.00     0.134 A 
ATOM      7  C   UNL     1       3.999  53.474  18.071  1.00  0.00     0.093 A 
ATOM      8  C   UNL     1       4.787  53.384  16.921  1.00  0.00     0.123 A 
ATOM      9  C   UNL     1       6.159  53.181  17.036  1.00  0.00     0.094 A 
ATOM     10  C   UNL     1       6.752  53.036  18.292  1.00  0.00     0.146 A 
ATOM     11  O   UNL     1       8.062  52.833  18.357  1.00  0.00    -0.452 OA
ENDROOT
BRANCH   1  12
ATOM     12  C   UNL     1      10.188  52.469  19.433  1.00  0.00     0.025 A 
ATOM     13  C   UNL     1      10.751  51.260  18.990  1.00  0.00     0.016 A 
ATOM     14  C   UNL     1      12.138  51.095  18.961  1.00  0.00     0.051 A 
ATOM     15  C   UNL     1      12.982  52.129  19.385  1.00  0.00     0.157 A 
ATOM     16  C   UNL     1      11.038  53.495  19.879  1.00  0.00     0.062 A 
ATOM     17  C   UNL     1      12.428  53.334  19.850  1.00  0.00     0.158 A 
BRANCH  15  18
ATOM     18  O   UNL     1      14.366  51.962  19.353  1.00  0.00    -0.504 OA
ATOM     19  H   UNL     1      14.901  52.122  18.507  1.00  0.00     0.293 HD
ENDBRANCH  15  18
BRANCH  17  20
ATOM     20  O   UNL     1      13.241  54.379  20.287  1.00  0.00    -0.504 OA
ATOM     21  H   UNL     1      13.030  55.348  20.081  1.00  0.00     0.293 HD
ENDBRANCH  17  20
ENDBRANCH   1  12
BRANCH   2  22
ATOM     22  O   UNL     1       8.685  52.363  21.909  1.00  0.00    -0.502 OA
ATOM     23  H   UNL     1       9.203  53.071  22.415  1.00  0.00     0.293 HD
ENDBRANCH   2  22
BRANCH   6  24
ATOM     24  O   UNL     1       3.711  53.568  20.431  1.00  0.00    -0.507 OA
ATOM     25  H   UNL     1       3.923  54.140  21.234  1.00  0.00     0.293 HD
ENDBRANCH   6  24
BRANCH   8  26
ATOM     26  O   UNL     1       4.214  53.506  15.656  1.00  0.00    -0.508 OA
ATOM     27  H   UNL     1       4.456  52.875  14.901  1.00  0.00     0.293 HD
ENDBRANCH   8  26
TORSDOF 6
ENDMDL
MODEL 7
REMARK VINA RESULT:    -5.957      2.428      7.844
REMARK INTER + INTRA:          -7.418
REMARK INTER:                  -7.097
REMARK INTRA:                  -0.321
REMARK UNBOUND:                -0.241
REMARK SMILES O=c1c(O)c(-c2ccc(O)c(O)c2)oc2cc(O)cc(O)c12
REMARK SMILES IDX 5 1 3 2 2 3 1 4 22 5 20 6 19 7 17 8 16 9 15 10 14 11 6 12
REMARK SMILES IDX 7 13 8 14 9 15 13 16 11 17 10 18 12 20 4 22 21 24 18 26
REMARK H PARENT 10 19 12 21 4 23 21 25 18 27
REMARK Flexibility Score: inf
ROOT
ATOM      1  C   UNL     1      12.225  51.660  22.549  1.00  0.00     0.180 A 
ATOM      2  C   UNL     1      11.729  50.713  23.462  1.00  0.00     0.208 A 
ATOM      3  C   UNL     1      10.341  50.620  23.660  1.00  0.00     0.238 A 
ATOM      4  O   UNL     1       9.900  49.735  24.438  1.00  0.00    -0.285 OA
ATOM      5  C   UNL     1       9.469  51.486  22.957  1.00  0.00     0.111 A 
ATOM      6  C   UNL     1       8.051  51.507  23.111  1.00  0.00     0.134 A 
ATOM      7  C   UNL     1       7.277  52.315  22.268  1.00  0.00     0.093 A 
ATOM      8  C   UNL     1       7.876  53.151  21.322  1.00  0.00     0.123 A 
ATOM      9  C   UNL     1       9.263  53.181  21.206  1.00  0.00     0.094 A 
ATOM     10  C   UNL     1      10.060  52.360  22.007  1.00  0.00     0.146 A 
ATOM     11  O   UNL     1      11.377  52.413  21.856  1.00  0.00    -0.452 OA
ENDROOT
BRANCH   1  12
ATOM     12  C   UNL     1      13.675  51.835  22.305  1.00  0.00     0.025 A 
ATOM     13  C   UNL     1      14.357  51.053  21.356  1.00  0.00     0.016 A 
ATOM     14  C   UNL     1      15.731  51.220  21.160  1.00  0.00     0.051 A 
ATOM     15  C   UNL     1      16.444  52.159  21.916  1.00  0.00     0.157 A 
ATOM     16  C   UNL     1      14.399  52.760  23.075  1.00  0.00     0.062 A 
ATOM     17  C   UNL     1      15.774  52.931  22.880  1.00  0.00     0.158 A 
BRANCH  15  18
ATOM     18  O   UNL     1      17.814  52.325  21.716  1.00  0.00    -0.504 OA
ATOM     19  H   UNL     1      18.250  52.111  20.827  1.00  0.00     0.293 HD
ENDBRANCH  15  18
BRANCH  17  20
ATOM     20  O   UNL     1      16.457  53.868  23.654  1.00  0.00    -0.504 OA
ATOM     21  H   UNL     1      17.262  53.619  24.216  1.00  0.00     0.293 HD
ENDBRANCH  17  20
ENDBRANCH   1  12
BRANCH   2  22
ATOM     22  O   UNL     1      12.605  49.854  24.129  1.00  0.00    -0.502 OA
ATOM     23  H   UNL     1      13.167  50.153  24.916  1.00  0.00     0.293 HD
ENDBRANCH   2  22
BRANCH   6  24
ATOM     24  O   UNL     1       7.360  50.781  24.085  1.00  0.00    -0.507 OA
ATOM     25  H   UNL     1       6.841  51.191  24.846  1.00  0.00     0.293 HD
ENDBRANCH   6  24
BRANCH   8  26
ATOM     26  O   UNL     1       7.099  53.963  20.499  1.00  0.00    -0.508 OA
ATOM     27  H   UNL     1       6.995  54.955  20.678  1.00  0.00     0.293 HD
ENDBRANCH   8  26
TORSDOF 6
ENDMDL
MODEL 8
REMARK VINA RESULT:    -5.851      2.902      5.668
REMARK INTER + INTRA:          -7.289
REMARK INTER:                  -6.958
REMARK INTRA:                  -0.331
REMARK UNBOUND:                -0.241
REMARK SMILES O=c1c(O)c(-c2ccc(O)c(O)c2)oc2cc(O)cc(O)c12
REMARK SMILES IDX 5 1 3 2 2 3 1 4 22 5 20 6 19 7 17 8 16 9 15 10 14 11 6 12
REMARK SMILES IDX 7 13 8 14 9 15 13 16 11 17 10 18 12 20 4 22 21 24 18 26
REMARK H PARENT 10 19 12 21 4 23 21 25 18 27
REMARK Flexibility Score: inf
ROOT
ATOM      1  C   UNL     1      11.088  52.544  20.524  1.00  0.00     0.180 A 
ATOM      2  C   UNL     1       9.818  53.019  20.895  1.00  0.00     0.208 A 
ATOM      3  C   UNL     1       9.200  52.490  22.040  1.00  0.00     0.238 A 
ATOM      4  O   UNL     1       8.088  52.958  22.397  1.00  0.00    -0.285 OA
ATOM      5  C   UNL     1       9.851  51.480  22.789  1.00  0.00     0.111 A 
ATOM      6  C   UNL     1       9.300  50.844  23.941  1.00  0.00     0.134 A 
ATOM      7  C   UNL     1      10.087  49.951  24.680  1.00  0.00     0.093 A 
ATOM      8  C   UNL     1      11.381  49.623  24.269  1.00  0.00     0.123 A 
ATOM      9  C   UNL     1      11.906  50.194  23.113  1.00  0.00     0.094 A 
ATOM     10  C   UNL     1      11.159  51.115  22.375  1.00  0.00     0.146 A 
ATOM     11  O   UNL     1      11.701  51.643  21.285  1.00  0.00    -0.452 OA
ENDROOT
BRANCH   1  12
ATOM     12  C   UNL     1      11.792  53.035  19.317  1.00  0.00     0.025 A 
ATOM     13  C   UNL     1      11.557  52.469  18.052  1.00  0.00     0.016 A 
ATOM     14  C   UNL     1      12.251  52.933  16.932  1.00  0.00     0.051 A 
ATOM     15  C   UNL     1      13.196  53.959  17.060  1.00  0.00     0.157 A 
ATOM     16  C   UNL     1      12.756  54.049  19.444  1.00  0.00     0.062 A 
ATOM     17  C   UNL     1      13.452  54.517  18.324  1.00  0.00     0.158 A 
BRANCH  15  18
ATOM     18  O   UNL     1      13.885  54.421  15.939  1.00  0.00    -0.504 OA
ATOM     19  H   UNL     1      13.518  55.168  15.360  1.00  0.00     0.293 HD
ENDBRANCH  15  18
BRANCH  17  20
ATOM     20  O   UNL     1      14.392  55.533  18.485  1.00  0.00    -0.504 OA
ATOM     21  H   UNL     1      15.388  55.363  18.412  1.00  0.00     0.293 HD
ENDBRANCH  17  20
ENDBRANCH   1  12
BRANCH   2  22
ATOM     22  O   UNL     1       9.203  54.032  20.154  1.00  0.00    -0.502 OA
ATOM     23  H   UNL     1       8.817  53.874  19.231  1.00  0.00     0.293 HD
ENDBRANCH   2  22
BRANCH   6  24
ATOM     24  O   UNL     1       7.988  51.031  24.384  1.00  0.00    -0.507 OA
ATOM     25  H   UNL     1       7.586  50.585  25.195  1.00  0.00     0.293 HD
ENDBRANCH   6  24
BRANCH   8  26
ATOM     26  O   UNL     1      12.152  48.722  25.001  1.00  0.00    -0.508 OA
ATOM     27  H   UNL     1      12.777  49.033  25.735  1.00  0.00     0.293 HD
ENDBRANCH   8  26
TORSDOF 6
ENDMDL
MODEL 9
REMARK VINA RESULT:    -5.642      3.138      4.292
REMARK INTER + INTRA:          -7.038
REMARK INTER:                  -7.026
REMARK INTRA:                  -0.011
REMARK UNBOUND:                -0.241
REMARK SMILES O=c1c(O)c(-c2ccc(O)c(O)c2)oc2cc(O)cc(O)c12
REMARK SMILES IDX 5 1 3 2 2 3 1 4 22 5 20 6 19 7 17 8 16 9 15 10 14 11 6 12
REMARK SMILES IDX 7 13 8 14 9 15 13 16 11 17 10 18 12 20 4 22 21 24 18 26
REMARK H PARENT 10 19 12 21 4 23 21 25 18 27
REMARK Flexibility Score: inf
ROOT
ATOM      1  C   UNL     1      11.795  51.680  22.993  1.00  0.00     0.180 A 
ATOM      2  C   UNL     1      12.156  51.280  21.695  1.00  0.00     0.208 A 
ATOM      3  C   UNL     1      13.488  51.440  21.278  1.00  0.00     0.238 A 
ATOM      4  O   UNL     1      13.817  51.031  20.135  1.00  0.00    -0.285 OA
ATOM      5  C   UNL     1      14.437  52.014  22.159  1.00  0.00     0.111 A 
ATOM      6  C   UNL     1      15.803  52.261  21.827  1.00  0.00     0.134 A 
ATOM      7  C   UNL     1      16.684  52.711  22.820  1.00  0.00     0.093 A 
ATOM      8  C   UNL     1      16.231  52.986  24.113  1.00  0.00     0.123 A 
ATOM      9  C   UNL     1      14.888  52.805  24.428  1.00  0.00     0.094 A 
ATOM     10  C   UNL     1      13.992  52.322  23.471  1.00  0.00     0.146 A 
ATOM     11  O   UNL     1      12.723  52.154  23.818  1.00  0.00    -0.452 OA
ENDROOT
BRANCH   1  12
ATOM     12  C   UNL     1      10.406  51.566  23.495  1.00  0.00     0.025 A 
ATOM     13  C   UNL     1      10.111  50.876  24.683  1.00  0.00     0.016 A 
ATOM     14  C   UNL     1       8.790  50.762  25.124  1.00  0.00     0.051 A 
ATOM     15  C   UNL     1       7.746  51.324  24.380  1.00  0.00     0.157 A 
ATOM     16  C   UNL     1       9.353  52.110  22.741  1.00  0.00     0.062 A 
ATOM     17  C   UNL     1       8.029  51.999  23.181  1.00  0.00     0.158 A 
BRANCH  15  18
ATOM     18  O   UNL     1       6.428  51.210  24.825  1.00  0.00    -0.504 OA
ATOM     19  H   UNL     1       6.122  51.637  25.691  1.00  0.00     0.293 HD
ENDBRANCH  15  18
BRANCH  17  20
ATOM     20  O   UNL     1       7.010  52.563  22.414  1.00  0.00    -0.504 OA
ATOM     21  H   UNL     1       7.199  53.214  21.661  1.00  0.00     0.293 HD
ENDBRANCH  17  20
ENDBRANCH   1  12
BRANCH   2  22
ATOM     22  O   UNL     1      11.209  50.696  20.849  1.00  0.00    -0.502 OA
ATOM     23  H   UNL     1      10.370  50.250  21.199  1.00  0.00     0.293 HD
ENDBRANCH   2  22
BRANCH   6  24
ATOM     24  O   UNL     1      16.336  52.106  20.545  1.00  0.00    -0.507 OA
ATOM     25  H   UNL     1      16.631  51.227  20.148  1.00  0.00     0.293 HD
ENDBRANCH   6  24
BRANCH   8  26
ATOM     26  O   UNL     1      17.111  53.449  25.089  1.00  0.00    -0.508 OA
ATOM     27  H   UNL     1      16.797  53.658  26.030  1.00  0.00     0.293 HD
ENDBRANCH   8  26
TORSDOF 6
ENDMDL
