MODEL 1
REMARK VINA RESULT:    -4.093      0.000      0.000
REMARK INTER + INTRA:          -8.063
REMARK INTER:                  -7.444
REMARK INTRA:                  -0.619
REMARK UNBOUND:                -0.619
REMARK SMILES CCCCCCCCCCCCCC[C@H](C)C(=O)[O-]
REMARK SMILES IDX 9 1 10 2 11 3 12 4 13 5 14 6 15 7 16 8 17 9 18 10 19 11 8 12
REMARK SMILES IDX 7 13 6 14 5 15 4 16 3 17 2 18 1 19
REMARK H PARENT
REMARK Flexibility Score: inf
ROOT
ATOM      1  C   UNL     1     -44.117 -28.120  -0.841  1.00  0.00     0.000 C 
ENDROOT
BRANCH   1   2
ATOM      2  C   UNL     1     -44.481 -27.496  -2.197  1.00  0.00     0.000 C 
BRANCH   2   3
ATOM      3  C   UNL     1     -45.637 -28.229  -2.893  1.00  0.00     0.000 C 
BRANCH   3   4
ATOM      4  C   UNL     1     -45.679 -27.888  -4.390  1.00  0.00     0.000 C 
BRANCH   4   5
ATOM      5  C   UNL     1     -45.946 -29.111  -5.282  1.00  0.00     0.001 C 
BRANCH   5   6
ATOM      6  C   UNL     1     -44.898 -29.395  -6.384  1.00  0.00     0.009 C 
BRANCH   6   7
ATOM      7  C   UNL     1     -44.384 -28.187  -7.211  1.00  0.00     0.032 C 
ATOM      8  C   UNL     1     -45.471 -27.544  -8.086  1.00  0.00     0.014 C 
BRANCH   7   9
ATOM      9  C   UNL     1     -43.137 -28.502  -7.996  1.00  0.00     0.044 C 
ATOM     10  O   UNL     1     -43.228 -28.850  -9.202  1.00  0.00    -0.550 OA
ATOM     11  O   UNL     1     -41.879 -28.365  -7.420  1.00  0.00    -0.550 OA
ENDBRANCH   7   9
ENDBRANCH   6   7
ENDBRANCH   5   6
ENDBRANCH   4   5
ENDBRANCH   3   4
ENDBRANCH   2   3
ENDBRANCH   1   2
BRANCH   1  12
ATOM     12  C   UNL     1     -44.309 -27.141   0.332  1.00  0.00     0.000 C 
BRANCH  12  13
ATOM     13  C   UNL     1     -45.769 -27.068   0.805  1.00  0.00    -0.000 C 
BRANCH  13  14
ATOM     14  C   UNL     1     -45.934 -26.213   2.075  1.00  0.00    -0.000 C 
BRANCH  14  15
ATOM     15  C   UNL     1     -46.877 -26.857   3.104  1.00  0.00    -0.000 C 
BRANCH  15  16
ATOM     16  C   UNL     1     -46.286 -26.858   4.525  1.00  0.00    -0.000 C 
BRANCH  16  17
ATOM     17  C   UNL     1     -45.925 -28.272   5.011  1.00  0.00    -0.000 C 
BRANCH  17  18
ATOM     18  C   UNL     1     -45.310 -28.275   6.418  1.00  0.00    -0.003 C 
ATOM     19  C   UNL     1     -45.516 -26.930   7.110  1.00  0.00     0.004 C 
ENDBRANCH  17  18
ENDBRANCH  16  17
ENDBRANCH  15  16
ENDBRANCH  14  15
ENDBRANCH  13  14
ENDBRANCH  12  13
ENDBRANCH   1  12
TORSDOF 14
ENDMDL
MODEL 2
REMARK VINA RESULT:    -4.051      5.756     10.526
REMARK INTER + INTRA:          -7.985
REMARK INTER:                  -6.771
REMARK INTRA:                  -1.214
REMARK UNBOUND:                -0.619
REMARK SMILES CCCCCCCCCCCCCC[C@H](C)C(=O)[O-]
REMARK SMILES IDX 9 1 10 2 11 3 12 4 13 5 14 6 15 7 16 8 17 9 18 10 19 11 8 12
REMARK SMILES IDX 7 13 6 14 5 15 4 16 3 17 2 18 1 19
REMARK H PARENT
REMARK Flexibility Score: inf
ROOT
ATOM      1  C   UNL     1     -44.837 -26.882   0.118  1.00  0.00     0.000 C 
ENDROOT
BRANCH   1   2
ATOM      2  C   UNL     1     -45.155 -26.286   1.498  1.00  0.00     0.000 C 
BRANCH   2   3
ATOM      3  C   UNL     1     -46.493 -26.786   2.062  1.00  0.00     0.000 C 
BRANCH   3   4
ATOM      4  C   UNL     1     -46.274 -27.948   3.042  1.00  0.00     0.000 C 
BRANCH   4   5
ATOM      5  C   UNL     1     -46.775 -27.645   4.463  1.00  0.00     0.001 C 
BRANCH   5   6
ATOM      6  C   UNL     1     -45.934 -26.640   5.285  1.00  0.00     0.009 C 
BRANCH   6   7
ATOM      7  C   UNL     1     -45.472 -27.082   6.698  1.00  0.00     0.032 C 
ATOM      8  C   UNL     1     -45.187 -28.588   6.800  1.00  0.00     0.014 C 
BRANCH   7   9
ATOM      9  C   UNL     1     -46.391 -26.604   7.792  1.00  0.00     0.044 C 
ATOM     10  O   UNL     1     -46.946 -27.440   8.553  1.00  0.00    -0.550 OA
ATOM     11  O   UNL     1     -46.598 -25.246   8.007  1.00  0.00    -0.550 OA
ENDBRANCH   7   9
ENDBRANCH   6   7
ENDBRANCH   5   6
ENDBRANCH   4   5
ENDBRANCH   3   4
ENDBRANCH   2   3
ENDBRANCH   1   2
BRANCH   1  12
ATOM     12  C   UNL     1     -43.415 -27.468   0.040  1.00  0.00     0.000 C 
BRANCH  12  13
ATOM     13  C   UNL     1     -43.410 -28.949  -0.370  1.00  0.00    -0.000 C 
BRANCH  13  14
ATOM     14  C   UNL     1     -44.809 -29.587  -0.291  1.00  0.00    -0.000 C 
BRANCH  14  15
ATOM     15  C   UNL     1     -45.294 -30.125  -1.647  1.00  0.00    -0.000 C 
BRANCH  15  16
ATOM     16  C   UNL     1     -46.330 -29.202  -2.310  1.00  0.00    -0.000 C 
BRANCH  16  17
ATOM     17  C   UNL     1     -45.693 -28.229  -3.317  1.00  0.00    -0.000 C 
BRANCH  17  18
ATOM     18  C   UNL     1     -46.027 -28.582  -4.774  1.00  0.00    -0.003 C 
ATOM     19  C   UNL     1     -45.590 -27.469  -5.723  1.00  0.00     0.004 C 
ENDBRANCH  17  18
ENDBRANCH  16  17
ENDBRANCH  15  16
ENDBRANCH  14  15
ENDBRANCH  13  14
ENDBRANCH  12  13
ENDBRANCH   1  12
TORSDOF 14
ENDMDL
MODEL 3
REMARK VINA RESULT:    -3.993      2.756      3.947
REMARK INTER + INTRA:          -7.881
REMARK INTER:                  -6.715
REMARK INTRA:                  -1.165
REMARK UNBOUND:                -0.619
REMARK SMILES CCCCCCCCCCCCCC[C@H](C)C(=O)[O-]
REMARK SMILES IDX 9 1 10 2 11 3 12 4 13 5 14 6 15 7 16 8 17 9 18 10 19 11 8 12
REMARK SMILES IDX 7 13 6 14 5 15 4 16 3 17 2 18 1 19
REMARK H PARENT
REMARK Flexibility Score: inf
ROOT
ATOM      1  C   UNL     1     -45.622 -28.299  -3.089  1.00  0.00     0.000 C 
ENDROOT
BRANCH   1   2
ATOM      2  C   UNL     1     -45.682 -28.663  -4.581  1.00  0.00     0.000 C 
BRANCH   2   3
ATOM      3  C   UNL     1     -46.124 -27.483  -5.459  1.00  0.00     0.000 C 
BRANCH   3   4
ATOM      4  C   UNL     1     -46.783 -27.982  -6.754  1.00  0.00     0.000 C 
BRANCH   4   5
ATOM      5  C   UNL     1     -45.792 -28.653  -7.718  1.00  0.00     0.001 C 
BRANCH   5   6
ATOM      6  C   UNL     1     -44.492 -27.869  -8.018  1.00  0.00     0.009 C 
BRANCH   6   7
ATOM      7  C   UNL     1     -43.485 -28.507  -9.011  1.00  0.00     0.032 C 
ATOM      8  C   UNL     1     -44.084 -29.667  -9.821  1.00  0.00     0.014 C 
BRANCH   7   9
ATOM      9  C   UNL     1     -42.179 -28.885  -8.360  1.00  0.00     0.044 C 
ATOM     10  O   UNL     1     -41.813 -28.300  -7.308  1.00  0.00    -0.550 OA
ATOM     11  O   UNL     1     -41.393 -29.907  -8.880  1.00  0.00    -0.550 OA
ENDBRANCH   7   9
ENDBRANCH   6   7
ENDBRANCH   5   6
ENDBRANCH   4   5
ENDBRANCH   3   4
ENDBRANCH   2   3
ENDBRANCH   1   2
BRANCH   1  12
ATOM     12  C   UNL     1     -46.920 -28.654  -2.341  1.00  0.00     0.000 C 
BRANCH  12  13
ATOM     13  C   UNL     1     -46.669 -29.556  -1.123  1.00  0.00    -0.000 C 
BRANCH  13  14
ATOM     14  C   UNL     1     -46.668 -28.772   0.202  1.00  0.00    -0.000 C 
BRANCH  14  15
ATOM     15  C   UNL     1     -45.260 -28.612   0.796  1.00  0.00    -0.000 C 
BRANCH  15  16
ATOM     16  C   UNL     1     -44.699 -27.192   0.608  1.00  0.00    -0.000 C 
BRANCH  16  17
ATOM     17  C   UNL     1     -43.512 -27.152  -0.371  1.00  0.00    -0.000 C 
BRANCH  17  18
ATOM     18  C   UNL     1     -42.738 -28.477  -0.417  1.00  0.00    -0.003 C 
ATOM     19  C   UNL     1     -41.247 -28.250  -0.185  1.00  0.00     0.004 C 
ENDBRANCH  17  18
ENDBRANCH  16  17
ENDBRANCH  15  16
ENDBRANCH  14  15
ENDBRANCH  13  14
ENDBRANCH  12  13
ENDBRANCH   1  12
TORSDOF 14
ENDMDL
MODEL 4
REMARK VINA RESULT:    -3.990      1.261      2.053
REMARK INTER + INTRA:          -7.874
REMARK INTER:                  -6.869
REMARK INTRA:                  -1.004
REMARK UNBOUND:                -0.619
REMARK SMILES CCCCCCCCCCCCCC[C@H](C)C(=O)[O-]
REMARK SMILES IDX 9 1 10 2 11 3 12 4 13 5 14 6 15 7 16 8 17 9 18 10 19 11 8 12
REMARK SMILES IDX 7 13 6 14 5 15 4 16 3 17 2 18 1 19
REMARK H PARENT
REMARK Flexibility Score: inf
ROOT
ATOM      1  C   UNL     1     -43.956 -27.411  -0.157  1.00  0.00     0.000 C 
ENDROOT
BRANCH   1   2
ATOM      2  C   UNL     1     -44.512 -28.833   0.013  1.00  0.00     0.000 C 
BRANCH   2   3
ATOM      3  C   UNL     1     -45.379 -29.273  -1.176  1.00  0.00     0.000 C 
BRANCH   3   4
ATOM      4  C   UNL     1     -45.414 -28.186  -2.261  1.00  0.00     0.000 C 
BRANCH   4   5
ATOM      5  C   UNL     1     -45.964 -28.689  -3.604  1.00  0.00     0.001 C 
BRANCH   5   6
ATOM      6  C   UNL     1     -45.657 -27.811  -4.841  1.00  0.00     0.009 C 
BRANCH   6   7
ATOM      7  C   UNL     1     -45.773 -28.477  -6.237  1.00  0.00     0.032 C 
ATOM      8  C   UNL     1     -45.227 -29.912  -6.272  1.00  0.00     0.014 C 
BRANCH   7   9
ATOM      9  C   UNL     1     -45.203 -27.626  -7.342  1.00  0.00     0.044 C 
ATOM     10  O   UNL     1     -44.002 -27.251  -7.287  1.00  0.00    -0.550 OA
ATOM     11  O   UNL     1     -45.971 -27.287  -8.450  1.00  0.00    -0.550 OA
ENDBRANCH   7   9
ENDBRANCH   6   7
ENDBRANCH   5   6
ENDBRANCH   4   5
ENDBRANCH   3   4
ENDBRANCH   2   3
ENDBRANCH   1   2
BRANCH   1  12
ATOM     12  C   UNL     1     -44.466 -26.442   0.926  1.00  0.00     0.000 C 
BRANCH  12  13
ATOM     13  C   UNL     1     -45.981 -26.556   1.151  1.00  0.00    -0.000 C 
BRANCH  13  14
ATOM     14  C   UNL     1     -46.351 -26.626   2.644  1.00  0.00    -0.000 C 
BRANCH  14  15
ATOM     15  C   UNL     1     -46.390 -28.066   3.179  1.00  0.00    -0.000 C 
BRANCH  15  16
ATOM     16  C   UNL     1     -46.287 -28.128   4.713  1.00  0.00    -0.000 C 
BRANCH  16  17
ATOM     17  C   UNL     1     -46.009 -26.751   5.340  1.00  0.00    -0.000 C 
BRANCH  17  18
ATOM     18  C   UNL     1     -45.502 -26.851   6.786  1.00  0.00    -0.003 C 
ATOM     19  C   UNL     1     -44.954 -28.245   7.081  1.00  0.00     0.004 C 
ENDBRANCH  17  18
ENDBRANCH  16  17
ENDBRANCH  15  16
ENDBRANCH  14  15
ENDBRANCH  13  14
ENDBRANCH  12  13
ENDBRANCH   1  12
TORSDOF 14
ENDMDL
MODEL 5
REMARK VINA RESULT:    -3.967      5.234     10.856
REMARK INTER + INTRA:          -7.832
REMARK INTER:                  -7.221
REMARK INTRA:                  -0.611
REMARK UNBOUND:                -0.619
REMARK SMILES CCCCCCCCCCCCCC[C@H](C)C(=O)[O-]
REMARK SMILES IDX 9 1 10 2 11 3 12 4 13 5 14 6 15 7 16 8 17 9 18 10 19 11 8 12
REMARK SMILES IDX 7 13 6 14 5 15 4 16 3 17 2 18 1 19
REMARK H PARENT
REMARK Flexibility Score: inf
ROOT
ATOM      1  C   UNL     1     -45.580 -28.039  -0.245  1.00  0.00     0.000 C 
ENDROOT
BRANCH   1   2
ATOM      2  C   UNL     1     -44.570 -27.077   0.399  1.00  0.00     0.000 C 
BRANCH   2   3
ATOM      3  C   UNL     1     -45.195 -26.223   1.512  1.00  0.00     0.000 C 
BRANCH   3   4
ATOM      4  C   UNL     1     -46.329 -26.985   2.214  1.00  0.00     0.000 C 
BRANCH   4   5
ATOM      5  C   UNL     1     -46.346 -26.777   3.737  1.00  0.00     0.001 C 
BRANCH   5   6
ATOM      6  C   UNL     1     -46.421 -28.059   4.601  1.00  0.00     0.009 C 
BRANCH   6   7
ATOM      7  C   UNL     1     -45.497 -28.137   5.844  1.00  0.00     0.032 C 
ATOM      8  C   UNL     1     -45.218 -29.577   6.303  1.00  0.00     0.014 C 
BRANCH   7   9
ATOM      9  C   UNL     1     -45.962 -27.261   6.978  1.00  0.00     0.044 C 
ATOM     10  O   UNL     1     -45.634 -26.046   7.004  1.00  0.00    -0.550 OA
ATOM     11  O   UNL     1     -46.792 -27.764   7.973  1.00  0.00    -0.550 OA
ENDBRANCH   7   9
ENDBRANCH   6   7
ENDBRANCH   5   6
ENDBRANCH   4   5
ENDBRANCH   3   4
ENDBRANCH   2   3
ENDBRANCH   1   2
BRANCH   1  12
ATOM     12  C   UNL     1     -44.899 -29.225  -0.954  1.00  0.00     0.000 C 
BRANCH  12  13
ATOM     13  C   UNL     1     -45.412 -29.426  -2.389  1.00  0.00    -0.000 C 
BRANCH  13  14
ATOM     14  C   UNL     1     -45.632 -28.094  -3.128  1.00  0.00    -0.000 C 
BRANCH  14  15
ATOM     15  C   UNL     1     -46.159 -28.289  -4.559  1.00  0.00    -0.000 C 
BRANCH  15  16
ATOM     16  C   UNL     1     -45.325 -27.528  -5.603  1.00  0.00    -0.000 C 
BRANCH  16  17
ATOM     17  C   UNL     1     -44.541 -28.471  -6.532  1.00  0.00    -0.000 C 
BRANCH  17  18
ATOM     18  C   UNL     1     -43.630 -27.716  -7.511  1.00  0.00    -0.003 C 
ATOM     19  C   UNL     1     -42.628 -28.661  -8.169  1.00  0.00     0.004 C 
ENDBRANCH  17  18
ENDBRANCH  16  17
ENDBRANCH  15  16
ENDBRANCH  14  15
ENDBRANCH  13  14
ENDBRANCH  12  13
ENDBRANCH   1  12
TORSDOF 14
ENDMDL
MODEL 6
REMARK VINA RESULT:    -3.888      5.187      9.993
REMARK INTER + INTRA:          -7.690
REMARK INTER:                  -6.522
REMARK INTRA:                  -1.168
REMARK UNBOUND:                -0.619
REMARK SMILES CCCCCCCCCCCCCC[C@H](C)C(=O)[O-]
REMARK SMILES IDX 9 1 10 2 11 3 12 4 13 5 14 6 15 7 16 8 17 9 18 10 19 11 8 12
REMARK SMILES IDX 7 13 6 14 5 15 4 16 3 17 2 18 1 19
REMARK H PARENT
REMARK Flexibility Score: inf
ROOT
ATOM      1  C   UNL     1     -43.428 -28.275  -0.374  1.00  0.00     0.000 C 
ENDROOT
BRANCH   1   2
ATOM      2  C   UNL     1     -44.097 -27.008   0.180  1.00  0.00     0.000 C 
BRANCH   2   3
ATOM      3  C   UNL     1     -45.383 -27.315   0.964  1.00  0.00     0.000 C 
BRANCH   3   4
ATOM      4  C   UNL     1     -45.754 -26.144   1.886  1.00  0.00     0.000 C 
BRANCH   4   5
ATOM      5  C   UNL     1     -47.089 -26.351   2.619  1.00  0.00     0.001 C 
BRANCH   5   6
ATOM      6  C   UNL     1     -47.012 -26.464   4.160  1.00  0.00     0.009 C 
BRANCH   6   7
ATOM      7  C   UNL     1     -45.991 -27.470   4.753  1.00  0.00     0.032 C 
ATOM      8  C   UNL     1     -46.397 -28.938   4.549  1.00  0.00     0.014 C 
BRANCH   7   9
ATOM      9  C   UNL     1     -45.639 -27.173   6.187  1.00  0.00     0.044 C 
ATOM     10  O   UNL     1     -45.863 -26.029   6.662  1.00  0.00    -0.550 OA
ATOM     11  O   UNL     1     -45.113 -28.161   7.012  1.00  0.00    -0.550 OA
ENDBRANCH   7   9
ENDBRANCH   6   7
ENDBRANCH   5   6
ENDBRANCH   4   5
ENDBRANCH   3   4
ENDBRANCH   2   3
ENDBRANCH   1   2
BRANCH   1  12
ATOM     12  C   UNL     1     -44.300 -29.532  -0.198  1.00  0.00     0.000 C 
BRANCH  12  13
ATOM     13  C   UNL     1     -44.866 -30.047  -1.530  1.00  0.00    -0.000 C 
BRANCH  13  14
ATOM     14  C   UNL     1     -46.356 -29.702  -1.710  1.00  0.00    -0.000 C 
BRANCH  14  15
ATOM     15  C   UNL     1     -46.587 -28.587  -2.742  1.00  0.00    -0.000 C 
BRANCH  15  16
ATOM     16  C   UNL     1     -45.641 -28.698  -3.950  1.00  0.00    -0.000 C 
BRANCH  16  17
ATOM     17  C   UNL     1     -45.827 -27.545  -4.952  1.00  0.00    -0.000 C 
BRANCH  17  18
ATOM     18  C   UNL     1     -44.982 -27.722  -6.222  1.00  0.00    -0.003 C 
ATOM     19  C   UNL     1     -45.772 -27.323  -7.466  1.00  0.00     0.004 C 
ENDBRANCH  17  18
ENDBRANCH  16  17
ENDBRANCH  15  16
ENDBRANCH  14  15
ENDBRANCH  13  14
ENDBRANCH  12  13
ENDBRANCH   1  12
TORSDOF 14
ENDMDL
MODEL 7
REMARK VINA RESULT:    -3.840      4.248      9.622
REMARK INTER + INTRA:          -7.602
REMARK INTER:                  -6.206
REMARK INTRA:                  -1.396
REMARK UNBOUND:                -0.619
REMARK SMILES CCCCCCCCCCCCCC[C@H](C)C(=O)[O-]
REMARK SMILES IDX 9 1 10 2 11 3 12 4 13 5 14 6 15 7 16 8 17 9 18 10 19 11 8 12
REMARK SMILES IDX 7 13 6 14 5 15 4 16 3 17 2 18 1 19
REMARK H PARENT
REMARK Flexibility Score: inf
ROOT
ATOM      1  C   UNL     1     -45.659 -27.496  -4.875  1.00  0.00     0.000 C 
ENDROOT
BRANCH   1   2
ATOM      2  C   UNL     1     -45.541 -28.425  -3.657  1.00  0.00     0.000 C 
BRANCH   2   3
ATOM      3  C   UNL     1     -46.909 -28.825  -3.084  1.00  0.00     0.000 C 
BRANCH   3   4
ATOM      4  C   UNL     1     -46.754 -29.899  -1.997  1.00  0.00     0.000 C 
BRANCH   4   5
ATOM      5  C   UNL     1     -45.426 -29.799  -1.231  1.00  0.00     0.001 C 
BRANCH   5   6
ATOM      6  C   UNL     1     -45.455 -28.981   0.082  1.00  0.00     0.009 C 
BRANCH   6   7
ATOM      7  C   UNL     1     -45.153 -27.462  -0.015  1.00  0.00     0.032 C 
ATOM      8  C   UNL     1     -43.706 -27.156  -0.432  1.00  0.00     0.014 C 
BRANCH   7   9
ATOM      9  C   UNL     1     -45.559 -26.703   1.222  1.00  0.00     0.044 C 
ATOM     10  O   UNL     1     -46.224 -27.281   2.120  1.00  0.00    -0.550 OA
ATOM     11  O   UNL     1     -45.167 -25.382   1.408  1.00  0.00    -0.550 OA
ENDBRANCH   7   9
ENDBRANCH   6   7
ENDBRANCH   5   6
ENDBRANCH   4   5
ENDBRANCH   3   4
ENDBRANCH   2   3
ENDBRANCH   1   2
BRANCH   1  12
ATOM     12  C   UNL     1     -47.077 -27.487  -5.476  1.00  0.00     0.000 C 
BRANCH  12  13
ATOM     13  C   UNL     1     -47.066 -27.538  -7.012  1.00  0.00    -0.000 C 
BRANCH  13  14
ATOM     14  C   UNL     1     -46.071 -28.578  -7.559  1.00  0.00    -0.000 C 
BRANCH  14  15
ATOM     15  C   UNL     1     -45.787 -28.396  -9.059  1.00  0.00    -0.000 C 
BRANCH  15  16
ATOM     16  C   UNL     1     -44.306 -28.097  -9.345  1.00  0.00    -0.000 C 
BRANCH  16  17
ATOM     17  C   UNL     1     -43.531 -27.688  -8.081  1.00  0.00    -0.000 C 
BRANCH  17  18
ATOM     18  C   UNL     1     -42.381 -28.652  -7.754  1.00  0.00    -0.003 C 
ATOM     19  C   UNL     1     -41.953 -29.436  -8.991  1.00  0.00     0.004 C 
ENDBRANCH  17  18
ENDBRANCH  16  17
ENDBRANCH  15  16
ENDBRANCH  14  15
ENDBRANCH  13  14
ENDBRANCH  12  13
ENDBRANCH   1  12
TORSDOF 14
ENDMDL
MODEL 8
REMARK VINA RESULT:    -3.782      3.665      9.179
REMARK INTER + INTRA:          -7.497
REMARK INTER:                  -6.090
REMARK INTRA:                  -1.407
REMARK UNBOUND:                -0.619
REMARK SMILES CCCCCCCCCCCCCC[C@H](C)C(=O)[O-]
REMARK SMILES IDX 9 1 10 2 11 3 12 4 13 5 14 6 15 7 16 8 17 9 18 10 19 11 8 12
REMARK SMILES IDX 7 13 6 14 5 15 4 16 3 17 2 18 1 19
REMARK H PARENT
REMARK Flexibility Score: inf
ROOT
ATOM      1  C   UNL     1     -44.602 -27.546  -1.792  1.00  0.00     0.000 C 
ENDROOT
BRANCH   1   2
ATOM      2  C   UNL     1     -43.838 -28.199  -0.629  1.00  0.00     0.000 C 
BRANCH   2   3
ATOM      3  C   UNL     1     -44.321 -29.627  -0.333  1.00  0.00     0.000 C 
BRANCH   3   4
ATOM      4  C   UNL     1     -44.964 -29.709   1.059  1.00  0.00     0.000 C 
BRANCH   4   5
ATOM      5  C   UNL     1     -46.498 -29.623   1.023  1.00  0.00     0.001 C 
BRANCH   5   6
ATOM      6  C   UNL     1     -47.125 -28.342   1.624  1.00  0.00     0.009 C 
BRANCH   6   7
ATOM      7  C   UNL     1     -46.164 -27.316   2.281  1.00  0.00     0.032 C 
ATOM      8  C   UNL     1     -46.498 -27.028   3.752  1.00  0.00     0.014 C 
BRANCH   7   9
ATOM      9  C   UNL     1     -46.015 -26.052   1.474  1.00  0.00     0.044 C 
ATOM     10  O   UNL     1     -44.869 -25.575   1.264  1.00  0.00    -0.550 OA
ATOM     11  O   UNL     1     -47.125 -25.428   0.916  1.00  0.00    -0.550 OA
ENDBRANCH   7   9
ENDBRANCH   6   7
ENDBRANCH   5   6
ENDBRANCH   4   5
ENDBRANCH   3   4
ENDBRANCH   2   3
ENDBRANCH   1   2
BRANCH   1  12
ATOM     12  C   UNL     1     -45.904 -28.292  -2.137  1.00  0.00     0.000 C 
BRANCH  12  13
ATOM     13  C   UNL     1     -45.864 -28.932  -3.533  1.00  0.00    -0.000 C 
BRANCH  13  14
ATOM     14  C   UNL     1     -46.060 -27.901  -4.659  1.00  0.00    -0.000 C 
BRANCH  14  15
ATOM     15  C   UNL     1     -46.818 -28.478  -5.866  1.00  0.00    -0.000 C 
BRANCH  15  16
ATOM     16  C   UNL     1     -46.024 -28.350  -7.177  1.00  0.00    -0.000 C 
BRANCH  16  17
ATOM     17  C   UNL     1     -44.885 -27.321  -7.078  1.00  0.00    -0.000 C 
BRANCH  17  18
ATOM     18  C   UNL     1     -43.506 -27.933  -7.366  1.00  0.00    -0.003 C 
ATOM     19  C   UNL     1     -43.625 -29.416  -7.707  1.00  0.00     0.004 C 
ENDBRANCH  17  18
ENDBRANCH  16  17
ENDBRANCH  15  16
ENDBRANCH  14  15
ENDBRANCH  13  14
ENDBRANCH  12  13
ENDBRANCH   1  12
TORSDOF 14
ENDMDL
MODEL 9
REMARK VINA RESULT:    -3.774      3.521      9.509
REMARK INTER + INTRA:          -7.483
REMARK INTER:                  -6.334
REMARK INTRA:                  -1.149
REMARK UNBOUND:                -0.619
REMARK SMILES CCCCCCCCCCCCCC[C@H](C)C(=O)[O-]
REMARK SMILES IDX 9 1 10 2 11 3 12 4 13 5 14 6 15 7 16 8 17 9 18 10 19 11 8 12
REMARK SMILES IDX 7 13 6 14 5 15 4 16 3 17 2 18 1 19
REMARK H PARENT
REMARK Flexibility Score: inf
ROOT
ATOM      1  C   UNL     1     -45.364 -27.582  -5.120  1.00  0.00     0.000 C 
ENDROOT
BRANCH   1   2
ATOM      2  C   UNL     1     -46.817 -27.893  -4.730  1.00  0.00     0.000 C 
BRANCH   2   3
ATOM      3  C   UNL     1     -46.914 -28.854  -3.535  1.00  0.00     0.000 C 
BRANCH   3   4
ATOM      4  C   UNL     1     -45.545 -29.471  -3.216  1.00  0.00     0.000 C 
BRANCH   4   5
ATOM      5  C   UNL     1     -45.271 -29.591  -1.708  1.00  0.00     0.001 C 
BRANCH   5   6
ATOM      6  C   UNL     1     -45.703 -28.388  -0.837  1.00  0.00     0.009 C 
BRANCH   6   7
ATOM      7  C   UNL     1     -44.653 -27.803   0.145  1.00  0.00     0.032 C 
ATOM      8  C   UNL     1     -45.216 -26.691   1.043  1.00  0.00     0.014 C 
BRANCH   7   9
ATOM      9  C   UNL     1     -43.377 -27.388  -0.540  1.00  0.00     0.044 C 
ATOM     10  O   UNL     1     -43.418 -26.578  -1.503  1.00  0.00    -0.550 OA
ATOM     11  O   UNL     1     -42.145 -27.851  -0.093  1.00  0.00    -0.550 OA
ENDBRANCH   7   9
ENDBRANCH   6   7
ENDBRANCH   5   6
ENDBRANCH   4   5
ENDBRANCH   3   4
ENDBRANCH   2   3
ENDBRANCH   1   2
BRANCH   1  12
ATOM     12  C   UNL     1     -45.235 -27.079  -6.569  1.00  0.00     0.000 C 
BRANCH  12  13
ATOM     13  C   UNL     1     -46.088 -27.894  -7.554  1.00  0.00    -0.000 C 
BRANCH  13  14
ATOM     14  C   UNL     1     -45.680 -27.660  -9.020  1.00  0.00    -0.000 C 
BRANCH  14  15
ATOM     15  C   UNL     1     -44.492 -28.533  -9.452  1.00  0.00    -0.000 C 
BRANCH  15  16
ATOM     16  C   UNL     1     -44.338 -29.792  -8.580  1.00  0.00    -0.000 C 
BRANCH  16  17
ATOM     17  C   UNL     1     -42.998 -29.825  -7.825  1.00  0.00    -0.000 C 
BRANCH  17  18
ATOM     18  C   UNL     1     -41.854 -29.179  -8.620  1.00  0.00    -0.003 C 
ATOM     19  C   UNL     1     -41.333 -30.124  -9.699  1.00  0.00     0.004 C 
ENDBRANCH  17  18
ENDBRANCH  16  17
ENDBRANCH  15  16
ENDBRANCH  14  15
ENDBRANCH  13  14
ENDBRANCH  12  13
ENDBRANCH   1  12
TORSDOF 14
ENDMDL
