MODEL 1
REMARK VINA RESULT:    -5.129      0.000      0.000
REMARK INTER + INTRA:         -11.016
REMARK INTER:                  -9.326
REMARK INTRA:                  -1.690
REMARK UNBOUND:                -1.690
REMARK SMILES CCCCCCCCCCCCCC[C@H](C)C(=O)[O-]
REMARK SMILES IDX 9 1 10 2 11 3 12 4 13 5 14 6 15 7 16 8 17 9 18 10 19 11 8 12
REMARK SMILES IDX 7 13 6 14 5 15 4 16 3 17 2 18 1 19
REMARK H PARENT
REMARK Flexibility Score: inf
ROOT
ATOM      1  C   UNL     1      41.585  20.671  14.091  1.00  0.00     0.000 C 
ENDROOT
BRANCH   1   2
ATOM      2  C   UNL     1      42.879  20.921  13.294  1.00  0.00     0.000 C 
BRANCH   2   3
ATOM      3  C   UNL     1      43.154  22.390  12.919  1.00  0.00     0.000 C 
BRANCH   3   4
ATOM      4  C   UNL     1      42.850  22.700  11.444  1.00  0.00     0.000 C 
BRANCH   4   5
ATOM      5  C   UNL     1      42.902  21.447  10.555  1.00  0.00     0.001 C 
BRANCH   5   6
ATOM      6  C   UNL     1      43.165  21.778   9.074  1.00  0.00     0.009 C 
BRANCH   6   7
ATOM      7  C   UNL     1      41.989  21.374   8.158  1.00  0.00     0.032 C 
ATOM      8  C   UNL     1      40.672  21.225   8.933  1.00  0.00     0.014 C 
BRANCH   7   9
ATOM      9  C   UNL     1      42.310  20.087   7.447  1.00  0.00     0.044 C 
ATOM     10  O   UNL     1      42.973  20.096   6.376  1.00  0.00    -0.550 OA
ATOM     11  O   UNL     1      41.871  18.877   7.969  1.00  0.00    -0.550 OA
ENDBRANCH   7   9
ENDBRANCH   6   7
ENDBRANCH   5   6
ENDBRANCH   4   5
ENDBRANCH   3   4
ENDBRANCH   2   3
ENDBRANCH   1   2
BRANCH   1  12
ATOM     12  C   UNL     1      40.834  19.408  13.636  1.00  0.00     0.000 C 
BRANCH  12  13
ATOM     13  C   UNL     1      40.647  19.337  12.109  1.00  0.00    -0.000 C 
BRANCH  13  14
ATOM     14  C   UNL     1      40.914  17.961  11.473  1.00  0.00    -0.000 C 
BRANCH  14  15
ATOM     15  C   UNL     1      42.012  17.166  12.200  1.00  0.00    -0.000 C 
BRANCH  15  16
ATOM     16  C   UNL     1      43.428  17.614  11.801  1.00  0.00    -0.000 C 
BRANCH  16  17
ATOM     17  C   UNL     1      44.527  16.782  12.479  1.00  0.00    -0.000 C 
BRANCH  17  18
ATOM     18  C   UNL     1      44.269  15.282  12.294  1.00  0.00    -0.003 C 
ATOM     19  C   UNL     1      45.578  14.509  12.157  1.00  0.00     0.004 C 
ENDBRANCH  17  18
ENDBRANCH  16  17
ENDBRANCH  15  16
ENDBRANCH  14  15
ENDBRANCH  13  14
ENDBRANCH  12  13
ENDBRANCH   1  12
TORSDOF 14
ENDMDL
MODEL 2
REMARK VINA RESULT:    -5.113      2.211      4.231
REMARK INTER + INTRA:         -10.987
REMARK INTER:                  -8.896
REMARK INTRA:                  -2.091
REMARK UNBOUND:                -1.690
REMARK SMILES CCCCCCCCCCCCCC[C@H](C)C(=O)[O-]
REMARK SMILES IDX 9 1 10 2 11 3 12 4 13 5 14 6 15 7 16 8 17 9 18 10 19 11 8 12
REMARK SMILES IDX 7 13 6 14 5 15 4 16 3 17 2 18 1 19
REMARK H PARENT
REMARK Flexibility Score: inf
ROOT
ATOM      1  C   UNL     1      42.817  22.113  11.573  1.00  0.00     0.000 C 
ENDROOT
BRANCH   1   2
ATOM      2  C   UNL     1      42.550  21.293  10.297  1.00  0.00     0.000 C 
BRANCH   2   3
ATOM      3  C   UNL     1      41.230  21.608   9.570  1.00  0.00     0.000 C 
BRANCH   3   4
ATOM      4  C   UNL     1      40.980  20.698   8.355  1.00  0.00     0.000 C 
BRANCH   4   5
ATOM      5  C   UNL     1      42.250  19.958   7.903  1.00  0.00     0.001 C 
BRANCH   5   6
ATOM      6  C   UNL     1      42.722  20.390   6.502  1.00  0.00     0.009 C 
BRANCH   6   7
ATOM      7  C   UNL     1      44.114  21.057   6.524  1.00  0.00     0.032 C 
ATOM      8  C   UNL     1      44.082  22.450   7.170  1.00  0.00     0.014 C 
BRANCH   7   9
ATOM      9  C   UNL     1      44.661  21.157   5.126  1.00  0.00     0.044 C 
ATOM     10  O   UNL     1      44.956  22.278   4.633  1.00  0.00    -0.550 OA
ATOM     11  O   UNL     1      44.840  20.007   4.367  1.00  0.00    -0.550 OA
ENDBRANCH   7   9
ENDBRANCH   6   7
ENDBRANCH   5   6
ENDBRANCH   4   5
ENDBRANCH   3   4
ENDBRANCH   2   3
ENDBRANCH   1   2
BRANCH   1  12
ATOM     12  C   UNL     1      43.076  21.234  12.809  1.00  0.00     0.000 C 
BRANCH  12  13
ATOM     13  C   UNL     1      43.282  19.748  12.458  1.00  0.00    -0.000 C 
BRANCH  13  14
ATOM     14  C   UNL     1      42.174  18.795  12.941  1.00  0.00    -0.000 C 
BRANCH  14  15
ATOM     15  C   UNL     1      41.849  17.688  11.924  1.00  0.00    -0.000 C 
BRANCH  15  16
ATOM     16  C   UNL     1      40.677  18.060  10.999  1.00  0.00    -0.000 C 
BRANCH  16  17
ATOM     17  C   UNL     1      39.670  19.006  11.671  1.00  0.00    -0.000 C 
BRANCH  17  18
ATOM     18  C   UNL     1      38.455  19.242  10.766  1.00  0.00    -0.003 C 
ATOM     19  C   UNL     1      37.172  18.745  11.425  1.00  0.00     0.004 C 
ENDBRANCH  17  18
ENDBRANCH  16  17
ENDBRANCH  15  16
ENDBRANCH  14  15
ENDBRANCH  13  14
ENDBRANCH  12  13
ENDBRANCH   1  12
TORSDOF 14
ENDMDL
MODEL 3
REMARK VINA RESULT:    -4.971      1.575      3.695
REMARK INTER + INTRA:         -10.729
REMARK INTER:                  -8.928
REMARK INTRA:                  -1.801
REMARK UNBOUND:                -1.690
REMARK SMILES CCCCCCCCCCCCCC[C@H](C)C(=O)[O-]
REMARK SMILES IDX 9 1 10 2 11 3 12 4 13 5 14 6 15 7 16 8 17 9 18 10 19 11 8 12
REMARK SMILES IDX 7 13 6 14 5 15 4 16 3 17 2 18 1 19
REMARK H PARENT
REMARK Flexibility Score: inf
ROOT
ATOM      1  C   UNL     1      44.061  19.209  12.317  1.00  0.00     0.000 C 
ENDROOT
BRANCH   1   2
ATOM      2  C   UNL     1      43.716  20.445  13.169  1.00  0.00     0.000 C 
BRANCH   2   3
ATOM      3  C   UNL     1      42.579  21.329  12.625  1.00  0.00     0.000 C 
BRANCH   3   4
ATOM      4  C   UNL     1      43.084  22.642  12.004  1.00  0.00     0.000 C 
BRANCH   4   5
ATOM      5  C   UNL     1      43.062  22.615  10.467  1.00  0.00     0.001 C 
BRANCH   5   6
ATOM      6  C   UNL     1      42.583  21.264   9.903  1.00  0.00     0.009 C 
BRANCH   6   7
ATOM      7  C   UNL     1      41.848  21.412   8.553  1.00  0.00     0.032 C 
ATOM      8  C   UNL     1      40.326  21.514   8.728  1.00  0.00     0.014 C 
BRANCH   7   9
ATOM      9  C   UNL     1      42.181  20.251   7.655  1.00  0.00     0.044 C 
ATOM     10  O   UNL     1      42.801  20.436   6.575  1.00  0.00    -0.550 OA
ATOM     11  O   UNL     1      41.802  18.964   8.015  1.00  0.00    -0.550 OA
ENDBRANCH   7   9
ENDBRANCH   6   7
ENDBRANCH   5   6
ENDBRANCH   4   5
ENDBRANCH   3   4
ENDBRANCH   2   3
ENDBRANCH   1   2
BRANCH   1  12
ATOM     12  C   UNL     1      43.734  17.881  13.023  1.00  0.00     0.000 C 
BRANCH  12  13
ATOM     13  C   UNL     1      42.624  17.082  12.315  1.00  0.00    -0.000 C 
BRANCH  13  14
ATOM     14  C   UNL     1      41.963  17.787  11.116  1.00  0.00    -0.000 C 
BRANCH  14  15
ATOM     15  C   UNL     1      40.428  17.815  11.207  1.00  0.00    -0.000 C 
BRANCH  15  16
ATOM     16  C   UNL     1      39.895  19.143  11.773  1.00  0.00    -0.000 C 
BRANCH  16  17
ATOM     17  C   UNL     1      38.579  19.582  11.114  1.00  0.00    -0.000 C 
BRANCH  17  18
ATOM     18  C   UNL     1      37.611  18.401  10.985  1.00  0.00    -0.003 C 
ATOM     19  C   UNL     1      36.405  18.572  11.905  1.00  0.00     0.004 C 
ENDBRANCH  17  18
ENDBRANCH  16  17
ENDBRANCH  15  16
ENDBRANCH  14  15
ENDBRANCH  13  14
ENDBRANCH  12  13
ENDBRANCH   1  12
TORSDOF 14
ENDMDL
MODEL 4
REMARK VINA RESULT:    -4.953      2.055      4.174
REMARK INTER + INTRA:         -10.696
REMARK INTER:                  -8.487
REMARK INTRA:                  -2.209
REMARK UNBOUND:                -1.690
REMARK SMILES CCCCCCCCCCCCCC[C@H](C)C(=O)[O-]
REMARK SMILES IDX 9 1 10 2 11 3 12 4 13 5 14 6 15 7 16 8 17 9 18 10 19 11 8 12
REMARK SMILES IDX 7 13 6 14 5 15 4 16 3 17 2 18 1 19
REMARK H PARENT
REMARK Flexibility Score: inf
ROOT
ATOM      1  C   UNL     1      42.121  22.409   9.924  1.00  0.00     0.000 C 
ENDROOT
BRANCH   1   2
ATOM      2  C   UNL     1      41.176  21.582   9.032  1.00  0.00     0.000 C 
BRANCH   2   3
ATOM      3  C   UNL     1      41.847  20.464   8.213  1.00  0.00     0.000 C 
BRANCH   3   4
ATOM      4  C   UNL     1      41.219  19.081   8.457  1.00  0.00     0.000 C 
BRANCH   4   5
ATOM      5  C   UNL     1      41.854  18.347   9.649  1.00  0.00     0.001 C 
BRANCH   5   6
ATOM      6  C   UNL     1      40.810  17.851  10.667  1.00  0.00     0.009 C 
BRANCH   6   7
ATOM      7  C   UNL     1      39.955  18.999  11.246  1.00  0.00     0.032 C 
ATOM      8  C   UNL     1      40.183  19.193  12.752  1.00  0.00     0.014 C 
BRANCH   7   9
ATOM      9  C   UNL     1      38.497  18.739  10.982  1.00  0.00     0.044 C 
ATOM     10  O   UNL     1      38.100  18.444   9.823  1.00  0.00    -0.550 OA
ATOM     11  O   UNL     1      37.576  18.825  12.019  1.00  0.00    -0.550 OA
ENDBRANCH   7   9
ENDBRANCH   6   7
ENDBRANCH   5   6
ENDBRANCH   4   5
ENDBRANCH   3   4
ENDBRANCH   2   3
ENDBRANCH   1   2
BRANCH   1  12
ATOM     12  C   UNL     1      42.999  21.538  10.840  1.00  0.00     0.000 C 
BRANCH  12  13
ATOM     13  C   UNL     1      42.768  21.818  12.337  1.00  0.00    -0.000 C 
BRANCH  13  14
ATOM     14  C   UNL     1      43.502  20.875  13.308  1.00  0.00    -0.000 C 
BRANCH  14  15
ATOM     15  C   UNL     1      44.310  19.781  12.587  1.00  0.00    -0.000 C 
BRANCH  15  16
ATOM     16  C   UNL     1      43.663  18.392  12.713  1.00  0.00    -0.000 C 
BRANCH  16  17
ATOM     17  C   UNL     1      44.568  17.267  12.186  1.00  0.00    -0.000 C 
BRANCH  17  18
ATOM     18  C   UNL     1      43.987  15.891  12.532  1.00  0.00    -0.003 C 
ATOM     19  C   UNL     1      44.968  14.775  12.186  1.00  0.00     0.004 C 
ENDBRANCH  17  18
ENDBRANCH  16  17
ENDBRANCH  15  16
ENDBRANCH  14  15
ENDBRANCH  13  14
ENDBRANCH  12  13
ENDBRANCH   1  12
TORSDOF 14
ENDMDL
MODEL 5
REMARK VINA RESULT:    -4.821      2.040      4.119
REMARK INTER + INTRA:         -10.457
REMARK INTER:                  -8.457
REMARK INTRA:                  -2.000
REMARK UNBOUND:                -1.690
REMARK SMILES CCCCCCCCCCCCCC[C@H](C)C(=O)[O-]
REMARK SMILES IDX 9 1 10 2 11 3 12 4 13 5 14 6 15 7 16 8 17 9 18 10 19 11 8 12
REMARK SMILES IDX 7 13 6 14 5 15 4 16 3 17 2 18 1 19
REMARK H PARENT
REMARK Flexibility Score: inf
ROOT
ATOM      1  C   UNL     1      40.362  18.597  10.292  1.00  0.00     0.000 C 
ENDROOT
BRANCH   1   2
ATOM      2  C   UNL     1      39.720  19.981  10.080  1.00  0.00     0.000 C 
BRANCH   2   3
ATOM      3  C   UNL     1      40.515  20.951   9.186  1.00  0.00     0.000 C 
BRANCH   3   4
ATOM      4  C   UNL     1      41.399  20.230   8.155  1.00  0.00     0.000 C 
BRANCH   4   5
ATOM      5  C   UNL     1      42.698  20.994   7.854  1.00  0.00     0.001 C 
BRANCH   5   6
ATOM      6  C   UNL     1      43.285  20.649   6.473  1.00  0.00     0.009 C 
BRANCH   6   7
ATOM      7  C   UNL     1      44.635  21.352   6.210  1.00  0.00     0.032 C 
ATOM      8  C   UNL     1      44.593  22.845   6.565  1.00  0.00     0.014 C 
BRANCH   7   9
ATOM      9  C   UNL     1      45.032  21.182   4.769  1.00  0.00     0.044 C 
ATOM     10  O   UNL     1      45.636  22.104   4.159  1.00  0.00    -0.550 OA
ATOM     11  O   UNL     1      44.732  20.002   4.100  1.00  0.00    -0.550 OA
ENDBRANCH   7   9
ENDBRANCH   6   7
ENDBRANCH   5   6
ENDBRANCH   4   5
ENDBRANCH   3   4
ENDBRANCH   2   3
ENDBRANCH   1   2
BRANCH   1  12
ATOM     12  C   UNL     1      40.337  18.142  11.762  1.00  0.00     0.000 C 
BRANCH  12  13
ATOM     13  C   UNL     1      41.592  17.345  12.166  1.00  0.00    -0.000 C 
BRANCH  13  14
ATOM     14  C   UNL     1      42.847  17.612  11.316  1.00  0.00    -0.000 C 
BRANCH  14  15
ATOM     15  C   UNL     1      44.091  17.930  12.164  1.00  0.00    -0.000 C 
BRANCH  15  16
ATOM     16  C   UNL     1      44.243  19.434  12.448  1.00  0.00    -0.000 C 
BRANCH  16  17
ATOM     17  C   UNL     1      43.393  20.303  11.508  1.00  0.00    -0.000 C 
BRANCH  17  18
ATOM     18  C   UNL     1      42.672  21.408  12.289  1.00  0.00    -0.003 C 
ATOM     19  C   UNL     1      42.201  20.904  13.651  1.00  0.00     0.004 C 
ENDBRANCH  17  18
ENDBRANCH  16  17
ENDBRANCH  15  16
ENDBRANCH  14  15
ENDBRANCH  13  14
ENDBRANCH  12  13
ENDBRANCH   1  12
TORSDOF 14
ENDMDL
MODEL 6
REMARK VINA RESULT:    -4.804      1.962      3.066
REMARK INTER + INTRA:         -10.426
REMARK INTER:                  -8.806
REMARK INTRA:                  -1.620
REMARK UNBOUND:                -1.690
REMARK SMILES CCCCCCCCCCCCCC[C@H](C)C(=O)[O-]
REMARK SMILES IDX 9 1 10 2 11 3 12 4 13 5 14 6 15 7 16 8 17 9 18 10 19 11 8 12
REMARK SMILES IDX 7 13 6 14 5 15 4 16 3 17 2 18 1 19
REMARK H PARENT
REMARK Flexibility Score: inf
ROOT
ATOM      1  C   UNL     1      43.120  23.104  12.523  1.00  0.00     0.000 C 
ENDROOT
BRANCH   1   2
ATOM      2  C   UNL     1      42.386  22.705  11.229  1.00  0.00     0.000 C 
BRANCH   2   3
ATOM      3  C   UNL     1      43.216  22.813   9.936  1.00  0.00     0.000 C 
BRANCH   3   4
ATOM      4  C   UNL     1      42.652  21.961   8.787  1.00  0.00     0.000 C 
BRANCH   4   5
ATOM      5  C   UNL     1      41.143  21.700   8.933  1.00  0.00     0.001 C 
BRANCH   5   6
ATOM      6  C   UNL     1      40.751  20.256   8.564  1.00  0.00     0.009 C 
BRANCH   6   7
ATOM      7  C   UNL     1      41.098  19.245   9.679  1.00  0.00     0.032 C 
ATOM      8  C   UNL     1      41.761  17.975   9.126  1.00  0.00     0.014 C 
BRANCH   7   9
ATOM      9  C   UNL     1      39.857  18.878  10.446  1.00  0.00     0.044 C 
ATOM     10  O   UNL     1      38.802  19.554  10.316  1.00  0.00    -0.550 OA
ATOM     11  O   UNL     1      39.869  17.788  11.307  1.00  0.00    -0.550 OA
ENDBRANCH   7   9
ENDBRANCH   6   7
ENDBRANCH   5   6
ENDBRANCH   4   5
ENDBRANCH   3   4
ENDBRANCH   2   3
ENDBRANCH   1   2
BRANCH   1  12
ATOM     12  C   UNL     1      42.567  22.393  13.771  1.00  0.00     0.000 C 
BRANCH  12  13
ATOM     13  C   UNL     1      42.437  20.869  13.587  1.00  0.00    -0.000 C 
BRANCH  13  14
ATOM     14  C   UNL     1      43.759  20.117  13.350  1.00  0.00    -0.000 C 
BRANCH  14  15
ATOM     15  C   UNL     1      43.697  19.153  12.152  1.00  0.00    -0.000 C 
BRANCH  15  16
ATOM     16  C   UNL     1      43.151  17.768  12.537  1.00  0.00    -0.000 C 
BRANCH  16  17
ATOM     17  C   UNL     1      44.264  16.771  12.894  1.00  0.00    -0.000 C 
BRANCH  17  18
ATOM     18  C   UNL     1      44.243  15.567  11.945  1.00  0.00    -0.003 C 
ATOM     19  C   UNL     1      45.352  14.576  12.287  1.00  0.00     0.004 C 
ENDBRANCH  17  18
ENDBRANCH  16  17
ENDBRANCH  15  16
ENDBRANCH  14  15
ENDBRANCH  13  14
ENDBRANCH  12  13
ENDBRANCH   1  12
TORSDOF 14
ENDMDL
MODEL 7
REMARK VINA RESULT:    -4.786      2.861      5.692
REMARK INTER + INTRA:         -10.394
REMARK INTER:                  -8.322
REMARK INTRA:                  -2.071
REMARK UNBOUND:                -1.690
REMARK SMILES CCCCCCCCCCCCCC[C@H](C)C(=O)[O-]
REMARK SMILES IDX 9 1 10 2 11 3 12 4 13 5 14 6 15 7 16 8 17 9 18 10 19 11 8 12
REMARK SMILES IDX 7 13 6 14 5 15 4 16 3 17 2 18 1 19
REMARK H PARENT
REMARK Flexibility Score: inf
ROOT
ATOM      1  C   UNL     1      40.706  17.701  11.339  1.00  0.00     0.000 C 
ENDROOT
BRANCH   1   2
ATOM      2  C   UNL     1      41.725  17.536  12.481  1.00  0.00     0.000 C 
BRANCH   2   3
ATOM      3  C   UNL     1      43.116  17.026  12.060  1.00  0.00     0.000 C 
BRANCH   3   4
ATOM      4  C   UNL     1      44.241  18.031  12.362  1.00  0.00     0.000 C 
BRANCH   4   5
ATOM      5  C   UNL     1      43.892  19.459  11.913  1.00  0.00     0.001 C 
BRANCH   5   6
ATOM      6  C   UNL     1      43.809  20.449  13.090  1.00  0.00     0.009 C 
BRANCH   6   7
ATOM      7  C   UNL     1      42.617  21.422  12.964  1.00  0.00     0.032 C 
ATOM      8  C   UNL     1      43.061  22.839  12.574  1.00  0.00     0.014 C 
BRANCH   7   9
ATOM      9  C   UNL     1      41.850  21.467  14.258  1.00  0.00     0.044 C 
ATOM     10  O   UNL     1      41.925  22.473  15.011  1.00  0.00    -0.550 OA
ATOM     11  O   UNL     1      41.053  20.392  14.630  1.00  0.00    -0.550 OA
ENDBRANCH   7   9
ENDBRANCH   6   7
ENDBRANCH   5   6
ENDBRANCH   4   5
ENDBRANCH   3   4
ENDBRANCH   2   3
ENDBRANCH   1   2
BRANCH   1  12
ATOM     12  C   UNL     1      40.328  19.170  11.078  1.00  0.00     0.000 C 
BRANCH  12  13
ATOM     13  C   UNL     1      40.856  19.696   9.730  1.00  0.00    -0.000 C 
BRANCH  13  14
ATOM     14  C   UNL     1      40.459  21.143   9.384  1.00  0.00    -0.000 C 
BRANCH  14  15
ATOM     15  C   UNL     1      41.671  22.079   9.236  1.00  0.00    -0.000 C 
BRANCH  15  16
ATOM     16  C   UNL     1      42.962  21.321   8.883  1.00  0.00    -0.000 C 
BRANCH  16  17
ATOM     17  C   UNL     1      43.565  21.769   7.543  1.00  0.00    -0.000 C 
BRANCH  17  18
ATOM     18  C   UNL     1      43.304  20.725   6.451  1.00  0.00    -0.003 C 
ATOM     19  C   UNL     1      44.412  20.734   5.402  1.00  0.00     0.004 C 
ENDBRANCH  17  18
ENDBRANCH  16  17
ENDBRANCH  15  16
ENDBRANCH  14  15
ENDBRANCH  13  14
ENDBRANCH  12  13
ENDBRANCH   1  12
TORSDOF 14
ENDMDL
MODEL 8
REMARK VINA RESULT:    -4.723      2.199      3.757
REMARK INTER + INTRA:         -10.279
REMARK INTER:                  -8.658
REMARK INTRA:                  -1.621
REMARK UNBOUND:                -1.690
REMARK SMILES CCCCCCCCCCCCCC[C@H](C)C(=O)[O-]
REMARK SMILES IDX 9 1 10 2 11 3 12 4 13 5 14 6 15 7 16 8 17 9 18 10 19 11 8 12
REMARK SMILES IDX 7 13 6 14 5 15 4 16 3 17 2 18 1 19
REMARK H PARENT
REMARK Flexibility Score: inf
ROOT
ATOM      1  C   UNL     1      42.560  21.439  12.763  1.00  0.00     0.000 C 
ENDROOT
BRANCH   1   2
ATOM      2  C   UNL     1      43.103  22.783  12.242  1.00  0.00     0.000 C 
BRANCH   2   3
ATOM      3  C   UNL     1      43.127  22.939  10.710  1.00  0.00     0.000 C 
BRANCH   3   4
ATOM      4  C   UNL     1      42.978  21.600   9.967  1.00  0.00     0.000 C 
BRANCH   4   5
ATOM      5  C   UNL     1      42.681  21.787   8.470  1.00  0.00     0.001 C 
BRANCH   5   6
ATOM      6  C   UNL     1      43.937  22.151   7.656  1.00  0.00     0.009 C 
BRANCH   6   7
ATOM      7  C   UNL     1      43.935  21.519   6.247  1.00  0.00     0.032 C 
ATOM      8  C   UNL     1      43.162  20.192   6.206  1.00  0.00     0.014 C 
BRANCH   7   9
ATOM      9  C   UNL     1      45.348  21.300   5.779  1.00  0.00     0.044 C 
ATOM     10  O   UNL     1      46.236  20.911   6.584  1.00  0.00    -0.550 OA
ATOM     11  O   UNL     1      45.682  21.528   4.450  1.00  0.00    -0.550 OA
ENDBRANCH   7   9
ENDBRANCH   6   7
ENDBRANCH   5   6
ENDBRANCH   4   5
ENDBRANCH   3   4
ENDBRANCH   2   3
ENDBRANCH   1   2
BRANCH   1  12
ATOM     12  C   UNL     1      43.667  20.499  13.271  1.00  0.00     0.000 C 
BRANCH  12  13
ATOM     13  C   UNL     1      43.838  19.243  12.396  1.00  0.00    -0.000 C 
BRANCH  13  14
ATOM     14  C   UNL     1      43.163  17.967  12.931  1.00  0.00    -0.000 C 
BRANCH  14  15
ATOM     15  C   UNL     1      41.978  17.506  12.066  1.00  0.00    -0.000 C 
BRANCH  15  16
ATOM     16  C   UNL     1      42.031  18.079  10.639  1.00  0.00    -0.000 C 
BRANCH  16  17
ATOM     17  C   UNL     1      40.680  18.649  10.179  1.00  0.00    -0.000 C 
BRANCH  17  18
ATOM     18  C   UNL     1      39.809  19.030  11.381  1.00  0.00    -0.003 C 
ATOM     19  C   UNL     1      38.332  19.069  11.002  1.00  0.00     0.004 C 
ENDBRANCH  17  18
ENDBRANCH  16  17
ENDBRANCH  15  16
ENDBRANCH  14  15
ENDBRANCH  13  14
ENDBRANCH  12  13
ENDBRANCH   1  12
TORSDOF 14
ENDMDL
MODEL 9
REMARK VINA RESULT:    -4.706      1.982      3.039
REMARK INTER + INTRA:         -10.248
REMARK INTER:                  -8.663
REMARK INTRA:                  -1.585
REMARK UNBOUND:                -1.690
REMARK SMILES CCCCCCCCCCCCCC[C@H](C)C(=O)[O-]
REMARK SMILES IDX 9 1 10 2 11 3 12 4 13 5 14 6 15 7 16 8 17 9 18 10 19 11 8 12
REMARK SMILES IDX 7 13 6 14 5 15 4 16 3 17 2 18 1 19
REMARK H PARENT
REMARK Flexibility Score: inf
ROOT
ATOM      1  C   UNL     1      40.524  18.718   9.595  1.00  0.00     0.000 C 
ENDROOT
BRANCH   1   2
ATOM      2  C   UNL     1      40.789  20.003   8.788  1.00  0.00     0.000 C 
BRANCH   2   3
ATOM      3  C   UNL     1      40.698  21.317   9.587  1.00  0.00     0.000 C 
BRANCH   3   4
ATOM      4  C   UNL     1      41.962  22.184   9.461  1.00  0.00     0.000 C 
BRANCH   4   5
ATOM      5  C   UNL     1      43.122  21.441   8.779  1.00  0.00     0.001 C 
BRANCH   5   6
ATOM      6  C   UNL     1      43.907  22.333   7.799  1.00  0.00     0.009 C 
BRANCH   6   7
ATOM      7  C   UNL     1      43.875  21.795   6.352  1.00  0.00     0.032 C 
ATOM      8  C   UNL     1      43.265  20.388   6.268  1.00  0.00     0.014 C 
BRANCH   7   9
ATOM      9  C   UNL     1      45.266  21.782   5.778  1.00  0.00     0.044 C 
ATOM     10  O   UNL     1      45.526  22.411   4.718  1.00  0.00    -0.550 OA
ATOM     11  O   UNL     1      46.274  21.069   6.415  1.00  0.00    -0.550 OA
ENDBRANCH   7   9
ENDBRANCH   6   7
ENDBRANCH   5   6
ENDBRANCH   4   5
ENDBRANCH   3   4
ENDBRANCH   2   3
ENDBRANCH   1   2
BRANCH   1  12
ATOM     12  C   UNL     1      39.891  18.991  10.970  1.00  0.00     0.000 C 
BRANCH  12  13
ATOM     13  C   UNL     1      40.713  18.409  12.136  1.00  0.00    -0.000 C 
BRANCH  13  14
ATOM     14  C   UNL     1      41.685  19.391  12.815  1.00  0.00    -0.000 C 
BRANCH  14  15
ATOM     15  C   UNL     1      43.161  19.082  12.510  1.00  0.00    -0.000 C 
BRANCH  15  16
ATOM     16  C   UNL     1      43.341  17.763  11.741  1.00  0.00    -0.000 C 
BRANCH  16  17
ATOM     17  C   UNL     1      44.525  16.932  12.259  1.00  0.00    -0.000 C 
BRANCH  17  18
ATOM     18  C   UNL     1      44.180  15.439  12.275  1.00  0.00    -0.003 C 
ATOM     19  C   UNL     1      45.440  14.579  12.245  1.00  0.00     0.004 C 
ENDBRANCH  17  18
ENDBRANCH  16  17
ENDBRANCH  15  16
ENDBRANCH  14  15
ENDBRANCH  13  14
ENDBRANCH  12  13
ENDBRANCH   1  12
TORSDOF 14
ENDMDL
