MODEL 1
REMARK VINA RESULT:    -7.563      0.000      0.000
REMARK INTER + INTRA:          -9.294
REMARK INTER:                  -9.110
REMARK INTRA:                  -0.184
REMARK UNBOUND:                -0.184
REMARK SMILES O=c1c(O)c(-c2ccc(O)c(O)c2)oc2cc(O)cc(O)c12
REMARK SMILES IDX 5 1 3 2 2 3 1 4 22 5 20 6 19 7 17 8 16 9 15 10 14 11 6 12
REMARK SMILES IDX 7 13 8 14 9 15 13 16 11 17 10 18 12 20 4 22 21 24 18 26
REMARK H PARENT 10 19 12 21 4 23 21 25 18 27
REMARK Flexibility Score: inf
ROOT
ATOM      1  C   UNL     1     -14.901  21.088  12.420  1.00  0.00     0.180 A 
ATOM      2  C   UNL     1     -16.000  21.350  11.583  1.00  0.00     0.208 A 
ATOM      3  C   UNL     1     -17.168  21.893  12.142  1.00  0.00     0.238 A 
ATOM      4  O   UNL     1     -18.128  22.175  11.379  1.00  0.00    -0.285 OA
ATOM      5  C   UNL     1     -17.228  22.151  13.532  1.00  0.00     0.111 A 
ATOM      6  C   UNL     1     -18.374  22.662  14.213  1.00  0.00     0.134 A 
ATOM      7  C   UNL     1     -18.279  23.003  15.567  1.00  0.00     0.093 A 
ATOM      8  C   UNL     1     -17.101  22.789  16.282  1.00  0.00     0.123 A 
ATOM      9  C   UNL     1     -15.992  22.235  15.641  1.00  0.00     0.094 A 
ATOM     10  C   UNL     1     -16.046  21.919  14.283  1.00  0.00     0.146 A 
ATOM     11  O   UNL     1     -14.965  21.403  13.708  1.00  0.00    -0.452 OA
ENDROOT
BRANCH   1  12
ATOM     12  C   UNL     1     -13.644  20.494  11.908  1.00  0.00     0.025 A 
ATOM     13  C   UNL     1     -12.819  21.249  11.060  1.00  0.00     0.016 A 
ATOM     14  C   UNL     1     -11.618  20.716  10.583  1.00  0.00     0.051 A 
ATOM     15  C   UNL     1     -11.218  19.430  10.957  1.00  0.00     0.157 A 
ATOM     16  C   UNL     1     -13.230  19.209  12.300  1.00  0.00     0.062 A 
ATOM     17  C   UNL     1     -12.024  18.673  11.824  1.00  0.00     0.158 A 
BRANCH  15  18
ATOM     18  O   UNL     1     -10.016  18.924  10.463  1.00  0.00    -0.504 OA
ATOM     19  H   UNL     1      -9.598  19.270   9.607  1.00  0.00     0.293 HD
ENDBRANCH  15  18
BRANCH  17  20
ATOM     20  O   UNL     1     -11.624  17.395  12.212  1.00  0.00    -0.504 OA
ATOM     21  H   UNL     1     -11.889  17.005  13.109  1.00  0.00     0.293 HD
ENDBRANCH  17  20
ENDBRANCH   1  12
BRANCH   2  22
ATOM     22  O   UNL     1     -15.910  21.108  10.209  1.00  0.00    -0.502 OA
ATOM     23  H   UNL     1     -15.700  21.840   9.541  1.00  0.00     0.293 HD
ENDBRANCH   2  22
BRANCH   6  24
ATOM     24  O   UNL     1     -19.628  22.827  13.615  1.00  0.00    -0.507 OA
ATOM     25  H   UNL     1     -19.799  23.368  12.780  1.00  0.00     0.293 HD
ENDBRANCH   6  24
BRANCH   8  26
ATOM     26  O   UNL     1     -17.047  23.125  17.634  1.00  0.00    -0.508 OA
ATOM     27  H   UNL     1     -17.819  23.589  18.096  1.00  0.00     0.293 HD
ENDBRANCH   8  26
TORSDOF 6
ENDMDL
MODEL 2
REMARK VINA RESULT:    -7.345      0.955      1.045
REMARK INTER + INTRA:          -9.031
REMARK INTER:                  -8.755
REMARK INTRA:                  -0.277
REMARK UNBOUND:                -0.184
REMARK SMILES O=c1c(O)c(-c2ccc(O)c(O)c2)oc2cc(O)cc(O)c12
REMARK SMILES IDX 5 1 3 2 2 3 1 4 22 5 20 6 19 7 17 8 16 9 15 10 14 11 6 12
REMARK SMILES IDX 7 13 8 14 9 15 13 16 11 17 10 18 12 20 4 22 21 24 18 26
REMARK H PARENT 10 19 12 21 4 23 21 25 18 27
REMARK Flexibility Score: inf
ROOT
ATOM      1  C   UNL     1     -14.346  20.802  11.717  1.00  0.00     0.180 A 
ATOM      2  C   UNL     1     -15.322  21.166  10.773  1.00  0.00     0.208 A 
ATOM      3  C   UNL     1     -16.476  21.836  11.210  1.00  0.00     0.238 A 
ATOM      4  O   UNL     1     -17.320  22.207  10.353  1.00  0.00    -0.285 OA
ATOM      5  C   UNL     1     -16.648  22.118  12.586  1.00  0.00     0.111 A 
ATOM      6  C   UNL     1     -17.795  22.757  13.146  1.00  0.00     0.134 A 
ATOM      7  C   UNL     1     -17.800  23.104  14.502  1.00  0.00     0.093 A 
ATOM      8  C   UNL     1     -16.729  22.778  15.333  1.00  0.00     0.123 A 
ATOM      9  C   UNL     1     -15.626  22.102  14.809  1.00  0.00     0.094 A 
ATOM     10  C   UNL     1     -15.577  21.774  13.452  1.00  0.00     0.146 A 
ATOM     11  O   UNL     1     -14.505  21.140  12.991  1.00  0.00    -0.452 OA
ENDROOT
BRANCH   1  12
ATOM     12  C   UNL     1     -13.114  20.073  11.336  1.00  0.00     0.025 A 
ATOM     13  C   UNL     1     -12.045  20.776  10.761  1.00  0.00     0.016 A 
ATOM     14  C   UNL     1     -10.866  20.111  10.414  1.00  0.00     0.051 A 
ATOM     15  C   UNL     1     -10.732  18.740  10.651  1.00  0.00     0.157 A 
ATOM     16  C   UNL     1     -12.970  18.697  11.593  1.00  0.00     0.062 A 
ATOM     17  C   UNL     1     -11.786  18.029  11.247  1.00  0.00     0.158 A 
BRANCH  15  18
ATOM     18  O   UNL     1      -9.544  18.103  10.291  1.00  0.00    -0.504 OA
ATOM     19  H   UNL     1      -8.703  18.621  10.065  1.00  0.00     0.293 HD
ENDBRANCH  15  18
BRANCH  17  20
ATOM     20  O   UNL     1     -11.654  16.664  11.498  1.00  0.00    -0.504 OA
ATOM     21  H   UNL     1     -12.430  16.024  11.378  1.00  0.00     0.293 HD
ENDBRANCH  17  20
ENDBRANCH   1  12
BRANCH   2  22
ATOM     22  O   UNL     1     -15.122  20.897   9.416  1.00  0.00    -0.502 OA
ATOM     23  H   UNL     1     -14.456  21.411   8.853  1.00  0.00     0.293 HD
ENDBRANCH   2  22
BRANCH   6  24
ATOM     24  O   UNL     1     -18.958  23.044  12.425  1.00  0.00    -0.507 OA
ATOM     25  H   UNL     1     -19.569  22.349  12.019  1.00  0.00     0.293 HD
ENDBRANCH   6  24
BRANCH   8  26
ATOM     26  O   UNL     1     -16.774  23.125  16.682  1.00  0.00    -0.508 OA
ATOM     27  H   UNL     1     -15.991  22.953  17.300  1.00  0.00     0.293 HD
ENDBRANCH   8  26
TORSDOF 6
ENDMDL
MODEL 3
REMARK VINA RESULT:    -7.280      4.263     10.088
REMARK INTER + INTRA:          -8.954
REMARK INTER:                  -8.641
REMARK INTRA:                  -0.312
REMARK UNBOUND:                -0.184
REMARK SMILES O=c1c(O)c(-c2ccc(O)c(O)c2)oc2cc(O)cc(O)c12
REMARK SMILES IDX 5 1 3 2 2 3 1 4 22 5 20 6 19 7 17 8 16 9 15 10 14 11 6 12
REMARK SMILES IDX 7 13 8 14 9 15 13 16 11 17 10 18 12 20 4 22 21 24 18 26
REMARK H PARENT 10 19 12 21 4 23 21 25 18 27
REMARK Flexibility Score: inf
ROOT
ATOM      1  C   UNL     1     -10.559  17.584   9.452  1.00  0.00     0.180 A 
ATOM      2  C   UNL     1      -9.320  18.248   9.474  1.00  0.00     0.208 A 
ATOM      3  C   UNL     1      -8.203  17.625   8.897  1.00  0.00     0.238 A 
ATOM      4  O   UNL     1      -7.109  18.247   8.872  1.00  0.00    -0.285 OA
ATOM      5  C   UNL     1      -8.334  16.339   8.319  1.00  0.00     0.111 A 
ATOM      6  C   UNL     1      -7.261  15.596   7.741  1.00  0.00     0.134 A 
ATOM      7  C   UNL     1      -7.531  14.391   7.082  1.00  0.00     0.093 A 
ATOM      8  C   UNL     1      -8.823  13.869   7.036  1.00  0.00     0.123 A 
ATOM      9  C   UNL     1      -9.871  14.558   7.649  1.00  0.00     0.094 A 
ATOM     10  C   UNL     1      -9.639  15.780   8.282  1.00  0.00     0.146 A 
ATOM     11  O   UNL     1     -10.665  16.408   8.844  1.00  0.00    -0.452 OA
ENDROOT
BRANCH   1  12
ATOM     12  C   UNL     1     -11.777  18.167  10.062  1.00  0.00     0.025 A 
ATOM     13  C   UNL     1     -12.748  18.756   9.238  1.00  0.00     0.016 A 
ATOM     14  C   UNL     1     -13.914  19.292   9.791  1.00  0.00     0.051 A 
ATOM     15  C   UNL     1     -14.134  19.234  11.170  1.00  0.00     0.157 A 
ATOM     16  C   UNL     1     -12.009  18.091  11.448  1.00  0.00     0.062 A 
ATOM     17  C   UNL     1     -13.180  18.627  12.003  1.00  0.00     0.158 A 
BRANCH  15  18
ATOM     18  O   UNL     1     -15.306  19.781  11.693  1.00  0.00    -0.504 OA
ATOM     19  H   UNL     1     -15.970  20.283  11.115  1.00  0.00     0.293 HD
ENDBRANCH  15  18
BRANCH  17  20
ATOM     20  O   UNL     1     -13.400  18.553  13.378  1.00  0.00    -0.504 OA
ATOM     21  H   UNL     1     -12.917  17.876  13.958  1.00  0.00     0.293 HD
ENDBRANCH  17  20
ENDBRANCH   1  12
BRANCH   2  22
ATOM     22  O   UNL     1      -9.218  19.526  10.030  1.00  0.00    -0.502 OA
ATOM     23  H   UNL     1      -8.587  20.229   9.665  1.00  0.00     0.293 HD
ENDBRANCH   2  22
BRANCH   6  24
ATOM     24  O   UNL     1      -5.919  15.982   7.811  1.00  0.00    -0.507 OA
ATOM     25  H   UNL     1      -5.460  16.316   8.646  1.00  0.00     0.293 HD
ENDBRANCH   6  24
BRANCH   8  26
ATOM     26  O   UNL     1      -9.053  12.659   6.385  1.00  0.00    -0.508 OA
ATOM     27  H   UNL     1      -9.671  11.957   6.773  1.00  0.00     0.293 HD
ENDBRANCH   8  26
TORSDOF 6
ENDMDL
MODEL 4
REMARK VINA RESULT:    -7.113      1.470      7.030
REMARK INTER + INTRA:          -8.752
REMARK INTER:                  -8.452
REMARK INTRA:                  -0.299
REMARK UNBOUND:                -0.184
REMARK SMILES O=c1c(O)c(-c2ccc(O)c(O)c2)oc2cc(O)cc(O)c12
REMARK SMILES IDX 5 1 3 2 2 3 1 4 22 5 20 6 19 7 17 8 16 9 15 10 14 11 6 12
REMARK SMILES IDX 7 13 8 14 9 15 13 16 11 17 10 18 12 20 4 22 21 24 18 26
REMARK H PARENT 10 19 12 21 4 23 21 25 18 27
REMARK Flexibility Score: inf
ROOT
ATOM      1  C   UNL     1     -14.215  20.875  12.023  1.00  0.00     0.180 A 
ATOM      2  C   UNL     1     -13.597  21.541  10.951  1.00  0.00     0.208 A 
ATOM      3  C   UNL     1     -12.463  20.966  10.355  1.00  0.00     0.238 A 
ATOM      4  O   UNL     1     -11.946  21.540   9.362  1.00  0.00    -0.285 OA
ATOM      5  C   UNL     1     -11.952  19.742  10.849  1.00  0.00     0.111 A 
ATOM      6  C   UNL     1     -10.786  19.089  10.347  1.00  0.00     0.134 A 
ATOM      7  C   UNL     1     -10.449  17.816  10.823  1.00  0.00     0.093 A 
ATOM      8  C   UNL     1     -11.195  17.202  11.828  1.00  0.00     0.123 A 
ATOM      9  C   UNL     1     -12.303  17.856  12.367  1.00  0.00     0.094 A 
ATOM     10  C   UNL     1     -12.686  19.110  11.887  1.00  0.00     0.146 A 
ATOM     11  O   UNL     1     -13.753  19.695  12.420  1.00  0.00    -0.452 OA
ENDROOT
BRANCH   1  12
ATOM     12  C   UNL     1     -15.400  21.430  12.718  1.00  0.00     0.025 A 
ATOM     13  C   UNL     1     -15.225  22.171  13.897  1.00  0.00     0.016 A 
ATOM     14  C   UNL     1     -16.327  22.721  14.556  1.00  0.00     0.051 A 
ATOM     15  C   UNL     1     -17.616  22.554  14.041  1.00  0.00     0.157 A 
ATOM     16  C   UNL     1     -16.695  21.280  12.189  1.00  0.00     0.062 A 
ATOM     17  C   UNL     1     -17.802  21.834  12.850  1.00  0.00     0.158 A 
BRANCH  15  18
ATOM     18  O   UNL     1     -18.697  23.112  14.724  1.00  0.00    -0.504 OA
ATOM     19  H   UNL     1     -18.903  24.104  14.685  1.00  0.00     0.293 HD
ENDBRANCH  15  18
BRANCH  17  20
ATOM     20  O   UNL     1     -19.083  21.675  12.322  1.00  0.00    -0.504 OA
ATOM     21  H   UNL     1     -19.832  22.321  12.542  1.00  0.00     0.293 HD
ENDBRANCH  17  20
ENDBRANCH   1  12
BRANCH   2  22
ATOM     22  O   UNL     1     -14.131  22.738  10.466  1.00  0.00    -0.502 OA
ATOM     23  H   UNL     1     -13.590  23.594  10.416  1.00  0.00     0.293 HD
ENDBRANCH   2  22
BRANCH   6  24
ATOM     24  O   UNL     1      -9.918  19.655   9.409  1.00  0.00    -0.507 OA
ATOM     25  H   UNL     1      -8.945  19.865   9.580  1.00  0.00     0.293 HD
ENDBRANCH   6  24
BRANCH   8  26
ATOM     26  O   UNL     1     -10.820  15.941  12.290  1.00  0.00    -0.508 OA
ATOM     27  H   UNL     1     -11.501  15.206  12.434  1.00  0.00     0.293 HD
ENDBRANCH   8  26
TORSDOF 6
ENDMDL
MODEL 5
REMARK VINA RESULT:    -7.066      1.444      2.108
REMARK INTER + INTRA:          -8.696
REMARK INTER:                  -8.410
REMARK INTRA:                  -0.286
REMARK UNBOUND:                -0.184
REMARK SMILES O=c1c(O)c(-c2ccc(O)c(O)c2)oc2cc(O)cc(O)c12
REMARK SMILES IDX 5 1 3 2 2 3 1 4 22 5 20 6 19 7 17 8 16 9 15 10 14 11 6 12
REMARK SMILES IDX 7 13 8 14 9 15 13 16 11 17 10 18 12 20 4 22 21 24 18 26
REMARK H PARENT 10 19 12 21 4 23 21 25 18 27
REMARK Flexibility Score: inf
ROOT
ATOM      1  C   UNL     1     -13.900  19.878  11.238  1.00  0.00     0.180 A 
ATOM      2  C   UNL     1     -14.872  20.011  10.231  1.00  0.00     0.208 A 
ATOM      3  C   UNL     1     -16.047  20.728  10.509  1.00  0.00     0.238 A 
ATOM      4  O   UNL     1     -16.888  20.889   9.587  1.00  0.00    -0.285 OA
ATOM      5  C   UNL     1     -16.243  21.287  11.794  1.00  0.00     0.111 A 
ATOM      6  C   UNL     1     -17.413  21.999  12.199  1.00  0.00     0.134 A 
ATOM      7  C   UNL     1     -17.444  22.622  13.452  1.00  0.00     0.093 A 
ATOM      8  C   UNL     1     -16.376  22.505  14.341  1.00  0.00     0.123 A 
ATOM      9  C   UNL     1     -15.251  21.763  13.979  1.00  0.00     0.094 A 
ATOM     10  C   UNL     1     -15.176  21.160  12.722  1.00  0.00     0.146 A 
ATOM     11  O   UNL     1     -14.083  20.471  12.412  1.00  0.00    -0.452 OA
ENDROOT
BRANCH   1  12
ATOM     12  C   UNL     1     -12.646  19.117  11.029  1.00  0.00     0.025 A 
ATOM     13  C   UNL     1     -11.578  19.721  10.347  1.00  0.00     0.016 A 
ATOM     14  C   UNL     1     -10.379  19.028  10.157  1.00  0.00     0.051 A 
ATOM     15  C   UNL     1     -10.224  17.732  10.658  1.00  0.00     0.157 A 
ATOM     16  C   UNL     1     -12.482  17.821  11.550  1.00  0.00     0.062 A 
ATOM     17  C   UNL     1     -11.278  17.126  11.362  1.00  0.00     0.158 A 
BRANCH  15  18
ATOM     18  O   UNL     1      -9.017  17.065  10.450  1.00  0.00    -0.504 OA
ATOM     19  H   UNL     1      -8.880  16.430   9.672  1.00  0.00     0.293 HD
ENDBRANCH  15  18
BRANCH  17  20
ATOM     20  O   UNL     1     -11.125  15.839  11.876  1.00  0.00    -0.504 OA
ATOM     21  H   UNL     1     -10.645  15.113  11.357  1.00  0.00     0.293 HD
ENDBRANCH  17  20
ENDBRANCH   1  12
BRANCH   2  22
ATOM     22  O   UNL     1     -14.647  19.469   8.963  1.00  0.00    -0.502 OA
ATOM     23  H   UNL     1     -15.143  18.653   8.625  1.00  0.00     0.293 HD
ENDBRANCH   2  22
BRANCH   6  24
ATOM     24  O   UNL     1     -18.572  22.098  11.424  1.00  0.00    -0.507 OA
ATOM     25  H   UNL     1     -19.284  22.804  11.543  1.00  0.00     0.293 HD
ENDBRANCH   6  24
BRANCH   8  26
ATOM     26  O   UNL     1     -16.448  23.125  15.587  1.00  0.00    -0.508 OA
ATOM     27  H   UNL     1     -16.473  22.589  16.445  1.00  0.00     0.293 HD
ENDBRANCH   8  26
TORSDOF 6
ENDMDL
MODEL 6
REMARK VINA RESULT:    -6.958      3.380      8.983
REMARK INTER + INTRA:          -8.566
REMARK INTER:                  -8.298
REMARK INTRA:                  -0.268
REMARK UNBOUND:                -0.184
REMARK SMILES O=c1c(O)c(-c2ccc(O)c(O)c2)oc2cc(O)cc(O)c12
REMARK SMILES IDX 5 1 3 2 2 3 1 4 22 5 20 6 19 7 17 8 16 9 15 10 14 11 6 12
REMARK SMILES IDX 7 13 8 14 9 15 13 16 11 17 10 18 12 20 4 22 21 24 18 26
REMARK H PARENT 10 19 12 21 4 23 21 25 18 27
REMARK Flexibility Score: inf
ROOT
ATOM      1  C   UNL     1     -11.230  19.290   9.813  1.00  0.00     0.180 A 
ATOM      2  C   UNL     1      -9.836  19.417   9.947  1.00  0.00     0.208 A 
ATOM      3  C   UNL     1      -9.003  18.476   9.323  1.00  0.00     0.238 A 
ATOM      4  O   UNL     1      -7.756  18.626   9.402  1.00  0.00    -0.285 OA
ATOM      5  C   UNL     1      -9.573  17.410   8.586  1.00  0.00     0.111 A 
ATOM      6  C   UNL     1      -8.826  16.377   7.945  1.00  0.00     0.134 A 
ATOM      7  C   UNL     1      -9.487  15.447   7.133  1.00  0.00     0.093 A 
ATOM      8  C   UNL     1     -10.874  15.473   6.992  1.00  0.00     0.123 A 
ATOM      9  C   UNL     1     -11.621  16.443   7.661  1.00  0.00     0.094 A 
ATOM     10  C   UNL     1     -10.986  17.406   8.448  1.00  0.00     0.146 A 
ATOM     11  O   UNL     1     -11.733  18.318   9.060  1.00  0.00    -0.452 OA
ENDROOT
BRANCH   1  12
ATOM     12  C   UNL     1     -12.174  20.229  10.462  1.00  0.00     0.025 A 
ATOM     13  C   UNL     1     -12.390  21.494   9.894  1.00  0.00     0.016 A 
ATOM     14  C   UNL     1     -13.292  22.387  10.479  1.00  0.00     0.051 A 
ATOM     15  C   UNL     1     -14.001  22.025  11.627  1.00  0.00     0.157 A 
ATOM     16  C   UNL     1     -12.903  19.858  11.607  1.00  0.00     0.062 A 
ATOM     17  C   UNL     1     -13.811  20.753  12.193  1.00  0.00     0.158 A 
BRANCH  15  18
ATOM     18  O   UNL     1     -14.893  22.939  12.190  1.00  0.00    -0.504 OA
ATOM     19  H   UNL     1     -15.897  22.805  12.150  1.00  0.00     0.293 HD
ENDBRANCH  15  18
BRANCH  17  20
ATOM     20  O   UNL     1     -14.525  20.380  13.331  1.00  0.00    -0.504 OA
ATOM     21  H   UNL     1     -15.361  20.875  13.619  1.00  0.00     0.293 HD
ENDBRANCH  17  20
ENDBRANCH   1  12
BRANCH   2  22
ATOM     22  O   UNL     1      -9.295  20.490  10.662  1.00  0.00    -0.502 OA
ATOM     23  H   UNL     1      -8.312  20.733  10.614  1.00  0.00     0.293 HD
ENDBRANCH   2  22
BRANCH   6  24
ATOM     24  O   UNL     1      -7.446  16.204   8.094  1.00  0.00    -0.507 OA
ATOM     25  H   UNL     1      -6.744  16.788   7.663  1.00  0.00     0.293 HD
ENDBRANCH   6  24
BRANCH   8  26
ATOM     26  O   UNL     1     -11.501  14.522   6.189  1.00  0.00    -0.508 OA
ATOM     27  H   UNL     1     -11.812  13.634   6.563  1.00  0.00     0.293 HD
ENDBRANCH   8  26
TORSDOF 6
ENDMDL
MODEL 7
REMARK VINA RESULT:    -6.761      4.428      7.425
REMARK INTER + INTRA:          -8.328
REMARK INTER:                  -8.050
REMARK INTRA:                  -0.279
REMARK UNBOUND:                -0.184
REMARK SMILES O=c1c(O)c(-c2ccc(O)c(O)c2)oc2cc(O)cc(O)c12
REMARK SMILES IDX 5 1 3 2 2 3 1 4 22 5 20 6 19 7 17 8 16 9 15 10 14 11 6 12
REMARK SMILES IDX 7 13 8 14 9 15 13 16 11 17 10 18 12 20 4 22 21 24 18 26
REMARK H PARENT 10 19 12 21 4 23 21 25 18 27
REMARK Flexibility Score: inf
ROOT
ATOM      1  C   UNL     1     -10.364  17.117   9.345  1.00  0.00     0.180 A 
ATOM      2  C   UNL     1     -10.363  17.232  10.746  1.00  0.00     0.208 A 
ATOM      3  C   UNL     1     -11.476  17.803  11.383  1.00  0.00     0.238 A 
ATOM      4  O   UNL     1     -11.491  17.854  12.641  1.00  0.00    -0.285 OA
ATOM      5  C   UNL     1     -12.568  18.267  10.612  1.00  0.00     0.111 A 
ATOM      6  C   UNL     1     -13.730  18.898  11.149  1.00  0.00     0.134 A 
ATOM      7  C   UNL     1     -14.806  19.198  10.305  1.00  0.00     0.093 A 
ATOM      8  C   UNL     1     -14.737  18.951   8.935  1.00  0.00     0.123 A 
ATOM      9  C   UNL     1     -13.582  18.388   8.389  1.00  0.00     0.094 A 
ATOM     10  C   UNL     1     -12.507  18.044   9.211  1.00  0.00     0.146 A 
ATOM     11  O   UNL     1     -11.431  17.501   8.654  1.00  0.00    -0.452 OA
ENDROOT
BRANCH   1  12
ATOM     12  C   UNL     1      -9.217  16.548   8.599  1.00  0.00     0.025 A 
ATOM     13  C   UNL     1      -8.062  17.324   8.411  1.00  0.00     0.016 A 
ATOM     14  C   UNL     1      -6.961  16.799   7.730  1.00  0.00     0.051 A 
ATOM     15  C   UNL     1      -6.991  15.490   7.241  1.00  0.00     0.157 A 
ATOM     16  C   UNL     1      -9.238  15.224   8.125  1.00  0.00     0.062 A 
ATOM     17  C   UNL     1      -8.132  14.696   7.442  1.00  0.00     0.158 A 
BRANCH  15  18
ATOM     18  O   UNL     1      -5.877  14.994   6.562  1.00  0.00    -0.504 OA
ATOM     19  H   UNL     1      -5.748  14.004   6.392  1.00  0.00     0.293 HD
ENDBRANCH  15  18
BRANCH  17  20
ATOM     20  O   UNL     1      -8.163  13.384   6.969  1.00  0.00    -0.504 OA
ATOM     21  H   UNL     1      -7.369  12.763   7.073  1.00  0.00     0.293 HD
ENDBRANCH  17  20
ENDBRANCH   1  12
BRANCH   2  22
ATOM     22  O   UNL     1      -9.283  16.747  11.489  1.00  0.00    -0.502 OA
ATOM     23  H   UNL     1      -9.152  15.760  11.677  1.00  0.00     0.293 HD
ENDBRANCH   2  22
BRANCH   6  24
ATOM     24  O   UNL     1     -13.864  19.274  12.489  1.00  0.00    -0.507 OA
ATOM     25  H   UNL     1     -13.785  20.221  12.831  1.00  0.00     0.293 HD
ENDBRANCH   6  24
BRANCH   8  26
ATOM     26  O   UNL     1     -15.821  19.277   8.122  1.00  0.00    -0.508 OA
ATOM     27  H   UNL     1     -16.758  18.962   8.337  1.00  0.00     0.293 HD
ENDBRANCH   8  26
TORSDOF 6
ENDMDL
MODEL 8
REMARK VINA RESULT:    -6.746      2.854      4.940
REMARK INTER + INTRA:          -8.309
REMARK INTER:                  -8.099
REMARK INTRA:                  -0.210
REMARK UNBOUND:                -0.184
REMARK SMILES O=c1c(O)c(-c2ccc(O)c(O)c2)oc2cc(O)cc(O)c12
REMARK SMILES IDX 5 1 3 2 2 3 1 4 22 5 20 6 19 7 17 8 16 9 15 10 14 11 6 12
REMARK SMILES IDX 7 13 8 14 9 15 13 16 11 17 10 18 12 20 4 22 21 24 18 26
REMARK H PARENT 10 19 12 21 4 23 21 25 18 27
REMARK Flexibility Score: inf
ROOT
ATOM      1  C   UNL     1     -12.031  19.379  10.559  1.00  0.00     0.180 A 
ATOM      2  C   UNL     1     -12.541  19.218  11.858  1.00  0.00     0.208 A 
ATOM      3  C   UNL     1     -13.694  19.927  12.230  1.00  0.00     0.238 A 
ATOM      4  O   UNL     1     -14.177  19.738  13.377  1.00  0.00    -0.285 OA
ATOM      5  C   UNL     1     -14.312  20.801  11.303  1.00  0.00     0.111 A 
ATOM      6  C   UNL     1     -15.462  21.600  11.585  1.00  0.00     0.134 A 
ATOM      7  C   UNL     1     -16.067  22.327  10.553  1.00  0.00     0.093 A 
ATOM      8  C   UNL     1     -15.527  22.339   9.268  1.00  0.00     0.123 A 
ATOM      9  C   UNL     1     -14.370  21.608   8.995  1.00  0.00     0.094 A 
ATOM     10  C   UNL     1     -13.765  20.843   9.994  1.00  0.00     0.146 A 
ATOM     11  O   UNL     1     -12.671  20.154   9.691  1.00  0.00    -0.452 OA
ENDROOT
BRANCH   1  12
ATOM     12  C   UNL     1     -10.806  18.683  10.101  1.00  0.00     0.025 A 
ATOM     13  C   UNL     1      -9.621  19.415   9.923  1.00  0.00     0.016 A 
ATOM     14  C   UNL     1      -8.449  18.774   9.512  1.00  0.00     0.051 A 
ATOM     15  C   UNL     1      -8.438  17.395   9.290  1.00  0.00     0.157 A 
ATOM     16  C   UNL     1     -10.788  17.291   9.897  1.00  0.00     0.062 A 
ATOM     17  C   UNL     1      -9.611  16.647   9.487  1.00  0.00     0.158 A 
BRANCH  15  18
ATOM     18  O   UNL     1      -7.253  16.784   8.878  1.00  0.00    -0.504 OA
ATOM     19  H   UNL     1      -6.647  16.295   9.526  1.00  0.00     0.293 HD
ENDBRANCH  15  18
BRANCH  17  20
ATOM     20  O   UNL     1      -9.603  15.268   9.280  1.00  0.00    -0.504 OA
ATOM     21  H   UNL     1      -9.051  14.647   9.860  1.00  0.00     0.293 HD
ENDBRANCH  17  20
ENDBRANCH   1  12
BRANCH   2  22
ATOM     22  O   UNL     1     -11.927  18.334  12.750  1.00  0.00    -0.502 OA
ATOM     23  H   UNL     1     -12.391  17.994  13.584  1.00  0.00     0.293 HD
ENDBRANCH   2  22
BRANCH   6  24
ATOM     24  O   UNL     1     -16.027  21.733  12.857  1.00  0.00    -0.507 OA
ATOM     25  H   UNL     1     -17.009  21.627  13.063  1.00  0.00     0.293 HD
ENDBRANCH   6  24
BRANCH   8  26
ATOM     26  O   UNL     1     -16.147  23.087   8.268  1.00  0.00    -0.508 OA
ATOM     27  H   UNL     1     -16.498  22.655   7.423  1.00  0.00     0.293 HD
ENDBRANCH   8  26
TORSDOF 6
ENDMDL
