MODEL 1
REMARK VINA RESULT:    -4.674      0.000      0.000
REMARK INTER + INTRA:          -6.918
REMARK INTER:                  -6.313
REMARK INTRA:                  -0.605
REMARK UNBOUND:                -0.605
REMARK SMILES CCCCCCC=CC(=O)[O-]
REMARK SMILES IDX 5 1 6 2 7 3 8 4 9 5 10 6 11 7 4 8 3 9 2 10 1 11
REMARK H PARENT
REMARK Flexibility Score: inf
ROOT
ATOM      1  C   UNL     1     -26.281 -31.322 -12.091  1.00  0.00     0.004 C 
ENDROOT
BRANCH   1   2
ATOM      2  C   UNL     1     -25.400 -32.142 -11.141  1.00  0.00     0.027 C 
BRANCH   2   3
ATOM      3  C   UNL     1     -24.634 -33.199 -11.884  1.00  0.00    -0.025 C 
ATOM      4  C   UNL     1     -25.032 -34.476 -11.889  1.00  0.00     0.020 C 
BRANCH   4   5
ATOM      5  C   UNL     1     -24.284 -35.522 -12.601  1.00  0.00     0.064 C 
ATOM      6  O   UNL     1     -24.909 -36.461 -13.160  1.00  0.00    -0.545 OA
ATOM      7  O   UNL     1     -22.895 -35.492 -12.667  1.00  0.00    -0.545 OA
ENDBRANCH   4   5
ENDBRANCH   2   3
ENDBRANCH   1   2
BRANCH   1   8
ATOM      8  C   UNL     1     -27.754 -31.745 -11.978  1.00  0.00     0.000 C 
BRANCH   8   9
ATOM      9  C   UNL     1     -28.248 -32.507 -13.217  1.00  0.00    -0.000 C 
BRANCH   9  10
ATOM     10  C   UNL     1     -28.247 -34.029 -13.015  1.00  0.00    -0.003 C 
ATOM     11  C   UNL     1     -27.804 -34.751 -14.285  1.00  0.00     0.004 C 
ENDBRANCH   9  10
ENDBRANCH   8   9
ENDBRANCH   1   8
TORSDOF 6
ENDMDL
MODEL 2
REMARK VINA RESULT:    -4.413      1.775      3.646
REMARK INTER + INTRA:          -6.565
REMARK INTER:                  -5.831
REMARK INTRA:                  -0.734
REMARK UNBOUND:                -0.605
REMARK SMILES CCCCCCC=CC(=O)[O-]
REMARK SMILES IDX 5 1 6 2 7 3 8 4 9 5 10 6 11 7 4 8 3 9 2 10 1 11
REMARK H PARENT
REMARK Flexibility Score: inf
ROOT
ATOM      1  C   UNL     1     -27.307 -30.578 -12.384  1.00  0.00     0.004 C 
ENDROOT
BRANCH   1   2
ATOM      2  C   UNL     1     -28.576 -31.248 -12.926  1.00  0.00     0.027 C 
BRANCH   2   3
ATOM      3  C   UNL     1     -28.420 -32.740 -12.989  1.00  0.00    -0.025 C 
ATOM      4  C   UNL     1     -27.489 -33.313 -13.759  1.00  0.00     0.020 C 
BRANCH   4   5
ATOM      5  C   UNL     1     -27.334 -34.772 -13.841  1.00  0.00     0.064 C 
ATOM      6  O   UNL     1     -26.620 -35.370 -12.994  1.00  0.00    -0.545 OA
ATOM      7  O   UNL     1     -27.966 -35.505 -14.840  1.00  0.00    -0.545 OA
ENDBRANCH   4   5
ENDBRANCH   2   3
ENDBRANCH   1   2
BRANCH   1   8
ATOM      8  C   UNL     1     -27.178 -30.789 -10.868  1.00  0.00     0.000 C 
BRANCH   8   9
ATOM      9  C   UNL     1     -25.834 -31.417 -10.469  1.00  0.00    -0.000 C 
BRANCH   9  10
ATOM     10  C   UNL     1     -24.870 -31.555 -11.657  1.00  0.00    -0.003 C 
ATOM     11  C   UNL     1     -24.343 -32.983 -11.771  1.00  0.00     0.004 C 
ENDBRANCH   9  10
ENDBRANCH   8   9
ENDBRANCH   1   8
TORSDOF 6
ENDMDL
MODEL 3
REMARK VINA RESULT:    -4.404      1.620      2.706
REMARK INTER + INTRA:          -6.554
REMARK INTER:                  -6.038
REMARK INTRA:                  -0.516
REMARK UNBOUND:                -0.605
REMARK SMILES CCCCCCC=CC(=O)[O-]
REMARK SMILES IDX 5 1 6 2 7 3 8 4 9 5 10 6 11 7 4 8 3 9 2 10 1 11
REMARK H PARENT
REMARK Flexibility Score: inf
ROOT
ATOM      1  C   UNL     1     -26.814 -35.154 -13.354  1.00  0.00     0.004 C 
ENDROOT
BRANCH   1   2
ATOM      2  C   UNL     1     -26.191 -34.734 -12.016  1.00  0.00     0.027 C 
BRANCH   2   3
ATOM      3  C   UNL     1     -24.745 -34.364 -12.181  1.00  0.00    -0.025 C 
ATOM      4  C   UNL     1     -23.833 -35.266 -12.562  1.00  0.00     0.020 C 
BRANCH   4   5
ATOM      5  C   UNL     1     -22.412 -34.921 -12.714  1.00  0.00     0.064 C 
ATOM      6  O   UNL     1     -22.089 -33.883 -13.348  1.00  0.00    -0.545 OA
ATOM      7  O   UNL     1     -21.417 -35.724 -12.165  1.00  0.00    -0.545 OA
ENDBRANCH   4   5
ENDBRANCH   2   3
ENDBRANCH   1   2
BRANCH   1   8
ATOM      8  C   UNL     1     -27.912 -34.169 -13.782  1.00  0.00     0.000 C 
BRANCH   8   9
ATOM      9  C   UNL     1     -28.355 -33.242 -12.640  1.00  0.00    -0.000 C 
BRANCH   9  10
ATOM     10  C   UNL     1     -28.337 -31.759 -13.041  1.00  0.00    -0.003 C 
ATOM     11  C   UNL     1     -26.945 -31.159 -12.859  1.00  0.00     0.004 C 
ENDBRANCH   9  10
ENDBRANCH   8   9
ENDBRANCH   1   8
TORSDOF 6
ENDMDL
MODEL 4
REMARK VINA RESULT:    -4.369      1.006      2.794
REMARK INTER + INTRA:          -6.506
REMARK INTER:                  -5.828
REMARK INTRA:                  -0.678
REMARK UNBOUND:                -0.605
REMARK SMILES CCCCCCC=CC(=O)[O-]
REMARK SMILES IDX 5 1 6 2 7 3 8 4 9 5 10 6 11 7 4 8 3 9 2 10 1 11
REMARK H PARENT
REMARK Flexibility Score: inf
ROOT
ATOM      1  C   UNL     1     -28.302 -32.550 -13.043  1.00  0.00     0.004 C 
ENDROOT
BRANCH   1   2
ATOM      2  C   UNL     1     -28.261 -33.874 -12.268  1.00  0.00     0.027 C 
BRANCH   2   3
ATOM      3  C   UNL     1     -27.143 -34.753 -12.749  1.00  0.00    -0.025 C 
ATOM      4  C   UNL     1     -25.902 -34.633 -12.265  1.00  0.00     0.020 C 
BRANCH   4   5
ATOM      5  C   UNL     1     -24.796 -35.478 -12.736  1.00  0.00     0.064 C 
ATOM      6  O   UNL     1     -25.049 -36.574 -13.302  1.00  0.00    -0.545 OA
ATOM      7  O   UNL     1     -23.472 -35.085 -12.569  1.00  0.00    -0.545 OA
ENDBRANCH   4   5
ENDBRANCH   2   3
ENDBRANCH   1   2
BRANCH   1   8
ATOM      8  C   UNL     1     -27.852 -31.380 -12.156  1.00  0.00     0.000 C 
BRANCH   8   9
ATOM      9  C   UNL     1     -26.598 -30.674 -12.696  1.00  0.00    -0.000 C 
BRANCH   9  10
ATOM     10  C   UNL     1     -25.337 -31.008 -11.885  1.00  0.00    -0.003 C 
ATOM     11  C   UNL     1     -25.694 -31.410 -10.457  1.00  0.00     0.004 C 
ENDBRANCH   9  10
ENDBRANCH   8   9
ENDBRANCH   1   8
TORSDOF 6
ENDMDL
MODEL 5
REMARK VINA RESULT:    -4.342      3.159      5.135
REMARK INTER + INTRA:          -6.471
REMARK INTER:                  -6.015
REMARK INTRA:                  -0.456
REMARK UNBOUND:                -0.605
REMARK SMILES CCCCCCC=CC(=O)[O-]
REMARK SMILES IDX 5 1 6 2 7 3 8 4 9 5 10 6 11 7 4 8 3 9 2 10 1 11
REMARK H PARENT
REMARK Flexibility Score: inf
ROOT
ATOM      1  C   UNL     1     -26.609 -35.447 -13.615  1.00  0.00     0.004 C 
ENDROOT
BRANCH   1   2
ATOM      2  C   UNL     1     -27.782 -34.459 -13.662  1.00  0.00     0.027 C 
BRANCH   2   3
ATOM      3  C   UNL     1     -27.367 -33.097 -13.185  1.00  0.00    -0.025 C 
ATOM      4  C   UNL     1     -28.264 -32.127 -12.975  1.00  0.00     0.020 C 
BRANCH   4   5
ATOM      5  C   UNL     1     -27.871 -30.786 -12.521  1.00  0.00     0.064 C 
ATOM      6  O   UNL     1     -28.211 -30.394 -11.374  1.00  0.00    -0.545 OA
ATOM      7  O   UNL     1     -27.126 -29.942 -13.338  1.00  0.00    -0.545 OA
ENDBRANCH   4   5
ENDBRANCH   2   3
ENDBRANCH   1   2
BRANCH   1   8
ATOM      8  C   UNL     1     -25.667 -35.126 -12.445  1.00  0.00     0.000 C 
BRANCH   8   9
ATOM      9  C   UNL     1     -24.259 -35.710 -12.640  1.00  0.00    -0.000 C 
BRANCH   9  10
ATOM     10  C   UNL     1     -23.168 -34.629 -12.661  1.00  0.00    -0.003 C 
ATOM     11  C   UNL     1     -23.739 -33.266 -12.279  1.00  0.00     0.004 C 
ENDBRANCH   9  10
ENDBRANCH   8   9
ENDBRANCH   1   8
TORSDOF 6
ENDMDL
MODEL 6
REMARK VINA RESULT:    -4.297      2.757      3.944
REMARK INTER + INTRA:          -6.409
REMARK INTER:                  -5.754
REMARK INTRA:                  -0.655
REMARK UNBOUND:                -0.605
REMARK SMILES CCCCCCC=CC(=O)[O-]
REMARK SMILES IDX 5 1 6 2 7 3 8 4 9 5 10 6 11 7 4 8 3 9 2 10 1 11
REMARK H PARENT
REMARK Flexibility Score: inf
ROOT
ATOM      1  C   UNL     1     -24.935 -35.311 -12.145  1.00  0.00     0.004 C 
ENDROOT
BRANCH   1   2
ATOM      2  C   UNL     1     -23.818 -34.302 -12.441  1.00  0.00     0.027 C 
BRANCH   2   3
ATOM      3  C   UNL     1     -24.149 -32.945 -11.891  1.00  0.00    -0.025 C 
ATOM      4  C   UNL     1     -25.213 -32.750 -11.104  1.00  0.00     0.020 C 
BRANCH   4   5
ATOM      5  C   UNL     1     -25.556 -31.425 -10.570  1.00  0.00     0.064 C 
ATOM      6  O   UNL     1     -24.641 -30.664 -10.159  1.00  0.00    -0.545 OA
ATOM      7  O   UNL     1     -26.877 -30.995 -10.512  1.00  0.00    -0.545 OA
ENDBRANCH   4   5
ENDBRANCH   2   3
ENDBRANCH   1   2
BRANCH   1   8
ATOM      8  C   UNL     1     -25.801 -35.554 -13.390  1.00  0.00     0.000 C 
BRANCH   8   9
ATOM      9  C   UNL     1     -27.275 -35.179 -13.170  1.00  0.00    -0.000 C 
BRANCH   9  10
ATOM     10  C   UNL     1     -27.750 -34.067 -14.116  1.00  0.00    -0.003 C 
ATOM     11  C   UNL     1     -28.128 -32.810 -13.337  1.00  0.00     0.004 C 
ENDBRANCH   9  10
ENDBRANCH   8   9
ENDBRANCH   1   8
TORSDOF 6
ENDMDL
MODEL 7
REMARK VINA RESULT:    -4.275      2.260      2.910
REMARK INTER + INTRA:          -6.380
REMARK INTER:                  -6.002
REMARK INTRA:                  -0.378
REMARK UNBOUND:                -0.605
REMARK SMILES CCCCCCC=CC(=O)[O-]
REMARK SMILES IDX 5 1 6 2 7 3 8 4 9 5 10 6 11 7 4 8 3 9 2 10 1 11
REMARK H PARENT
REMARK Flexibility Score: inf
ROOT
ATOM      1  C   UNL     1     -25.506 -34.267 -11.885  1.00  0.00     0.004 C 
ENDROOT
BRANCH   1   2
ATOM      2  C   UNL     1     -24.710 -35.532 -12.229  1.00  0.00     0.027 C 
BRANCH   2   3
ATOM      3  C   UNL     1     -23.328 -35.194 -12.707  1.00  0.00    -0.025 C 
ATOM      4  C   UNL     1     -22.868 -33.938 -12.682  1.00  0.00     0.020 C 
BRANCH   4   5
ATOM      5  C   UNL     1     -21.522 -33.591 -13.160  1.00  0.00     0.064 C 
ATOM      6  O   UNL     1     -21.244 -33.718 -14.381  1.00  0.00    -0.545 OA
ATOM      7  O   UNL     1     -20.549 -33.122 -12.284  1.00  0.00    -0.545 OA
ENDBRANCH   4   5
ENDBRANCH   2   3
ENDBRANCH   1   2
BRANCH   1   8
ATOM      8  C   UNL     1     -26.932 -34.620 -11.436  1.00  0.00     0.000 C 
BRANCH   8   9
ATOM      9  C   UNL     1     -28.010 -33.921 -12.280  1.00  0.00    -0.000 C 
BRANCH   9  10
ATOM     10  C   UNL     1     -27.612 -33.792 -13.757  1.00  0.00    -0.003 C 
ATOM     11  C   UNL     1     -27.781 -35.120 -14.489  1.00  0.00     0.004 C 
ENDBRANCH   9  10
ENDBRANCH   8   9
ENDBRANCH   1   8
TORSDOF 6
ENDMDL
MODEL 8
REMARK VINA RESULT:    -4.248      1.456      2.044
REMARK INTER + INTRA:          -6.343
REMARK INTER:                  -5.730
REMARK INTRA:                  -0.613
REMARK UNBOUND:                -0.605
REMARK SMILES CCCCCCC=CC(=O)[O-]
REMARK SMILES IDX 5 1 6 2 7 3 8 4 9 5 10 6 11 7 4 8 3 9 2 10 1 11
REMARK H PARENT
REMARK Flexibility Score: inf
ROOT
ATOM      1  C   UNL     1     -27.062 -31.744 -12.661  1.00  0.00     0.004 C 
ENDROOT
BRANCH   1   2
ATOM      2  C   UNL     1     -26.575 -32.011 -11.231  1.00  0.00     0.027 C 
BRANCH   2   3
ATOM      3  C   UNL     1     -25.124 -32.399 -11.213  1.00  0.00    -0.025 C 
ATOM      4  C   UNL     1     -24.515 -32.873 -12.305  1.00  0.00     0.020 C 
BRANCH   4   5
ATOM      5  C   UNL     1     -23.100 -33.270 -12.299  1.00  0.00     0.064 C 
ATOM      6  O   UNL     1     -22.258 -32.560 -11.688  1.00  0.00    -0.545 OA
ATOM      7  O   UNL     1     -22.675 -34.420 -12.955  1.00  0.00    -0.545 OA
ENDBRANCH   4   5
ENDBRANCH   2   3
ENDBRANCH   1   2
BRANCH   1   8
ATOM      8  C   UNL     1     -28.277 -32.621 -12.999  1.00  0.00     0.000 C 
BRANCH   8   9
ATOM      9  C   UNL     1     -28.271 -33.959 -12.243  1.00  0.00    -0.000 C 
BRANCH   9  10
ATOM     10  C   UNL     1     -27.525 -35.065 -13.004  1.00  0.00    -0.003 C 
ATOM     11  C   UNL     1     -27.722 -34.923 -14.511  1.00  0.00     0.004 C 
ENDBRANCH   9  10
ENDBRANCH   8   9
ENDBRANCH   1   8
TORSDOF 6
ENDMDL
MODEL 9
REMARK VINA RESULT:    -4.047      3.191      5.305
REMARK INTER + INTRA:          -6.072
REMARK INTER:                  -5.718
REMARK INTRA:                  -0.353
REMARK UNBOUND:                -0.605
REMARK SMILES CCCCCCC=CC(=O)[O-]
REMARK SMILES IDX 5 1 6 2 7 3 8 4 9 5 10 6 11 7 4 8 3 9 2 10 1 11
REMARK H PARENT
REMARK Flexibility Score: inf
ROOT
ATOM      1  C   UNL     1     -25.156 -35.452 -12.726  1.00  0.00     0.004 C 
ENDROOT
BRANCH   1   2
ATOM      2  C   UNL     1     -25.757 -35.004 -11.387  1.00  0.00     0.027 C 
BRANCH   2   3
ATOM      3  C   UNL     1     -26.892 -34.042 -11.594  1.00  0.00    -0.025 C 
ATOM      4  C   UNL     1     -26.678 -32.783 -11.990  1.00  0.00     0.020 C 
BRANCH   4   5
ATOM      5  C   UNL     1     -27.778 -31.828 -12.183  1.00  0.00     0.064 C 
ATOM      6  O   UNL     1     -28.588 -31.997 -13.131  1.00  0.00    -0.545 OA
ATOM      7  O   UNL     1     -27.940 -30.739 -11.333  1.00  0.00    -0.545 OA
ENDBRANCH   4   5
ENDBRANCH   2   3
ENDBRANCH   1   2
BRANCH   1   8
ATOM      8  C   UNL     1     -23.625 -35.535 -12.640  1.00  0.00     0.000 C 
BRANCH   8   9
ATOM      9  C   UNL     1     -22.950 -34.157 -12.717  1.00  0.00    -0.000 C 
BRANCH   9  10
ATOM     10  C   UNL     1     -21.423 -34.252 -12.848  1.00  0.00    -0.003 C 
ATOM     11  C   UNL     1     -20.909 -35.585 -12.312  1.00  0.00     0.004 C 
ENDBRANCH   9  10
ENDBRANCH   8   9
ENDBRANCH   1   8
TORSDOF 6
ENDMDL
