MODEL 1
REMARK VINA RESULT:    -0.550      0.000      0.000
REMARK INTER + INTRA:          -2.129
REMARK INTER:                  -1.033
REMARK INTRA:                  -1.096
REMARK UNBOUND:                -1.096
REMARK SMILES O=C([O-])CCCCCCCCCCCCCCC(=O)[O-]
REMARK SMILES IDX 10 1 9 2 8 3 7 4 6 5 5 6 4 7 2 8 1 9 3 10 11 11 12 12 13 13
REMARK SMILES IDX 14 14 15 15 16 16 17 17 18 18 19 19 20 20
REMARK H PARENT
REMARK Flexibility Score: inf
ROOT
ATOM      1  C   UNL     1       4.748  -8.157   6.005  1.00  0.00     0.000 C 
ENDROOT
BRANCH   1   2
ATOM      2  C   UNL     1       5.957  -7.246   6.296  1.00  0.00     0.000 C 
BRANCH   2   3
ATOM      3  C   UNL     1       5.700  -5.736   6.123  1.00  0.00     0.000 C 
BRANCH   3   4
ATOM      4  C   UNL     1       5.282  -5.303   4.706  1.00  0.00     0.000 C 
BRANCH   4   5
ATOM      5  C   UNL     1       5.148  -3.777   4.563  1.00  0.00     0.000 C 
BRANCH   5   6
ATOM      6  C   UNL     1       4.503  -3.365   3.230  1.00  0.00     0.006 C 
BRANCH   6   7
ATOM      7  C   UNL     1       2.969  -3.397   3.280  1.00  0.00     0.053 C 
BRANCH   7   8
ATOM      8  C   UNL     1       2.396  -2.971   1.965  1.00  0.00     0.041 C 
ATOM      9  O   UNL     1       3.157  -2.660   1.012  1.00  0.00    -0.550 OA
ATOM     10  O   UNL     1       1.020  -2.869   1.807  1.00  0.00    -0.550 OA
ENDBRANCH   7   8
ENDBRANCH   6   7
ENDBRANCH   5   6
ENDBRANCH   4   5
ENDBRANCH   3   4
ENDBRANCH   2   3
ENDBRANCH   1   2
BRANCH   1  11
ATOM     11  C   UNL     1       4.839  -9.574   6.600  1.00  0.00     0.000 C 
BRANCH  11  12
ATOM     12  C   UNL     1       3.516 -10.041   7.229  1.00  0.00     0.000 C 
BRANCH  12  13
ATOM     13  C   UNL     1       3.341  -9.560   8.681  1.00  0.00     0.000 C 
BRANCH  13  14
ATOM     14  C   UNL     1       4.617  -9.012   9.354  1.00  0.00     0.000 C 
BRANCH  14  15
ATOM     15  C   UNL     1       5.453 -10.056  10.115  1.00  0.00     0.000 C 
BRANCH  15  16
ATOM     16  C   UNL     1       6.968  -9.844   9.949  1.00  0.00     0.006 C 
BRANCH  16  17
ATOM     17  C   UNL     1       7.305  -8.416   9.498  1.00  0.00     0.053 C 
BRANCH  17  18
ATOM     18  C   UNL     1       8.600  -8.364   8.747  1.00  0.00     0.041 C 
ATOM     19  O   UNL     1       8.724  -8.982   7.657  1.00  0.00    -0.550 OA
ATOM     20  O   UNL     1       9.656  -7.605   9.232  1.00  0.00    -0.550 OA
ENDBRANCH  17  18
ENDBRANCH  16  17
ENDBRANCH  15  16
ENDBRANCH  14  15
ENDBRANCH  13  14
ENDBRANCH  12  13
ENDBRANCH  11  12
ENDBRANCH   1  11
TORSDOF 15
ENDMDL
MODEL 2
REMARK VINA RESULT:    -0.400      1.585      8.405
REMARK INTER + INTRA:          -1.847
REMARK INTER:                  -0.710
REMARK INTRA:                  -1.137
REMARK UNBOUND:                -1.096
REMARK SMILES O=C([O-])CCCCCCCCCCCCCCC(=O)[O-]
REMARK SMILES IDX 10 1 9 2 8 3 7 4 6 5 5 6 4 7 2 8 1 9 3 10 11 11 12 12 13 13
REMARK SMILES IDX 14 14 15 15 16 16 17 17 18 18 19 19 20 20
REMARK H PARENT
REMARK Flexibility Score: inf
ROOT
ATOM      1  C   UNL     1       5.332  -9.196   5.775  1.00  0.00     0.000 C 
ENDROOT
BRANCH   1   2
ATOM      2  C   UNL     1       6.755  -9.438   5.234  1.00  0.00     0.000 C 
BRANCH   2   3
ATOM      3  C   UNL     1       7.745 -10.057   6.241  1.00  0.00     0.000 C 
BRANCH   3   4
ATOM      4  C   UNL     1       9.152  -9.431   6.242  1.00  0.00     0.000 C 
BRANCH   4   5
ATOM      5  C   UNL     1       9.915  -9.681   7.554  1.00  0.00     0.000 C 
BRANCH   5   6
ATOM      6  C   UNL     1       9.548  -8.668   8.651  1.00  0.00     0.006 C 
BRANCH   6   7
ATOM      7  C   UNL     1       8.764  -9.305   9.806  1.00  0.00     0.053 C 
BRANCH   7   8
ATOM      8  C   UNL     1       7.336  -8.858   9.774  1.00  0.00     0.041 C 
ATOM      9  O   UNL     1       6.412  -9.697   9.606  1.00  0.00    -0.550 OA
ATOM     10  O   UNL     1       7.028  -7.508   9.881  1.00  0.00    -0.550 OA
ENDBRANCH   7   8
ENDBRANCH   6   7
ENDBRANCH   5   6
ENDBRANCH   4   5
ENDBRANCH   3   4
ENDBRANCH   2   3
ENDBRANCH   1   2
BRANCH   1  11
ATOM     11  C   UNL     1       5.190  -7.997   6.729  1.00  0.00     0.000 C 
BRANCH  11  12
ATOM     12  C   UNL     1       6.277  -6.931   6.511  1.00  0.00     0.000 C 
BRANCH  12  13
ATOM     13  C   UNL     1       5.696  -5.525   6.274  1.00  0.00     0.000 C 
BRANCH  13  14
ATOM     14  C   UNL     1       5.286  -5.215   4.819  1.00  0.00     0.000 C 
BRANCH  14  15
ATOM     15  C   UNL     1       5.291  -3.723   4.442  1.00  0.00     0.000 C 
BRANCH  15  16
ATOM     16  C   UNL     1       4.600  -3.445   3.096  1.00  0.00     0.006 C 
BRANCH  16  17
ATOM     17  C   UNL     1       3.098  -3.176   3.262  1.00  0.00     0.053 C 
BRANCH  17  18
ATOM     18  C   UNL     1       2.424  -2.967   1.940  1.00  0.00     0.041 C 
ATOM     19  O   UNL     1       1.171  -3.041   1.850  1.00  0.00    -0.550 OA
ATOM     20  O   UNL     1       3.177  -2.655   0.817  1.00  0.00    -0.550 OA
ENDBRANCH  17  18
ENDBRANCH  16  17
ENDBRANCH  15  16
ENDBRANCH  14  15
ENDBRANCH  13  14
ENDBRANCH  12  13
ENDBRANCH  11  12
ENDBRANCH   1  11
TORSDOF 15
ENDMDL
MODEL 3
REMARK VINA RESULT:    -0.370      0.733      8.345
REMARK INTER + INTRA:          -1.791
REMARK INTER:                  -0.451
REMARK INTRA:                  -1.341
REMARK UNBOUND:                -1.096
REMARK SMILES O=C([O-])CCCCCCCCCCCCCCC(=O)[O-]
REMARK SMILES IDX 10 1 9 2 8 3 7 4 6 5 5 6 4 7 2 8 1 9 3 10 11 11 12 12 13 13
REMARK SMILES IDX 14 14 15 15 16 16 17 17 18 18 19 19 20 20
REMARK H PARENT
REMARK Flexibility Score: inf
ROOT
ATOM      1  C   UNL     1       4.112  -8.590   6.296  1.00  0.00     0.000 C 
ENDROOT
BRANCH   1   2
ATOM      2  C   UNL     1       3.742  -9.981   6.846  1.00  0.00     0.000 C 
BRANCH   2   3
ATOM      3  C   UNL     1       3.089  -9.984   8.243  1.00  0.00     0.000 C 
BRANCH   3   4
ATOM      4  C   UNL     1       3.783  -9.094   9.290  1.00  0.00     0.000 C 
BRANCH   4   5
ATOM      5  C   UNL     1       5.090  -9.708   9.822  1.00  0.00     0.000 C 
BRANCH   5   6
ATOM      6  C   UNL     1       6.317  -8.832   9.521  1.00  0.00     0.006 C 
BRANCH   6   7
ATOM      7  C   UNL     1       7.516  -9.647   9.017  1.00  0.00     0.053 C 
BRANCH   7   8
ATOM      8  C   UNL     1       8.526  -8.746   8.378  1.00  0.00     0.041 C 
ATOM      9  O   UNL     1       8.859  -7.669   8.936  1.00  0.00    -0.550 OA
ATOM     10  O   UNL     1       9.062  -9.074   7.139  1.00  0.00    -0.550 OA
ENDBRANCH   7   8
ENDBRANCH   6   7
ENDBRANCH   5   6
ENDBRANCH   4   5
ENDBRANCH   3   4
ENDBRANCH   2   3
ENDBRANCH   1   2
BRANCH   1  11
ATOM     11  C   UNL     1       5.612  -8.367   6.036  1.00  0.00     0.000 C 
BRANCH  11  12
ATOM     12  C   UNL     1       6.028  -6.893   6.173  1.00  0.00     0.000 C 
BRANCH  12  13
ATOM     13  C   UNL     1       5.279  -5.967   5.198  1.00  0.00     0.000 C 
BRANCH  13  14
ATOM     14  C   UNL     1       5.576  -4.461   5.356  1.00  0.00     0.000 C 
BRANCH  14  15
ATOM     15  C   UNL     1       5.276  -3.602   4.115  1.00  0.00     0.000 C 
BRANCH  15  16
ATOM     16  C   UNL     1       4.007  -4.053   3.371  1.00  0.00     0.006 C 
BRANCH  16  17
ATOM     17  C   UNL     1       2.966  -2.930   3.271  1.00  0.00     0.053 C 
BRANCH  17  18
ATOM     18  C   UNL     1       2.363  -2.854   1.902  1.00  0.00     0.041 C 
ATOM     19  O   UNL     1       1.115  -2.941   1.754  1.00  0.00    -0.550 OA
ATOM     20  O   UNL     1       3.174  -2.653   0.793  1.00  0.00    -0.550 OA
ENDBRANCH  17  18
ENDBRANCH  16  17
ENDBRANCH  15  16
ENDBRANCH  14  15
ENDBRANCH  13  14
ENDBRANCH  12  13
ENDBRANCH  11  12
ENDBRANCH   1  11
TORSDOF 15
ENDMDL
MODEL 4
REMARK VINA RESULT:    -0.324      2.019      2.937
REMARK INTER + INTRA:          -1.705
REMARK INTER:                  -0.496
REMARK INTRA:                  -1.209
REMARK UNBOUND:                -1.096
REMARK SMILES O=C([O-])CCCCCCCCCCCCCCC(=O)[O-]
REMARK SMILES IDX 10 1 9 2 8 3 7 4 6 5 5 6 4 7 2 8 1 9 3 10 11 11 12 12 13 13
REMARK SMILES IDX 14 14 15 15 16 16 17 17 18 18 19 19 20 20
REMARK H PARENT
REMARK Flexibility Score: inf
ROOT
ATOM      1  C   UNL     1       5.663  -7.909   5.916  1.00  0.00     0.000 C 
ENDROOT
BRANCH   1   2
ATOM      2  C   UNL     1       5.840  -6.758   6.925  1.00  0.00     0.000 C 
BRANCH   2   3
ATOM      3  C   UNL     1       5.938  -5.349   6.305  1.00  0.00     0.000 C 
BRANCH   3   4
ATOM      4  C   UNL     1       5.387  -5.227   4.872  1.00  0.00     0.000 C 
BRANCH   4   5
ATOM      5  C   UNL     1       5.314  -3.770   4.383  1.00  0.00     0.000 C 
BRANCH   5   6
ATOM      6  C   UNL     1       4.562  -3.634   3.049  1.00  0.00     0.006 C 
BRANCH   6   7
ATOM      7  C   UNL     1       3.124  -3.130   3.230  1.00  0.00     0.053 C 
BRANCH   7   8
ATOM      8  C   UNL     1       2.462  -2.954   1.899  1.00  0.00     0.041 C 
ATOM      9  O   UNL     1       3.141  -2.619   0.893  1.00  0.00    -0.550 OA
ATOM     10  O   UNL     1       1.087  -3.111   1.781  1.00  0.00    -0.550 OA
ENDBRANCH   7   8
ENDBRANCH   6   7
ENDBRANCH   5   6
ENDBRANCH   4   5
ENDBRANCH   3   4
ENDBRANCH   2   3
ENDBRANCH   1   2
BRANCH   1  11
ATOM     11  C   UNL     1       6.965  -8.607   5.485  1.00  0.00     0.000 C 
BRANCH  11  12
ATOM     12  C   UNL     1       7.257  -9.878   6.300  1.00  0.00     0.000 C 
BRANCH  12  13
ATOM     13  C   UNL     1       8.416  -9.696   7.297  1.00  0.00     0.000 C 
BRANCH  13  14
ATOM     14  C   UNL     1       8.058  -8.944   8.597  1.00  0.00     0.000 C 
BRANCH  14  15
ATOM     15  C   UNL     1       7.753  -9.843   9.808  1.00  0.00     0.000 C 
BRANCH  15  16
ATOM     16  C   UNL     1       6.250 -10.125   9.978  1.00  0.00     0.006 C 
BRANCH  16  17
ATOM     17  C   UNL     1       5.422  -8.834  10.030  1.00  0.00     0.053 C 
BRANCH  17  18
ATOM     18  C   UNL     1       4.046  -9.035   9.473  1.00  0.00     0.041 C 
ATOM     19  O   UNL     1       3.038  -8.648  10.121  1.00  0.00    -0.550 OA
ATOM     20  O   UNL     1       3.879  -9.617   8.224  1.00  0.00    -0.550 OA
ENDBRANCH  17  18
ENDBRANCH  16  17
ENDBRANCH  15  16
ENDBRANCH  14  15
ENDBRANCH  13  14
ENDBRANCH  12  13
ENDBRANCH  11  12
ENDBRANCH   1  11
TORSDOF 15
ENDMDL
MODEL 5
REMARK VINA RESULT:    -0.078      1.961      8.089
REMARK INTER + INTRA:          -1.242
REMARK INTER:                  -0.064
REMARK INTRA:                  -1.179
REMARK UNBOUND:                -1.096
REMARK SMILES O=C([O-])CCCCCCCCCCCCCCC(=O)[O-]
REMARK SMILES IDX 10 1 9 2 8 3 7 4 6 5 5 6 4 7 2 8 1 9 3 10 11 11 12 12 13 13
REMARK SMILES IDX 14 14 15 15 16 16 17 17 18 18 19 19 20 20
REMARK H PARENT
REMARK Flexibility Score: inf
ROOT
ATOM      1  C   UNL     1       6.776  -9.315   5.488  1.00  0.00     0.000 C 
ENDROOT
BRANCH   1   2
ATOM      2  C   UNL     1       7.974  -8.880   6.355  1.00  0.00     0.000 C 
BRANCH   2   3
ATOM      3  C   UNL     1       8.420  -9.901   7.420  1.00  0.00     0.000 C 
BRANCH   3   4
ATOM      4  C   UNL     1       8.387  -9.387   8.871  1.00  0.00     0.000 C 
BRANCH   4   5
ATOM      5  C   UNL     1       7.705  -8.014   9.002  1.00  0.00     0.000 C 
BRANCH   5   6
ATOM      6  C   UNL     1       6.604  -8.003  10.075  1.00  0.00     0.006 C 
BRANCH   6   7
ATOM      7  C   UNL     1       5.814  -9.318  10.125  1.00  0.00     0.053 C 
BRANCH   7   8
ATOM      8  C   UNL     1       4.464  -9.138   9.505  1.00  0.00     0.041 C 
ATOM      9  O   UNL     1       3.565  -8.503  10.116  1.00  0.00    -0.550 OA
ATOM     10  O   UNL     1       4.183  -9.713   8.272  1.00  0.00    -0.550 OA
ENDBRANCH   7   8
ENDBRANCH   6   7
ENDBRANCH   5   6
ENDBRANCH   4   5
ENDBRANCH   3   4
ENDBRANCH   2   3
ENDBRANCH   1   2
BRANCH   1  11
ATOM     11  C   UNL     1       5.511  -8.452   5.641  1.00  0.00     0.000 C 
BRANCH  11  12
ATOM     12  C   UNL     1       5.819  -7.021   6.111  1.00  0.00     0.000 C 
BRANCH  12  13
ATOM     13  C   UNL     1       5.448  -5.955   5.063  1.00  0.00     0.000 C 
BRANCH  13  14
ATOM     14  C   UNL     1       5.415  -4.502   5.582  1.00  0.00     0.000 C 
BRANCH  14  15
ATOM     15  C   UNL     1       5.325  -3.421   4.491  1.00  0.00     0.000 C 
BRANCH  15  16
ATOM     16  C   UNL     1       4.465  -3.854   3.291  1.00  0.00     0.006 C 
BRANCH  16  17
ATOM     17  C   UNL     1       3.055  -3.250   3.343  1.00  0.00     0.053 C 
BRANCH  17  18
ATOM     18  C   UNL     1       2.559  -2.884   1.978  1.00  0.00     0.041 C 
ATOM     19  O   UNL     1       3.373  -2.723   1.031  1.00  0.00    -0.550 OA
ATOM     20  O   UNL     1       1.196  -2.756   1.744  1.00  0.00    -0.550 OA
ENDBRANCH  17  18
ENDBRANCH  16  17
ENDBRANCH  15  16
ENDBRANCH  14  15
ENDBRANCH  13  14
ENDBRANCH  12  13
ENDBRANCH  11  12
ENDBRANCH   1  11
TORSDOF 15
ENDMDL
MODEL 6
REMARK VINA RESULT:    -0.064      1.740      2.736
REMARK INTER + INTRA:          -1.216
REMARK INTER:                  -0.246
REMARK INTRA:                  -0.970
REMARK UNBOUND:                -1.096
REMARK SMILES O=C([O-])CCCCCCCCCCCCCCC(=O)[O-]
REMARK SMILES IDX 10 1 9 2 8 3 7 4 6 5 5 6 4 7 2 8 1 9 3 10 11 11 12 12 13 13
REMARK SMILES IDX 14 14 15 15 16 16 17 17 18 18 19 19 20 20
REMARK H PARENT
REMARK Flexibility Score: inf
ROOT
ATOM      1  C   UNL     1       5.299  -8.307   6.372  1.00  0.00     0.000 C 
ENDROOT
BRANCH   1   2
ATOM      2  C   UNL     1       5.124  -7.004   5.566  1.00  0.00     0.000 C 
BRANCH   2   3
ATOM      3  C   UNL     1       5.919  -5.793   6.094  1.00  0.00     0.000 C 
BRANCH   3   4
ATOM      4  C   UNL     1       5.555  -4.443   5.450  1.00  0.00     0.000 C 
BRANCH   4   5
ATOM      5  C   UNL     1       4.899  -4.599   4.067  1.00  0.00     0.000 C 
BRANCH   5   6
ATOM      6  C   UNL     1       4.285  -3.285   3.555  1.00  0.00     0.006 C 
BRANCH   6   7
ATOM      7  C   UNL     1       2.764  -3.374   3.377  1.00  0.00     0.053 C 
BRANCH   7   8
ATOM      8  C   UNL     1       2.376  -2.954   1.993  1.00  0.00     0.041 C 
ATOM      9  O   UNL     1       1.166  -2.944   1.649  1.00  0.00    -0.550 OA
ATOM     10  O   UNL     1       3.357  -2.621   1.069  1.00  0.00    -0.550 OA
ENDBRANCH   7   8
ENDBRANCH   6   7
ENDBRANCH   5   6
ENDBRANCH   4   5
ENDBRANCH   3   4
ENDBRANCH   2   3
ENDBRANCH   1   2
BRANCH   1  11
ATOM     11  C   UNL     1       5.681  -9.544   5.539  1.00  0.00     0.000 C 
BRANCH  11  12
ATOM     12  C   UNL     1       7.183  -9.602   5.213  1.00  0.00     0.000 C 
BRANCH  12  13
ATOM     13  C   UNL     1       8.045  -9.978   6.432  1.00  0.00     0.000 C 
BRANCH  13  14
ATOM     14  C   UNL     1       9.502  -9.469   6.394  1.00  0.00     0.000 C 
BRANCH  14  15
ATOM     15  C   UNL     1      10.118  -9.151   7.767  1.00  0.00     0.000 C 
BRANCH  15  16
ATOM     16  C   UNL     1       9.280  -9.695   8.938  1.00  0.00     0.006 C 
BRANCH  16  17
ATOM     17  C   UNL     1       8.860  -8.585   9.911  1.00  0.00     0.053 C 
BRANCH  17  18
ATOM     18  C   UNL     1       7.550  -7.973   9.520  1.00  0.00     0.041 C 
ATOM     19  O   UNL     1       6.472  -8.439   9.974  1.00  0.00    -0.550 OA
ATOM     20  O   UNL     1       7.522  -6.866   8.682  1.00  0.00    -0.550 OA
ENDBRANCH  17  18
ENDBRANCH  16  17
ENDBRANCH  15  16
ENDBRANCH  14  15
ENDBRANCH  13  14
ENDBRANCH  12  13
ENDBRANCH  11  12
ENDBRANCH   1  11
TORSDOF 15
ENDMDL
MODEL 7
REMARK VINA RESULT:     0.307      2.215      3.755
REMARK INTER + INTRA:          -0.519
REMARK INTER:                   0.244
REMARK INTRA:                  -0.763
REMARK UNBOUND:                -1.096
REMARK SMILES O=C([O-])CCCCCCCCCCCCCCC(=O)[O-]
REMARK SMILES IDX 10 1 9 2 8 3 7 4 6 5 5 6 4 7 2 8 1 9 3 10 11 11 12 12 13 13
REMARK SMILES IDX 14 14 15 15 16 16 17 17 18 18 19 19 20 20
REMARK H PARENT
REMARK Flexibility Score: inf
ROOT
ATOM      1  C   UNL     1       7.534  -6.981   7.700  1.00  0.00     0.000 C 
ENDROOT
BRANCH   1   2
ATOM      2  C   UNL     1       6.178  -6.275   7.500  1.00  0.00     0.000 C 
BRANCH   2   3
ATOM      3  C   UNL     1       5.722  -6.130   6.035  1.00  0.00     0.000 C 
BRANCH   3   4
ATOM      4  C   UNL     1       5.634  -4.682   5.519  1.00  0.00     0.000 C 
BRANCH   4   5
ATOM      5  C   UNL     1       5.251  -4.601   4.031  1.00  0.00     0.000 C 
BRANCH   5   6
ATOM      6  C   UNL     1       4.506  -3.301   3.685  1.00  0.00     0.006 C 
BRANCH   6   7
ATOM      7  C   UNL     1       3.001  -3.519   3.477  1.00  0.00     0.053 C 
BRANCH   7   8
ATOM      8  C   UNL     1       2.586  -3.025   2.127  1.00  0.00     0.041 C 
ATOM      9  O   UNL     1       1.367  -2.988   1.812  1.00  0.00    -0.550 OA
ATOM     10  O   UNL     1       3.548  -2.651   1.198  1.00  0.00    -0.550 OA
ENDBRANCH   7   8
ENDBRANCH   6   7
ENDBRANCH   5   6
ENDBRANCH   4   5
ENDBRANCH   3   4
ENDBRANCH   2   3
ENDBRANCH   1   2
BRANCH   1  11
ATOM     11  C   UNL     1       7.523  -8.145   8.707  1.00  0.00     0.000 C 
BRANCH  11  12
ATOM     12  C   UNL     1       7.491  -9.523   8.024  1.00  0.00     0.000 C 
BRANCH  12  13
ATOM     13  C   UNL     1       8.291  -9.557   6.709  1.00  0.00     0.000 C 
BRANCH  13  14
ATOM     14  C   UNL     1       7.465  -9.859   5.440  1.00  0.00     0.000 C 
BRANCH  14  15
ATOM     15  C   UNL     1       6.015  -9.344   5.468  1.00  0.00     0.000 C 
BRANCH  15  16
ATOM     16  C   UNL     1       5.126 -10.118   6.458  1.00  0.00     0.006 C 
BRANCH  16  17
ATOM     17  C   UNL     1       3.813  -9.381   6.753  1.00  0.00     0.053 C 
BRANCH  17  18
ATOM     18  C   UNL     1       3.436  -9.478   8.199  1.00  0.00     0.041 C 
ATOM     19  O   UNL     1       4.165  -8.952   9.080  1.00  0.00    -0.550 OA
ATOM     20  O   UNL     1       2.262 -10.119   8.571  1.00  0.00    -0.550 OA
ENDBRANCH  17  18
ENDBRANCH  16  17
ENDBRANCH  15  16
ENDBRANCH  14  15
ENDBRANCH  13  14
ENDBRANCH  12  13
ENDBRANCH  11  12
ENDBRANCH   1  11
TORSDOF 15
ENDMDL
