MODEL 1
REMARK VINA RESULT:    -3.706      0.000      0.000
REMARK INTER + INTRA:          -4.338
REMARK INTER:                  -4.356
REMARK INTRA:                   0.019
REMARK UNBOUND:                 0.019
REMARK SMILES CCCCC(=O)[O-]
REMARK SMILES IDX 4 1 5 2 6 3 7 4 3 5 2 6 1 7
REMARK H PARENT
REMARK Flexibility Score: inf
ROOT
ATOM      1  C   UNL     1      40.637  26.619  16.482  1.00  0.00     0.053 C 
ENDROOT
BRANCH   1   2
ATOM      2  C   UNL     1      39.342  26.394  17.196  1.00  0.00     0.041 C 
ATOM      3  O   UNL     1      39.279  26.518  18.447  1.00  0.00    -0.550 OA
ATOM      4  O   UNL     1      38.193  26.095  16.476  1.00  0.00    -0.550 OA
ENDBRANCH   1   2
BRANCH   1   5
ATOM      5  C   UNL     1      41.726  27.052  17.468  1.00  0.00     0.006 C 
BRANCH   5   6
ATOM      6  C   UNL     1      41.726  28.574  17.653  1.00  0.00    -0.003 C 
ATOM      7  C   UNL     1      42.141  29.286  16.369  1.00  0.00     0.004 C 
ENDBRANCH   5   6
ENDBRANCH   1   5
TORSDOF 3
ENDMDL
MODEL 2
REMARK VINA RESULT:    -3.684      2.197      2.559
REMARK INTER + INTRA:          -4.311
REMARK INTER:                  -4.367
REMARK INTRA:                   0.055
REMARK UNBOUND:                 0.019
REMARK SMILES CCCCC(=O)[O-]
REMARK SMILES IDX 4 1 5 2 6 3 7 4 3 5 2 6 1 7
REMARK H PARENT
REMARK Flexibility Score: inf
ROOT
ATOM      1  C   UNL     1      41.379  26.246  16.606  1.00  0.00     0.053 C 
ENDROOT
BRANCH   1   2
ATOM      2  C   UNL     1      42.155  25.379  17.544  1.00  0.00     0.041 C 
ATOM      3  O   UNL     1      42.017  25.509  18.789  1.00  0.00    -0.550 OA
ATOM      4  O   UNL     1      42.995  24.391  17.045  1.00  0.00    -0.550 OA
ENDBRANCH   1   2
BRANCH   1   5
ATOM      5  C   UNL     1      40.713  27.399  17.366  1.00  0.00     0.006 C 
BRANCH   5   6
ATOM      6  C   UNL     1      41.720  28.517  17.659  1.00  0.00    -0.003 C 
ATOM      7  C   UNL     1      42.116  29.251  16.381  1.00  0.00     0.004 C 
ENDBRANCH   5   6
ENDBRANCH   1   5
TORSDOF 3
ENDMDL
MODEL 3
REMARK VINA RESULT:    -3.675      2.527      3.426
REMARK INTER + INTRA:          -4.301
REMARK INTER:                  -4.319
REMARK INTRA:                   0.017
REMARK UNBOUND:                 0.019
REMARK SMILES CCCCC(=O)[O-]
REMARK SMILES IDX 4 1 5 2 6 3 7 4 3 5 2 6 1 7
REMARK H PARENT
REMARK Flexibility Score: inf
ROOT
ATOM      1  C   UNL     1      41.431  26.215  16.625  1.00  0.00     0.053 C 
ENDROOT
BRANCH   1   2
ATOM      2  C   UNL     1      42.242  25.387  17.571  1.00  0.00     0.041 C 
ATOM      3  O   UNL     1      42.150  25.571  18.812  1.00  0.00    -0.550 OA
ATOM      4  O   UNL     1      43.064  24.378  17.084  1.00  0.00    -0.550 OA
ENDBRANCH   1   2
BRANCH   1   5
ATOM      5  C   UNL     1      40.535  27.189  17.397  1.00  0.00     0.006 C 
BRANCH   5   6
ATOM      6  C   UNL     1      39.189  26.542  17.741  1.00  0.00    -0.003 C 
ATOM      7  C   UNL     1      38.393  26.222  16.479  1.00  0.00     0.004 C 
ENDBRANCH   5   6
ENDBRANCH   1   5
TORSDOF 3
ENDMDL
MODEL 4
REMARK VINA RESULT:    -3.663      2.249      3.433
REMARK INTER + INTRA:          -4.287
REMARK INTER:                  -4.332
REMARK INTRA:                   0.044
REMARK UNBOUND:                 0.019
REMARK SMILES CCCCC(=O)[O-]
REMARK SMILES IDX 4 1 5 2 6 3 7 4 3 5 2 6 1 7
REMARK H PARENT
REMARK Flexibility Score: inf
ROOT
ATOM      1  C   UNL     1      41.370  27.021  16.488  1.00  0.00     0.053 C 
ENDROOT
BRANCH   1   2
ATOM      2  C   UNL     1      41.719  28.324  17.133  1.00  0.00     0.041 C 
ATOM      3  O   UNL     1      41.736  28.426  18.387  1.00  0.00    -0.550 OA
ATOM      4  O   UNL     1      42.075  29.415  16.349  1.00  0.00    -0.550 OA
ENDBRANCH   1   2
BRANCH   1   5
ATOM      5  C   UNL     1      40.671  26.096  17.490  1.00  0.00     0.006 C 
BRANCH   5   6
ATOM      6  C   UNL     1      39.210  26.513  17.696  1.00  0.00    -0.003 C 
ATOM      7  C   UNL     1      38.361  26.170  16.475  1.00  0.00     0.004 C 
ENDBRANCH   5   6
ENDBRANCH   1   5
TORSDOF 3
ENDMDL
MODEL 5
REMARK VINA RESULT:    -3.601      2.501      3.559
REMARK INTER + INTRA:          -4.214
REMARK INTER:                  -4.254
REMARK INTRA:                   0.040
REMARK UNBOUND:                 0.019
REMARK SMILES CCCCC(=O)[O-]
REMARK SMILES IDX 4 1 5 2 6 3 7 4 3 5 2 6 1 7
REMARK H PARENT
REMARK Flexibility Score: inf
ROOT
ATOM      1  C   UNL     1      41.361  27.070  16.475  1.00  0.00     0.053 C 
ENDROOT
BRANCH   1   2
ATOM      2  C   UNL     1      41.720  28.376  17.110  1.00  0.00     0.041 C 
ATOM      3  O   UNL     1      42.065  29.353  16.396  1.00  0.00    -0.550 OA
ATOM      4  O   UNL     1      41.626  28.530  18.487  1.00  0.00    -0.550 OA
ENDBRANCH   1   2
BRANCH   1   5
ATOM      5  C   UNL     1      40.945  26.052  17.542  1.00  0.00     0.006 C 
BRANCH   5   6
ATOM      6  C   UNL     1      42.169  25.341  18.130  1.00  0.00    -0.003 C 
ATOM      7  C   UNL     1      42.869  24.486  17.078  1.00  0.00     0.004 C 
ENDBRANCH   5   6
ENDBRANCH   1   5
TORSDOF 3
ENDMDL
MODEL 6
REMARK VINA RESULT:    -3.474      1.768      2.928
REMARK INTER + INTRA:          -4.065
REMARK INTER:                  -3.988
REMARK INTRA:                  -0.076
REMARK UNBOUND:                 0.019
REMARK SMILES CCCCC(=O)[O-]
REMARK SMILES IDX 4 1 5 2 6 3 7 4 3 5 2 6 1 7
REMARK H PARENT
REMARK Flexibility Score: inf
ROOT
ATOM      1  C   UNL     1      41.171  27.277  17.497  1.00  0.00     0.053 C 
ENDROOT
BRANCH   1   2
ATOM      2  C   UNL     1      39.886  26.898  18.161  1.00  0.00     0.041 C 
ATOM      3  O   UNL     1      38.900  26.531  17.470  1.00  0.00    -0.550 OA
ATOM      4  O   UNL     1      39.791  26.902  19.547  1.00  0.00    -0.550 OA
ENDBRANCH   1   2
BRANCH   1   5
ATOM      5  C   UNL     1      41.793  26.063  16.798  1.00  0.00     0.006 C 
BRANCH   5   6
ATOM      6  C   UNL     1      42.444  25.118  17.814  1.00  0.00    -0.003 C 
ATOM      7  C   UNL     1      43.308  24.071  17.117  1.00  0.00     0.004 C 
ENDBRANCH   5   6
ENDBRANCH   1   5
TORSDOF 3
ENDMDL
MODEL 7
REMARK VINA RESULT:    -3.468      1.927      2.256
REMARK INTER + INTRA:          -4.058
REMARK INTER:                  -4.058
REMARK INTRA:                  -0.000
REMARK UNBOUND:                 0.019
REMARK SMILES CCCCC(=O)[O-]
REMARK SMILES IDX 4 1 5 2 6 3 7 4 3 5 2 6 1 7
REMARK H PARENT
REMARK Flexibility Score: inf
ROOT
ATOM      1  C   UNL     1      40.062  26.774  17.872  1.00  0.00     0.053 C 
ENDROOT
BRANCH   1   2
ATOM      2  C   UNL     1      40.619  26.746  19.260  1.00  0.00     0.041 C 
ATOM      3  O   UNL     1      40.033  27.359  20.189  1.00  0.00    -0.550 OA
ATOM      4  O   UNL     1      41.758  26.001  19.538  1.00  0.00    -0.550 OA
ENDBRANCH   1   2
BRANCH   1   5
ATOM      5  C   UNL     1      41.102  27.318  16.887  1.00  0.00     0.006 C 
BRANCH   5   6
ATOM      6  C   UNL     1      41.778  28.578  17.441  1.00  0.00    -0.003 C 
ATOM      7  C   UNL     1      42.229  29.502  16.314  1.00  0.00     0.004 C 
ENDBRANCH   5   6
ENDBRANCH   1   5
TORSDOF 3
ENDMDL
MODEL 8
REMARK VINA RESULT:    -3.453      2.491      3.334
REMARK INTER + INTRA:          -4.040
REMARK INTER:                  -4.009
REMARK INTRA:                  -0.031
REMARK UNBOUND:                 0.019
REMARK SMILES CCCCC(=O)[O-]
REMARK SMILES IDX 4 1 5 2 6 3 7 4 3 5 2 6 1 7
REMARK H PARENT
REMARK Flexibility Score: inf
ROOT
ATOM      1  C   UNL     1      41.364  27.848  18.608  1.00  0.00     0.053 C 
ENDROOT
BRANCH   1   2
ATOM      2  C   UNL     1      40.992  27.364  19.974  1.00  0.00     0.041 C 
ATOM      3  O   UNL     1      41.403  26.247  20.384  1.00  0.00    -0.550 OA
ATOM      4  O   UNL     1      40.232  28.168  20.814  1.00  0.00    -0.550 OA
ENDBRANCH   1   2
BRANCH   1   5
ATOM      5  C   UNL     1      41.612  26.664  17.668  1.00  0.00     0.006 C 
BRANCH   5   6
ATOM      6  C   UNL     1      40.577  26.634  16.537  1.00  0.00    -0.003 C 
ATOM      7  C   UNL     1      39.173  26.385  17.082  1.00  0.00     0.004 C 
ENDBRANCH   5   6
ENDBRANCH   1   5
TORSDOF 3
ENDMDL
MODEL 9
REMARK VINA RESULT:    -3.205      2.277      3.072
REMARK INTER + INTRA:          -3.748
REMARK INTER:                  -3.816
REMARK INTRA:                   0.069
REMARK UNBOUND:                 0.019
REMARK SMILES CCCCC(=O)[O-]
REMARK SMILES IDX 4 1 5 2 6 3 7 4 3 5 2 6 1 7
REMARK H PARENT
REMARK Flexibility Score: inf
ROOT
ATOM      1  C   UNL     1      41.698  27.820  17.374  1.00  0.00     0.053 C 
ENDROOT
BRANCH   1   2
ATOM      2  C   UNL     1      41.170  26.519  16.858  1.00  0.00     0.041 C 
ATOM      3  O   UNL     1      39.965  26.417  16.511  1.00  0.00    -0.550 OA
ATOM      4  O   UNL     1      42.022  25.431  16.714  1.00  0.00    -0.550 OA
ENDBRANCH   1   2
BRANCH   1   5
ATOM      5  C   UNL     1      41.270  28.034  18.829  1.00  0.00     0.006 C 
BRANCH   5   6
ATOM      6  C   UNL     1      41.280  26.711  19.605  1.00  0.00    -0.003 C 
ATOM      7  C   UNL     1      40.621  26.870  20.973  1.00  0.00     0.004 C 
ENDBRANCH   5   6
ENDBRANCH   1   5
TORSDOF 3
ENDMDL
