MODEL 1
REMARK VINA RESULT:    -6.118      0.000      0.000
REMARK INTER + INTRA:          -6.885
REMARK INTER:                  -6.834
REMARK INTRA:                  -0.051
REMARK UNBOUND:                -0.051
REMARK SMILES COc1cc2ccc(=O)oc2c(O)c1O
REMARK SMILES IDX 3 1 14 2 12 3 11 4 5 5 4 6 6 7 7 8 8 9 9 10 10 11 2 12 1 13
REMARK SMILES IDX 15 14 13 16
REMARK H PARENT 15 15 13 17
REMARK Flexibility Score: inf
ROOT
ATOM      1  C   UNL     1       9.839   9.742  14.524  1.00  0.00     0.165 A 
ATOM      2  C   UNL     1      10.847  10.150  15.421  1.00  0.00     0.204 A 
ATOM      3  C   UNL     1      12.110  10.541  14.940  1.00  0.00     0.205 A 
ATOM      4  C   UNL     1      12.369  10.528  13.564  1.00  0.00     0.184 A 
ATOM      5  C   UNL     1      11.364  10.121  12.662  1.00  0.00     0.025 A 
ATOM      6  C   UNL     1      10.107   9.731  13.141  1.00  0.00     0.062 A 
ATOM      7  C   UNL     1      11.655  10.119  11.294  1.00  0.00     0.020 A 
ATOM      8  C   UNL     1      12.921  10.515  10.863  1.00  0.00     0.094 A 
ATOM      9  C   UNL     1      13.869  10.905  11.813  1.00  0.00     0.336 A 
ATOM     10  O   UNL     1      15.017  11.266  11.446  1.00  0.00    -0.246 OA
ATOM     11  O   UNL     1      13.565  10.898  13.109  1.00  0.00    -0.419 OA
ENDROOT
BRANCH   1  12
ATOM     12  O   UNL     1       8.590   9.358  15.039  1.00  0.00    -0.493 OA
ATOM     13  C   UNL     1       7.353   9.499  14.349  1.00  0.00     0.278 C 
ENDBRANCH   1  12
BRANCH   2  14
ATOM     14  O   UNL     1      10.605  10.168  16.796  1.00  0.00    -0.502 OA
ATOM     15  H   UNL     1      10.105  10.924  17.249  1.00  0.00     0.293 HD
ENDBRANCH   2  14
BRANCH   3  16
ATOM     16  O   UNL     1      13.117  10.945  15.817  1.00  0.00    -0.502 OA
ATOM     17  H   UNL     1      13.912  10.357  16.035  1.00  0.00     0.293 HD
ENDBRANCH   3  16
TORSDOF 3
ENDMDL
MODEL 2
REMARK VINA RESULT:    -6.114      1.221      4.669
REMARK INTER + INTRA:          -6.880
REMARK INTER:                  -6.811
REMARK INTRA:                  -0.069
REMARK UNBOUND:                -0.051
REMARK SMILES COc1cc2ccc(=O)oc2c(O)c1O
REMARK SMILES IDX 3 1 14 2 12 3 11 4 5 5 4 6 6 7 7 8 8 9 9 10 10 11 2 12 1 13
REMARK SMILES IDX 15 14 13 16
REMARK H PARENT 15 15 13 17
REMARK Flexibility Score: inf
ROOT
ATOM      1  C   UNL     1      12.733   9.817  13.344  1.00  0.00     0.165 A 
ATOM      2  C   UNL     1      12.502  10.211  14.677  1.00  0.00     0.204 A 
ATOM      3  C   UNL     1      11.195  10.223  15.198  1.00  0.00     0.205 A 
ATOM      4  C   UNL     1      10.118   9.842  14.391  1.00  0.00     0.184 A 
ATOM      5  C   UNL     1      10.342   9.447  13.056  1.00  0.00     0.025 A 
ATOM      6  C   UNL     1      11.643   9.435  12.538  1.00  0.00     0.062 A 
ATOM      7  C   UNL     1       9.243   9.073  12.275  1.00  0.00     0.020 A 
ATOM      8  C   UNL     1       7.966   9.100  12.834  1.00  0.00     0.094 A 
ATOM      9  C   UNL     1       7.817   9.503  14.165  1.00  0.00     0.336 A 
ATOM     10  O   UNL     1       6.673   9.535  14.688  1.00  0.00    -0.246 OA
ATOM     11  O   UNL     1       8.880   9.854  14.884  1.00  0.00    -0.419 OA
ENDROOT
BRANCH   1  12
ATOM     12  O   UNL     1      14.050   9.817  12.857  1.00  0.00    -0.493 OA
ATOM     13  C   UNL     1      14.876   8.661  12.759  1.00  0.00     0.278 C 
ENDBRANCH   1  12
BRANCH   2  14
ATOM     14  O   UNL     1      13.567  10.594  15.496  1.00  0.00    -0.502 OA
ATOM     15  H   UNL     1      14.429  10.064  15.551  1.00  0.00     0.293 HD
ENDBRANCH   2  14
BRANCH   3  16
ATOM     16  O   UNL     1      10.953  10.612  16.517  1.00  0.00    -0.502 OA
ATOM     17  H   UNL     1      10.231  10.184  17.082  1.00  0.00     0.293 HD
ENDBRANCH   3  16
TORSDOF 3
ENDMDL
MODEL 3
REMARK VINA RESULT:    -5.909      1.029      1.041
REMARK INTER + INTRA:          -6.650
REMARK INTER:                  -6.599
REMARK INTRA:                  -0.052
REMARK UNBOUND:                -0.051
REMARK SMILES COc1cc2ccc(=O)oc2c(O)c1O
REMARK SMILES IDX 3 1 14 2 12 3 11 4 5 5 4 6 6 7 7 8 8 9 9 10 10 11 2 12 1 13
REMARK SMILES IDX 15 14 13 16
REMARK H PARENT 15 15 13 17
REMARK Flexibility Score: inf
ROOT
ATOM      1  C   UNL     1      10.373  10.144  13.963  1.00  0.00     0.165 A 
ATOM      2  C   UNL     1      11.386  10.305  14.928  1.00  0.00     0.204 A 
ATOM      3  C   UNL     1      12.740  10.276  14.548  1.00  0.00     0.205 A 
ATOM      4  C   UNL     1      13.085  10.087  13.205  1.00  0.00     0.184 A 
ATOM      5  C   UNL     1      12.075   9.926  12.234  1.00  0.00     0.025 A 
ATOM      6  C   UNL     1      10.727   9.954  12.613  1.00  0.00     0.062 A 
ATOM      7  C   UNL     1      12.454   9.738  10.900  1.00  0.00     0.020 A 
ATOM      8  C   UNL     1      13.808   9.717  10.570  1.00  0.00     0.094 A 
ATOM      9  C   UNL     1      14.756   9.884  11.584  1.00  0.00     0.336 A 
ATOM     10  O   UNL     1      15.984   9.867  11.308  1.00  0.00    -0.246 OA
ATOM     11  O   UNL     1      14.367  10.060  12.845  1.00  0.00    -0.419 OA
ENDROOT
BRANCH   1  12
ATOM     12  O   UNL     1       9.031  10.178  14.378  1.00  0.00    -0.493 OA
ATOM     13  C   UNL     1       7.978   9.436  13.771  1.00  0.00     0.278 C 
ENDBRANCH   1  12
BRANCH   2  14
ATOM     14  O   UNL     1      11.059  10.494  16.273  1.00  0.00    -0.502 OA
ATOM     15  H   UNL     1      11.409   9.890  17.007  1.00  0.00     0.293 HD
ENDBRANCH   2  14
BRANCH   3  16
ATOM     16  O   UNL     1      13.754  10.433  15.495  1.00  0.00    -0.502 OA
ATOM     17  H   UNL     1      13.559  10.661  16.462  1.00  0.00     0.293 HD
ENDBRANCH   3  16
TORSDOF 3
ENDMDL
MODEL 4
REMARK VINA RESULT:    -5.783      2.143      4.336
REMARK INTER + INTRA:          -6.510
REMARK INTER:                  -6.440
REMARK INTRA:                  -0.069
REMARK UNBOUND:                -0.051
REMARK SMILES COc1cc2ccc(=O)oc2c(O)c1O
REMARK SMILES IDX 3 1 14 2 12 3 11 4 5 5 4 6 6 7 7 8 8 9 9 10 10 11 2 12 1 13
REMARK SMILES IDX 15 14 13 16
REMARK H PARENT 15 15 13 17
REMARK Flexibility Score: inf
ROOT
ATOM      1  C   UNL     1      10.939  10.423  14.702  1.00  0.00     0.165 A 
ATOM      2  C   UNL     1       9.617  10.255  15.158  1.00  0.00     0.204 A 
ATOM      3  C   UNL     1       8.648   9.666  14.324  1.00  0.00     0.205 A 
ATOM      4  C   UNL     1       8.997   9.245  13.036  1.00  0.00     0.184 A 
ATOM      5  C   UNL     1      10.319   9.411  12.574  1.00  0.00     0.025 A 
ATOM      6  C   UNL     1      11.283   9.997  13.404  1.00  0.00     0.062 A 
ATOM      7  C   UNL     1      10.634   8.981  11.281  1.00  0.00     0.020 A 
ATOM      8  C   UNL     1       9.641   8.403  10.491  1.00  0.00     0.094 A 
ATOM      9  C   UNL     1       8.351   8.270  11.014  1.00  0.00     0.336 A 
ATOM     10  O   UNL     1       7.440   7.752  10.317  1.00  0.00    -0.246 OA
ATOM     11  O   UNL     1       8.079   8.689  12.247  1.00  0.00    -0.419 OA
ENDROOT
BRANCH   1  12
ATOM     12  O   UNL     1      11.881  11.014  15.561  1.00  0.00    -0.493 OA
ATOM     13  C   UNL     1      12.297  12.374  15.491  1.00  0.00     0.278 C 
ENDBRANCH   1  12
BRANCH   2  14
ATOM     14  O   UNL     1       9.252  10.669  16.440  1.00  0.00    -0.502 OA
ATOM     15  H   UNL     1       8.681  10.100  17.054  1.00  0.00     0.293 HD
ENDBRANCH   2  14
BRANCH   3  16
ATOM     16  O   UNL     1       7.334   9.495  14.764  1.00  0.00    -0.502 OA
ATOM     17  H   UNL     1       6.592   9.197  14.144  1.00  0.00     0.293 HD
ENDBRANCH   3  16
TORSDOF 3
ENDMDL
MODEL 5
REMARK VINA RESULT:    -5.514      1.496      4.851
REMARK INTER + INTRA:          -6.210
REMARK INTER:                  -6.152
REMARK INTRA:                  -0.058
REMARK UNBOUND:                -0.051
REMARK SMILES COc1cc2ccc(=O)oc2c(O)c1O
REMARK SMILES IDX 3 1 14 2 12 3 11 4 5 5 4 6 6 7 7 8 8 9 9 10 10 11 2 12 1 13
REMARK SMILES IDX 15 14 13 16
REMARK H PARENT 15 15 13 17
REMARK Flexibility Score: inf
ROOT
ATOM      1  C   UNL     1      13.834   9.871  11.647  1.00  0.00     0.165 A 
ATOM      2  C   UNL     1      14.434   9.955  12.919  1.00  0.00     0.204 A 
ATOM      3  C   UNL     1      13.641   9.942  14.081  1.00  0.00     0.205 A 
ATOM      4  C   UNL     1      12.249   9.844  13.976  1.00  0.00     0.184 A 
ATOM      5  C   UNL     1      11.642   9.759  12.705  1.00  0.00     0.025 A 
ATOM      6  C   UNL     1      12.432   9.773  11.549  1.00  0.00     0.062 A 
ATOM      7  C   UNL     1      10.248   9.664  12.635  1.00  0.00     0.020 A 
ATOM      8  C   UNL     1       9.502   9.654  13.813  1.00  0.00     0.094 A 
ATOM      9  C   UNL     1      10.170   9.742  15.038  1.00  0.00     0.336 A 
ATOM     10  O   UNL     1       9.516   9.735  16.114  1.00  0.00    -0.246 OA
ATOM     11  O   UNL     1      11.498   9.832  15.076  1.00  0.00    -0.419 OA
ENDROOT
BRANCH   1  12
ATOM     12  O   UNL     1      14.656   9.886  10.508  1.00  0.00    -0.493 OA
ATOM     13  C   UNL     1      15.183   8.725   9.875  1.00  0.00     0.278 C 
ENDBRANCH   1  12
BRANCH   2  14
ATOM     14  O   UNL     1      15.821  10.053  13.041  1.00  0.00    -0.502 OA
ATOM     15  H   UNL     1      16.455   9.420  12.567  1.00  0.00     0.293 HD
ENDBRANCH   2  14
BRANCH   3  16
ATOM     16  O   UNL     1      14.223  10.026  15.346  1.00  0.00    -0.502 OA
ATOM     17  H   UNL     1      14.351  10.909  15.825  1.00  0.00     0.293 HD
ENDBRANCH   3  16
TORSDOF 3
ENDMDL
MODEL 6
REMARK VINA RESULT:    -5.194      2.778      4.834
REMARK INTER + INTRA:          -5.852
REMARK INTER:                  -5.787
REMARK INTRA:                  -0.065
REMARK UNBOUND:                -0.051
REMARK SMILES COc1cc2ccc(=O)oc2c(O)c1O
REMARK SMILES IDX 3 1 14 2 12 3 11 4 5 5 4 6 6 7 7 8 8 9 9 10 10 11 2 12 1 13
REMARK SMILES IDX 15 14 13 16
REMARK H PARENT 15 15 13 17
REMARK Flexibility Score: inf
ROOT
ATOM      1  C   UNL     1      14.626   8.528  11.507  1.00  0.00     0.165 A 
ATOM      2  C   UNL     1      15.002   8.206  12.826  1.00  0.00     0.204 A 
ATOM      3  C   UNL     1      14.521   8.967  13.908  1.00  0.00     0.205 A 
ATOM      4  C   UNL     1      13.663  10.048  13.675  1.00  0.00     0.184 A 
ATOM      5  C   UNL     1      13.282  10.374  12.356  1.00  0.00     0.025 A 
ATOM      6  C   UNL     1      13.762   9.617  11.280  1.00  0.00     0.062 A 
ATOM      7  C   UNL     1      12.424  11.461  12.158  1.00  0.00     0.020 A 
ATOM      8  C   UNL     1      11.971  12.185  13.260  1.00  0.00     0.094 A 
ATOM      9  C   UNL     1      12.390  11.806  14.539  1.00  0.00     0.336 A 
ATOM     10  O   UNL     1      11.994  12.447  15.547  1.00  0.00    -0.246 OA
ATOM     11  O   UNL     1      13.207  10.767  14.699  1.00  0.00    -0.419 OA
ENDROOT
BRANCH   1  12
ATOM     12  O   UNL     1      15.125   7.747  10.452  1.00  0.00    -0.493 OA
ATOM     13  C   UNL     1      14.446   6.636   9.876  1.00  0.00     0.278 C 
ENDBRANCH   1  12
BRANCH   2  14
ATOM     14  O   UNL     1      15.858   7.131  13.076  1.00  0.00    -0.502 OA
ATOM     15  H   UNL     1      15.731   6.507  13.864  1.00  0.00     0.293 HD
ENDBRANCH   2  14
BRANCH   3  16
ATOM     16  O   UNL     1      14.887   8.660  15.219  1.00  0.00    -0.502 OA
ATOM     17  H   UNL     1      14.568   9.204  16.011  1.00  0.00     0.293 HD
ENDBRANCH   3  16
TORSDOF 3
ENDMDL
MODEL 7
REMARK VINA RESULT:    -5.056      3.013      4.083
REMARK INTER + INTRA:          -5.698
REMARK INTER:                  -5.649
REMARK INTRA:                  -0.049
REMARK UNBOUND:                -0.051
REMARK SMILES COc1cc2ccc(=O)oc2c(O)c1O
REMARK SMILES IDX 3 1 14 2 12 3 11 4 5 5 4 6 6 7 7 8 8 9 9 10 10 11 2 12 1 13
REMARK SMILES IDX 15 14 13 16
REMARK H PARENT 15 15 13 17
REMARK Flexibility Score: inf
ROOT
ATOM      1  C   UNL     1      13.211  10.878  13.000  1.00  0.00     0.165 A 
ATOM      2  C   UNL     1      13.683  10.238  14.164  1.00  0.00     0.204 A 
ATOM      3  C   UNL     1      14.380   9.020  14.071  1.00  0.00     0.205 A 
ATOM      4  C   UNL     1      14.608   8.439  12.818  1.00  0.00     0.184 A 
ATOM      5  C   UNL     1      14.138   9.075  11.650  1.00  0.00     0.025 A 
ATOM      6  C   UNL     1      13.444  10.287  11.743  1.00  0.00     0.062 A 
ATOM      7  C   UNL     1      14.382   8.467  10.414  1.00  0.00     0.020 A 
ATOM      8  C   UNL     1      15.078   7.259  10.370  1.00  0.00     0.094 A 
ATOM      9  C   UNL     1      15.514   6.685  11.568  1.00  0.00     0.336 A 
ATOM     10  O   UNL     1      16.143   5.595  11.551  1.00  0.00    -0.246 OA
ATOM     11  O   UNL     1      15.268   7.285  12.731  1.00  0.00    -0.419 OA
ENDROOT
BRANCH   1  12
ATOM     12  O   UNL     1      12.519  12.094  13.130  1.00  0.00    -0.493 OA
ATOM     13  C   UNL     1      12.180  12.951  12.045  1.00  0.00     0.278 C 
ENDBRANCH   1  12
BRANCH   2  14
ATOM     14  O   UNL     1      13.464  10.805  15.421  1.00  0.00    -0.502 OA
ATOM     15  H   UNL     1      12.886  10.360  16.124  1.00  0.00     0.293 HD
ENDBRANCH   2  14
BRANCH   3  16
ATOM     16  O   UNL     1      14.852   8.375  15.215  1.00  0.00    -0.502 OA
ATOM     17  H   UNL     1      15.812   8.068  15.305  1.00  0.00     0.293 HD
ENDBRANCH   3  16
TORSDOF 3
ENDMDL
MODEL 8
REMARK VINA RESULT:    -5.028     12.970     15.328
REMARK INTER + INTRA:          -5.666
REMARK INTER:                  -5.600
REMARK INTRA:                  -0.066
REMARK UNBOUND:                -0.051
REMARK SMILES COc1cc2ccc(=O)oc2c(O)c1O
REMARK SMILES IDX 3 1 14 2 12 3 11 4 5 5 4 6 6 7 7 8 8 9 9 10 10 11 2 12 1 13
REMARK SMILES IDX 15 14 13 16
REMARK H PARENT 15 15 13 17
REMARK Flexibility Score: inf
ROOT
ATOM      1  C   UNL     1       3.894   4.893  23.178  1.00  0.00     0.165 A 
ATOM      2  C   UNL     1       3.594   4.248  21.962  1.00  0.00     0.204 A 
ATOM      3  C   UNL     1       3.327   2.867  21.938  1.00  0.00     0.205 A 
ATOM      4  C   UNL     1       3.359   2.128  23.126  1.00  0.00     0.184 A 
ATOM      5  C   UNL     1       3.658   2.768  24.346  1.00  0.00     0.025 A 
ATOM      6  C   UNL     1       3.924   4.143  24.370  1.00  0.00     0.062 A 
ATOM      7  C   UNL     1       3.682   2.000  25.515  1.00  0.00     0.020 A 
ATOM      8  C   UNL     1       3.411   0.635  25.443  1.00  0.00     0.094 A 
ATOM      9  C   UNL     1       3.122   0.066  24.199  1.00  0.00     0.336 A 
ATOM     10  O   UNL     1       2.875  -1.165  24.111  1.00  0.00    -0.246 OA
ATOM     11  O   UNL     1       3.106   0.820  23.102  1.00  0.00    -0.419 OA
ENDROOT
BRANCH   1  12
ATOM     12  O   UNL     1       4.155   6.273  23.166  1.00  0.00    -0.493 OA
ATOM     13  C   UNL     1       3.184   7.282  23.425  1.00  0.00     0.278 C 
ENDBRANCH   1  12
BRANCH   2  14
ATOM     14  O   UNL     1       3.559   4.971  20.768  1.00  0.00    -0.502 OA
ATOM     15  H   UNL     1       3.243   4.564  19.895  1.00  0.00     0.293 HD
ENDBRANCH   2  14
BRANCH   3  16
ATOM     16  O   UNL     1       3.030   2.216  20.740  1.00  0.00    -0.502 OA
ATOM     17  H   UNL     1       2.107   2.243  20.325  1.00  0.00     0.293 HD
ENDBRANCH   3  16
TORSDOF 3
ENDMDL
MODEL 9
REMARK VINA RESULT:    -4.890     13.151     14.779
REMARK INTER + INTRA:          -5.512
REMARK INTER:                  -5.458
REMARK INTRA:                  -0.055
REMARK UNBOUND:                -0.051
REMARK SMILES COc1cc2ccc(=O)oc2c(O)c1O
REMARK SMILES IDX 3 1 14 2 12 3 11 4 5 5 4 6 6 7 7 8 8 9 9 10 10 11 2 12 1 13
REMARK SMILES IDX 15 14 13 16
REMARK H PARENT 15 15 13 17
REMARK Flexibility Score: inf
ROOT
ATOM      1  C   UNL     1       3.028   2.135  23.243  1.00  0.00     0.165 A 
ATOM      2  C   UNL     1       3.159   2.828  22.023  1.00  0.00     0.204 A 
ATOM      3  C   UNL     1       3.314   4.227  22.015  1.00  0.00     0.205 A 
ATOM      4  C   UNL     1       3.339   4.935  23.222  1.00  0.00     0.184 A 
ATOM      5  C   UNL     1       3.209   4.246  24.446  1.00  0.00     0.025 A 
ATOM      6  C   UNL     1       3.055   2.854  24.454  1.00  0.00     0.062 A 
ATOM      7  C   UNL     1       3.239   4.984  25.634  1.00  0.00     0.020 A 
ATOM      8  C   UNL     1       3.395   6.368  25.577  1.00  0.00     0.094 A 
ATOM      9  C   UNL     1       3.517   6.985  24.328  1.00  0.00     0.336 A 
ATOM     10  O   UNL     1       3.659   8.234  24.254  1.00  0.00    -0.246 OA
ATOM     11  O   UNL     1       3.486   6.259  23.213  1.00  0.00    -0.419 OA
ENDROOT
BRANCH   1  12
ATOM     12  O   UNL     1       2.875   0.739  23.215  1.00  0.00    -0.493 OA
ATOM     13  C   UNL     1       3.546  -0.166  24.086  1.00  0.00     0.278 C 
ENDBRANCH   1  12
BRANCH   2  14
ATOM     14  O   UNL     1       3.135   2.137  20.811  1.00  0.00    -0.502 OA
ATOM     15  H   UNL     1       3.980   1.835  20.340  1.00  0.00     0.293 HD
ENDBRANCH   2  14
BRANCH   3  16
ATOM     16  O   UNL     1       3.443   4.926  20.814  1.00  0.00    -0.502 OA
ATOM     17  H   UNL     1       4.293   4.903  20.264  1.00  0.00     0.293 HD
ENDBRANCH   3  16
TORSDOF 3
ENDMDL
