MODEL 1
REMARK VINA RESULT:    -3.494      0.000      0.000
REMARK INTER + INTRA:          -4.744
REMARK INTER:                  -4.414
REMARK INTRA:                  -0.331
REMARK UNBOUND:                -0.331
REMARK SMILES CCCCC[C@H](C)O
REMARK SMILES IDX 4 1 3 2 2 3 1 4 5 5 6 6 7 7 8 8
REMARK H PARENT 8 9
REMARK Flexibility Score: inf
ROOT
ATOM      1  C   UNL     1     119.627 118.934 117.554  1.00  0.00     0.003 C 
ENDROOT
BRANCH   1   2
ATOM      2  C   UNL     1     118.272 118.209 117.421  1.00  0.00    -0.000 C 
BRANCH   2   3
ATOM      3  C   UNL     1     117.598 117.847 118.756  1.00  0.00    -0.003 C 
ATOM      4  C   UNL     1     117.590 116.344 119.031  1.00  0.00     0.004 C 
ENDBRANCH   2   3
ENDBRANCH   1   2
BRANCH   1   5
ATOM      5  C   UNL     1     120.009 119.377 118.983  1.00  0.00     0.031 C 
BRANCH   5   6
ATOM      6  C   UNL     1     121.261 118.710 119.593  1.00  0.00     0.111 C 
ATOM      7  C   UNL     1     121.390 117.230 119.215  1.00  0.00     0.038 C 
BRANCH   6   8
ATOM      8  O   UNL     1     121.263 118.862 120.988  1.00  0.00    -0.393 OA
ATOM      9  H   UNL     1     122.205 118.760 121.289  1.00  0.00     0.210 HD
ENDBRANCH   6   8
ENDBRANCH   5   6
ENDBRANCH   1   5
TORSDOF 5
ENDMDL
MODEL 2
REMARK VINA RESULT:    -3.484      2.252      4.136
REMARK INTER + INTRA:          -4.732
REMARK INTER:                  -4.408
REMARK INTRA:                  -0.324
REMARK UNBOUND:                -0.331
REMARK SMILES CCCCC[C@H](C)O
REMARK SMILES IDX 4 1 3 2 2 3 1 4 5 5 6 6 7 7 8 8
REMARK H PARENT 8 9
REMARK Flexibility Score: inf
ROOT
ATOM      1  C   UNL     1     117.997 118.637 117.593  1.00  0.00     0.003 C 
ENDROOT
BRANCH   1   2
ATOM      2  C   UNL     1     119.323 119.409 117.436  1.00  0.00    -0.000 C 
BRANCH   2   3
ATOM      3  C   UNL     1     120.020 119.773 118.759  1.00  0.00    -0.003 C 
ATOM      4  C   UNL     1     120.064 121.278 119.016  1.00  0.00     0.004 C 
ENDBRANCH   2   3
ENDBRANCH   1   2
BRANCH   1   5
ATOM      5  C   UNL     1     117.626 118.234 119.036  1.00  0.00     0.031 C 
BRANCH   5   6
ATOM      6  C   UNL     1     116.367 118.904 119.630  1.00  0.00     0.111 C 
ATOM      7  C   UNL     1     116.228 120.375 119.222  1.00  0.00     0.038 C 
BRANCH   6   8
ATOM      8  O   UNL     1     116.363 118.781 121.027  1.00  0.00    -0.393 OA
ATOM      9  H   UNL     1     116.502 117.818 121.232  1.00  0.00     0.210 HD
ENDBRANCH   6   8
ENDBRANCH   5   6
ENDBRANCH   1   5
TORSDOF 5
ENDMDL
MODEL 3
REMARK VINA RESULT:    -3.469      2.205      3.204
REMARK INTER + INTRA:          -4.712
REMARK INTER:                  -4.466
REMARK INTRA:                  -0.245
REMARK UNBOUND:                -0.331
REMARK SMILES CCCCC[C@H](C)O
REMARK SMILES IDX 4 1 3 2 2 3 1 4 5 5 6 6 7 7 8 8
REMARK H PARENT 8 9
REMARK Flexibility Score: inf
ROOT
ATOM      1  C   UNL     1     119.322 119.362 117.321  1.00  0.00     0.003 C 
ENDROOT
BRANCH   1   2
ATOM      2  C   UNL     1     119.749 117.925 117.682  1.00  0.00    -0.000 C 
BRANCH   2   3
ATOM      3  C   UNL     1     120.858 117.828 118.745  1.00  0.00    -0.003 C 
ATOM      4  C   UNL     1     120.494 116.900 119.903  1.00  0.00     0.004 C 
ENDBRANCH   2   3
ENDBRANCH   1   2
BRANCH   1   5
ATOM      5  C   UNL     1     119.414 120.394 118.466  1.00  0.00     0.031 C 
BRANCH   5   6
ATOM      6  C   UNL     1     118.258 120.383 119.490  1.00  0.00     0.111 C 
ATOM      7  C   UNL     1     116.910 120.015 118.860  1.00  0.00     0.038 C 
BRANCH   6   8
ATOM      8  O   UNL     1     118.173 121.623 120.141  1.00  0.00    -0.393 OA
ATOM      9  H   UNL     1     118.952 121.681 120.755  1.00  0.00     0.210 HD
ENDBRANCH   6   8
ENDBRANCH   5   6
ENDBRANCH   1   5
TORSDOF 5
ENDMDL
MODEL 4
REMARK VINA RESULT:    -3.459      2.083      2.668
REMARK INTER + INTRA:          -4.700
REMARK INTER:                  -4.457
REMARK INTRA:                  -0.243
REMARK UNBOUND:                -0.331
REMARK SMILES CCCCC[C@H](C)O
REMARK SMILES IDX 4 1 3 2 2 3 1 4 5 5 6 6 7 7 8 8
REMARK H PARENT 8 9
REMARK Flexibility Score: inf
ROOT
ATOM      1  C   UNL     1     118.257 118.238 117.357  1.00  0.00     0.003 C 
ENDROOT
BRANCH   1   2
ATOM      2  C   UNL     1     117.833 119.673 117.731  1.00  0.00    -0.000 C 
BRANCH   2   3
ATOM      3  C   UNL     1     116.739 119.766 118.808  1.00  0.00    -0.003 C 
ATOM      4  C   UNL     1     117.113 120.697 119.960  1.00  0.00     0.004 C 
ENDBRANCH   2   3
ENDBRANCH   1   2
BRANCH   1   5
ATOM      5  C   UNL     1     118.166 117.198 118.495  1.00  0.00     0.031 C 
BRANCH   5   6
ATOM      6  C   UNL     1     119.321 117.207 119.522  1.00  0.00     0.111 C 
ATOM      7  C   UNL     1     120.669 117.581 118.896  1.00  0.00     0.038 C 
BRANCH   6   8
ATOM      8  O   UNL     1     119.407 115.964 120.167  1.00  0.00    -0.393 OA
ATOM      9  H   UNL     1     118.478 115.690 120.391  1.00  0.00     0.210 HD
ENDBRANCH   6   8
ENDBRANCH   5   6
ENDBRANCH   1   5
TORSDOF 5
ENDMDL
MODEL 5
REMARK VINA RESULT:    -3.457      1.582      2.596
REMARK INTER + INTRA:          -4.697
REMARK INTER:                  -4.370
REMARK INTRA:                  -0.327
REMARK UNBOUND:                -0.331
REMARK SMILES CCCCC[C@H](C)O
REMARK SMILES IDX 4 1 3 2 2 3 1 4 5 5 6 6 7 7 8 8
REMARK H PARENT 8 9
REMARK Flexibility Score: inf
ROOT
ATOM      1  C   UNL     1     117.824 117.082 118.462  1.00  0.00     0.003 C 
ENDROOT
BRANCH   1   2
ATOM      2  C   UNL     1     117.411 118.540 118.749  1.00  0.00    -0.000 C 
BRANCH   2   3
ATOM      3  C   UNL     1     117.895 119.566 117.708  1.00  0.00    -0.003 C 
ATOM      4  C   UNL     1     118.808 118.954 116.647  1.00  0.00     0.004 C 
ENDBRANCH   2   3
ENDBRANCH   1   2
BRANCH   1   5
ATOM      5  C   UNL     1     118.503 116.339 119.633  1.00  0.00     0.031 C 
BRANCH   5   6
ATOM      6  C   UNL     1     119.698 117.058 120.297  1.00  0.00     0.111 C 
ATOM      7  C   UNL     1     120.871 117.276 119.335  1.00  0.00     0.038 C 
BRANCH   6   8
ATOM      8  O   UNL     1     120.121 116.351 121.433  1.00  0.00    -0.393 OA
ATOM      9  H   UNL     1     119.353 115.793 121.728  1.00  0.00     0.210 HD
ENDBRANCH   6   8
ENDBRANCH   5   6
ENDBRANCH   1   5
TORSDOF 5
ENDMDL
MODEL 6
REMARK VINA RESULT:    -3.456      1.962      2.978
REMARK INTER + INTRA:          -4.696
REMARK INTER:                  -4.360
REMARK INTRA:                  -0.336
REMARK UNBOUND:                -0.331
REMARK SMILES CCCCC[C@H](C)O
REMARK SMILES IDX 4 1 3 2 2 3 1 4 5 5 6 6 7 7 8 8
REMARK H PARENT 8 9
REMARK Flexibility Score: inf
ROOT
ATOM      1  C   UNL     1     118.669 117.976 117.576  1.00  0.00     0.003 C 
ENDROOT
BRANCH   1   2
ATOM      2  C   UNL     1     118.237 119.455 117.522  1.00  0.00    -0.000 C 
BRANCH   2   3
ATOM      3  C   UNL     1     117.804 120.052 118.873  1.00  0.00    -0.003 C 
ATOM      4  C   UNL     1     116.290 120.026 119.078  1.00  0.00     0.004 C 
ENDBRANCH   2   3
ENDBRANCH   1   2
BRANCH   1   5
ATOM      5  C   UNL     1     119.316 117.517 118.901  1.00  0.00     0.031 C 
BRANCH   5   6
ATOM      6  C   UNL     1     118.629 116.338 119.624  1.00  0.00     0.111 C 
ATOM      7  C   UNL     1     117.111 116.313 119.411  1.00  0.00     0.038 C 
BRANCH   6   8
ATOM      8  O   UNL     1     118.931 116.365 120.994  1.00  0.00    -0.393 OA
ATOM      9  H   UNL     1     118.074 116.237 121.481  1.00  0.00     0.210 HD
ENDBRANCH   6   8
ENDBRANCH   5   6
ENDBRANCH   1   5
TORSDOF 5
ENDMDL
MODEL 7
REMARK VINA RESULT:    -3.449      2.486      3.845
REMARK INTER + INTRA:          -4.687
REMARK INTER:                  -4.464
REMARK INTRA:                  -0.222
REMARK UNBOUND:                -0.331
REMARK SMILES CCCCC[C@H](C)O
REMARK SMILES IDX 4 1 3 2 2 3 1 4 5 5 6 6 7 7 8 8
REMARK H PARENT 8 9
REMARK Flexibility Score: inf
ROOT
ATOM      1  C   UNL     1     118.255 119.398 117.367  1.00  0.00     0.003 C 
ENDROOT
BRANCH   1   2
ATOM      2  C   UNL     1     119.680 119.793 117.805  1.00  0.00    -0.000 C 
BRANCH   2   3
ATOM      3  C   UNL     1     119.746 120.913 118.858  1.00  0.00    -0.003 C 
ATOM      4  C   UNL     1     120.764 120.634 119.962  1.00  0.00     0.004 C 
ENDBRANCH   2   3
ENDBRANCH   1   2
BRANCH   1   5
ATOM      5  C   UNL     1     117.185 119.417 118.481  1.00  0.00     0.031 C 
BRANCH   5   6
ATOM      6  C   UNL     1     117.230 118.250 119.492  1.00  0.00     0.111 C 
ATOM      7  C   UNL     1     117.593 116.912 118.838  1.00  0.00     0.038 C 
BRANCH   6   8
ATOM      8  O   UNL     1     116.008 118.148 120.172  1.00  0.00    -0.393 OA
ATOM      9  H   UNL     1     115.871 119.008 120.651  1.00  0.00     0.210 HD
ENDBRANCH   6   8
ENDBRANCH   5   6
ENDBRANCH   1   5
TORSDOF 5
ENDMDL
MODEL 8
REMARK VINA RESULT:    -3.444      1.244      2.269
REMARK INTER + INTRA:          -4.681
REMARK INTER:                  -4.355
REMARK INTRA:                  -0.327
REMARK UNBOUND:                -0.331
REMARK SMILES CCCCC[C@H](C)O
REMARK SMILES IDX 4 1 3 2 2 3 1 4 5 5 6 6 7 7 8 8
REMARK H PARENT 8 9
REMARK Flexibility Score: inf
ROOT
ATOM      1  C   UNL     1     120.489 117.844 118.488  1.00  0.00     0.003 C 
ENDROOT
BRANCH   1   2
ATOM      2  C   UNL     1     119.026 117.455 118.783  1.00  0.00    -0.000 C 
BRANCH   2   3
ATOM      3  C   UNL     1     118.004 117.946 117.743  1.00  0.00    -0.003 C 
ATOM      4  C   UNL     1     118.625 118.840 116.672  1.00  0.00     0.004 C 
ENDBRANCH   2   3
ENDBRANCH   1   2
BRANCH   1   5
ATOM      5  C   UNL     1     121.243 118.531 119.647  1.00  0.00     0.031 C 
BRANCH   5   6
ATOM      6  C   UNL     1     120.534 119.736 120.304  1.00  0.00     0.111 C 
ATOM      7  C   UNL     1     120.319 120.902 119.332  1.00  0.00     0.038 C 
BRANCH   6   8
ATOM      8  O   UNL     1     121.248 120.164 121.433  1.00  0.00    -0.393 OA
ATOM      9  H   UNL     1     121.681 119.359 121.823  1.00  0.00     0.210 HD
ENDBRANCH   6   8
ENDBRANCH   5   6
ENDBRANCH   1   5
TORSDOF 5
ENDMDL
MODEL 9
REMARK VINA RESULT:    -3.442      2.307      3.490
REMARK INTER + INTRA:          -4.679
REMARK INTER:                  -4.346
REMARK INTRA:                  -0.333
REMARK UNBOUND:                -0.331
REMARK SMILES CCCCC[C@H](C)O
REMARK SMILES IDX 4 1 3 2 2 3 1 4 5 5 6 6 7 7 8 8
REMARK H PARENT 8 9
REMARK Flexibility Score: inf
ROOT
ATOM      1  C   UNL     1     119.799 120.474 118.455  1.00  0.00     0.003 C 
ENDROOT
BRANCH   1   2
ATOM      2  C   UNL     1     120.117 118.988 118.717  1.00  0.00    -0.000 C 
BRANCH   2   3
ATOM      3  C   UNL     1     119.571 118.013 117.659  1.00  0.00    -0.003 C 
ATOM      4  C   UNL     1     118.779 118.712 116.556  1.00  0.00     0.004 C 
ENDBRANCH   2   3
ENDBRANCH   1   2
BRANCH   1   5
ATOM      5  C   UNL     1     119.083 121.216 119.604  1.00  0.00     0.031 C 
BRANCH   5   6
ATOM      6  C   UNL     1     117.902 120.472 120.267  1.00  0.00     0.111 C 
ATOM      7  C   UNL     1     116.703 120.305 119.327  1.00  0.00     0.038 C 
BRANCH   6   8
ATOM      8  O   UNL     1     117.514 121.127 121.445  1.00  0.00    -0.393 OA
ATOM      9  H   UNL     1     117.362 122.081 121.209  1.00  0.00     0.210 HD
ENDBRANCH   6   8
ENDBRANCH   5   6
ENDBRANCH   1   5
TORSDOF 5
ENDMDL
