MODEL 1
REMARK VINA RESULT:    -8.430      0.000      0.000
REMARK INTER + INTRA:         -15.341
REMARK INTER:                 -13.358
REMARK INTRA:                  -1.982
REMARK UNBOUND:                -1.982
REMARK SMILES C[C@@H]1O[C@H](O[C@@H]2[C@@H](Oc3cc(O)c4c(c3)O[C@H](c3ccc(O)cc3)CC4=O)O[C@H](CO)[C@H](O)[C@H]2O)[C@@H](O)[C@H](O)[C@@H]1O
REMARK SMILES IDX 6 1 34 2 32 3 29 4 28 5 7 6 5 7 4 8 1 9 2 10 40 11 3 12
REMARK SMILES IDX 38 13 36 14 41 15 39 17 37 19 35 21 8 23 9 24 10 25 15 26
REMARK SMILES IDX 11 27 14 28 13 29 16 30 26 31 17 32 27 33 25 34 12 35 18 37
REMARK SMILES IDX 19 38 24 39 20 40 23 41 21 42 22 43 33 45 30 47 31 48
REMARK H PARENT 41 16 39 18 37 20 35 22 12 36 22 44 33 46 31 49
REMARK Flexibility Score: inf
ROOT
ATOM      1  C   UNL     1      -3.226 -21.203  45.136  1.00  0.00     0.221 C 
ATOM      2  C   UNL     1      -4.497 -21.468  44.294  1.00  0.00     0.181 C 
ATOM      3  C   UNL     1      -5.289 -20.172  43.989  1.00  0.00     0.177 C 
ATOM      4  C   UNL     1      -4.340 -19.020  43.571  1.00  0.00     0.179 C 
ATOM      5  O   UNL     1      -3.329 -18.821  44.545  1.00  0.00    -0.332 OA
ATOM      6  C   UNL     1      -2.468 -19.947  44.635  1.00  0.00     0.339 C 
ENDROOT
BRANCH   1   7
ATOM      7  O   UNL     1      -3.620 -21.041  46.491  1.00  0.00    -0.337 OA
BRANCH   7   8
ATOM      8  C   UNL     1      -3.069 -22.027  47.350  1.00  0.00     0.282 C 
ATOM      9  C   UNL     1       0.053 -21.867  49.277  1.00  0.00     0.041 C 
ATOM     10  C   UNL     1      -1.282 -22.434  48.794  1.00  0.00     0.150 C 
ATOM     11  C   UNL     1      -2.192 -22.808  49.985  1.00  0.00     0.174 C 
ATOM     12  O   UNL     1      -1.918 -21.473  47.969  1.00  0.00    -0.344 OA
ATOM     13  C   UNL     1      -3.528 -23.356  49.444  1.00  0.00     0.179 C 
ATOM     14  C   UNL     1      -4.126 -22.380  48.412  1.00  0.00     0.202 C 
BRANCH  11  15
ATOM     15  O   UNL     1      -2.424 -21.673  50.783  1.00  0.00    -0.388 OA
ATOM     16  H   UNL     1      -2.472 -20.893  50.171  1.00  0.00     0.211 HD
ENDBRANCH  11  15
BRANCH  13  17
ATOM     17  O   UNL     1      -4.440 -23.550  50.494  1.00  0.00    -0.387 OA
ATOM     18  H   UNL     1      -4.507 -22.683  50.976  1.00  0.00     0.211 HD
ENDBRANCH  13  17
BRANCH  14  19
ATOM     19  O   UNL     1      -5.235 -22.967  47.782  1.00  0.00    -0.385 OA
ATOM     20  H   UNL     1      -5.611 -22.285  47.168  1.00  0.00     0.211 HD
ENDBRANCH  14  19
ENDBRANCH   7   8
ENDBRANCH   1   7
BRANCH   2  21
ATOM     21  O   UNL     1      -4.188 -22.174  43.115  1.00  0.00    -0.387 OA
ATOM     22  H   UNL     1      -3.206 -22.291  43.068  1.00  0.00     0.211 HD
ENDBRANCH   2  21
BRANCH   6  23
ATOM     23  O   UNL     1      -1.814 -20.214  43.390  1.00  0.00    -0.462 OA
BRANCH  23  24
ATOM     24  C   UNL     1      -0.424 -20.261  43.202  1.00  0.00     0.130 A 
ATOM     25  C   UNL     1       0.253 -19.393  42.329  1.00  0.00     0.093 A 
ATOM     26  C   UNL     1       0.302 -21.223  43.904  1.00  0.00     0.094 A 
ATOM     27  C   UNL     1       1.637 -19.493  42.146  1.00  0.00     0.133 A 
ATOM     28  C   UNL     1       1.688 -21.314  43.763  1.00  0.00     0.138 A 
ATOM     29  C   UNL     1       2.378 -20.442  42.898  1.00  0.00     0.102 A 
ATOM     30  O   UNL     1       2.373 -22.300  44.486  1.00  0.00    -0.484 OA
ATOM     31  C   UNL     1       3.855 -20.578  42.841  1.00  0.00     0.174 C 
ATOM     32  C   UNL     1       3.794 -22.319  44.647  1.00  0.00     0.211 C 
ATOM     33  O   UNL     1       4.587 -19.651  42.405  1.00  0.00    -0.294 OA
ATOM     34  C   UNL     1       4.496 -21.831  43.363  1.00  0.00     0.131 C 
BRANCH  27  35
ATOM     35  O   UNL     1       2.216 -18.658  41.185  1.00  0.00    -0.507 OA
ATOM     36  H   UNL     1       3.177 -18.723  40.885  1.00  0.00     0.293 HD
ENDBRANCH  27  35
BRANCH  32  37
ATOM     37  C   UNL     1       4.165 -21.588  45.928  1.00  0.00    -0.007 A 
ATOM     38  C   UNL     1       5.286 -20.739  46.046  1.00  0.00     0.011 A 
ATOM     39  C   UNL     1       3.322 -21.745  47.044  1.00  0.00     0.011 A 
ATOM     40  C   UNL     1       5.558 -20.085  47.253  1.00  0.00     0.046 A 
ATOM     41  C   UNL     1       3.595 -21.088  48.246  1.00  0.00     0.046 A 
ATOM     42  C   UNL     1       4.713 -20.258  48.354  1.00  0.00     0.115 A 
BRANCH  42  43
ATOM     43  O   UNL     1       4.976 -19.612  49.560  1.00  0.00    -0.508 OA
ATOM     44  H   UNL     1       5.203 -20.129  50.401  1.00  0.00     0.293 HD
ENDBRANCH  42  43
ENDBRANCH  32  37
ENDBRANCH  23  24
ENDBRANCH   6  23
BRANCH   3  45
ATOM     45  O   UNL     1      -6.097 -19.812  45.085  1.00  0.00    -0.387 OA
ATOM     46  H   UNL     1      -5.871 -20.411  45.843  1.00  0.00     0.211 HD
ENDBRANCH   3  45
BRANCH   4  47
ATOM     47  C   UNL     1      -5.112 -17.706  43.380  1.00  0.00     0.191 C 
BRANCH  47  48
ATOM     48  O   UNL     1      -4.513 -16.676  44.121  1.00  0.00    -0.394 OA
ATOM     49  H   UNL     1      -3.556 -16.654  43.860  1.00  0.00     0.210 HD
ENDBRANCH  47  48
ENDBRANCH   4  47
TORSDOF 14
ENDMDL
MODEL 2
REMARK VINA RESULT:    -8.387      3.389      8.233
REMARK INTER + INTRA:         -15.273
REMARK INTER:                 -13.534
REMARK INTRA:                  -1.739
REMARK UNBOUND:                -1.982
REMARK SMILES C[C@@H]1O[C@H](O[C@@H]2[C@@H](Oc3cc(O)c4c(c3)O[C@H](c3ccc(O)cc3)CC4=O)O[C@H](CO)[C@H](O)[C@H]2O)[C@@H](O)[C@H](O)[C@@H]1O
REMARK SMILES IDX 6 1 34 2 32 3 29 4 28 5 7 6 5 7 4 8 1 9 2 10 40 11 3 12
REMARK SMILES IDX 38 13 36 14 41 15 39 17 37 19 35 21 8 23 9 24 10 25 15 26
REMARK SMILES IDX 11 27 14 28 13 29 16 30 26 31 17 32 27 33 25 34 12 35 18 37
REMARK SMILES IDX 19 38 24 39 20 40 23 41 21 42 22 43 33 45 30 47 31 48
REMARK H PARENT 41 16 39 18 37 20 35 22 12 36 22 44 33 46 31 49
REMARK Flexibility Score: inf
ROOT
ATOM      1  C   UNL     1      -4.118 -19.247  43.456  1.00  0.00     0.221 C 
ATOM      2  C   UNL     1      -4.551 -17.773  43.641  1.00  0.00     0.181 C 
ATOM      3  C   UNL     1      -5.947 -17.482  43.037  1.00  0.00     0.177 C 
ATOM      4  C   UNL     1      -6.954 -18.609  43.384  1.00  0.00     0.179 C 
ATOM      5  O   UNL     1      -6.448 -19.875  42.998  1.00  0.00    -0.332 OA
ATOM      6  C   UNL     1      -5.290 -20.220  43.743  1.00  0.00     0.339 C 
ENDROOT
BRANCH   1   7
ATOM      7  O   UNL     1      -3.652 -19.406  42.124  1.00  0.00    -0.337 OA
BRANCH   7   8
ATOM      8  C   UNL     1      -2.249 -19.235  42.004  1.00  0.00     0.282 C 
ATOM      9  C   UNL     1       0.407 -20.826  43.980  1.00  0.00     0.041 C 
ATOM     10  C   UNL     1      -0.212 -19.978  42.868  1.00  0.00     0.150 C 
ATOM     11  C   UNL     1       0.351 -20.374  41.486  1.00  0.00     0.174 C 
ATOM     12  O   UNL     1      -1.620 -20.144  42.894  1.00  0.00    -0.344 OA
ATOM     13  C   UNL     1      -0.318 -19.504  40.402  1.00  0.00     0.179 C 
ATOM     14  C   UNL     1      -1.851 -19.553  40.551  1.00  0.00     0.202 C 
BRANCH  11  15
ATOM     15  O   UNL     1       0.095 -21.735  41.238  1.00  0.00    -0.388 OA
ATOM     16  H   UNL     1       0.033 -21.844  40.254  1.00  0.00     0.211 HD
ENDBRANCH  11  15
BRANCH  13  17
ATOM     17  O   UNL     1       0.047 -19.949  39.122  1.00  0.00    -0.387 OA
ATOM     18  H   UNL     1       0.979 -20.288  39.193  1.00  0.00     0.211 HD
ENDBRANCH  13  17
BRANCH  14  19
ATOM     19  O   UNL     1      -2.447 -18.615  39.693  1.00  0.00    -0.385 OA
ATOM     20  H   UNL     1      -1.775 -18.392  38.998  1.00  0.00     0.211 HD
ENDBRANCH  14  19
ENDBRANCH   7   8
ENDBRANCH   1   7
BRANCH   2  21
ATOM     21  O   UNL     1      -4.484 -17.390  44.995  1.00  0.00    -0.387 OA
ATOM     22  H   UNL     1      -3.830 -16.652  45.081  1.00  0.00     0.211 HD
ENDBRANCH   2  21
BRANCH   6  23
ATOM     23  O   UNL     1      -5.564 -20.281  45.147  1.00  0.00    -0.462 OA
BRANCH  23  24
ATOM     24  C   UNL     1      -5.139 -21.305  46.008  1.00  0.00     0.130 A 
ATOM     25  C   UNL     1      -5.680 -21.489  47.292  1.00  0.00     0.093 A 
ATOM     26  C   UNL     1      -4.129 -22.160  45.567  1.00  0.00     0.094 A 
ATOM     27  C   UNL     1      -5.207 -22.504  48.133  1.00  0.00     0.133 A 
ATOM     28  C   UNL     1      -3.670 -23.201  46.376  1.00  0.00     0.138 A 
ATOM     29  C   UNL     1      -4.212 -23.400  47.662  1.00  0.00     0.102 A 
ATOM     30  O   UNL     1      -2.650 -24.029  45.890  1.00  0.00    -0.484 OA
ATOM     31  C   UNL     1      -3.699 -24.555  48.437  1.00  0.00     0.174 C 
ATOM     32  C   UNL     1      -2.293 -25.278  46.489  1.00  0.00     0.211 C 
ATOM     33  O   UNL     1      -4.341 -25.037  49.408  1.00  0.00    -0.294 OA
ATOM     34  C   UNL     1      -2.407 -25.199  48.025  1.00  0.00     0.131 C 
BRANCH  27  35
ATOM     35  O   UNL     1      -5.729 -22.553  49.429  1.00  0.00    -0.507 OA
ATOM     36  H   UNL     1      -5.175 -22.723  50.255  1.00  0.00     0.293 HD
ENDBRANCH  27  35
BRANCH  32  37
ATOM     37  C   UNL     1      -3.072 -26.399  45.820  1.00  0.00    -0.007 A 
ATOM     38  C   UNL     1      -4.366 -26.236  45.280  1.00  0.00     0.011 A 
ATOM     39  C   UNL     1      -2.450 -27.657  45.707  1.00  0.00     0.011 A 
ATOM     40  C   UNL     1      -5.017 -27.310  44.663  1.00  0.00     0.046 A 
ATOM     41  C   UNL     1      -3.103 -28.725  45.087  1.00  0.00     0.046 A 
ATOM     42  C   UNL     1      -4.388 -28.556  44.565  1.00  0.00     0.115 A 
BRANCH  42  43
ATOM     43  O   UNL     1      -5.029 -29.631  43.953  1.00  0.00    -0.508 OA
ATOM     44  H   UNL     1      -5.292 -30.458  44.475  1.00  0.00     0.293 HD
ENDBRANCH  42  43
ENDBRANCH  32  37
ENDBRANCH  23  24
ENDBRANCH   6  23
BRANCH   3  45
ATOM     45  O   UNL     1      -5.855 -17.275  41.647  1.00  0.00    -0.387 OA
ATOM     46  H   UNL     1      -6.117 -16.338  41.457  1.00  0.00     0.211 HD
ENDBRANCH   3  45
BRANCH   4  47
ATOM     47  C   UNL     1      -8.305 -18.379  42.691  1.00  0.00     0.191 C 
BRANCH  47  48
ATOM     48  O   UNL     1      -8.262 -18.850  41.370  1.00  0.00    -0.394 OA
ATOM     49  H   UNL     1      -8.604 -19.782  41.386  1.00  0.00     0.210 HD
ENDBRANCH  47  48
ENDBRANCH   4  47
TORSDOF 14
ENDMDL
MODEL 3
REMARK VINA RESULT:    -8.318      2.147      7.288
REMARK INTER + INTRA:         -15.163
REMARK INTER:                 -12.653
REMARK INTRA:                  -2.510
REMARK UNBOUND:                -1.982
REMARK SMILES C[C@@H]1O[C@H](O[C@@H]2[C@@H](Oc3cc(O)c4c(c3)O[C@H](c3ccc(O)cc3)CC4=O)O[C@H](CO)[C@H](O)[C@H]2O)[C@@H](O)[C@H](O)[C@@H]1O
REMARK SMILES IDX 6 1 34 2 32 3 29 4 28 5 7 6 5 7 4 8 1 9 2 10 40 11 3 12
REMARK SMILES IDX 38 13 36 14 41 15 39 17 37 19 35 21 8 23 9 24 10 25 15 26
REMARK SMILES IDX 11 27 14 28 13 29 16 30 26 31 17 32 27 33 25 34 12 35 18 37
REMARK SMILES IDX 19 38 24 39 20 40 23 41 21 42 22 43 33 45 30 47 31 48
REMARK H PARENT 41 16 39 18 37 20 35 22 12 36 22 44 33 46 31 49
REMARK Flexibility Score: inf
ROOT
ATOM      1  C   UNL     1      -0.449 -21.859  43.051  1.00  0.00     0.221 C 
ATOM      2  C   UNL     1       0.373 -22.643  42.000  1.00  0.00     0.181 C 
ATOM      3  C   UNL     1       1.578 -21.833  41.461  1.00  0.00     0.177 C 
ATOM      4  C   UNL     1       2.326 -21.109  42.610  1.00  0.00     0.179 C 
ATOM      5  O   UNL     1       1.433 -20.313  43.371  1.00  0.00    -0.332 OA
ATOM      6  C   UNL     1       0.475 -21.112  44.048  1.00  0.00     0.339 C 
ENDROOT
BRANCH   1   7
ATOM      7  O   UNL     1      -1.285 -20.940  42.362  1.00  0.00    -0.337 OA
BRANCH   7   8
ATOM      8  C   UNL     1      -2.590 -20.859  42.913  1.00  0.00     0.282 C 
ATOM      9  C   UNL     1      -4.289 -23.282  45.088  1.00  0.00     0.041 C 
ATOM     10  C   UNL     1      -4.078 -21.975  44.322  1.00  0.00     0.150 C 
ATOM     11  C   UNL     1      -4.295 -20.751  45.238  1.00  0.00     0.174 C 
ATOM     12  O   UNL     1      -2.766 -21.964  43.786  1.00  0.00    -0.344 OA
ATOM     13  C   UNL     1      -4.052 -19.464  44.423  1.00  0.00     0.179 C 
ATOM     14  C   UNL     1      -2.694 -19.539  43.701  1.00  0.00     0.202 C 
BRANCH  11  15
ATOM     15  O   UNL     1      -3.407 -20.807  46.328  1.00  0.00    -0.388 OA
ATOM     16  H   UNL     1      -3.599 -21.651  46.814  1.00  0.00     0.211 HD
ENDBRANCH  11  15
BRANCH  13  17
ATOM     17  O   UNL     1      -4.079 -18.339  45.263  1.00  0.00    -0.387 OA
ATOM     18  H   UNL     1      -4.520 -17.611  44.750  1.00  0.00     0.211 HD
ENDBRANCH  13  17
BRANCH  14  19
ATOM     19  O   UNL     1      -2.562 -18.461  42.812  1.00  0.00    -0.385 OA
ATOM     20  H   UNL     1      -3.431 -17.983  42.806  1.00  0.00     0.211 HD
ENDBRANCH  14  19
ENDBRANCH   7   8
ENDBRANCH   1   7
BRANCH   2  21
ATOM     21  O   UNL     1       0.777 -23.896  42.503  1.00  0.00    -0.387 OA
ATOM     22  H   UNL     1       0.787 -23.849  43.491  1.00  0.00     0.211 HD
ENDBRANCH   2  21
BRANCH   6  23
ATOM     23  O   UNL     1       1.097 -22.035  44.949  1.00  0.00    -0.462 OA
BRANCH  23  24
ATOM     24  C   UNL     1       0.724 -22.232  46.287  1.00  0.00     0.130 A 
ATOM     25  C   UNL     1       1.433 -21.672  47.363  1.00  0.00     0.093 A 
ATOM     26  C   UNL     1      -0.390 -23.031  46.549  1.00  0.00     0.094 A 
ATOM     27  C   UNL     1       1.047 -21.919  48.686  1.00  0.00     0.133 A 
ATOM     28  C   UNL     1      -0.813 -23.258  47.860  1.00  0.00     0.138 A 
ATOM     29  C   UNL     1      -0.114 -22.693  48.945  1.00  0.00     0.102 A 
ATOM     30  O   UNL     1      -1.934 -24.072  48.071  1.00  0.00    -0.484 OA
ATOM     31  C   UNL     1      -0.658 -22.949  50.302  1.00  0.00     0.174 C 
ATOM     32  C   UNL     1      -2.627 -24.154  49.320  1.00  0.00     0.211 C 
ATOM     33  O   UNL     1      -0.350 -22.224  51.284  1.00  0.00    -0.294 OA
ATOM     34  C   UNL     1      -1.638 -24.069  50.500  1.00  0.00     0.131 C 
BRANCH  27  35
ATOM     35  O   UNL     1       1.865 -21.407  49.696  1.00  0.00    -0.507 OA
ATOM     36  H   UNL     1       1.695 -21.536  50.683  1.00  0.00     0.293 HD
ENDBRANCH  27  35
BRANCH  32  37
ATOM     37  C   UNL     1      -3.766 -23.146  49.330  1.00  0.00    -0.007 A 
ATOM     38  C   UNL     1      -3.817 -22.035  50.198  1.00  0.00     0.011 A 
ATOM     39  C   UNL     1      -4.807 -23.319  48.399  1.00  0.00     0.011 A 
ATOM     40  C   UNL     1      -4.890 -21.138  50.141  1.00  0.00     0.046 A 
ATOM     41  C   UNL     1      -5.874 -22.420  48.343  1.00  0.00     0.046 A 
ATOM     42  C   UNL     1      -5.920 -21.329  49.214  1.00  0.00     0.115 A 
BRANCH  42  43
ATOM     43  O   UNL     1      -6.993 -20.442  49.150  1.00  0.00    -0.508 OA
ATOM     44  H   UNL     1      -7.569 -20.247  49.961  1.00  0.00     0.293 HD
ENDBRANCH  42  43
ENDBRANCH  32  37
ENDBRANCH  23  24
ENDBRANCH   6  23
BRANCH   3  45
ATOM     45  O   UNL     1       1.164 -20.933  40.459  1.00  0.00    -0.387 OA
ATOM     46  H   UNL     1       0.524 -21.405  39.867  1.00  0.00     0.211 HD
ENDBRANCH   3  45
BRANCH   4  47
ATOM     47  C   UNL     1       3.450 -20.215  42.064  1.00  0.00     0.191 C 
BRANCH  47  48
ATOM     48  O   UNL     1       2.928 -18.986  41.633  1.00  0.00    -0.394 OA
ATOM     49  H   UNL     1       1.940 -19.079  41.629  1.00  0.00     0.210 HD
ENDBRANCH  47  48
ENDBRANCH   4  47
TORSDOF 14
ENDMDL
MODEL 4
REMARK VINA RESULT:    -8.173      2.596      6.749
REMARK INTER + INTRA:         -14.933
REMARK INTER:                 -12.957
REMARK INTRA:                  -1.976
REMARK UNBOUND:                -1.982
REMARK SMILES C[C@@H]1O[C@H](O[C@@H]2[C@@H](Oc3cc(O)c4c(c3)O[C@H](c3ccc(O)cc3)CC4=O)O[C@H](CO)[C@H](O)[C@H]2O)[C@@H](O)[C@H](O)[C@@H]1O
REMARK SMILES IDX 6 1 34 2 32 3 29 4 28 5 7 6 5 7 4 8 1 9 2 10 40 11 3 12
REMARK SMILES IDX 38 13 36 14 41 15 39 17 37 19 35 21 8 23 9 24 10 25 15 26
REMARK SMILES IDX 11 27 14 28 13 29 16 30 26 31 17 32 27 33 25 34 12 35 18 37
REMARK SMILES IDX 19 38 24 39 20 40 23 41 21 42 22 43 33 45 30 47 31 48
REMARK H PARENT 41 16 39 18 37 20 35 22 12 36 22 44 33 46 31 49
REMARK Flexibility Score: inf
ROOT
ATOM      1  C   UNL     1      -3.792 -19.171  43.347  1.00  0.00     0.221 C 
ATOM      2  C   UNL     1      -4.351 -17.824  43.865  1.00  0.00     0.181 C 
ATOM      3  C   UNL     1      -5.691 -17.438  43.193  1.00  0.00     0.177 C 
ATOM      4  C   UNL     1      -6.644 -18.658  43.099  1.00  0.00     0.179 C 
ATOM      5  O   UNL     1      -6.007 -19.747  42.454  1.00  0.00    -0.332 OA
ATOM      6  C   UNL     1      -4.913 -20.235  43.217  1.00  0.00     0.339 C 
ENDROOT
BRANCH   1   7
ATOM      7  O   UNL     1      -3.176 -18.939  42.089  1.00  0.00    -0.337 OA
BRANCH   7   8
ATOM      8  C   UNL     1      -1.764 -19.072  42.131  1.00  0.00     0.282 C 
ATOM      9  C   UNL     1       0.257 -21.075  44.453  1.00  0.00     0.041 C 
ATOM     10  C   UNL     1      -0.041 -20.177  43.252  1.00  0.00     0.150 C 
ATOM     11  C   UNL     1       0.573 -20.756  41.958  1.00  0.00     0.174 C 
ATOM     12  O   UNL     1      -1.445 -20.044  43.115  1.00  0.00    -0.344 OA
ATOM     13  C   UNL     1       0.228 -19.825  40.778  1.00  0.00     0.179 C 
ATOM     14  C   UNL     1      -1.286 -19.544  40.745  1.00  0.00     0.202 C 
BRANCH  11  15
ATOM     15  O   UNL     1       0.061 -22.045  41.722  1.00  0.00    -0.388 OA
ATOM     16  H   UNL     1       0.742 -22.690  42.044  1.00  0.00     0.211 HD
ENDBRANCH  11  15
BRANCH  13  17
ATOM     17  O   UNL     1       0.628 -20.404  39.563  1.00  0.00    -0.387 OA
ATOM     18  H   UNL     1       1.275 -21.124  39.790  1.00  0.00     0.211 HD
ENDBRANCH  13  17
BRANCH  14  19
ATOM     19  O   UNL     1      -1.570 -18.550  39.797  1.00  0.00    -0.385 OA
ATOM     20  H   UNL     1      -1.540 -18.984  38.905  1.00  0.00     0.211 HD
ENDBRANCH  14  19
ENDBRANCH   7   8
ENDBRANCH   1   7
BRANCH   2  21
ATOM     21  O   UNL     1      -4.458 -17.825  45.269  1.00  0.00    -0.387 OA
ATOM     22  H   UNL     1      -4.705 -16.914  45.566  1.00  0.00     0.211 HD
ENDBRANCH   2  21
BRANCH   6  23
ATOM     23  O   UNL     1      -5.331 -20.690  44.508  1.00  0.00    -0.462 OA
BRANCH  23  24
ATOM     24  C   UNL     1      -4.776 -21.779  45.198  1.00  0.00     0.130 A 
ATOM     25  C   UNL     1      -4.475 -23.000  44.571  1.00  0.00     0.093 A 
ATOM     26  C   UNL     1      -4.533 -21.638  46.564  1.00  0.00     0.094 A 
ATOM     27  C   UNL     1      -3.952 -24.074  45.301  1.00  0.00     0.133 A 
ATOM     28  C   UNL     1      -3.977 -22.685  47.302  1.00  0.00     0.138 A 
ATOM     29  C   UNL     1      -3.662 -23.910  46.681  1.00  0.00     0.102 A 
ATOM     30  O   UNL     1      -3.756 -22.496  48.673  1.00  0.00    -0.484 OA
ATOM     31  C   UNL     1      -3.034 -24.953  47.529  1.00  0.00     0.174 C 
ATOM     32  C   UNL     1      -2.950 -23.367  49.471  1.00  0.00     0.211 C 
ATOM     33  O   UNL     1      -2.395 -25.915  47.028  1.00  0.00    -0.294 OA
ATOM     34  C   UNL     1      -3.120 -24.832  49.023  1.00  0.00     0.131 C 
BRANCH  27  35
ATOM     35  O   UNL     1      -3.775 -25.283  44.621  1.00  0.00    -0.507 OA
ATOM     36  H   UNL     1      -3.099 -25.985  44.882  1.00  0.00     0.293 HD
ENDBRANCH  27  35
BRANCH  32  37
ATOM     37  C   UNL     1      -1.522 -22.841  49.504  1.00  0.00    -0.007 A 
ATOM     38  C   UNL     1      -0.874 -22.271  48.387  1.00  0.00     0.011 A 
ATOM     39  C   UNL     1      -0.828 -22.899  50.727  1.00  0.00     0.011 A 
ATOM     40  C   UNL     1       0.436 -21.793  48.496  1.00  0.00     0.046 A 
ATOM     41  C   UNL     1       0.479 -22.417  50.831  1.00  0.00     0.046 A 
ATOM     42  C   UNL     1       1.115 -21.865  49.716  1.00  0.00     0.115 A 
BRANCH  42  43
ATOM     43  O   UNL     1       2.421 -21.392  49.833  1.00  0.00    -0.508 OA
ATOM     44  H   UNL     1       2.943 -21.485  50.696  1.00  0.00     0.293 HD
ENDBRANCH  42  43
ENDBRANCH  32  37
ENDBRANCH  23  24
ENDBRANCH   6  23
BRANCH   3  45
ATOM     45  O   UNL     1      -5.466 -16.854  41.931  1.00  0.00    -0.387 OA
ATOM     46  H   UNL     1      -5.950 -17.392  41.252  1.00  0.00     0.211 HD
ENDBRANCH   3  45
BRANCH   4  47
ATOM     47  C   UNL     1      -7.926 -18.304  42.331  1.00  0.00     0.191 C 
BRANCH  47  48
ATOM     48  O   UNL     1      -7.656 -18.186  40.960  1.00  0.00    -0.394 OA
ATOM     49  H   UNL     1      -8.424 -18.593  40.480  1.00  0.00     0.210 HD
ENDBRANCH  47  48
ENDBRANCH   4  47
TORSDOF 14
ENDMDL
MODEL 5
REMARK VINA RESULT:    -8.107      1.611      5.139
REMARK INTER + INTRA:         -14.829
REMARK INTER:                 -13.302
REMARK INTRA:                  -1.527
REMARK UNBOUND:                -1.982
REMARK SMILES C[C@@H]1O[C@H](O[C@@H]2[C@@H](Oc3cc(O)c4c(c3)O[C@H](c3ccc(O)cc3)CC4=O)O[C@H](CO)[C@H](O)[C@H]2O)[C@@H](O)[C@H](O)[C@@H]1O
REMARK SMILES IDX 6 1 34 2 32 3 29 4 28 5 7 6 5 7 4 8 1 9 2 10 40 11 3 12
REMARK SMILES IDX 38 13 36 14 41 15 39 17 37 19 35 21 8 23 9 24 10 25 15 26
REMARK SMILES IDX 11 27 14 28 13 29 16 30 26 31 17 32 27 33 25 34 12 35 18 37
REMARK SMILES IDX 19 38 24 39 20 40 23 41 21 42 22 43 33 45 30 47 31 48
REMARK H PARENT 41 16 39 18 37 20 35 22 12 36 22 44 33 46 31 49
REMARK Flexibility Score: inf
ROOT
ATOM      1  C   UNL     1      -4.061 -20.852  46.891  1.00  0.00     0.221 C 
ATOM      2  C   UNL     1      -3.992 -20.870  48.437  1.00  0.00     0.181 C 
ATOM      3  C   UNL     1      -4.691 -22.109  49.050  1.00  0.00     0.177 C 
ATOM      4  C   UNL     1      -4.332 -23.399  48.269  1.00  0.00     0.179 C 
ATOM      5  O   UNL     1      -4.611 -23.246  46.887  1.00  0.00    -0.332 OA
ATOM      6  C   UNL     1      -3.781 -22.256  46.297  1.00  0.00     0.339 C 
ENDROOT
BRANCH   1   7
ATOM      7  O   UNL     1      -5.353 -20.399  46.513  1.00  0.00    -0.337 OA
BRANCH   7   8
ATOM      8  C   UNL     1      -5.473 -20.173  45.117  1.00  0.00     0.282 C 
ATOM      9  C   UNL     1      -8.063 -21.419  42.832  1.00  0.00     0.041 C 
ATOM     10  C   UNL     1      -6.844 -20.613  43.281  1.00  0.00     0.150 C 
ATOM     11  C   UNL     1      -6.988 -19.124  42.897  1.00  0.00     0.174 C 
ATOM     12  O   UNL     1      -6.695 -20.749  44.684  1.00  0.00    -0.344 OA
ATOM     13  C   UNL     1      -5.744 -18.356  43.388  1.00  0.00     0.179 C 
ATOM     14  C   UNL     1      -5.489 -18.652  44.878  1.00  0.00     0.202 C 
BRANCH  11  15
ATOM     15  O   UNL     1      -8.149 -18.590  43.486  1.00  0.00    -0.388 OA
ATOM     16  H   UNL     1      -8.765 -18.351  42.745  1.00  0.00     0.211 HD
ENDBRANCH  11  15
BRANCH  13  17
ATOM     17  O   UNL     1      -5.917 -16.975  43.204  1.00  0.00    -0.387 OA
ATOM     18  H   UNL     1      -6.053 -16.581  44.107  1.00  0.00     0.211 HD
ENDBRANCH  13  17
BRANCH  14  19
ATOM     19  O   UNL     1      -4.255 -18.110  45.271  1.00  0.00    -0.385 OA
ATOM     20  H   UNL     1      -3.569 -18.481  44.659  1.00  0.00     0.211 HD
ENDBRANCH  14  19
ENDBRANCH   7   8
ENDBRANCH   1   7
BRANCH   2  21
ATOM     21  O   UNL     1      -2.663 -20.751  48.888  1.00  0.00    -0.387 OA
ATOM     22  H   UNL     1      -2.284 -21.660  48.991  1.00  0.00     0.211 HD
ENDBRANCH   2  21
BRANCH   6  23
ATOM     23  O   UNL     1      -2.394 -22.589  46.418  1.00  0.00    -0.462 OA
BRANCH  23  24
ATOM     24  C   UNL     1      -1.363 -22.051  45.631  1.00  0.00     0.130 A 
ATOM     25  C   UNL     1      -1.553 -20.945  44.785  1.00  0.00     0.093 A 
ATOM     26  C   UNL     1      -0.108 -22.656  45.687  1.00  0.00     0.094 A 
ATOM     27  C   UNL     1      -0.507 -20.458  43.992  1.00  0.00     0.133 A 
ATOM     28  C   UNL     1       0.957 -22.163  44.932  1.00  0.00     0.138 A 
ATOM     29  C   UNL     1       0.780 -21.048  44.088  1.00  0.00     0.102 A 
ATOM     30  O   UNL     1       2.198 -22.809  45.018  1.00  0.00    -0.484 OA
ATOM     31  C   UNL     1       1.975 -20.562  43.356  1.00  0.00     0.174 C 
ATOM     32  C   UNL     1       3.417 -22.247  44.526  1.00  0.00     0.211 C 
ATOM     33  O   UNL     1       2.028 -19.398  42.877  1.00  0.00    -0.294 OA
ATOM     34  C   UNL     1       3.170 -21.460  43.223  1.00  0.00     0.131 C 
BRANCH  27  35
ATOM     35  O   UNL     1      -0.808 -19.419  43.106  1.00  0.00    -0.507 OA
ATOM     36  H   UNL     1      -0.581 -19.431  42.123  1.00  0.00     0.293 HD
ENDBRANCH  27  35
BRANCH  32  37
ATOM     37  C   UNL     1       4.108 -21.483  45.646  1.00  0.00    -0.007 A 
ATOM     38  C   UNL     1       5.256 -20.686  45.455  1.00  0.00     0.011 A 
ATOM     39  C   UNL     1       3.545 -21.552  46.934  1.00  0.00     0.011 A 
ATOM     40  C   UNL     1       5.829 -19.997  46.529  1.00  0.00     0.046 A 
ATOM     41  C   UNL     1       4.118 -20.860  48.004  1.00  0.00     0.046 A 
ATOM     42  C   UNL     1       5.262 -20.083  47.805  1.00  0.00     0.115 A 
BRANCH  42  43
ATOM     43  O   UNL     1       5.825 -19.400  48.881  1.00  0.00    -0.508 OA
ATOM     44  H   UNL     1       6.262 -19.893  49.651  1.00  0.00     0.293 HD
ENDBRANCH  42  43
ENDBRANCH  32  37
ENDBRANCH  23  24
ENDBRANCH   6  23
BRANCH   3  45
ATOM     45  O   UNL     1      -6.084 -21.911  49.119  1.00  0.00    -0.387 OA
ATOM     46  H   UNL     1      -6.253 -20.937  49.187  1.00  0.00     0.211 HD
ENDBRANCH   3  45
BRANCH   4  47
ATOM     47  C   UNL     1      -5.113 -24.608  48.804  1.00  0.00     0.191 C 
BRANCH  47  48
ATOM     48  O   UNL     1      -5.232 -24.532  50.200  1.00  0.00    -0.394 OA
ATOM     49  H   UNL     1      -5.389 -25.457  50.525  1.00  0.00     0.210 HD
ENDBRANCH  47  48
ENDBRANCH   4  47
TORSDOF 14
ENDMDL
MODEL 6
REMARK VINA RESULT:    -8.040      3.524      7.524
REMARK INTER + INTRA:         -14.723
REMARK INTER:                 -12.487
REMARK INTRA:                  -2.235
REMARK UNBOUND:                -1.982
REMARK SMILES C[C@@H]1O[C@H](O[C@@H]2[C@@H](Oc3cc(O)c4c(c3)O[C@H](c3ccc(O)cc3)CC4=O)O[C@H](CO)[C@H](O)[C@H]2O)[C@@H](O)[C@H](O)[C@@H]1O
REMARK SMILES IDX 6 1 34 2 32 3 29 4 28 5 7 6 5 7 4 8 1 9 2 10 40 11 3 12
REMARK SMILES IDX 38 13 36 14 41 15 39 17 37 19 35 21 8 23 9 24 10 25 15 26
REMARK SMILES IDX 11 27 14 28 13 29 16 30 26 31 17 32 27 33 25 34 12 35 18 37
REMARK SMILES IDX 19 38 24 39 20 40 23 41 21 42 22 43 33 45 30 47 31 48
REMARK H PARENT 41 16 39 18 37 20 35 22 12 36 22 44 33 46 31 49
REMARK Flexibility Score: inf
ROOT
ATOM      1  C   UNL     1      -2.768 -20.341  42.432  1.00  0.00     0.221 C 
ATOM      2  C   UNL     1      -2.383 -20.764  40.994  1.00  0.00     0.181 C 
ATOM      3  C   UNL     1      -0.995 -20.227  40.567  1.00  0.00     0.177 C 
ATOM      4  C   UNL     1       0.047 -20.399  41.702  1.00  0.00     0.179 C 
ATOM      5  O   UNL     1      -0.417 -19.810  42.905  1.00  0.00    -0.332 OA
ATOM      6  C   UNL     1      -1.566 -20.480  43.401  1.00  0.00     0.339 C 
ENDROOT
BRANCH   1   7
ATOM      7  O   UNL     1      -3.223 -18.997  42.389  1.00  0.00    -0.337 OA
BRANCH   7   8
ATOM      8  C   UNL     1      -4.576 -18.857  42.793  1.00  0.00     0.282 C 
ATOM      9  C   UNL     1      -7.438 -20.980  41.906  1.00  0.00     0.041 C 
ATOM     10  C   UNL     1      -6.673 -19.866  42.621  1.00  0.00     0.150 C 
ATOM     11  C   UNL     1      -6.881 -19.940  44.150  1.00  0.00     0.174 C 
ATOM     12  O   UNL     1      -5.296 -19.978  42.304  1.00  0.00    -0.344 OA
ATOM     13  C   UNL     1      -6.076 -18.809  44.821  1.00  0.00     0.179 C 
ATOM     14  C   UNL     1      -4.615 -18.832  44.333  1.00  0.00     0.202 C 
BRANCH  11  15
ATOM     15  O   UNL     1      -6.451 -21.190  44.630  1.00  0.00    -0.388 OA
ATOM     16  H   UNL     1      -6.027 -21.031  45.513  1.00  0.00     0.211 HD
ENDBRANCH  11  15
BRANCH  13  17
ATOM     17  O   UNL     1      -6.109 -18.946  46.218  1.00  0.00    -0.387 OA
ATOM     18  H   UNL     1      -6.539 -19.822  46.408  1.00  0.00     0.211 HD
ENDBRANCH  13  17
BRANCH  14  19
ATOM     19  O   UNL     1      -3.936 -17.693  44.792  1.00  0.00    -0.385 OA
ATOM     20  H   UNL     1      -3.002 -17.969  44.979  1.00  0.00     0.211 HD
ENDBRANCH  14  19
ENDBRANCH   7   8
ENDBRANCH   1   7
BRANCH   2  21
ATOM     21  O   UNL     1      -2.467 -22.161  40.835  1.00  0.00    -0.387 OA
ATOM     22  H   UNL     1      -2.491 -22.367  39.867  1.00  0.00     0.211 HD
ENDBRANCH   2  21
BRANCH   6  23
ATOM     23  O   UNL     1      -1.296 -21.858  43.678  1.00  0.00    -0.462 OA
BRANCH  23  24
ATOM     24  C   UNL     1      -1.776 -22.567  44.791  1.00  0.00     0.130 A 
ATOM     25  C   UNL     1      -1.015 -23.544  45.454  1.00  0.00     0.093 A 
ATOM     26  C   UNL     1      -3.069 -22.292  45.238  1.00  0.00     0.094 A 
ATOM     27  C   UNL     1      -1.542 -24.251  46.541  1.00  0.00     0.133 A 
ATOM     28  C   UNL     1      -3.599 -22.961  46.343  1.00  0.00     0.138 A 
ATOM     29  C   UNL     1      -2.840 -23.936  47.021  1.00  0.00     0.102 A 
ATOM     30  O   UNL     1      -4.904 -22.654  46.751  1.00  0.00    -0.484 OA
ATOM     31  C   UNL     1      -3.462 -24.565  48.212  1.00  0.00     0.174 C 
ATOM     32  C   UNL     1      -5.453 -23.052  48.010  1.00  0.00     0.211 C 
ATOM     33  O   UNL     1      -2.772 -25.157  49.083  1.00  0.00    -0.294 OA
ATOM     34  C   UNL     1      -4.946 -24.452  48.410  1.00  0.00     0.131 C 
BRANCH  27  35
ATOM     35  O   UNL     1      -0.756 -25.275  47.079  1.00  0.00    -0.507 OA
ATOM     36  H   UNL     1      -0.343 -26.016  46.533  1.00  0.00     0.293 HD
ENDBRANCH  27  35
BRANCH  32  37
ATOM     37  C   UNL     1      -5.226 -21.945  49.030  1.00  0.00    -0.007 A 
ATOM     38  C   UNL     1      -4.280 -22.027  50.073  1.00  0.00     0.011 A 
ATOM     39  C   UNL     1      -5.982 -20.765  48.899  1.00  0.00     0.011 A 
ATOM     40  C   UNL     1      -4.114 -20.962  50.966  1.00  0.00     0.046 A 
ATOM     41  C   UNL     1      -5.811 -19.703  49.790  1.00  0.00     0.046 A 
ATOM     42  C   UNL     1      -4.879 -19.799  50.826  1.00  0.00     0.115 A 
BRANCH  42  43
ATOM     43  O   UNL     1      -4.720 -18.734  51.711  1.00  0.00    -0.508 OA
ATOM     44  H   UNL     1      -5.272 -17.889  51.626  1.00  0.00     0.293 HD
ENDBRANCH  42  43
ENDBRANCH  32  37
ENDBRANCH  23  24
ENDBRANCH   6  23
BRANCH   3  45
ATOM     45  O   UNL     1      -1.088 -18.887  40.143  1.00  0.00    -0.387 OA
ATOM     46  H   UNL     1      -1.318 -18.330  40.930  1.00  0.00     0.211 HD
ENDBRANCH   3  45
BRANCH   4  47
ATOM     47  C   UNL     1       1.392 -19.763  41.322  1.00  0.00     0.191 C 
BRANCH  47  48
ATOM     48  O   UNL     1       1.645 -19.938  39.954  1.00  0.00    -0.394 OA
ATOM     49  H   UNL     1       2.197 -20.759  39.866  1.00  0.00     0.210 HD
ENDBRANCH  47  48
ENDBRANCH   4  47
TORSDOF 14
ENDMDL
MODEL 7
REMARK VINA RESULT:    -8.037      2.418      8.229
REMARK INTER + INTRA:         -14.718
REMARK INTER:                 -12.251
REMARK INTRA:                  -2.468
REMARK UNBOUND:                -1.982
REMARK SMILES C[C@@H]1O[C@H](O[C@@H]2[C@@H](Oc3cc(O)c4c(c3)O[C@H](c3ccc(O)cc3)CC4=O)O[C@H](CO)[C@H](O)[C@H]2O)[C@@H](O)[C@H](O)[C@@H]1O
REMARK SMILES IDX 6 1 34 2 32 3 29 4 28 5 7 6 5 7 4 8 1 9 2 10 40 11 3 12
REMARK SMILES IDX 38 13 36 14 41 15 39 17 37 19 35 21 8 23 9 24 10 25 15 26
REMARK SMILES IDX 11 27 14 28 13 29 16 30 26 31 17 32 27 33 25 34 12 35 18 37
REMARK SMILES IDX 19 38 24 39 20 40 23 41 21 42 22 43 33 45 30 47 31 48
REMARK H PARENT 41 16 39 18 37 20 35 22 12 36 22 44 33 46 31 49
REMARK Flexibility Score: inf
ROOT
ATOM      1  C   UNL     1      -0.295 -21.390  43.341  1.00  0.00     0.221 C 
ATOM      2  C   UNL     1      -0.084 -22.536  42.322  1.00  0.00     0.181 C 
ATOM      3  C   UNL     1       1.289 -22.453  41.610  1.00  0.00     0.177 C 
ATOM      4  C   UNL     1       2.424 -22.125  42.614  1.00  0.00     0.179 C 
ATOM      5  O   UNL     1       2.122 -20.951  43.349  1.00  0.00    -0.332 OA
ATOM      6  C   UNL     1       0.984 -21.137  44.179  1.00  0.00     0.339 C 
ENDROOT
BRANCH   1   7
ATOM      7  O   UNL     1      -0.660 -20.222  42.621  1.00  0.00    -0.337 OA
BRANCH   7   8
ATOM      8  C   UNL     1      -1.872 -20.373  41.899  1.00  0.00     0.282 C 
ATOM      9  C   UNL     1      -5.290 -20.585  43.225  1.00  0.00     0.041 C 
ATOM     10  C   UNL     1      -4.187 -20.489  42.171  1.00  0.00     0.150 C 
ATOM     11  C   UNL     1      -4.468 -19.344  41.173  1.00  0.00     0.174 C 
ATOM     12  O   UNL     1      -2.946 -20.281  42.823  1.00  0.00    -0.344 OA
ATOM     13  C   UNL     1      -3.319 -19.279  40.146  1.00  0.00     0.179 C 
ATOM     14  C   UNL     1      -1.960 -19.231  40.869  1.00  0.00     0.202 C 
BRANCH  11  15
ATOM     15  O   UNL     1      -4.568 -18.122  41.864  1.00  0.00    -0.388 OA
ATOM     16  H   UNL     1      -3.645 -17.851  42.107  1.00  0.00     0.211 HD
ENDBRANCH  11  15
BRANCH  13  17
ATOM     17  O   UNL     1      -3.458 -18.148  39.326  1.00  0.00    -0.387 OA
ATOM     18  H   UNL     1      -2.625 -17.616  39.432  1.00  0.00     0.211 HD
ENDBRANCH  13  17
BRANCH  14  19
ATOM     19  O   UNL     1      -0.917 -19.367  39.940  1.00  0.00    -0.385 OA
ATOM     20  H   UNL     1      -0.083 -19.502  40.461  1.00  0.00     0.211 HD
ENDBRANCH  14  19
ENDBRANCH   7   8
ENDBRANCH   1   7
BRANCH   2  21
ATOM     21  O   UNL     1      -0.277 -23.794  42.925  1.00  0.00    -0.387 OA
ATOM     22  H   UNL     1      -0.340 -23.667  43.905  1.00  0.00     0.211 HD
ENDBRANCH   2  21
BRANCH   6  23
ATOM     23  O   UNL     1       1.187 -22.192  45.125  1.00  0.00    -0.462 OA
BRANCH  23  24
ATOM     24  C   UNL     1       0.554 -22.289  46.374  1.00  0.00     0.130 A 
ATOM     25  C   UNL     1       1.123 -21.781  47.554  1.00  0.00     0.093 A 
ATOM     26  C   UNL     1      -0.683 -22.931  46.437  1.00  0.00     0.094 A 
ATOM     27  C   UNL     1       0.473 -21.926  48.786  1.00  0.00     0.133 A 
ATOM     28  C   UNL     1      -1.364 -23.053  47.650  1.00  0.00     0.138 A 
ATOM     29  C   UNL     1      -0.806 -22.538  48.837  1.00  0.00     0.102 A 
ATOM     30  O   UNL     1      -2.601 -23.710  47.662  1.00  0.00    -0.484 OA
ATOM     31  C   UNL     1      -1.616 -22.671  50.073  1.00  0.00     0.174 C 
ATOM     32  C   UNL     1      -3.514 -23.657  48.762  1.00  0.00     0.211 C 
ATOM     33  O   UNL     1      -1.400 -21.952  51.085  1.00  0.00    -0.294 OA
ATOM     34  C   UNL     1      -2.753 -23.650  50.103  1.00  0.00     0.131 C 
BRANCH  27  35
ATOM     35  O   UNL     1       1.155 -21.481  49.923  1.00  0.00    -0.507 OA
ATOM     36  H   UNL     1       1.916 -20.820  49.903  1.00  0.00     0.293 HD
ENDBRANCH  27  35
BRANCH  32  37
ATOM     37  C   UNL     1      -4.495 -22.514  48.546  1.00  0.00    -0.007 A 
ATOM     38  C   UNL     1      -5.117 -21.810  49.599  1.00  0.00     0.011 A 
ATOM     39  C   UNL     1      -4.767 -22.121  47.222  1.00  0.00     0.011 A 
ATOM     40  C   UNL     1      -5.997 -20.757  49.325  1.00  0.00     0.046 A 
ATOM     41  C   UNL     1      -5.644 -21.068  46.954  1.00  0.00     0.046 A 
ATOM     42  C   UNL     1      -6.263 -20.385  48.003  1.00  0.00     0.115 A 
BRANCH  42  43
ATOM     43  O   UNL     1      -7.138 -19.338  47.722  1.00  0.00    -0.508 OA
ATOM     44  H   UNL     1      -7.251 -18.556  48.356  1.00  0.00     0.293 HD
ENDBRANCH  42  43
ENDBRANCH  32  37
ENDBRANCH  23  24
ENDBRANCH   6  23
BRANCH   3  45
ATOM     45  O   UNL     1       1.245 -21.526  40.550  1.00  0.00    -0.387 OA
ATOM     46  H   UNL     1       2.171 -21.389  40.223  1.00  0.00     0.211 HD
ENDBRANCH   3  45
BRANCH   4  47
ATOM     47  C   UNL     1       3.765 -21.929  41.892  1.00  0.00     0.191 C 
BRANCH  47  48
ATOM     48  O   UNL     1       3.886 -20.608  41.438  1.00  0.00    -0.394 OA
ATOM     49  H   UNL     1       2.984 -20.199  41.499  1.00  0.00     0.210 HD
ENDBRANCH  47  48
ENDBRANCH   4  47
TORSDOF 14
ENDMDL
MODEL 8
REMARK VINA RESULT:    -7.891      4.393      8.687
REMARK INTER + INTRA:         -14.486
REMARK INTER:                 -11.856
REMARK INTRA:                  -2.630
REMARK UNBOUND:                -1.982
REMARK SMILES C[C@@H]1O[C@H](O[C@@H]2[C@@H](Oc3cc(O)c4c(c3)O[C@H](c3ccc(O)cc3)CC4=O)O[C@H](CO)[C@H](O)[C@H]2O)[C@@H](O)[C@H](O)[C@@H]1O
REMARK SMILES IDX 6 1 34 2 32 3 29 4 28 5 7 6 5 7 4 8 1 9 2 10 40 11 3 12
REMARK SMILES IDX 38 13 36 14 41 15 39 17 37 19 35 21 8 23 9 24 10 25 15 26
REMARK SMILES IDX 11 27 14 28 13 29 16 30 26 31 17 32 27 33 25 34 12 35 18 37
REMARK SMILES IDX 19 38 24 39 20 40 23 41 21 42 22 43 33 45 30 47 31 48
REMARK H PARENT 41 16 39 18 37 20 35 22 12 36 22 44 33 46 31 49
REMARK Flexibility Score: inf
ROOT
ATOM      1  C   UNL     1      -4.458 -23.681  47.258  1.00  0.00     0.221 C 
ATOM      2  C   UNL     1      -5.258 -23.554  48.577  1.00  0.00     0.181 C 
ATOM      3  C   UNL     1      -4.366 -23.711  49.832  1.00  0.00     0.177 C 
ATOM      4  C   UNL     1      -3.041 -22.920  49.682  1.00  0.00     0.179 C 
ATOM      5  O   UNL     1      -2.369 -23.287  48.489  1.00  0.00    -0.332 OA
ATOM      6  C   UNL     1      -3.113 -22.914  47.338  1.00  0.00     0.339 C 
ENDROOT
BRANCH   1   7
ATOM      7  O   UNL     1      -4.230 -25.062  47.012  1.00  0.00    -0.337 OA
BRANCH   7   8
ATOM      8  C   UNL     1      -4.129 -25.367  45.629  1.00  0.00     0.282 C 
ATOM      9  C   UNL     1      -5.076 -23.270  42.768  1.00  0.00     0.041 C 
ATOM     10  C   UNL     1      -4.480 -24.469  43.504  1.00  0.00     0.150 C 
ATOM     11  C   UNL     1      -3.038 -24.754  43.030  1.00  0.00     0.174 C 
ATOM     12  O   UNL     1      -4.499 -24.209  44.897  1.00  0.00    -0.344 OA
ATOM     13  C   UNL     1      -2.478 -25.958  43.815  1.00  0.00     0.179 C 
ATOM     14  C   UNL     1      -2.665 -25.740  45.329  1.00  0.00     0.202 C 
BRANCH  11  15
ATOM     15  O   UNL     1      -2.232 -23.621  43.245  1.00  0.00    -0.388 OA
ATOM     16  H   UNL     1      -1.869 -23.695  44.166  1.00  0.00     0.211 HD
ENDBRANCH  11  15
BRANCH  13  17
ATOM     17  O   UNL     1      -1.116 -26.140  43.529  1.00  0.00    -0.387 OA
ATOM     18  H   UNL     1      -0.724 -25.233  43.423  1.00  0.00     0.211 HD
ENDBRANCH  13  17
BRANCH  14  19
ATOM     19  O   UNL     1      -2.335 -26.912  46.027  1.00  0.00    -0.385 OA
ATOM     20  H   UNL     1      -3.167 -27.447  46.102  1.00  0.00     0.211 HD
ENDBRANCH  14  19
ENDBRANCH   7   8
ENDBRANCH   1   7
BRANCH   2  21
ATOM     21  O   UNL     1      -5.992 -22.353  48.611  1.00  0.00    -0.387 OA
ATOM     22  H   UNL     1      -5.418 -21.644  48.994  1.00  0.00     0.211 HD
ENDBRANCH   2  21
BRANCH   6  23
ATOM     23  O   UNL     1      -3.334 -21.500  47.287  1.00  0.00    -0.462 OA
BRANCH  23  24
ATOM     24  C   UNL     1      -3.574 -20.763  46.117  1.00  0.00     0.130 A 
ATOM     25  C   UNL     1      -2.560 -20.454  45.194  1.00  0.00     0.093 A 
ATOM     26  C   UNL     1      -4.872 -20.312  45.878  1.00  0.00     0.094 A 
ATOM     27  C   UNL     1      -2.834 -19.689  44.054  1.00  0.00     0.133 A 
ATOM     28  C   UNL     1      -5.173 -19.579  44.728  1.00  0.00     0.138 A 
ATOM     29  C   UNL     1      -4.166 -19.272  43.792  1.00  0.00     0.102 A 
ATOM     30  O   UNL     1      -6.491 -19.144  44.535  1.00  0.00    -0.484 OA
ATOM     31  C   UNL     1      -4.581 -18.529  42.577  1.00  0.00     0.174 C 
ATOM     32  C   UNL     1      -6.983 -18.640  43.291  1.00  0.00     0.211 C 
ATOM     33  O   UNL     1      -3.873 -18.518  41.535  1.00  0.00    -0.294 OA
ATOM     34  C   UNL     1      -5.899 -17.812  42.570  1.00  0.00     0.131 C 
BRANCH  27  35
ATOM     35  O   UNL     1      -1.751 -19.342  43.242  1.00  0.00    -0.507 OA
ATOM     36  H   UNL     1      -0.795 -19.609  43.429  1.00  0.00     0.293 HD
ENDBRANCH  27  35
BRANCH  32  37
ATOM     37  C   UNL     1      -7.592 -19.781  42.491  1.00  0.00    -0.007 A 
ATOM     38  C   UNL     1      -7.569 -19.846  41.081  1.00  0.00     0.011 A 
ATOM     39  C   UNL     1      -8.179 -20.844  43.203  1.00  0.00     0.011 A 
ATOM     40  C   UNL     1      -8.135 -20.936  40.412  1.00  0.00     0.046 A 
ATOM     41  C   UNL     1      -8.741 -21.932  42.530  1.00  0.00     0.046 A 
ATOM     42  C   UNL     1      -8.722 -21.980  41.134  1.00  0.00     0.115 A 
BRANCH  42  43
ATOM     43  O   UNL     1      -9.289 -23.070  40.476  1.00  0.00    -0.508 OA
ATOM     44  H   UNL     1     -10.291 -23.218  40.462  1.00  0.00     0.293 HD
ENDBRANCH  42  43
ENDBRANCH  32  37
ENDBRANCH  23  24
ENDBRANCH   6  23
BRANCH   3  45
ATOM     45  O   UNL     1      -4.133 -25.072  50.111  1.00  0.00    -0.387 OA
ATOM     46  H   UNL     1      -4.995 -25.483  50.379  1.00  0.00     0.211 HD
ENDBRANCH   3  45
BRANCH   4  47
ATOM     47  C   UNL     1      -2.108 -23.168  50.876  1.00  0.00     0.191 C 
BRANCH  47  48
ATOM     48  O   UNL     1      -1.596 -24.473  50.833  1.00  0.00    -0.394 OA
ATOM     49  H   UNL     1      -2.110 -24.960  50.137  1.00  0.00     0.210 HD
ENDBRANCH  47  48
ENDBRANCH   4  47
TORSDOF 14
ENDMDL
MODEL 9
REMARK VINA RESULT:    -7.883      4.774      8.150
REMARK INTER + INTRA:         -14.473
REMARK INTER:                 -12.460
REMARK INTRA:                  -2.013
REMARK UNBOUND:                -1.982
REMARK SMILES C[C@@H]1O[C@H](O[C@@H]2[C@@H](Oc3cc(O)c4c(c3)O[C@H](c3ccc(O)cc3)CC4=O)O[C@H](CO)[C@H](O)[C@H]2O)[C@@H](O)[C@H](O)[C@@H]1O
REMARK SMILES IDX 6 1 34 2 32 3 29 4 28 5 7 6 5 7 4 8 1 9 2 10 40 11 3 12
REMARK SMILES IDX 38 13 36 14 41 15 39 17 37 19 35 21 8 23 9 24 10 25 15 26
REMARK SMILES IDX 11 27 14 28 13 29 16 30 26 31 17 32 27 33 25 34 12 35 18 37
REMARK SMILES IDX 19 38 24 39 20 40 23 41 21 42 22 43 33 45 30 47 31 48
REMARK H PARENT 41 16 39 18 37 20 35 22 12 36 22 44 33 46 31 49
REMARK Flexibility Score: inf
ROOT
ATOM      1  C   UNL     1      -2.890 -25.533  45.367  1.00  0.00     0.221 C 
ATOM      2  C   UNL     1      -1.945 -26.575  44.723  1.00  0.00     0.181 C 
ATOM      3  C   UNL     1      -2.652 -27.923  44.437  1.00  0.00     0.177 C 
ATOM      4  C   UNL     1      -4.055 -27.699  43.816  1.00  0.00     0.179 C 
ATOM      5  O   UNL     1      -4.834 -26.839  44.629  1.00  0.00    -0.332 OA
ATOM      6  C   UNL     1      -4.281 -25.533  44.683  1.00  0.00     0.339 C 
ENDROOT
BRANCH   1   7
ATOM      7  O   UNL     1      -3.013 -25.842  46.748  1.00  0.00    -0.337 OA
BRANCH   7   8
ATOM      8  C   UNL     1      -2.935 -24.696  47.581  1.00  0.00     0.282 C 
ATOM      9  C   UNL     1      -5.577 -22.265  48.350  1.00  0.00     0.041 C 
ATOM     10  C   UNL     1      -4.210 -22.944  48.444  1.00  0.00     0.150 C 
ATOM     11  C   UNL     1      -3.845 -23.260  49.912  1.00  0.00     0.174 C 
ATOM     12  O   UNL     1      -4.234 -24.133  47.674  1.00  0.00    -0.344 OA
ATOM     13  C   UNL     1      -2.471 -23.958  49.949  1.00  0.00     0.179 C 
ATOM     14  C   UNL     1      -2.452 -25.149  48.972  1.00  0.00     0.202 C 
BRANCH  11  15
ATOM     15  O   UNL     1      -4.826 -24.095  50.478  1.00  0.00    -0.388 OA
ATOM     16  H   UNL     1      -5.482 -24.298  49.761  1.00  0.00     0.211 HD
ENDBRANCH  11  15
BRANCH  13  17
ATOM     17  O   UNL     1      -2.184 -24.408  51.247  1.00  0.00    -0.387 OA
ATOM     18  H   UNL     1      -1.563 -25.178  51.151  1.00  0.00     0.211 HD
ENDBRANCH  13  17
BRANCH  14  19
ATOM     19  O   UNL     1      -1.149 -25.661  48.863  1.00  0.00    -0.385 OA
ATOM     20  H   UNL     1      -1.104 -26.462  49.447  1.00  0.00     0.211 HD
ENDBRANCH  14  19
ENDBRANCH   7   8
ENDBRANCH   1   7
BRANCH   2  21
ATOM     21  O   UNL     1      -1.331 -26.057  43.566  1.00  0.00    -0.387 OA
ATOM     22  H   UNL     1      -2.038 -25.806  42.921  1.00  0.00     0.211 HD
ENDBRANCH   2  21
BRANCH   6  23
ATOM     23  O   UNL     1      -4.205 -24.937  43.383  1.00  0.00    -0.462 OA
BRANCH  23  24
ATOM     24  C   UNL     1      -3.928 -23.585  43.130  1.00  0.00     0.130 A 
ATOM     25  C   UNL     1      -3.073 -23.166  42.096  1.00  0.00     0.093 A 
ATOM     26  C   UNL     1      -4.520 -22.627  43.953  1.00  0.00     0.094 A 
ATOM     27  C   UNL     1      -2.797 -21.808  41.896  1.00  0.00     0.133 A 
ATOM     28  C   UNL     1      -4.287 -21.266  43.746  1.00  0.00     0.138 A 
ATOM     29  C   UNL     1      -3.439 -20.835  42.707  1.00  0.00     0.102 A 
ATOM     30  O   UNL     1      -4.900 -20.342  44.603  1.00  0.00    -0.484 OA
ATOM     31  C   UNL     1      -3.282 -19.370  42.529  1.00  0.00     0.174 C 
ATOM     32  C   UNL     1      -4.971 -18.939  44.333  1.00  0.00     0.211 C 
ATOM     33  O   UNL     1      -2.861 -18.877  41.449  1.00  0.00    -0.294 OA
ATOM     34  C   UNL     1      -3.680 -18.450  43.646  1.00  0.00     0.131 C 
BRANCH  27  35
ATOM     35  O   UNL     1      -1.859 -21.486  40.912  1.00  0.00    -0.507 OA
ATOM     36  H   UNL     1      -0.871 -21.372  41.088  1.00  0.00     0.293 HD
ENDBRANCH  27  35
BRANCH  32  37
ATOM     37  C   UNL     1      -6.271 -18.631  43.606  1.00  0.00    -0.007 A 
ATOM     38  C   UNL     1      -6.372 -17.707  42.545  1.00  0.00     0.011 A 
ATOM     39  C   UNL     1      -7.426 -19.334  43.997  1.00  0.00     0.011 A 
ATOM     40  C   UNL     1      -7.600 -17.486  41.911  1.00  0.00     0.046 A 
ATOM     41  C   UNL     1      -8.649 -19.112  43.359  1.00  0.00     0.046 A 
ATOM     42  C   UNL     1      -8.740 -18.187  42.317  1.00  0.00     0.115 A 
BRANCH  42  43
ATOM     43  O   UNL     1      -9.967 -17.973  41.691  1.00  0.00    -0.508 OA
ATOM     44  H   UNL     1     -10.449 -17.085  41.761  1.00  0.00     0.293 HD
ENDBRANCH  42  43
ENDBRANCH  32  37
ENDBRANCH  23  24
ENDBRANCH   6  23
BRANCH   3  45
ATOM     45  O   UNL     1      -2.716 -28.709  45.603  1.00  0.00    -0.387 OA
ATOM     46  H   UNL     1      -3.598 -29.164  45.620  1.00  0.00     0.211 HD
ENDBRANCH   3  45
BRANCH   4  47
ATOM     47  C   UNL     1      -4.802 -29.030  43.638  1.00  0.00     0.191 C 
BRANCH  47  48
ATOM     48  O   UNL     1      -3.889 -30.089  43.526  1.00  0.00    -0.394 OA
ATOM     49  H   UNL     1      -3.766 -30.459  44.439  1.00  0.00     0.210 HD
ENDBRANCH  47  48
ENDBRANCH   4  47
TORSDOF 14
ENDMDL
