MODEL 1
REMARK VINA RESULT:    -1.953      0.000      0.000
REMARK INTER + INTRA:          -2.886
REMARK INTER:                  -2.523
REMARK INTRA:                  -0.363
REMARK UNBOUND:                -0.363
REMARK SMILES CCCCCCC(=O)[O-]
REMARK SMILES IDX 5 1 6 2 7 3 8 4 9 5 4 6 3 7 2 8 1 9
REMARK H PARENT
REMARK Flexibility Score: inf
ROOT
ATOM      1  C   UNL     1     -34.170 -35.318  14.367  1.00  0.00     0.006 C 
ENDROOT
BRANCH   1   2
ATOM      2  C   UNL     1     -33.910 -36.113  15.649  1.00  0.00     0.053 C 
BRANCH   2   3
ATOM      3  C   UNL     1     -32.843 -35.456  16.467  1.00  0.00     0.041 C 
ATOM      4  O   UNL     1     -32.028 -34.663  15.927  1.00  0.00    -0.550 OA
ATOM      5  O   UNL     1     -32.718 -35.758  17.817  1.00  0.00    -0.550 OA
ENDBRANCH   2   3
ENDBRANCH   1   2
BRANCH   1   6
ATOM      6  C   UNL     1     -33.750 -36.123  13.127  1.00  0.00     0.000 C 
BRANCH   6   7
ATOM      7  C   UNL     1     -33.077 -35.252  12.055  1.00  0.00    -0.000 C 
BRANCH   7   8
ATOM      8  C   UNL     1     -31.625 -34.897  12.407  1.00  0.00    -0.003 C 
ATOM      9  C   UNL     1     -30.864 -36.123  12.903  1.00  0.00     0.004 C 
ENDBRANCH   7   8
ENDBRANCH   6   7
ENDBRANCH   1   6
TORSDOF 5
ENDMDL
MODEL 2
REMARK VINA RESULT:    -1.904     25.772     26.708
REMARK INTER + INTRA:          -2.824
REMARK INTER:                  -2.619
REMARK INTRA:                  -0.205
REMARK UNBOUND:                -0.363
REMARK SMILES CCCCCCC(=O)[O-]
REMARK SMILES IDX 5 1 6 2 7 3 8 4 9 5 4 6 3 7 2 8 1 9
REMARK H PARENT
REMARK Flexibility Score: inf
ROOT
ATOM      1  C   UNL     1     -17.310 -21.360  30.598  1.00  0.00     0.006 C 
ENDROOT
BRANCH   1   2
ATOM      2  C   UNL     1     -17.866 -20.858  31.933  1.00  0.00     0.053 C 
BRANCH   2   3
ATOM      3  C   UNL     1     -19.361 -20.810  31.893  1.00  0.00     0.041 C 
ATOM      4  O   UNL     1     -19.964 -19.712  32.016  1.00  0.00    -0.550 OA
ATOM      5  O   UNL     1     -20.091 -21.986  31.770  1.00  0.00    -0.550 OA
ENDBRANCH   2   3
ENDBRANCH   1   2
BRANCH   1   6
ATOM      6  C   UNL     1     -15.973 -22.090  30.801  1.00  0.00     0.000 C 
BRANCH   6   7
ATOM      7  C   UNL     1     -15.926 -22.884  32.117  1.00  0.00    -0.000 C 
BRANCH   7   8
ATOM      8  C   UNL     1     -15.169 -24.213  31.978  1.00  0.00    -0.003 C 
ATOM      9  C   UNL     1     -15.906 -25.170  31.046  1.00  0.00     0.004 C 
ENDBRANCH   7   8
ENDBRANCH   6   7
ENDBRANCH   1   6
TORSDOF 5
ENDMDL
MODEL 3
REMARK VINA RESULT:    -1.858      2.174      3.882
REMARK INTER + INTRA:          -2.765
REMARK INTER:                  -2.355
REMARK INTRA:                  -0.409
REMARK UNBOUND:                -0.363
REMARK SMILES CCCCCCC(=O)[O-]
REMARK SMILES IDX 5 1 6 2 7 3 8 4 9 5 4 6 3 7 2 8 1 9
REMARK H PARENT
REMARK Flexibility Score: inf
ROOT
ATOM      1  C   UNL     1     -32.079 -35.878  12.601  1.00  0.00     0.006 C 
ENDROOT
BRANCH   1   2
ATOM      2  C   UNL     1     -31.697 -34.585  11.875  1.00  0.00     0.053 C 
BRANCH   2   3
ATOM      3  C   UNL     1     -31.930 -33.399  12.758  1.00  0.00     0.041 C 
ATOM      4  O   UNL     1     -32.793 -32.537  12.447  1.00  0.00    -0.550 OA
ATOM      5  O   UNL     1     -31.157 -33.220  13.898  1.00  0.00    -0.550 OA
ENDBRANCH   2   3
ENDBRANCH   1   2
BRANCH   1   6
ATOM      6  C   UNL     1     -33.602 -35.985  12.766  1.00  0.00     0.000 C 
BRANCH   6   7
ATOM      7  C   UNL     1     -34.033 -36.092  14.238  1.00  0.00    -0.000 C 
BRANCH   7   8
ATOM      8  C   UNL     1     -34.978 -34.959  14.662  1.00  0.00    -0.003 C 
ATOM      9  C   UNL     1     -34.252 -33.933  15.527  1.00  0.00     0.004 C 
ENDBRANCH   7   8
ENDBRANCH   6   7
ENDBRANCH   1   6
TORSDOF 5
ENDMDL
MODEL 4
REMARK VINA RESULT:    -1.821     25.598     26.614
REMARK INTER + INTRA:          -2.716
REMARK INTER:                  -2.463
REMARK INTRA:                  -0.253
REMARK UNBOUND:                -0.363
REMARK SMILES CCCCCCC(=O)[O-]
REMARK SMILES IDX 5 1 6 2 7 3 8 4 9 5 4 6 3 7 2 8 1 9
REMARK H PARENT
REMARK Flexibility Score: inf
ROOT
ATOM      1  C   UNL     1     -17.006 -24.140  31.257  1.00  0.00     0.006 C 
ENDROOT
BRANCH   1   2
ATOM      2  C   UNL     1     -16.278 -23.080  32.087  1.00  0.00     0.053 C 
BRANCH   2   3
ATOM      3  C   UNL     1     -16.382 -21.738  31.433  1.00  0.00     0.041 C 
ATOM      4  O   UNL     1     -15.864 -21.541  30.303  1.00  0.00    -0.550 OA
ATOM      5  O   UNL     1     -17.009 -20.690  32.095  1.00  0.00    -0.550 OA
ENDBRANCH   2   3
ENDBRANCH   1   2
BRANCH   1   6
ATOM      6  C   UNL     1     -16.014 -25.162  30.681  1.00  0.00     0.000 C 
BRANCH   6   7
ATOM      7  C   UNL     1     -14.875 -25.497  31.657  1.00  0.00    -0.000 C 
BRANCH   7   8
ATOM      8  C   UNL     1     -14.892 -26.967  32.104  1.00  0.00    -0.003 C 
ATOM      9  C   UNL     1     -16.018 -27.736  31.421  1.00  0.00     0.004 C 
ENDBRANCH   7   8
ENDBRANCH   6   7
ENDBRANCH   1   6
TORSDOF 5
ENDMDL
MODEL 5
REMARK VINA RESULT:    -1.724     25.213     26.394
REMARK INTER + INTRA:          -2.591
REMARK INTER:                  -2.208
REMARK INTRA:                  -0.383
REMARK UNBOUND:                -0.363
REMARK SMILES CCCCCCC(=O)[O-]
REMARK SMILES IDX 5 1 6 2 7 3 8 4 9 5 4 6 3 7 2 8 1 9
REMARK H PARENT
REMARK Flexibility Score: inf
ROOT
ATOM      1  C   UNL     1     -15.239 -23.584  32.123  1.00  0.00     0.006 C 
ENDROOT
BRANCH   1   2
ATOM      2  C   UNL     1     -16.643 -23.101  31.750  1.00  0.00     0.053 C 
BRANCH   2   3
ATOM      3  C   UNL     1     -16.579 -21.750  31.111  1.00  0.00     0.041 C 
ATOM      4  O   UNL     1     -15.693 -21.494  30.254  1.00  0.00    -0.550 OA
ATOM      5  O   UNL     1     -17.469 -20.755  31.498  1.00  0.00    -0.550 OA
ENDBRANCH   2   3
ENDBRANCH   1   2
BRANCH   1   6
ATOM      6  C   UNL     1     -15.000 -25.016  31.621  1.00  0.00     0.000 C 
BRANCH   6   7
ATOM      7  C   UNL     1     -16.099 -25.497  30.659  1.00  0.00    -0.000 C 
BRANCH   7   8
ATOM      8  C   UNL     1     -15.570 -25.768  29.243  1.00  0.00    -0.003 C 
ATOM      9  C   UNL     1     -15.696 -24.528  28.363  1.00  0.00     0.004 C 
ENDBRANCH   7   8
ENDBRANCH   6   7
ENDBRANCH   1   6
TORSDOF 5
ENDMDL
MODEL 6
REMARK VINA RESULT:    -1.713      2.492      3.977
REMARK INTER + INTRA:          -2.577
REMARK INTER:                  -2.227
REMARK INTRA:                  -0.350
REMARK UNBOUND:                -0.363
REMARK SMILES CCCCCCC(=O)[O-]
REMARK SMILES IDX 5 1 6 2 7 3 8 4 9 5 4 6 3 7 2 8 1 9
REMARK H PARENT
REMARK Flexibility Score: inf
ROOT
ATOM      1  C   UNL     1     -32.539 -35.064  12.042  1.00  0.00     0.006 C 
ENDROOT
BRANCH   1   2
ATOM      2  C   UNL     1     -33.018 -33.618  11.888  1.00  0.00     0.053 C 
BRANCH   2   3
ATOM      3  C   UNL     1     -34.268 -33.391  12.678  1.00  0.00     0.041 C 
ATOM      4  O   UNL     1     -34.648 -34.244  13.523  1.00  0.00    -0.550 OA
ATOM      5  O   UNL     1     -35.042 -32.261  12.446  1.00  0.00    -0.550 OA
ENDBRANCH   2   3
ENDBRANCH   1   2
BRANCH   1   6
ATOM      6  C   UNL     1     -31.062 -35.111  12.459  1.00  0.00     0.000 C 
BRANCH   6   7
ATOM      7  C   UNL     1     -30.796 -36.123  13.586  1.00  0.00    -0.000 C 
BRANCH   7   8
ATOM      8  C   UNL     1     -31.859 -36.068  14.693  1.00  0.00    -0.003 C 
ATOM      9  C   UNL     1     -31.644 -34.862  15.602  1.00  0.00     0.004 C 
ENDBRANCH   7   8
ENDBRANCH   6   7
ENDBRANCH   1   6
TORSDOF 5
ENDMDL
MODEL 7
REMARK VINA RESULT:    -1.695      1.643      2.415
REMARK INTER + INTRA:          -2.553
REMARK INTER:                  -2.186
REMARK INTRA:                  -0.367
REMARK UNBOUND:                -0.363
REMARK SMILES CCCCCCC(=O)[O-]
REMARK SMILES IDX 5 1 6 2 7 3 8 4 9 5 4 6 3 7 2 8 1 9
REMARK H PARENT
REMARK Flexibility Score: inf
ROOT
ATOM      1  C   UNL     1     -31.740 -34.448  14.875  1.00  0.00     0.006 C 
ENDROOT
BRANCH   1   2
ATOM      2  C   UNL     1     -32.165 -35.894  15.139  1.00  0.00     0.053 C 
BRANCH   2   3
ATOM      3  C   UNL     1     -33.403 -35.932  15.979  1.00  0.00     0.041 C 
ATOM      4  O   UNL     1     -34.535 -36.028  15.437  1.00  0.00    -0.550 OA
ATOM      5  O   UNL     1     -33.309 -35.811  17.360  1.00  0.00    -0.550 OA
ENDBRANCH   2   3
ENDBRANCH   1   2
BRANCH   1   6
ATOM      6  C   UNL     1     -31.933 -34.081  13.395  1.00  0.00     0.000 C 
BRANCH   6   7
ATOM      7  C   UNL     1     -32.503 -35.243  12.566  1.00  0.00    -0.000 C 
BRANCH   7   8
ATOM      8  C   UNL     1     -33.827 -34.884  11.876  1.00  0.00    -0.003 C 
ATOM      9  C   UNL     1     -34.569 -33.795  12.643  1.00  0.00     0.004 C 
ENDBRANCH   7   8
ENDBRANCH   6   7
ENDBRANCH   1   6
TORSDOF 5
ENDMDL
MODEL 8
REMARK VINA RESULT:    -1.687      2.878      4.169
REMARK INTER + INTRA:          -2.543
REMARK INTER:                  -2.176
REMARK INTRA:                  -0.368
REMARK UNBOUND:                -0.363
REMARK SMILES CCCCCCC(=O)[O-]
REMARK SMILES IDX 5 1 6 2 7 3 8 4 9 5 4 6 3 7 2 8 1 9
REMARK H PARENT
REMARK Flexibility Score: inf
ROOT
ATOM      1  C   UNL     1     -33.679 -35.162  13.135  1.00  0.00     0.006 C 
ENDROOT
BRANCH   1   2
ATOM      2  C   UNL     1     -32.826 -34.994  11.875  1.00  0.00     0.053 C 
BRANCH   2   3
ATOM      3  C   UNL     1     -31.392 -34.770  12.239  1.00  0.00     0.041 C 
ATOM      4  O   UNL     1     -30.726 -35.686  12.789  1.00  0.00    -0.550 OA
ATOM      5  O   UNL     1     -30.804 -33.530  12.017  1.00  0.00    -0.550 OA
ENDBRANCH   2   3
ENDBRANCH   1   2
BRANCH   1   6
ATOM      6  C   UNL     1     -34.485 -33.886  13.425  1.00  0.00     0.000 C 
BRANCH   6   7
ATOM      7  C   UNL     1     -34.873 -33.126  12.146  1.00  0.00    -0.000 C 
BRANCH   7   8
ATOM      8  C   UNL     1     -34.654 -31.611  12.269  1.00  0.00    -0.003 C 
ATOM      9  C   UNL     1     -33.323 -31.301  12.945  1.00  0.00     0.004 C 
ENDBRANCH   7   8
ENDBRANCH   6   7
ENDBRANCH   1   6
TORSDOF 5
ENDMDL
