MODEL 1
REMARK VINA RESULT:    -4.451      0.000      0.000
REMARK INTER + INTRA:          -8.055
REMARK INTER:                  -7.052
REMARK INTRA:                  -1.003
REMARK UNBOUND:                -1.003
REMARK SMILES CCCCCCCCCCCC(=O)[O-]
REMARK SMILES IDX 7 1 8 2 9 3 10 4 11 5 12 6 13 7 14 8 6 9 5 10 4 11 3 12 2 13
REMARK SMILES IDX 1 14
REMARK H PARENT
REMARK Flexibility Score: inf
ROOT
ATOM      1  C   UNL     1      53.798  23.974  48.478  1.00  0.00     0.000 C 
ENDROOT
BRANCH   1   2
ATOM      2  C   UNL     1      53.483  25.118  49.456  1.00  0.00     0.000 C 
BRANCH   2   3
ATOM      3  C   UNL     1      53.729  24.730  50.922  1.00  0.00     0.000 C 
BRANCH   3   4
ATOM      4  C   UNL     1      53.362  23.260  51.171  1.00  0.00     0.006 C 
BRANCH   4   5
ATOM      5  C   UNL     1      52.867  23.018  52.603  1.00  0.00     0.053 C 
BRANCH   5   6
ATOM      6  C   UNL     1      53.371  21.719  53.154  1.00  0.00     0.041 C 
ATOM      7  O   UNL     1      54.598  21.567  53.395  1.00  0.00    -0.550 OA
ATOM      8  O   UNL     1      52.482  20.689  53.432  1.00  0.00    -0.550 OA
ENDBRANCH   5   6
ENDBRANCH   4   5
ENDBRANCH   3   4
ENDBRANCH   2   3
ENDBRANCH   1   2
BRANCH   1   9
ATOM      9  C   UNL     1      54.583  24.451  47.244  1.00  0.00     0.000 C 
BRANCH   9  10
ATOM     10  C   UNL     1      56.075  24.085  47.317  1.00  0.00    -0.000 C 
BRANCH  10  11
ATOM     11  C   UNL     1      56.369  22.995  48.360  1.00  0.00    -0.000 C 
BRANCH  11  12
ATOM     12  C   UNL     1      56.797  21.687  47.678  1.00  0.00    -0.000 C 
BRANCH  12  13
ATOM     13  C   UNL     1      56.469  20.446  48.522  1.00  0.00    -0.003 C 
ATOM     14  C   UNL     1      55.687  20.783  49.791  1.00  0.00     0.004 C 
ENDBRANCH  12  13
ENDBRANCH  11  12
ENDBRANCH  10  11
ENDBRANCH   9  10
ENDBRANCH   1   9
TORSDOF 10
ENDMDL
MODEL 2
REMARK VINA RESULT:    -4.396      1.370      1.869
REMARK INTER + INTRA:          -7.968
REMARK INTER:                  -6.910
REMARK INTRA:                  -1.058
REMARK UNBOUND:                -1.003
REMARK SMILES CCCCCCCCCCCC(=O)[O-]
REMARK SMILES IDX 7 1 8 2 9 3 10 4 11 5 12 6 13 7 14 8 6 9 5 10 4 11 3 12 2 13
REMARK SMILES IDX 1 14
REMARK H PARENT
REMARK Flexibility Score: inf
ROOT
ATOM      1  C   UNL     1      53.561  24.708  49.456  1.00  0.00     0.000 C 
ENDROOT
BRANCH   1   2
ATOM      2  C   UNL     1      53.127  23.937  50.713  1.00  0.00     0.000 C 
BRANCH   2   3
ATOM      3  C   UNL     1      54.314  23.532  51.601  1.00  0.00     0.000 C 
BRANCH   3   4
ATOM      4  C   UNL     1      54.478  22.005  51.635  1.00  0.00     0.006 C 
BRANCH   4   5
ATOM      5  C   UNL     1      55.848  21.579  52.180  1.00  0.00     0.053 C 
BRANCH   5   6
ATOM      6  C   UNL     1      55.789  21.255  53.640  1.00  0.00     0.041 C 
ATOM      7  O   UNL     1      56.809  20.810  54.232  1.00  0.00    -0.550 OA
ATOM      8  O   UNL     1      54.620  21.475  54.357  1.00  0.00    -0.550 OA
ENDBRANCH   5   6
ENDBRANCH   4   5
ENDBRANCH   3   4
ENDBRANCH   2   3
ENDBRANCH   1   2
BRANCH   1   9
ATOM      9  C   UNL     1      53.942  23.774  48.294  1.00  0.00     0.000 C 
BRANCH   9  10
ATOM     10  C   UNL     1      55.019  24.381  47.379  1.00  0.00    -0.000 C 
BRANCH  10  11
ATOM     11  C   UNL     1      56.386  23.696  47.534  1.00  0.00    -0.000 C 
BRANCH  11  12
ATOM     12  C   UNL     1      56.297  22.511  48.506  1.00  0.00    -0.000 C 
BRANCH  12  13
ATOM     13  C   UNL     1      56.773  21.192  47.877  1.00  0.00    -0.003 C 
ATOM     14  C   UNL     1      56.433  19.971  48.732  1.00  0.00     0.004 C 
ENDBRANCH  12  13
ENDBRANCH  11  12
ENDBRANCH  10  11
ENDBRANCH   9  10
ENDBRANCH   1   9
TORSDOF 10
ENDMDL
MODEL 3
REMARK VINA RESULT:    -4.390      1.249      1.655
REMARK INTER + INTRA:          -7.959
REMARK INTER:                  -6.691
REMARK INTRA:                  -1.269
REMARK UNBOUND:                -1.003
REMARK SMILES CCCCCCCCCCCC(=O)[O-]
REMARK SMILES IDX 7 1 8 2 9 3 10 4 11 5 12 6 13 7 14 8 6 9 5 10 4 11 3 12 2 13
REMARK SMILES IDX 1 14
REMARK H PARENT
REMARK Flexibility Score: inf
ROOT
ATOM      1  C   UNL     1      53.633  23.602  48.941  1.00  0.00     0.000 C 
ENDROOT
BRANCH   1   2
ATOM      2  C   UNL     1      53.517  24.793  49.906  1.00  0.00     0.000 C 
BRANCH   2   3
ATOM      3  C   UNL     1      53.635  24.378  51.380  1.00  0.00     0.000 C 
BRANCH   3   4
ATOM      4  C   UNL     1      54.209  22.959  51.507  1.00  0.00     0.006 C 
BRANCH   4   5
ATOM      5  C   UNL     1      55.620  22.954  52.110  1.00  0.00     0.053 C 
BRANCH   5   6
ATOM      6  C   UNL     1      55.824  21.796  53.038  1.00  0.00     0.041 C 
ATOM      7  O   UNL     1      54.893  21.424  53.801  1.00  0.00    -0.550 OA
ATOM      8  O   UNL     1      57.030  21.107  53.038  1.00  0.00    -0.550 OA
ENDBRANCH   5   6
ENDBRANCH   4   5
ENDBRANCH   3   4
ENDBRANCH   2   3
ENDBRANCH   1   2
BRANCH   1   9
ATOM      9  C   UNL     1      54.232  24.000  47.581  1.00  0.00     0.000 C 
BRANCH   9  10
ATOM     10  C   UNL     1      55.756  24.189  47.641  1.00  0.00    -0.000 C 
BRANCH  10  11
ATOM     11  C   UNL     1      56.462  23.085  48.444  1.00  0.00    -0.000 C 
BRANCH  11  12
ATOM     12  C   UNL     1      56.837  21.904  47.537  1.00  0.00    -0.000 C 
BRANCH  12  13
ATOM     13  C   UNL     1      56.852  20.563  48.288  1.00  0.00    -0.003 C 
ATOM     14  C   UNL     1      55.775  20.478  49.370  1.00  0.00     0.004 C 
ENDBRANCH  12  13
ENDBRANCH  11  12
ENDBRANCH  10  11
ENDBRANCH   9  10
ENDBRANCH   1   9
TORSDOF 10
ENDMDL
MODEL 4
REMARK VINA RESULT:    -4.234      1.361      3.428
REMARK INTER + INTRA:          -7.712
REMARK INTER:                  -6.618
REMARK INTRA:                  -1.095
REMARK UNBOUND:                -1.003
REMARK SMILES CCCCCCCCCCCC(=O)[O-]
REMARK SMILES IDX 7 1 8 2 9 3 10 4 11 5 12 6 13 7 14 8 6 9 5 10 4 11 3 12 2 13
REMARK SMILES IDX 1 14
REMARK H PARENT
REMARK Flexibility Score: inf
ROOT
ATOM      1  C   UNL     1      55.896  20.643  49.805  1.00  0.00     0.000 C 
ENDROOT
BRANCH   1   2
ATOM      2  C   UNL     1      54.912  21.340  50.760  1.00  0.00     0.000 C 
BRANCH   2   3
ATOM      3  C   UNL     1      55.584  21.828  52.053  1.00  0.00     0.000 C 
BRANCH   3   4
ATOM      4  C   UNL     1      54.706  21.524  53.276  1.00  0.00     0.006 C 
BRANCH   4   5
ATOM      5  C   UNL     1      53.225  21.375  52.907  1.00  0.00     0.053 C 
BRANCH   5   6
ATOM      6  C   UNL     1      52.410  22.534  53.394  1.00  0.00     0.041 C 
ATOM      7  O   UNL     1      51.153  22.502  53.316  1.00  0.00    -0.550 OA
ATOM      8  O   UNL     1      53.036  23.635  53.964  1.00  0.00    -0.550 OA
ENDBRANCH   5   6
ENDBRANCH   4   5
ENDBRANCH   3   4
ENDBRANCH   2   3
ENDBRANCH   1   2
BRANCH   1   9
ATOM      9  C   UNL     1      56.066  21.401  48.477  1.00  0.00     0.000 C 
BRANCH   9  10
ATOM     10  C   UNL     1      56.276  22.910  48.682  1.00  0.00    -0.000 C 
BRANCH  10  11
ATOM     11  C   UNL     1      55.471  23.764  47.689  1.00  0.00    -0.000 C 
BRANCH  11  12
ATOM     12  C   UNL     1      53.991  23.822  48.094  1.00  0.00    -0.000 C 
BRANCH  12  13
ATOM     13  C   UNL     1      53.675  25.017  49.007  1.00  0.00    -0.003 C 
ATOM     14  C   UNL     1      53.316  24.594  50.432  1.00  0.00     0.004 C 
ENDBRANCH  12  13
ENDBRANCH  11  12
ENDBRANCH  10  11
ENDBRANCH   9  10
ENDBRANCH   1   9
TORSDOF 10
ENDMDL
MODEL 5
REMARK VINA RESULT:    -4.176      1.943      3.671
REMARK INTER + INTRA:          -7.621
REMARK INTER:                  -6.444
REMARK INTRA:                  -1.176
REMARK UNBOUND:                -1.003
REMARK SMILES CCCCCCCCCCCC(=O)[O-]
REMARK SMILES IDX 7 1 8 2 9 3 10 4 11 5 12 6 13 7 14 8 6 9 5 10 4 11 3 12 2 13
REMARK SMILES IDX 1 14
REMARK H PARENT
REMARK Flexibility Score: inf
ROOT
ATOM      1  C   UNL     1      55.631  21.297  50.753  1.00  0.00     0.000 C 
ENDROOT
BRANCH   1   2
ATOM      2  C   UNL     1      54.160  21.076  51.142  1.00  0.00     0.000 C 
BRANCH   2   3
ATOM      3  C   UNL     1      53.816  21.660  52.521  1.00  0.00     0.000 C 
BRANCH   3   4
ATOM      4  C   UNL     1      55.063  22.254  53.192  1.00  0.00     0.006 C 
BRANCH   4   5
ATOM      5  C   UNL     1      55.221  21.785  54.645  1.00  0.00     0.053 C 
BRANCH   5   6
ATOM      6  C   UNL     1      56.568  21.179  54.891  1.00  0.00     0.041 C 
ATOM      7  O   UNL     1      57.088  21.235  56.037  1.00  0.00    -0.550 OA
ATOM      8  O   UNL     1      57.235  20.523  53.865  1.00  0.00    -0.550 OA
ENDBRANCH   5   6
ENDBRANCH   4   5
ENDBRANCH   3   4
ENDBRANCH   2   3
ENDBRANCH   1   2
BRANCH   1   9
ATOM      9  C   UNL     1      56.020  20.547  49.467  1.00  0.00     0.000 C 
BRANCH   9  10
ATOM     10  C   UNL     1      56.344  21.500  48.304  1.00  0.00    -0.000 C 
BRANCH  10  11
ATOM     11  C   UNL     1      56.185  22.981  48.686  1.00  0.00    -0.000 C 
BRANCH  11  12
ATOM     12  C   UNL     1      55.106  23.655  47.825  1.00  0.00    -0.000 C 
BRANCH  12  13
ATOM     13  C   UNL     1      53.729  23.668  48.506  1.00  0.00    -0.003 C 
ATOM     14  C   UNL     1      53.709  24.505  49.785  1.00  0.00     0.004 C 
ENDBRANCH  12  13
ENDBRANCH  11  12
ENDBRANCH  10  11
ENDBRANCH   9  10
ENDBRANCH   1   9
TORSDOF 10
ENDMDL
MODEL 6
REMARK VINA RESULT:    -4.160      1.082      1.572
REMARK INTER + INTRA:          -7.595
REMARK INTER:                  -6.599
REMARK INTRA:                  -0.996
REMARK UNBOUND:                -1.003
REMARK SMILES CCCCCCCCCCCC(=O)[O-]
REMARK SMILES IDX 7 1 8 2 9 3 10 4 11 5 12 6 13 7 14 8 6 9 5 10 4 11 3 12 2 13
REMARK SMILES IDX 1 14
REMARK H PARENT
REMARK Flexibility Score: inf
ROOT
ATOM      1  C   UNL     1      53.843  24.537  49.700  1.00  0.00     0.000 C 
ENDROOT
BRANCH   1   2
ATOM      2  C   UNL     1      53.331  23.693  50.879  1.00  0.00     0.000 C 
BRANCH   2   3
ATOM      3  C   UNL     1      54.132  23.929  52.169  1.00  0.00     0.000 C 
BRANCH   3   4
ATOM      4  C   UNL     1      54.263  22.631  52.979  1.00  0.00     0.006 C 
BRANCH   4   5
ATOM      5  C   UNL     1      53.219  22.535  54.099  1.00  0.00     0.053 C 
BRANCH   5   6
ATOM      6  C   UNL     1      52.102  21.603  53.741  1.00  0.00     0.041 C 
ATOM      7  O   UNL     1      51.021  22.057  53.282  1.00  0.00    -0.550 OA
ATOM      8  O   UNL     1      52.268  20.231  53.882  1.00  0.00    -0.550 OA
ENDBRANCH   5   6
ENDBRANCH   4   5
ENDBRANCH   3   4
ENDBRANCH   2   3
ENDBRANCH   1   2
BRANCH   1   9
ATOM      9  C   UNL     1      53.773  23.783  48.361  1.00  0.00     0.000 C 
BRANCH   9  10
ATOM     10  C   UNL     1      55.146  23.664  47.679  1.00  0.00    -0.000 C 
BRANCH  10  11
ATOM     11  C   UNL     1      56.195  22.977  48.569  1.00  0.00    -0.000 C 
BRANCH  11  12
ATOM     12  C   UNL     1      56.692  21.675  47.924  1.00  0.00    -0.000 C 
BRANCH  12  13
ATOM     13  C   UNL     1      56.296  20.428  48.728  1.00  0.00    -0.003 C 
ATOM     14  C   UNL     1      55.557  20.768  50.022  1.00  0.00     0.004 C 
ENDBRANCH  12  13
ENDBRANCH  11  12
ENDBRANCH  10  11
ENDBRANCH   9  10
ENDBRANCH   1   9
TORSDOF 10
ENDMDL
MODEL 7
REMARK VINA RESULT:    -4.001      2.053      4.580
REMARK INTER + INTRA:          -7.343
REMARK INTER:                  -6.376
REMARK INTRA:                  -0.967
REMARK UNBOUND:                -1.003
REMARK SMILES CCCCCCCCCCCC(=O)[O-]
REMARK SMILES IDX 7 1 8 2 9 3 10 4 11 5 12 6 13 7 14 8 6 9 5 10 4 11 3 12 2 13
REMARK SMILES IDX 1 14
REMARK H PARENT
REMARK Flexibility Score: inf
ROOT
ATOM      1  C   UNL     1      53.841  23.585  48.969  1.00  0.00     0.000 C 
ENDROOT
BRANCH   1   2
ATOM      2  C   UNL     1      54.334  24.156  47.630  1.00  0.00     0.000 C 
BRANCH   2   3
ATOM      3  C   UNL     1      55.817  23.854  47.365  1.00  0.00     0.000 C 
BRANCH   3   4
ATOM      4  C   UNL     1      56.380  22.897  48.425  1.00  0.00     0.006 C 
BRANCH   4   5
ATOM      5  C   UNL     1      56.734  21.523  47.840  1.00  0.00     0.053 C 
BRANCH   5   6
ATOM      6  C   UNL     1      56.230  20.405  48.699  1.00  0.00     0.041 C 
ATOM      7  O   UNL     1      55.898  20.625  49.894  1.00  0.00    -0.550 OA
ATOM      8  O   UNL     1      56.096  19.127  48.171  1.00  0.00    -0.550 OA
ENDBRANCH   5   6
ENDBRANCH   4   5
ENDBRANCH   3   4
ENDBRANCH   2   3
ENDBRANCH   1   2
BRANCH   1   9
ATOM      9  C   UNL     1      53.419  24.684  49.960  1.00  0.00     0.000 C 
BRANCH   9  10
ATOM     10  C   UNL     1      53.562  24.243  51.425  1.00  0.00    -0.000 C 
BRANCH  10  11
ATOM     11  C   UNL     1      54.869  23.480  51.693  1.00  0.00    -0.000 C 
BRANCH  11  12
ATOM     12  C   UNL     1      54.691  22.475  52.840  1.00  0.00    -0.000 C 
BRANCH  12  13
ATOM     13  C   UNL     1      53.645  21.395  52.523  1.00  0.00    -0.003 C 
ATOM     14  C   UNL     1      52.823  20.991  53.747  1.00  0.00     0.004 C 
ENDBRANCH  12  13
ENDBRANCH  11  12
ENDBRANCH  10  11
ENDBRANCH   9  10
ENDBRANCH   1   9
TORSDOF 10
ENDMDL
MODEL 8
REMARK VINA RESULT:    -3.957      1.505      3.142
REMARK INTER + INTRA:          -7.273
REMARK INTER:                  -5.978
REMARK INTRA:                  -1.295
REMARK UNBOUND:                -1.003
REMARK SMILES CCCCCCCCCCCC(=O)[O-]
REMARK SMILES IDX 7 1 8 2 9 3 10 4 11 5 12 6 13 7 14 8 6 9 5 10 4 11 3 12 2 13
REMARK SMILES IDX 1 14
REMARK H PARENT
REMARK Flexibility Score: inf
ROOT
ATOM      1  C   UNL     1      54.842  24.175  51.796  1.00  0.00     0.000 C 
ENDROOT
BRANCH   1   2
ATOM      2  C   UNL     1      55.438  22.766  51.945  1.00  0.00     0.000 C 
BRANCH   2   3
ATOM      3  C   UNL     1      54.364  21.667  51.981  1.00  0.00     0.000 C 
BRANCH   3   4
ATOM      4  C   UNL     1      53.968  21.334  53.427  1.00  0.00     0.006 C 
BRANCH   4   5
ATOM      5  C   UNL     1      52.495  20.922  53.547  1.00  0.00     0.053 C 
BRANCH   5   6
ATOM      6  C   UNL     1      51.587  22.111  53.615  1.00  0.00     0.041 C 
ATOM      7  O   UNL     1      50.423  22.047  53.139  1.00  0.00    -0.550 OA
ATOM      8  O   UNL     1      52.015  23.279  54.233  1.00  0.00    -0.550 OA
ENDBRANCH   5   6
ENDBRANCH   4   5
ENDBRANCH   3   4
ENDBRANCH   2   3
ENDBRANCH   1   2
BRANCH   1   9
ATOM      9  C   UNL     1      53.480  24.167  51.079  1.00  0.00     0.000 C 
BRANCH   9  10
ATOM     10  C   UNL     1      53.566  24.713  49.645  1.00  0.00    -0.000 C 
BRANCH  10  11
ATOM     11  C   UNL     1      53.734  23.603  48.595  1.00  0.00    -0.000 C 
BRANCH  11  12
ATOM     12  C   UNL     1      54.882  23.934  47.629  1.00  0.00    -0.000 C 
BRANCH  12  13
ATOM     13  C   UNL     1      56.231  23.365  48.098  1.00  0.00    -0.003 C 
ATOM     14  C   UNL     1      56.160  21.876  48.436  1.00  0.00     0.004 C 
ENDBRANCH  12  13
ENDBRANCH  11  12
ENDBRANCH  10  11
ENDBRANCH   9  10
ENDBRANCH   1   9
TORSDOF 10
ENDMDL
MODEL 9
REMARK VINA RESULT:    -3.952      1.302      3.138
REMARK INTER + INTRA:          -7.264
REMARK INTER:                  -6.325
REMARK INTRA:                  -0.940
REMARK UNBOUND:                -1.003
REMARK SMILES CCCCCCCCCCCC(=O)[O-]
REMARK SMILES IDX 7 1 8 2 9 3 10 4 11 5 12 6 13 7 14 8 6 9 5 10 4 11 3 12 2 13
REMARK SMILES IDX 1 14
REMARK H PARENT
REMARK Flexibility Score: inf
ROOT
ATOM      1  C   UNL     1      54.864  20.964  50.617  1.00  0.00     0.000 C 
ENDROOT
BRANCH   1   2
ATOM      2  C   UNL     1      54.853  21.808  51.902  1.00  0.00     0.000 C 
BRANCH   2   3
ATOM      3  C   UNL     1      54.203  23.186  51.703  1.00  0.00     0.000 C 
BRANCH   3   4
ATOM      4  C   UNL     1      52.781  23.212  52.283  1.00  0.00     0.006 C 
BRANCH   4   5
ATOM      5  C   UNL     1      52.727  22.665  53.715  1.00  0.00     0.053 C 
BRANCH   5   6
ATOM      6  C   UNL     1      51.789  21.504  53.833  1.00  0.00     0.041 C 
ATOM      7  O   UNL     1      50.549  21.700  53.944  1.00  0.00    -0.550 OA
ATOM      8  O   UNL     1      52.278  20.205  53.787  1.00  0.00    -0.550 OA
ENDBRANCH   5   6
ENDBRANCH   4   5
ENDBRANCH   3   4
ENDBRANCH   2   3
ENDBRANCH   1   2
BRANCH   1   9
ATOM      9  C   UNL     1      56.214  21.025  49.883  1.00  0.00     0.000 C 
BRANCH   9  10
ATOM     10  C   UNL     1      56.052  21.229  48.368  1.00  0.00    -0.000 C 
BRANCH  10  11
ATOM     11  C   UNL     1      56.650  22.558  47.878  1.00  0.00    -0.000 C 
BRANCH  11  12
ATOM     12  C   UNL     1      55.826  23.749  48.388  1.00  0.00    -0.000 C 
BRANCH  12  13
ATOM     13  C   UNL     1      54.336  23.634  48.030  1.00  0.00    -0.003 C 
ATOM     14  C   UNL     1      53.891  24.681  47.009  1.00  0.00     0.004 C 
ENDBRANCH  12  13
ENDBRANCH  11  12
ENDBRANCH  10  11
ENDBRANCH   9  10
ENDBRANCH   1   9
TORSDOF 10
ENDMDL
