MODEL 1
REMARK VINA RESULT:    -4.361      0.000      0.000
REMARK INTER + INTRA:          -5.463
REMARK INTER:                  -5.254
REMARK INTRA:                  -0.210
REMARK UNBOUND:                -0.210
REMARK SMILES O=c1c(O)c(-c2ccc(O)c(O)c2)oc2cc(O)cc(O)c12
REMARK SMILES IDX 5 1 3 2 2 3 1 4 22 5 20 6 19 7 17 8 16 9 15 10 14 11 6 12
REMARK SMILES IDX 7 13 8 14 9 15 13 16 11 17 10 18 12 20 4 22 21 24 18 26
REMARK H PARENT 10 19 12 21 4 23 21 25 18 27
REMARK Flexibility Score: inf
ROOT
ATOM      1  C   UNL     1      12.000   8.076  28.549  1.00  0.00     0.180 A 
ATOM      2  C   UNL     1      10.700   8.225  28.037  1.00  0.00     0.208 A 
ATOM      3  C   UNL     1       9.905   9.289  28.493  1.00  0.00     0.238 A 
ATOM      4  O   UNL     1       8.762   9.448  27.990  1.00  0.00    -0.285 OA
ATOM      5  C   UNL     1      10.414  10.182  29.467  1.00  0.00     0.111 A 
ATOM      6  C   UNL     1       9.683  11.270  30.029  1.00  0.00     0.134 A 
ATOM      7  C   UNL     1      10.331  12.167  30.888  1.00  0.00     0.093 A 
ATOM      8  C   UNL     1      11.662  11.978  31.256  1.00  0.00     0.123 A 
ATOM      9  C   UNL     1      12.370  10.883  30.758  1.00  0.00     0.094 A 
ATOM     10  C   UNL     1      11.761   9.992  29.871  1.00  0.00     0.146 A 
ATOM     11  O   UNL     1      12.473   8.969  29.412  1.00  0.00    -0.452 OA
ENDROOT
BRANCH   1  12
ATOM     12  C   UNL     1      12.888   6.965  28.137  1.00  0.00     0.025 A 
ATOM     13  C   UNL     1      13.445   6.968  26.847  1.00  0.00     0.016 A 
ATOM     14  C   UNL     1      14.301   5.941  26.444  1.00  0.00     0.051 A 
ATOM     15  C   UNL     1      14.625   4.904  27.329  1.00  0.00     0.157 A 
ATOM     16  C   UNL     1      13.232   5.934  29.028  1.00  0.00     0.062 A 
ATOM     17  C   UNL     1      14.093   4.902  28.624  1.00  0.00     0.158 A 
BRANCH  15  18
ATOM     18  O   UNL     1      15.478   3.875  26.930  1.00  0.00    -0.504 OA
ATOM     19  H   UNL     1      15.335   2.921  27.237  1.00  0.00     0.293 HD
ENDBRANCH  15  18
BRANCH  17  20
ATOM     20  O   UNL     1      14.428   3.877  29.506  1.00  0.00    -0.504 OA
ATOM     21  H   UNL     1      15.131   3.185  29.273  1.00  0.00     0.293 HD
ENDBRANCH  17  20
ENDBRANCH   1  12
BRANCH   2  22
ATOM     22  O   UNL     1      10.225   7.345  27.060  1.00  0.00    -0.502 OA
ATOM     23  H   UNL     1      10.809   7.003  26.306  1.00  0.00     0.293 HD
ENDBRANCH   2  22
BRANCH   6  24
ATOM     24  O   UNL     1       8.323  11.498  29.800  1.00  0.00    -0.507 OA
ATOM     25  H   UNL     1       7.662  11.785  30.507  1.00  0.00     0.293 HD
ENDBRANCH   6  24
BRANCH   8  26
ATOM     26  O   UNL     1      12.270  12.881  32.125  1.00  0.00    -0.508 OA
ATOM     27  H   UNL     1      11.736  13.593  32.609  1.00  0.00     0.293 HD
ENDBRANCH   8  26
TORSDOF 6
ENDMDL
MODEL 2
REMARK VINA RESULT:    -3.419      1.123      2.832
REMARK INTER + INTRA:          -4.328
REMARK INTER:                  -4.212
REMARK INTRA:                  -0.116
REMARK UNBOUND:                -0.210
REMARK SMILES O=c1c(O)c(-c2ccc(O)c(O)c2)oc2cc(O)cc(O)c12
REMARK SMILES IDX 5 1 3 2 2 3 1 4 22 5 20 6 19 7 17 8 16 9 15 10 14 11 6 12
REMARK SMILES IDX 7 13 8 14 9 15 13 16 11 17 10 18 12 20 4 22 21 24 18 26
REMARK H PARENT 10 19 12 21 4 23 21 25 18 27
REMARK Flexibility Score: inf
ROOT
ATOM      1  C   UNL     1      12.588   8.308  29.028  1.00  0.00     0.180 A 
ATOM      2  C   UNL     1      13.287   9.114  29.943  1.00  0.00     0.208 A 
ATOM      3  C   UNL     1      12.638  10.223  30.509  1.00  0.00     0.238 A 
ATOM      4  O   UNL     1      13.251  10.908  31.369  1.00  0.00    -0.285 OA
ATOM      5  C   UNL     1      11.304  10.522  30.141  1.00  0.00     0.111 A 
ATOM      6  C   UNL     1      10.562  11.642  30.621  1.00  0.00     0.134 A 
ATOM      7  C   UNL     1       9.207  11.767  30.291  1.00  0.00     0.093 A 
ATOM      8  C   UNL     1       8.584  10.849  29.446  1.00  0.00     0.123 A 
ATOM      9  C   UNL     1       9.316   9.781  28.923  1.00  0.00     0.094 A 
ATOM     10  C   UNL     1      10.660   9.611  29.264  1.00  0.00     0.146 A 
ATOM     11  O   UNL     1      11.317   8.576  28.753  1.00  0.00    -0.452 OA
ENDROOT
BRANCH   1  12
ATOM     12  C   UNL     1      13.214   7.138  28.371  1.00  0.00     0.025 A 
ATOM     13  C   UNL     1      13.385   7.138  26.977  1.00  0.00     0.016 A 
ATOM     14  C   UNL     1      13.991   6.054  26.338  1.00  0.00     0.051 A 
ATOM     15  C   UNL     1      14.448   4.960  27.084  1.00  0.00     0.157 A 
ATOM     16  C   UNL     1      13.692   6.047  29.118  1.00  0.00     0.062 A 
ATOM     17  C   UNL     1      14.302   4.958  28.477  1.00  0.00     0.158 A 
BRANCH  15  18
ATOM     18  O   UNL     1      15.052   3.875  26.451  1.00  0.00    -0.504 OA
ATOM     19  H   UNL     1      15.358   3.062  26.971  1.00  0.00     0.293 HD
ENDBRANCH  15  18
BRANCH  17  20
ATOM     20  O   UNL     1      14.770   3.875  29.219  1.00  0.00    -0.504 OA
ATOM     21  H   UNL     1      14.691   3.850  30.229  1.00  0.00     0.293 HD
ENDBRANCH  17  20
ENDBRANCH   1  12
BRANCH   2  22
ATOM     22  O   UNL     1      14.596   8.788  30.310  1.00  0.00    -0.502 OA
ATOM     23  H   UNL     1      14.830   8.429  31.229  1.00  0.00     0.293 HD
ENDBRANCH   2  22
BRANCH   6  24
ATOM     24  O   UNL     1      11.112  12.668  31.396  1.00  0.00    -0.507 OA
ATOM     25  H   UNL     1      10.930  12.805  32.380  1.00  0.00     0.293 HD
ENDBRANCH   6  24
BRANCH   8  26
ATOM     26  O   UNL     1       7.239  11.012  29.125  1.00  0.00    -0.508 OA
ATOM     27  H   UNL     1       6.879  10.770  28.209  1.00  0.00     0.293 HD
ENDBRANCH   8  26
TORSDOF 6
ENDMDL
