MODEL 1
REMARK VINA RESULT:    -5.079      0.000      0.000
REMARK INTER + INTRA:          -6.637
REMARK INTER:                  -6.564
REMARK INTRA:                  -0.073
REMARK UNBOUND:                -0.073
REMARK SMILES CCCCCCC(=O)[O-]
REMARK SMILES IDX 5 1 6 2 7 3 8 4 9 5 4 6 3 7 2 8 1 9
REMARK H PARENT
REMARK Flexibility Score: inf
ROOT
ATOM      1  C   UNL     1     116.180 104.243 112.252  1.00  0.00     0.006 C 
ENDROOT
BRANCH   1   2
ATOM      2  C   UNL     1     116.842 104.999 113.411  1.00  0.00     0.053 C 
BRANCH   2   3
ATOM      3  C   UNL     1     118.338 104.966 113.315  1.00  0.00     0.041 C 
ATOM      4  O   UNL     1     118.981 103.994 113.788  1.00  0.00    -0.550 OA
ATOM      5  O   UNL     1     119.017 105.994 112.671  1.00  0.00    -0.550 OA
ENDBRANCH   2   3
ENDBRANCH   1   2
BRANCH   1   6
ATOM      6  C   UNL     1     114.685 103.993 112.499  1.00  0.00     0.000 C 
BRANCH   6   7
ATOM      7  C   UNL     1     114.074 103.154 111.369  1.00  0.00    -0.000 C 
BRANCH   7   8
ATOM      8  C   UNL     1     113.191 102.034 111.931  1.00  0.00    -0.003 C 
ATOM      9  C   UNL     1     111.799 102.062 111.305  1.00  0.00     0.004 C 
ENDBRANCH   7   8
ENDBRANCH   6   7
ENDBRANCH   1   6
TORSDOF 5
ENDMDL
MODEL 2
REMARK VINA RESULT:    -4.914      1.326      1.821
REMARK INTER + INTRA:          -6.423
REMARK INTER:                  -6.295
REMARK INTRA:                  -0.128
REMARK UNBOUND:                -0.073
REMARK SMILES CCCCCCC(=O)[O-]
REMARK SMILES IDX 5 1 6 2 7 3 8 4 9 5 4 6 3 7 2 8 1 9
REMARK H PARENT
REMARK Flexibility Score: inf
ROOT
ATOM      1  C   UNL     1     114.833 104.297 111.856  1.00  0.00     0.006 C 
ENDROOT
BRANCH   1   2
ATOM      2  C   UNL     1     116.294 104.074 112.271  1.00  0.00     0.053 C 
BRANCH   2   3
ATOM      3  C   UNL     1     116.715 105.021 113.354  1.00  0.00     0.041 C 
ATOM      4  O   UNL     1     115.867 105.771 113.903  1.00  0.00    -0.550 OA
ATOM      5  O   UNL     1     118.037 105.049 113.779  1.00  0.00    -0.550 OA
ENDBRANCH   2   3
ENDBRANCH   1   2
BRANCH   1   6
ATOM      6  C   UNL     1     114.235 103.071 111.149  1.00  0.00     0.000 C 
BRANCH   6   7
ATOM      7  C   UNL     1     113.524 102.151 112.149  1.00  0.00    -0.000 C 
BRANCH   7   8
ATOM      8  C   UNL     1     112.031 102.487 112.238  1.00  0.00    -0.003 C 
ATOM      9  C   UNL     1     111.253 101.850 111.089  1.00  0.00     0.004 C 
ENDBRANCH   7   8
ENDBRANCH   6   7
ENDBRANCH   1   6
TORSDOF 5
ENDMDL
MODEL 3
REMARK VINA RESULT:    -4.825      3.806      5.589
REMARK INTER + INTRA:          -6.309
REMARK INTER:                  -6.039
REMARK INTRA:                  -0.269
REMARK UNBOUND:                -0.073
REMARK SMILES CCCCCCC(=O)[O-]
REMARK SMILES IDX 5 1 6 2 7 3 8 4 9 5 4 6 3 7 2 8 1 9
REMARK H PARENT
REMARK Flexibility Score: inf
ROOT
ATOM      1  C   UNL     1     114.394 103.146 111.195  1.00  0.00     0.006 C 
ENDROOT
BRANCH   1   2
ATOM      2  C   UNL     1     113.624 102.035 111.920  1.00  0.00     0.053 C 
BRANCH   2   3
ATOM      3  C   UNL     1     112.145 102.281 111.903  1.00  0.00     0.041 C 
ATOM      4  O   UNL     1     111.475 102.032 110.867  1.00  0.00    -0.550 OA
ATOM      5  O   UNL     1     111.504 102.753 113.042  1.00  0.00    -0.550 OA
ENDBRANCH   2   3
ENDBRANCH   1   2
BRANCH   1   6
ATOM      6  C   UNL     1     114.454 104.444 112.014  1.00  0.00     0.000 C 
BRANCH   6   7
ATOM      7  C   UNL     1     115.187 104.223 113.343  1.00  0.00    -0.000 C 
BRANCH   7   8
ATOM      8  C   UNL     1     116.421 105.126 113.447  1.00  0.00    -0.003 C 
ATOM      9  C   UNL     1     117.617 104.511 112.724  1.00  0.00     0.004 C 
ENDBRANCH   7   8
ENDBRANCH   6   7
ENDBRANCH   1   6
TORSDOF 5
ENDMDL
MODEL 4
REMARK VINA RESULT:    -4.797      3.871      5.674
REMARK INTER + INTRA:          -6.272
REMARK INTER:                  -6.074
REMARK INTRA:                  -0.199
REMARK UNBOUND:                -0.073
REMARK SMILES CCCCCCC(=O)[O-]
REMARK SMILES IDX 5 1 6 2 7 3 8 4 9 5 4 6 3 7 2 8 1 9
REMARK H PARENT
REMARK Flexibility Score: inf
ROOT
ATOM      1  C   UNL     1     114.196 103.227 111.122  1.00  0.00     0.006 C 
ENDROOT
BRANCH   1   2
ATOM      2  C   UNL     1     113.505 102.034 111.795  1.00  0.00     0.053 C 
BRANCH   2   3
ATOM      3  C   UNL     1     112.025 102.243 111.915  1.00  0.00     0.041 C 
ATOM      4  O   UNL     1     111.538 102.731 112.968  1.00  0.00    -0.550 OA
ATOM      5  O   UNL     1     111.189 101.930 110.850  1.00  0.00    -0.550 OA
ENDBRANCH   2   3
ENDBRANCH   1   2
BRANCH   1   6
ATOM      6  C   UNL     1     115.400 103.734 111.930  1.00  0.00     0.000 C 
BRANCH   6   7
ATOM      7  C   UNL     1     114.944 104.579 113.125  1.00  0.00    -0.000 C 
BRANCH   7   8
ATOM      8  C   UNL     1     116.113 105.377 113.713  1.00  0.00    -0.003 C 
ATOM      9  C   UNL     1     117.448 104.895 113.149  1.00  0.00     0.004 C 
ENDBRANCH   7   8
ENDBRANCH   6   7
ENDBRANCH   1   6
TORSDOF 5
ENDMDL
MODEL 5
REMARK VINA RESULT:    -4.469      3.253      5.323
REMARK INTER + INTRA:          -5.849
REMARK INTER:                  -5.662
REMARK INTRA:                  -0.187
REMARK UNBOUND:                -0.073
REMARK SMILES CCCCCCC(=O)[O-]
REMARK SMILES IDX 5 1 6 2 7 3 8 4 9 5 4 6 3 7 2 8 1 9
REMARK H PARENT
REMARK Flexibility Score: inf
ROOT
ATOM      1  C   UNL     1     114.483 104.402 112.989  1.00  0.00     0.006 C 
ENDROOT
BRANCH   1   2
ATOM      2  C   UNL     1     114.376 103.569 111.705  1.00  0.00     0.053 C 
BRANCH   2   3
ATOM      3  C   UNL     1     113.411 102.432 111.859  1.00  0.00     0.041 C 
ATOM      4  O   UNL     1     113.642 101.514 112.689  1.00  0.00    -0.550 OA
ATOM      5  O   UNL     1     112.242 102.404 111.108  1.00  0.00    -0.550 OA
ENDBRANCH   2   3
ENDBRANCH   1   2
BRANCH   1   6
ATOM      6  C   UNL     1     115.929 104.824 113.290  1.00  0.00     0.000 C 
BRANCH   6   7
ATOM      7  C   UNL     1     116.902 104.224 112.267  1.00  0.00    -0.000 C 
BRANCH   7   8
ATOM      8  C   UNL     1     118.350 104.325 112.760  1.00  0.00    -0.003 C 
ATOM      9  C   UNL     1     118.807 105.780 112.833  1.00  0.00     0.004 C 
ENDBRANCH   7   8
ENDBRANCH   6   7
ENDBRANCH   1   6
TORSDOF 5
ENDMDL
MODEL 6
REMARK VINA RESULT:    -3.614      2.784      5.086
REMARK INTER + INTRA:          -4.743
REMARK INTER:                  -4.691
REMARK INTRA:                  -0.052
REMARK UNBOUND:                -0.073
REMARK SMILES CCCCCCC(=O)[O-]
REMARK SMILES IDX 5 1 6 2 7 3 8 4 9 5 4 6 3 7 2 8 1 9
REMARK H PARENT
REMARK Flexibility Score: inf
ROOT
ATOM      1  C   UNL     1     115.529 104.872 113.064  1.00  0.00     0.006 C 
ENDROOT
BRANCH   1   2
ATOM      2  C   UNL     1     114.193 104.163 112.806  1.00  0.00     0.053 C 
BRANCH   2   3
ATOM      3  C   UNL     1     114.269 103.249 111.621  1.00  0.00     0.041 C 
ATOM      4  O   UNL     1     113.778 102.092 111.682  1.00  0.00    -0.550 OA
ATOM      5  O   UNL     1     114.852 103.688 110.439  1.00  0.00    -0.550 OA
ENDBRANCH   2   3
ENDBRANCH   1   2
BRANCH   1   6
ATOM      6  C   UNL     1     116.729 103.925 112.918  1.00  0.00     0.000 C 
BRANCH   6   7
ATOM      7  C   UNL     1     117.863 104.592 112.129  1.00  0.00    -0.000 C 
BRANCH   7   8
ATOM      8  C   UNL     1     118.556 105.671 112.968  1.00  0.00    -0.003 C 
ATOM      9  C   UNL     1     119.331 105.054 114.129  1.00  0.00     0.004 C 
ENDBRANCH   7   8
ENDBRANCH   6   7
ENDBRANCH   1   6
TORSDOF 5
ENDMDL
MODEL 7
REMARK VINA RESULT:    -2.709      2.369      3.756
REMARK INTER + INTRA:          -3.573
REMARK INTER:                  -3.406
REMARK INTRA:                  -0.167
REMARK UNBOUND:                -0.073
REMARK SMILES CCCCCCC(=O)[O-]
REMARK SMILES IDX 5 1 6 2 7 3 8 4 9 5 4 6 3 7 2 8 1 9
REMARK H PARENT
REMARK Flexibility Score: inf
ROOT
ATOM      1  C   UNL     1     112.856 102.345 112.311  1.00  0.00     0.006 C 
ENDROOT
BRANCH   1   2
ATOM      2  C   UNL     1     113.964 102.945 111.435  1.00  0.00     0.053 C 
BRANCH   2   3
ATOM      3  C   UNL     1     114.926 103.765 112.241  1.00  0.00     0.041 C 
ATOM      4  O   UNL     1     114.551 104.308 113.313  1.00  0.00    -0.550 OA
ATOM      5  O   UNL     1     116.244 103.901 111.824  1.00  0.00    -0.550 OA
ENDBRANCH   2   3
ENDBRANCH   1   2
BRANCH   1   6
ATOM      6  C   UNL     1     111.808 101.585 111.484  1.00  0.00     0.000 C 
BRANCH   6   7
ATOM      7  C   UNL     1     110.986 102.548 110.619  1.00  0.00    -0.000 C 
BRANCH   7   8
ATOM      8  C   UNL     1     110.284 103.601 111.483  1.00  0.00    -0.003 C 
ATOM      9  C   UNL     1     109.242 104.371 110.676  1.00  0.00     0.004 C 
ENDBRANCH   7   8
ENDBRANCH   6   7
ENDBRANCH   1   6
TORSDOF 5
ENDMDL
MODEL 8
REMARK VINA RESULT:    -2.624      8.881     10.328
REMARK INTER + INTRA:          -3.464
REMARK INTER:                  -3.322
REMARK INTRA:                  -0.142
REMARK UNBOUND:                -0.073
REMARK SMILES CCCCCCC(=O)[O-]
REMARK SMILES IDX 5 1 6 2 7 3 8 4 9 5 4 6 3 7 2 8 1 9
REMARK H PARENT
REMARK Flexibility Score: inf
ROOT
ATOM      1  C   UNL     1     106.459 106.082 113.005  1.00  0.00     0.006 C 
ENDROOT
BRANCH   1   2
ATOM      2  C   UNL     1     107.934 106.503 112.950  1.00  0.00     0.053 C 
BRANCH   2   3
ATOM      3  C   UNL     1     108.431 106.602 111.540  1.00  0.00     0.041 C 
ATOM      4  O   UNL     1     108.561 107.727 110.991  1.00  0.00    -0.550 OA
ATOM      5  O   UNL     1     108.783 105.452 110.843  1.00  0.00    -0.550 OA
ENDBRANCH   2   3
ENDBRANCH   1   2
BRANCH   1   6
ATOM      6  C   UNL     1     105.538 107.239 113.422  1.00  0.00     0.000 C 
BRANCH   6   7
ATOM      7  C   UNL     1     104.732 106.876 114.675  1.00  0.00    -0.000 C 
BRANCH   7   8
ATOM      8  C   UNL     1     105.147 107.746 115.867  1.00  0.00    -0.003 C 
ATOM      9  C   UNL     1     104.372 107.364 117.125  1.00  0.00     0.004 C 
ENDBRANCH   7   8
ENDBRANCH   6   7
ENDBRANCH   1   6
TORSDOF 5
ENDMDL
MODEL 9
REMARK VINA RESULT:    -2.602      9.921     11.336
REMARK INTER + INTRA:          -3.435
REMARK INTER:                  -3.271
REMARK INTRA:                  -0.165
REMARK UNBOUND:                -0.073
REMARK SMILES CCCCCCC(=O)[O-]
REMARK SMILES IDX 5 1 6 2 7 3 8 4 9 5 4 6 3 7 2 8 1 9
REMARK H PARENT
REMARK Flexibility Score: inf
ROOT
ATOM      1  C   UNL     1     104.759 106.544 114.282  1.00  0.00     0.006 C 
ENDROOT
BRANCH   1   2
ATOM      2  C   UNL     1     105.120 107.951 114.778  1.00  0.00     0.053 C 
BRANCH   2   3
ATOM      3  C   UNL     1     105.124 108.029 116.274  1.00  0.00     0.041 C 
ATOM      4  O   UNL     1     105.780 108.931 116.859  1.00  0.00    -0.550 OA
ATOM      5  O   UNL     1     104.377 107.126 117.021  1.00  0.00    -0.550 OA
ENDBRANCH   2   3
ENDBRANCH   1   2
BRANCH   1   6
ATOM      6  C   UNL     1     105.873 105.926 113.423  1.00  0.00     0.000 C 
BRANCH   6   7
ATOM      7  C   UNL     1     106.899 106.986 113.006  1.00  0.00    -0.000 C 
BRANCH   7   8
ATOM      8  C   UNL     1     108.079 106.348 112.265  1.00  0.00    -0.003 C 
ATOM      9  C   UNL     1     108.597 107.265 111.160  1.00  0.00     0.004 C 
ENDBRANCH   7   8
ENDBRANCH   6   7
ENDBRANCH   1   6
TORSDOF 5
ENDMDL
