MODEL 1
REMARK VINA RESULT:    -4.637      0.000      0.000
REMARK INTER + INTRA:         -10.261
REMARK INTER:                  -8.432
REMARK INTRA:                  -1.829
REMARK UNBOUND:                -1.829
REMARK SMILES CCCCCC=CCC=CCCCCCCCC(=O)[O-]
REMARK SMILES IDX 11 1 12 2 13 3 14 4 15 5 16 6 17 7 18 8 19 9 20 10 10 11
REMARK SMILES IDX 9 12 8 13 7 14 6 15 5 16 4 17 3 18 2 19 1 20
REMARK H PARENT
REMARK Flexibility Score: inf
ROOT
ATOM      1  C   UNL     1     -17.100   8.782  -8.241  1.00  0.00     0.027 C 
ENDROOT
BRANCH   1   2
ATOM      2  C   UNL     1     -16.458   8.591  -9.623  1.00  0.00     0.004 C 
BRANCH   2   3
ATOM      3  C   UNL     1     -15.675   7.274  -9.728  1.00  0.00     0.000 C 
BRANCH   3   4
ATOM      4  C   UNL     1     -16.030   6.526 -11.018  1.00  0.00     0.000 C 
BRANCH   4   5
ATOM      5  C   UNL     1     -17.446   5.944 -10.947  1.00  0.00     0.000 C 
BRANCH   5   6
ATOM      6  C   UNL     1     -18.260   6.328 -12.188  1.00  0.00     0.006 C 
BRANCH   6   7
ATOM      7  C   UNL     1     -17.403   7.111 -13.189  1.00  0.00     0.053 C 
BRANCH   7   8
ATOM      8  C   UNL     1     -18.139   8.316 -13.680  1.00  0.00     0.041 C 
ATOM      9  O   UNL     1     -17.568   9.439 -13.708  1.00  0.00    -0.550 OA
ATOM     10  O   UNL     1     -19.437   8.190 -14.159  1.00  0.00    -0.550 OA
ENDBRANCH   7   8
ENDBRANCH   6   7
ENDBRANCH   5   6
ENDBRANCH   4   5
ENDBRANCH   3   4
ENDBRANCH   2   3
ENDBRANCH   1   2
BRANCH   1  11
ATOM     11  C   UNL     1     -16.671  10.059  -7.558  1.00  0.00    -0.031 C 
ATOM     12  C   UNL     1     -15.945  10.125  -6.427  1.00  0.00    -0.027 C 
BRANCH  12  13
ATOM     13  C   UNL     1     -15.408   8.922  -5.688  1.00  0.00     0.054 C 
BRANCH  13  14
ATOM     14  C   UNL     1     -16.047   8.823  -4.328  1.00  0.00    -0.027 C 
ATOM     15  C   UNL     1     -17.131   8.079  -4.034  1.00  0.00    -0.031 C 
BRANCH  15  16
ATOM     16  C   UNL     1     -17.844   7.157  -4.996  1.00  0.00     0.027 C 
BRANCH  16  17
ATOM     17  C   UNL     1     -19.353   7.429  -5.098  1.00  0.00     0.004 C 
BRANCH  17  18
ATOM     18  C   UNL     1     -19.727   8.197  -6.374  1.00  0.00     0.000 C 
BRANCH  18  19
ATOM     19  C   UNL     1     -20.866   7.495  -7.121  1.00  0.00    -0.003 C 
ATOM     20  C   UNL     1     -20.536   7.329  -8.602  1.00  0.00     0.004 C 
ENDBRANCH  18  19
ENDBRANCH  17  18
ENDBRANCH  16  17
ENDBRANCH  15  16
ENDBRANCH  13  14
ENDBRANCH  12  13
ENDBRANCH   1  11
TORSDOF 14
ENDMDL
MODEL 2
REMARK VINA RESULT:    -4.362      7.482      9.534
REMARK INTER + INTRA:          -9.761
REMARK INTER:                  -8.417
REMARK INTRA:                  -1.344
REMARK UNBOUND:                -1.829
REMARK SMILES CCCCCC=CCC=CCCCCCCCC(=O)[O-]
REMARK SMILES IDX 11 1 12 2 13 3 14 4 15 5 16 6 17 7 18 8 19 9 20 10 10 11
REMARK SMILES IDX 9 12 8 13 7 14 6 15 5 16 4 17 3 18 2 19 1 20
REMARK H PARENT
REMARK Flexibility Score: inf
ROOT
ATOM      1  C   UNL     1     -17.626   1.444  -9.770  1.00  0.00     0.027 C 
ENDROOT
BRANCH   1   2
ATOM      2  C   UNL     1     -16.554   1.659 -10.849  1.00  0.00     0.004 C 
BRANCH   2   3
ATOM      3  C   UNL     1     -15.226   2.161 -10.264  1.00  0.00     0.000 C 
BRANCH   3   4
ATOM      4  C   UNL     1     -15.426   3.472  -9.495  1.00  0.00     0.000 C 
BRANCH   4   5
ATOM      5  C   UNL     1     -14.999   4.678 -10.341  1.00  0.00     0.000 C 
BRANCH   5   6
ATOM      6  C   UNL     1     -16.096   5.748 -10.363  1.00  0.00     0.006 C 
BRANCH   6   7
ATOM      7  C   UNL     1     -17.382   5.207 -10.996  1.00  0.00     0.053 C 
BRANCH   7   8
ATOM      8  C   UNL     1     -17.972   6.216 -11.929  1.00  0.00     0.041 C 
ATOM      9  O   UNL     1     -17.330   7.259 -12.222  1.00  0.00    -0.550 OA
ATOM     10  O   UNL     1     -19.207   5.979 -12.518  1.00  0.00    -0.550 OA
ENDBRANCH   7   8
ENDBRANCH   6   7
ENDBRANCH   5   6
ENDBRANCH   4   5
ENDBRANCH   3   4
ENDBRANCH   2   3
ENDBRANCH   1   2
BRANCH   1  11
ATOM     11  C   UNL     1     -18.397   0.158  -9.945  1.00  0.00    -0.031 C 
ATOM     12  C   UNL     1     -18.024  -1.040  -9.458  1.00  0.00    -0.027 C 
BRANCH  12  13
ATOM     13  C   UNL     1     -16.791  -1.271  -8.618  1.00  0.00     0.054 C 
BRANCH  13  14
ATOM     14  C   UNL     1     -15.666  -1.781  -9.480  1.00  0.00    -0.027 C 
ATOM     15  C   UNL     1     -15.476  -3.070  -9.822  1.00  0.00    -0.031 C 
BRANCH  15  16
ATOM     16  C   UNL     1     -16.399  -4.213  -9.469  1.00  0.00     0.027 C 
BRANCH  16  17
ATOM     17  C   UNL     1     -15.659  -5.525  -9.165  1.00  0.00     0.004 C 
BRANCH  17  18
ATOM     18  C   UNL     1     -16.476  -6.468  -8.271  1.00  0.00     0.000 C 
BRANCH  18  19
ATOM     19  C   UNL     1     -17.877  -5.901  -8.016  1.00  0.00    -0.003 C 
ATOM     20  C   UNL     1     -18.514  -6.536  -6.784  1.00  0.00     0.004 C 
ENDBRANCH  18  19
ENDBRANCH  17  18
ENDBRANCH  16  17
ENDBRANCH  15  16
ENDBRANCH  13  14
ENDBRANCH  12  13
ENDBRANCH   1  11
TORSDOF 14
ENDMDL
MODEL 3
REMARK VINA RESULT:    -4.295     11.963     13.852
REMARK INTER + INTRA:          -9.639
REMARK INTER:                  -8.141
REMARK INTRA:                  -1.498
REMARK UNBOUND:                -1.829
REMARK SMILES CCCCCC=CCC=CCCCCCCCC(=O)[O-]
REMARK SMILES IDX 11 1 12 2 13 3 14 4 15 5 16 6 17 7 18 8 19 9 20 10 10 11
REMARK SMILES IDX 9 12 8 13 7 14 6 15 5 16 4 17 3 18 2 19 1 20
REMARK H PARENT
REMARK Flexibility Score: inf
ROOT
ATOM      1  C   UNL     1     -17.376  -6.556  -9.040  1.00  0.00     0.027 C 
ENDROOT
BRANCH   1   2
ATOM      2  C   UNL     1     -17.530  -7.656 -10.101  1.00  0.00     0.004 C 
BRANCH   2   3
ATOM      3  C   UNL     1     -16.440  -8.733  -9.991  1.00  0.00     0.000 C 
BRANCH   3   4
ATOM      4  C   UNL     1     -15.764  -8.970 -11.345  1.00  0.00     0.000 C 
BRANCH   4   5
ATOM      5  C   UNL     1     -16.328  -8.030 -12.416  1.00  0.00     0.000 C 
BRANCH   5   6
ATOM      6  C   UNL     1     -17.023  -8.822 -13.530  1.00  0.00     0.006 C 
BRANCH   6   7
ATOM      7  C   UNL     1     -17.128  -7.991 -14.813  1.00  0.00     0.053 C 
BRANCH   7   8
ATOM      8  C   UNL     1     -18.429  -7.254 -14.855  1.00  0.00     0.041 C 
ATOM      9  O   UNL     1     -19.358  -7.563 -14.062  1.00  0.00    -0.550 OA
ATOM     10  O   UNL     1     -18.596  -6.189 -15.731  1.00  0.00    -0.550 OA
ENDBRANCH   7   8
ENDBRANCH   6   7
ENDBRANCH   5   6
ENDBRANCH   4   5
ENDBRANCH   3   4
ENDBRANCH   2   3
ENDBRANCH   1   2
BRANCH   1  11
ATOM     11  C   UNL     1     -15.967  -6.434  -8.510  1.00  0.00    -0.031 C 
ATOM     12  C   UNL     1     -15.029  -5.597  -8.989  1.00  0.00    -0.027 C 
BRANCH  12  13
ATOM     13  C   UNL     1     -15.259  -4.612 -10.110  1.00  0.00     0.054 C 
BRANCH  13  14
ATOM     14  C   UNL     1     -14.982  -3.210  -9.633  1.00  0.00    -0.027 C 
ATOM     15  C   UNL     1     -15.923  -2.310  -9.289  1.00  0.00    -0.031 C 
BRANCH  15  16
ATOM     16  C   UNL     1     -17.410  -2.573  -9.245  1.00  0.00     0.027 C 
BRANCH  16  17
ATOM     17  C   UNL     1     -18.259  -1.350  -9.629  1.00  0.00     0.004 C 
BRANCH  17  18
ATOM     18  C   UNL     1     -17.415  -0.079  -9.798  1.00  0.00     0.000 C 
BRANCH  18  19
ATOM     19  C   UNL     1     -18.309   1.164  -9.878  1.00  0.00    -0.003 C 
ATOM     20  C   UNL     1     -17.547   2.356 -10.449  1.00  0.00     0.004 C 
ENDBRANCH  18  19
ENDBRANCH  17  18
ENDBRANCH  16  17
ENDBRANCH  15  16
ENDBRANCH  13  14
ENDBRANCH  12  13
ENDBRANCH   1  11
TORSDOF 14
ENDMDL
MODEL 4
REMARK VINA RESULT:    -4.259     14.176     17.442
REMARK INTER + INTRA:          -9.574
REMARK INTER:                  -7.887
REMARK INTRA:                  -1.687
REMARK UNBOUND:                -1.829
REMARK SMILES CCCCCC=CCC=CCCCCCCCC(=O)[O-]
REMARK SMILES IDX 11 1 12 2 13 3 14 4 15 5 16 6 17 7 18 8 19 9 20 10 10 11
REMARK SMILES IDX 9 12 8 13 7 14 6 15 5 16 4 17 3 18 2 19 1 20
REMARK H PARENT
REMARK Flexibility Score: inf
ROOT
ATOM      1  C   UNL     1     -18.856  -8.680 -13.091  1.00  0.00     0.027 C 
ENDROOT
BRANCH   1   2
ATOM      2  C   UNL     1     -18.049  -8.248 -11.858  1.00  0.00     0.004 C 
BRANCH   2   3
ATOM      3  C   UNL     1     -16.870  -9.190 -11.570  1.00  0.00     0.000 C 
BRANCH   3   4
ATOM      4  C   UNL     1     -16.083  -8.725 -10.340  1.00  0.00     0.000 C 
BRANCH   4   5
ATOM      5  C   UNL     1     -16.000  -7.195 -10.285  1.00  0.00     0.000 C 
BRANCH   5   6
ATOM      6  C   UNL     1     -16.034  -6.696  -8.836  1.00  0.00     0.006 C 
BRANCH   6   7
ATOM      7  C   UNL     1     -17.330  -7.119  -8.138  1.00  0.00     0.053 C 
BRANCH   7   8
ATOM      8  C   UNL     1     -18.193  -5.928  -7.868  1.00  0.00     0.041 C 
ATOM      9  O   UNL     1     -19.062  -5.969  -6.956  1.00  0.00    -0.550 OA
ATOM     10  O   UNL     1     -18.001  -4.753  -8.583  1.00  0.00    -0.550 OA
ENDBRANCH   7   8
ENDBRANCH   6   7
ENDBRANCH   5   6
ENDBRANCH   4   5
ENDBRANCH   3   4
ENDBRANCH   2   3
ENDBRANCH   1   2
BRANCH   1  11
ATOM     11  C   UNL     1     -19.087  -7.556 -14.074  1.00  0.00    -0.031 C 
ATOM     12  C   UNL     1     -18.606  -7.516 -15.330  1.00  0.00    -0.027 C 
BRANCH  12  13
ATOM     13  C   UNL     1     -17.794  -8.617 -15.967  1.00  0.00     0.054 C 
BRANCH  13  14
ATOM     14  C   UNL     1     -16.324  -8.307 -15.856  1.00  0.00    -0.027 C 
ATOM     15  C   UNL     1     -15.557  -7.827 -16.854  1.00  0.00    -0.031 C 
BRANCH  15  16
ATOM     16  C   UNL     1     -16.051  -7.444 -18.229  1.00  0.00     0.027 C 
BRANCH  16  17
ATOM     17  C   UNL     1     -16.805  -6.105 -18.257  1.00  0.00     0.004 C 
BRANCH  17  18
ATOM     18  C   UNL     1     -18.230  -6.244 -18.812  1.00  0.00     0.000 C 
BRANCH  18  19
ATOM     19  C   UNL     1     -19.163  -5.199 -18.191  1.00  0.00    -0.003 C 
ATOM     20  C   UNL     1     -18.415  -4.306 -17.206  1.00  0.00     0.004 C 
ENDBRANCH  18  19
ENDBRANCH  17  18
ENDBRANCH  16  17
ENDBRANCH  15  16
ENDBRANCH  13  14
ENDBRANCH  12  13
ENDBRANCH   1  11
TORSDOF 14
ENDMDL
MODEL 5
REMARK VINA RESULT:    -4.251      8.269     10.334
REMARK INTER + INTRA:          -9.560
REMARK INTER:                  -8.493
REMARK INTRA:                  -1.067
REMARK UNBOUND:                -1.829
REMARK SMILES CCCCCC=CCC=CCCCCCCCC(=O)[O-]
REMARK SMILES IDX 11 1 12 2 13 3 14 4 15 5 16 6 17 7 18 8 19 9 20 10 10 11
REMARK SMILES IDX 9 12 8 13 7 14 6 15 5 16 4 17 3 18 2 19 1 20
REMARK H PARENT
REMARK Flexibility Score: inf
ROOT
ATOM      1  C   UNL     1     -17.717   0.687 -10.050  1.00  0.00     0.027 C 
ENDROOT
BRANCH   1   2
ATOM      2  C   UNL     1     -17.902  -0.779  -9.630  1.00  0.00     0.004 C 
BRANCH   2   3
ATOM      3  C   UNL     1     -16.795  -1.691 -10.180  1.00  0.00     0.000 C 
BRANCH   3   4
ATOM      4  C   UNL     1     -16.373  -2.732  -9.137  1.00  0.00     0.000 C 
BRANCH   4   5
ATOM      5  C   UNL     1     -15.474  -3.805  -9.761  1.00  0.00     0.000 C 
BRANCH   5   6
ATOM      6  C   UNL     1     -15.875  -5.204  -9.279  1.00  0.00     0.006 C 
BRANCH   6   7
ATOM      7  C   UNL     1     -17.288  -5.199  -8.688  1.00  0.00     0.053 C 
BRANCH   7   8
ATOM      8  C   UNL     1     -17.565  -6.488  -7.981  1.00  0.00     0.041 C 
ATOM      9  O   UNL     1     -18.204  -6.489  -6.895  1.00  0.00    -0.550 OA
ATOM     10  O   UNL     1     -17.168  -7.691  -8.548  1.00  0.00    -0.550 OA
ENDBRANCH   7   8
ENDBRANCH   6   7
ENDBRANCH   5   6
ENDBRANCH   4   5
ENDBRANCH   3   4
ENDBRANCH   2   3
ENDBRANCH   1   2
BRANCH   1  11
ATOM     11  C   UNL     1     -16.434   0.930 -10.809  1.00  0.00    -0.031 C 
ATOM     12  C   UNL     1     -15.579   1.943 -10.579  1.00  0.00    -0.027 C 
BRANCH  12  13
ATOM     13  C   UNL     1     -15.751   2.971  -9.487  1.00  0.00     0.054 C 
BRANCH  13  14
ATOM     14  C   UNL     1     -15.353   4.334  -9.991  1.00  0.00    -0.027 C 
ATOM     15  C   UNL     1     -16.180   5.207 -10.597  1.00  0.00    -0.031 C 
BRANCH  15  16
ATOM     16  C   UNL     1     -17.663   5.006 -10.804  1.00  0.00     0.027 C 
BRANCH  16  17
ATOM     17  C   UNL     1     -18.291   6.031 -11.762  1.00  0.00     0.004 C 
BRANCH  17  18
ATOM     18  C   UNL     1     -17.278   7.076 -12.251  1.00  0.00     0.000 C 
BRANCH  18  19
ATOM     19  C   UNL     1     -17.579   7.495 -13.694  1.00  0.00    -0.003 C 
ATOM     20  C   UNL     1     -19.053   7.845 -13.872  1.00  0.00     0.004 C 
ENDBRANCH  18  19
ENDBRANCH  17  18
ENDBRANCH  16  17
ENDBRANCH  15  16
ENDBRANCH  13  14
ENDBRANCH  12  13
ENDBRANCH   1  11
TORSDOF 14
ENDMDL
MODEL 6
REMARK VINA RESULT:    -4.247     13.658     15.637
REMARK INTER + INTRA:          -9.552
REMARK INTER:                  -7.875
REMARK INTRA:                  -1.677
REMARK UNBOUND:                -1.829
REMARK SMILES CCCCCC=CCC=CCCCCCCCC(=O)[O-]
REMARK SMILES IDX 11 1 12 2 13 3 14 4 15 5 16 6 17 7 18 8 19 9 20 10 10 11
REMARK SMILES IDX 9 12 8 13 7 14 6 15 5 16 4 17 3 18 2 19 1 20
REMARK H PARENT
REMARK Flexibility Score: inf
ROOT
ATOM      1  C   UNL     1     -18.139  -7.969 -11.690  1.00  0.00     0.027 C 
ENDROOT
BRANCH   1   2
ATOM      2  C   UNL     1     -18.899  -8.292 -12.985  1.00  0.00     0.004 C 
BRANCH   2   3
ATOM      3  C   UNL     1     -18.183  -9.351 -13.836  1.00  0.00     0.000 C 
BRANCH   3   4
ATOM      4  C   UNL     1     -17.260  -8.694 -14.868  1.00  0.00     0.000 C 
BRANCH   4   5
ATOM      5  C   UNL     1     -17.899  -8.700 -16.262  1.00  0.00     0.000 C 
BRANCH   5   6
ATOM      6  C   UNL     1     -17.757  -7.331 -16.936  1.00  0.00     0.006 C 
BRANCH   6   7
ATOM      7  C   UNL     1     -18.623  -6.279 -16.236  1.00  0.00     0.053 C 
BRANCH   7   8
ATOM      8  C   UNL     1     -18.796  -5.077 -17.107  1.00  0.00     0.041 C 
ATOM      9  O   UNL     1     -19.102  -5.214 -18.322  1.00  0.00    -0.550 OA
ATOM     10  O   UNL     1     -18.674  -3.803 -16.567  1.00  0.00    -0.550 OA
ENDBRANCH   7   8
ENDBRANCH   6   7
ENDBRANCH   5   6
ENDBRANCH   4   5
ENDBRANCH   3   4
ENDBRANCH   2   3
ENDBRANCH   1   2
BRANCH   1  11
ATOM     11  C   UNL     1     -17.245  -9.095 -11.228  1.00  0.00    -0.031 C 
ATOM     12  C   UNL     1     -15.976  -8.951 -10.802  1.00  0.00    -0.027 C 
BRANCH  12  13
ATOM     13  C   UNL     1     -15.265  -7.625 -10.680  1.00  0.00     0.054 C 
BRANCH  13  14
ATOM     14  C   UNL     1     -15.006  -7.309  -9.230  1.00  0.00    -0.027 C 
ATOM     15  C   UNL     1     -15.306  -6.142  -8.627  1.00  0.00    -0.031 C 
BRANCH  15  16
ATOM     16  C   UNL     1     -16.025  -4.983  -9.276  1.00  0.00     0.027 C 
BRANCH  16  17
ATOM     17  C   UNL     1     -17.438  -4.750  -8.720  1.00  0.00     0.004 C 
BRANCH  17  18
ATOM     18  C   UNL     1     -18.232  -6.056  -8.569  1.00  0.00     0.000 C 
BRANCH  18  19
ATOM     19  C   UNL     1     -18.931  -6.116  -7.206  1.00  0.00    -0.003 C 
ATOM     20  C   UNL     1     -18.162  -7.000  -6.229  1.00  0.00     0.004 C 
ENDBRANCH  18  19
ENDBRANCH  17  18
ENDBRANCH  16  17
ENDBRANCH  15  16
ENDBRANCH  13  14
ENDBRANCH  12  13
ENDBRANCH   1  11
TORSDOF 14
ENDMDL
MODEL 7
REMARK VINA RESULT:    -4.199     12.514     14.511
REMARK INTER + INTRA:          -9.464
REMARK INTER:                  -8.453
REMARK INTRA:                  -1.012
REMARK UNBOUND:                -1.829
REMARK SMILES CCCCCC=CCC=CCCCCCCCC(=O)[O-]
REMARK SMILES IDX 11 1 12 2 13 3 14 4 15 5 16 6 17 7 18 8 19 9 20 10 10 11
REMARK SMILES IDX 9 12 8 13 7 14 6 15 5 16 4 17 3 18 2 19 1 20
REMARK H PARENT
REMARK Flexibility Score: inf
ROOT
ATOM      1  C   UNL     1     -17.438  -8.006 -11.586  1.00  0.00     0.027 C 
ENDROOT
BRANCH   1   2
ATOM      2  C   UNL     1     -18.965  -7.948 -11.741  1.00  0.00     0.004 C 
BRANCH   2   3
ATOM      3  C   UNL     1     -19.416  -8.166 -13.193  1.00  0.00     0.000 C 
BRANCH   3   4
ATOM      4  C   UNL     1     -18.418  -9.048 -13.951  1.00  0.00     0.000 C 
BRANCH   4   5
ATOM      5  C   UNL     1     -18.255  -8.576 -15.401  1.00  0.00     0.000 C 
BRANCH   5   6
ATOM      6  C   UNL     1     -17.860  -7.095 -15.454  1.00  0.00     0.006 C 
BRANCH   6   7
ATOM      7  C   UNL     1     -18.962  -6.255 -16.107  1.00  0.00     0.053 C 
BRANCH   7   8
ATOM      8  C   UNL     1     -18.490  -5.693 -17.410  1.00  0.00     0.041 C 
ATOM      9  O   UNL     1     -19.035  -4.663 -17.891  1.00  0.00    -0.550 OA
ATOM     10  O   UNL     1     -17.412  -6.272 -18.067  1.00  0.00    -0.550 OA
ENDBRANCH   7   8
ENDBRANCH   6   7
ENDBRANCH   5   6
ENDBRANCH   4   5
ENDBRANCH   3   4
ENDBRANCH   2   3
ENDBRANCH   1   2
BRANCH   1  11
ATOM     11  C   UNL     1     -16.994  -8.704 -10.324  1.00  0.00    -0.031 C 
ATOM     12  C   UNL     1     -16.481  -8.093  -9.240  1.00  0.00    -0.027 C 
BRANCH  12  13
ATOM     13  C   UNL     1     -16.312  -6.599  -9.106  1.00  0.00     0.054 C 
BRANCH  13  14
ATOM     14  C   UNL     1     -17.556  -5.988  -8.514  1.00  0.00    -0.027 C 
ATOM     15  C   UNL     1     -17.869  -4.679  -8.553  1.00  0.00    -0.031 C 
BRANCH  15  16
ATOM     16  C   UNL     1     -17.070  -3.610  -9.262  1.00  0.00     0.027 C 
BRANCH  16  17
ATOM     17  C   UNL     1     -17.328  -2.194  -8.722  1.00  0.00     0.004 C 
BRANCH  17  18
ATOM     18  C   UNL     1     -17.870  -1.244  -9.799  1.00  0.00     0.000 C 
BRANCH  18  19
ATOM     19  C   UNL     1     -17.205   0.133  -9.697  1.00  0.00    -0.003 C 
ATOM     20  C   UNL     1     -18.205   1.251  -9.978  1.00  0.00     0.004 C 
ENDBRANCH  18  19
ENDBRANCH  17  18
ENDBRANCH  16  17
ENDBRANCH  15  16
ENDBRANCH  13  14
ENDBRANCH  12  13
ENDBRANCH   1  11
TORSDOF 14
ENDMDL
MODEL 8
REMARK VINA RESULT:    -4.138      9.175     11.177
REMARK INTER + INTRA:          -9.353
REMARK INTER:                  -8.318
REMARK INTRA:                  -1.035
REMARK UNBOUND:                -1.829
REMARK SMILES CCCCCC=CCC=CCCCCCCCC(=O)[O-]
REMARK SMILES IDX 11 1 12 2 13 3 14 4 15 5 16 6 17 7 18 8 19 9 20 10 10 11
REMARK SMILES IDX 9 12 8 13 7 14 6 15 5 16 4 17 3 18 2 19 1 20
REMARK H PARENT
REMARK Flexibility Score: inf
ROOT
ATOM      1  C   UNL     1     -17.405  -1.511  -9.240  1.00  0.00     0.027 C 
ENDROOT
BRANCH   1   2
ATOM      2  C   UNL     1     -16.906  -2.964  -9.276  1.00  0.00     0.004 C 
BRANCH   2   3
ATOM      3  C   UNL     1     -15.497  -3.085  -9.873  1.00  0.00     0.000 C 
BRANCH   3   4
ATOM      4  C   UNL     1     -14.881  -4.452  -9.555  1.00  0.00     0.000 C 
BRANCH   4   5
ATOM      5  C   UNL     1     -15.935  -5.563  -9.631  1.00  0.00     0.000 C 
BRANCH   5   6
ATOM      6  C   UNL     1     -16.001  -6.347  -8.315  1.00  0.00     0.006 C 
BRANCH   6   7
ATOM      7  C   UNL     1     -17.290  -7.170  -8.228  1.00  0.00     0.053 C 
BRANCH   7   8
ATOM      8  C   UNL     1     -18.199  -6.612  -7.179  1.00  0.00     0.041 C 
ATOM      9  O   UNL     1     -18.984  -5.667  -7.459  1.00  0.00    -0.550 OA
ATOM     10  O   UNL     1     -18.220  -7.171  -5.909  1.00  0.00    -0.550 OA
ENDBRANCH   7   8
ENDBRANCH   6   7
ENDBRANCH   5   6
ENDBRANCH   4   5
ENDBRANCH   3   4
ENDBRANCH   2   3
ENDBRANCH   1   2
BRANCH   1  11
ATOM     11  C   UNL     1     -16.438  -0.568  -8.565  1.00  0.00    -0.031 C 
ATOM     12  C   UNL     1     -15.835   0.478  -9.160  1.00  0.00    -0.027 C 
BRANCH  12  13
ATOM     13  C   UNL     1     -16.070   0.895 -10.591  1.00  0.00     0.054 C 
BRANCH  13  14
ATOM     14  C   UNL     1     -17.253   1.824 -10.673  1.00  0.00    -0.027 C 
ATOM     15  C   UNL     1     -17.230   3.136 -10.367  1.00  0.00    -0.031 C 
BRANCH  15  16
ATOM     16  C   UNL     1     -16.000   3.918  -9.968  1.00  0.00     0.027 C 
BRANCH  16  17
ATOM     17  C   UNL     1     -15.990   5.358 -10.505  1.00  0.00     0.004 C 
BRANCH  17  18
ATOM     18  C   UNL     1     -17.310   5.738 -11.192  1.00  0.00     0.000 C 
BRANCH  18  19
ATOM     19  C   UNL     1     -17.214   7.129 -11.828  1.00  0.00    -0.003 C 
ATOM     20  C   UNL     1     -17.915   7.167 -13.182  1.00  0.00     0.004 C 
ENDBRANCH  18  19
ENDBRANCH  17  18
ENDBRANCH  16  17
ENDBRANCH  15  16
ENDBRANCH  13  14
ENDBRANCH  12  13
ENDBRANCH   1  11
TORSDOF 14
ENDMDL
MODEL 9
REMARK VINA RESULT:    -4.119      4.382      7.023
REMARK INTER + INTRA:          -9.319
REMARK INTER:                  -7.978
REMARK INTRA:                  -1.341
REMARK UNBOUND:                -1.829
REMARK SMILES CCCCCC=CCC=CCCCCCCCC(=O)[O-]
REMARK SMILES IDX 11 1 12 2 13 3 14 4 15 5 16 6 17 7 18 8 19 9 20 10 10 11
REMARK SMILES IDX 9 12 8 13 7 14 6 15 5 16 4 17 3 18 2 19 1 20
REMARK H PARENT
REMARK Flexibility Score: inf
ROOT
ATOM      1  C   UNL     1     -17.465   6.905 -10.467  1.00  0.00     0.027 C 
ENDROOT
BRANCH   1   2
ATOM      2  C   UNL     1     -17.243   8.019  -9.434  1.00  0.00     0.004 C 
BRANCH   2   3
ATOM      3  C   UNL     1     -16.400   9.176  -9.991  1.00  0.00     0.000 C 
BRANCH   3   4
ATOM      4  C   UNL     1     -15.961  10.125  -8.870  1.00  0.00     0.000 C 
BRANCH   4   5
ATOM      5  C   UNL     1     -15.599   9.348  -7.599  1.00  0.00     0.000 C 
BRANCH   5   6
ATOM      6  C   UNL     1     -16.144  10.052  -6.351  1.00  0.00     0.006 C 
BRANCH   6   7
ATOM      7  C   UNL     1     -17.671   9.945  -6.281  1.00  0.00     0.053 C 
BRANCH   7   8
ATOM      8  C   UNL     1     -18.077   8.661  -5.631  1.00  0.00     0.041 C 
ATOM      9  O   UNL     1     -17.259   8.031  -4.909  1.00  0.00    -0.550 OA
ATOM     10  O   UNL     1     -19.375   8.189  -5.775  1.00  0.00    -0.550 OA
ENDBRANCH   7   8
ENDBRANCH   6   7
ENDBRANCH   5   6
ENDBRANCH   4   5
ENDBRANCH   3   4
ENDBRANCH   2   3
ENDBRANCH   1   2
BRANCH   1  11
ATOM     11  C   UNL     1     -16.205   6.516 -11.203  1.00  0.00    -0.031 C 
ATOM     12  C   UNL     1     -15.278   5.653 -10.748  1.00  0.00    -0.027 C 
BRANCH  12  13
ATOM     13  C   UNL     1     -15.381   4.903  -9.442  1.00  0.00     0.054 C 
BRANCH  13  14
ATOM     14  C   UNL     1     -14.957   3.470  -9.633  1.00  0.00    -0.027 C 
ATOM     15  C   UNL     1     -15.766   2.470 -10.034  1.00  0.00    -0.031 C 
BRANCH  15  16
ATOM     16  C   UNL     1     -17.214   2.626 -10.437  1.00  0.00     0.027 C 
BRANCH  16  17
ATOM     17  C   UNL     1     -18.103   1.455  -9.989  1.00  0.00     0.004 C 
BRANCH  17  18
ATOM     18  C   UNL     1     -17.335   0.127  -9.924  1.00  0.00     0.000 C 
BRANCH  18  19
ATOM     19  C   UNL     1     -18.285  -1.040  -9.630  1.00  0.00    -0.003 C 
ATOM     20  C   UNL     1     -17.514  -2.296  -9.237  1.00  0.00     0.004 C 
ENDBRANCH  18  19
ENDBRANCH  17  18
ENDBRANCH  16  17
ENDBRANCH  15  16
ENDBRANCH  13  14
ENDBRANCH  12  13
ENDBRANCH   1  11
TORSDOF 14
ENDMDL
