MODEL 1
REMARK VINA RESULT:    -5.704      0.000      0.000
REMARK INTER + INTRA:          -7.853
REMARK INTER:                  -7.037
REMARK INTRA:                  -0.816
REMARK UNBOUND:                -0.816
REMARK SMILES CC(C)=CCC[C@H](C)c1ccc(C)cc1
REMARK SMILES IDX 6 1 7 2 8 3 9 4 13 5 12 6 11 7 14 8 10 9 15 10 5 11 4 12
REMARK SMILES IDX 2 13 1 14 3 15
REMARK H PARENT
REMARK Flexibility Score: inf
ROOT
ATOM      1  C   UNL     1       7.114 -18.517  -9.817  1.00  0.00     0.012 C 
ENDROOT
BRANCH   1   2
ATOM      2  C   UNL     1       7.290 -20.055  -9.783  1.00  0.00     0.016 C 
ATOM      3  C   UNL     1       8.704 -20.482 -10.206  1.00  0.00     0.013 C 
BRANCH   2   4
ATOM      4  C   UNL     1       6.256 -20.730 -10.666  1.00  0.00    -0.045 A 
ATOM      5  C   UNL     1       3.343 -22.657 -13.207  1.00  0.00     0.044 C 
ATOM      6  C   UNL     1       4.337 -21.963 -12.324  1.00  0.00    -0.051 A 
ATOM      7  C   UNL     1       5.383 -21.218 -12.886  1.00  0.00     0.004 A 
ATOM      8  C   UNL     1       4.267 -22.110 -10.931  1.00  0.00     0.004 A 
ATOM      9  C   UNL     1       6.331 -20.600 -12.064  1.00  0.00     0.004 A 
ATOM     10  C   UNL     1       5.213 -21.493 -10.108  1.00  0.00     0.004 A 
ENDBRANCH   2   4
ENDBRANCH   1   2
BRANCH   1  11
ATOM     11  C   UNL     1       5.991 -18.007  -8.900  1.00  0.00     0.028 C 
BRANCH  11  12
ATOM     12  C   UNL     1       6.189 -18.476  -7.476  1.00  0.00    -0.028 C 
ATOM     13  C   UNL     1       6.902 -17.820  -6.535  1.00  0.00    -0.080 C 
ATOM     14  C   UNL     1       7.577 -16.499  -6.814  1.00  0.00     0.039 C 
ATOM     15  C   UNL     1       7.021 -18.437  -5.166  1.00  0.00     0.039 C 
ENDBRANCH  11  12
ENDBRANCH   1  11
TORSDOF 4
ENDMDL
MODEL 2
REMARK VINA RESULT:    -5.366      1.927      3.801
REMARK INTER + INTRA:          -7.437
REMARK INTER:                  -5.963
REMARK INTRA:                  -1.473
REMARK UNBOUND:                -0.816
REMARK SMILES CC(C)=CCC[C@H](C)c1ccc(C)cc1
REMARK SMILES IDX 6 1 7 2 8 3 9 4 13 5 12 6 11 7 14 8 10 9 15 10 5 11 4 12
REMARK SMILES IDX 2 13 1 14 3 15
REMARK H PARENT
REMARK Flexibility Score: inf
ROOT
ATOM      1  C   UNL     1       6.926 -18.273  -6.653  1.00  0.00     0.012 C 
ENDROOT
BRANCH   1   2
ATOM      2  C   UNL     1       6.098 -17.624  -7.789  1.00  0.00     0.016 C 
ATOM      3  C   UNL     1       4.674 -17.271  -7.333  1.00  0.00     0.013 C 
BRANCH   2   4
ATOM      4  C   UNL     1       6.046 -18.537  -9.001  1.00  0.00    -0.045 A 
ATOM      5  C   UNL     1       5.862 -21.118 -12.460  1.00  0.00     0.044 C 
ATOM      6  C   UNL     1       5.928 -20.246 -11.240  1.00  0.00    -0.051 A 
ATOM      7  C   UNL     1       4.753 -19.871 -10.575  1.00  0.00     0.004 A 
ATOM      8  C   UNL     1       7.161 -19.744 -10.798  1.00  0.00     0.004 A 
ATOM      9  C   UNL     1       4.811 -19.028  -9.460  1.00  0.00     0.004 A 
ATOM     10  C   UNL     1       7.221 -18.903  -9.683  1.00  0.00     0.004 A 
ENDBRANCH   2   4
ENDBRANCH   1   2
BRANCH   1  11
ATOM     11  C   UNL     1       6.400 -19.651  -6.220  1.00  0.00     0.028 C 
BRANCH  11  12
ATOM     12  C   UNL     1       7.500 -20.689  -6.235  1.00  0.00    -0.028 C 
ATOM     13  C   UNL     1       7.515 -21.790  -7.017  1.00  0.00    -0.080 C 
ATOM     14  C   UNL     1       6.412 -22.095  -8.001  1.00  0.00     0.039 C 
ATOM     15  C   UNL     1       8.679 -22.740  -6.893  1.00  0.00     0.039 C 
ENDBRANCH  11  12
ENDBRANCH   1  11
TORSDOF 4
ENDMDL
MODEL 3
REMARK VINA RESULT:    -5.358      1.061      1.989
REMARK INTER + INTRA:          -7.427
REMARK INTER:                  -6.330
REMARK INTRA:                  -1.097
REMARK UNBOUND:                -0.816
REMARK SMILES CC(C)=CCC[C@H](C)c1ccc(C)cc1
REMARK SMILES IDX 6 1 7 2 8 3 9 4 13 5 12 6 11 7 14 8 10 9 15 10 5 11 4 12
REMARK SMILES IDX 2 13 1 14 3 15
REMARK H PARENT
REMARK Flexibility Score: inf
ROOT
ATOM      1  C   UNL     1       7.253 -18.440 -10.025  1.00  0.00     0.012 C 
ENDROOT
BRANCH   1   2
ATOM      2  C   UNL     1       7.320 -19.980  -9.877  1.00  0.00     0.016 C 
ATOM      3  C   UNL     1       8.710 -20.533 -10.227  1.00  0.00     0.013 C 
BRANCH   2   4
ATOM      4  C   UNL     1       6.262 -20.645 -10.740  1.00  0.00    -0.045 A 
ATOM      5  C   UNL     1       3.222 -22.520 -13.169  1.00  0.00     0.044 C 
ATOM      6  C   UNL     1       4.292 -21.896 -12.323  1.00  0.00    -0.051 A 
ATOM      7  C   UNL     1       4.140 -21.823 -10.932  1.00  0.00     0.004 A 
ATOM      8  C   UNL     1       5.421 -21.318 -12.923  1.00  0.00     0.004 A 
ATOM      9  C   UNL     1       5.120 -21.209 -10.145  1.00  0.00     0.004 A 
ATOM     10  C   UNL     1       6.401 -20.705 -12.139  1.00  0.00     0.004 A 
ENDBRANCH   2   4
ENDBRANCH   1   2
BRANCH   1  11
ATOM     11  C   UNL     1       7.094 -17.701  -8.686  1.00  0.00     0.028 C 
BRANCH  11  12
ATOM     12  C   UNL     1       6.158 -18.442  -7.758  1.00  0.00    -0.028 C 
ATOM     13  C   UNL     1       4.814 -18.305  -7.740  1.00  0.00    -0.080 C 
ATOM     14  C   UNL     1       4.087 -17.385  -8.690  1.00  0.00     0.039 C 
ATOM     15  C   UNL     1       4.025 -19.102  -6.733  1.00  0.00     0.039 C 
ENDBRANCH  11  12
ENDBRANCH   1  11
TORSDOF 4
ENDMDL
MODEL 4
REMARK VINA RESULT:    -5.320      1.842      3.261
REMARK INTER + INTRA:          -7.380
REMARK INTER:                  -6.152
REMARK INTRA:                  -1.228
REMARK UNBOUND:                -0.816
REMARK SMILES CC(C)=CCC[C@H](C)c1ccc(C)cc1
REMARK SMILES IDX 6 1 7 2 8 3 9 4 13 5 12 6 11 7 14 8 10 9 15 10 5 11 4 12
REMARK SMILES IDX 2 13 1 14 3 15
REMARK H PARENT
REMARK Flexibility Score: inf
ROOT
ATOM      1  C   UNL     1       7.872 -20.674  -5.841  1.00  0.00     0.012 C 
ENDROOT
BRANCH   1   2
ATOM      2  C   UNL     1       7.577 -21.923  -6.708  1.00  0.00     0.016 C 
ATOM      3  C   UNL     1       8.779 -22.878  -6.771  1.00  0.00     0.013 C 
BRANCH   2   4
ATOM      4  C   UNL     1       7.163 -21.513  -8.111  1.00  0.00    -0.045 A 
ATOM      5  C   UNL     1       5.947 -20.337 -12.085  1.00  0.00     0.044 C 
ATOM      6  C   UNL     1       6.379 -20.772 -10.716  1.00  0.00    -0.051 A 
ATOM      7  C   UNL     1       5.479 -21.431  -9.867  1.00  0.00     0.004 A 
ATOM      8  C   UNL     1       7.665 -20.463 -10.249  1.00  0.00     0.004 A 
ATOM      9  C   UNL     1       5.869 -21.804  -8.577  1.00  0.00     0.004 A 
ATOM     10  C   UNL     1       8.057 -20.836  -8.961  1.00  0.00     0.004 A 
ENDBRANCH   2   4
ENDBRANCH   1   2
BRANCH   1  11
ATOM     11  C   UNL     1       6.642 -19.780  -5.615  1.00  0.00     0.028 C 
BRANCH  11  12
ATOM     12  C   UNL     1       7.031 -18.319  -5.549  1.00  0.00    -0.028 C 
ATOM     13  C   UNL     1       6.901 -17.436  -6.563  1.00  0.00    -0.080 C 
ATOM     14  C   UNL     1       6.318 -17.825  -7.900  1.00  0.00     0.039 C 
ATOM     15  C   UNL     1       7.359 -16.017  -6.340  1.00  0.00     0.039 C 
ENDBRANCH  11  12
ENDBRANCH   1  11
TORSDOF 4
ENDMDL
MODEL 5
REMARK VINA RESULT:    -5.245      1.630      6.872
REMARK INTER + INTRA:          -7.287
REMARK INTER:                  -6.542
REMARK INTRA:                  -0.745
REMARK UNBOUND:                -0.816
REMARK SMILES CC(C)=CCC[C@H](C)c1ccc(C)cc1
REMARK SMILES IDX 6 1 7 2 8 3 9 4 13 5 12 6 11 7 14 8 10 9 15 10 5 11 4 12
REMARK SMILES IDX 2 13 1 14 3 15
REMARK H PARENT
REMARK Flexibility Score: inf
ROOT
ATOM      1  C   UNL     1       6.968 -18.491  -9.338  1.00  0.00     0.012 C 
ENDROOT
BRANCH   1   2
ATOM      2  C   UNL     1       6.017 -18.584  -8.120  1.00  0.00     0.016 C 
ATOM      3  C   UNL     1       4.564 -18.849  -8.543  1.00  0.00     0.013 C 
BRANCH   2   4
ATOM      4  C   UNL     1       6.094 -17.318  -7.285  1.00  0.00    -0.045 A 
ATOM      5  C   UNL     1       6.351 -13.705  -4.932  1.00  0.00     0.044 C 
ATOM      6  C   UNL     1       6.262 -14.977  -5.724  1.00  0.00    -0.051 A 
ATOM      7  C   UNL     1       7.428 -15.625  -6.154  1.00  0.00     0.004 A 
ATOM      8  C   UNL     1       5.011 -15.490  -6.098  1.00  0.00     0.004 A 
ATOM      9  C   UNL     1       7.346 -16.790  -6.923  1.00  0.00     0.004 A 
ATOM     10  C   UNL     1       4.927 -16.654  -6.865  1.00  0.00     0.004 A 
ENDBRANCH   2   4
ENDBRANCH   1   2
BRANCH   1  11
ATOM     11  C   UNL     1       7.421 -19.861  -9.870  1.00  0.00     0.028 C 
BRANCH  11  12
ATOM     12  C   UNL     1       6.836 -20.141 -11.236  1.00  0.00    -0.028 C 
ATOM     13  C   UNL     1       5.868 -21.048 -11.493  1.00  0.00    -0.080 C 
ATOM     14  C   UNL     1       5.240 -21.885 -10.406  1.00  0.00     0.039 C 
ATOM     15  C   UNL     1       5.410 -21.222 -12.918  1.00  0.00     0.039 C 
ENDBRANCH  11  12
ENDBRANCH   1  11
TORSDOF 4
ENDMDL
MODEL 6
REMARK VINA RESULT:    -5.218      2.082      2.724
REMARK INTER + INTRA:          -7.254
REMARK INTER:                  -6.726
REMARK INTRA:                  -0.528
REMARK UNBOUND:                -0.816
REMARK SMILES CC(C)=CCC[C@H](C)c1ccc(C)cc1
REMARK SMILES IDX 6 1 7 2 8 3 9 4 13 5 12 6 11 7 14 8 10 9 15 10 5 11 4 12
REMARK SMILES IDX 2 13 1 14 3 15
REMARK H PARENT
REMARK Flexibility Score: inf
ROOT
ATOM      1  C   UNL     1       7.955 -20.603  -9.565  1.00  0.00     0.012 C 
ENDROOT
BRANCH   1   2
ATOM      2  C   UNL     1       7.111 -19.629 -10.424  1.00  0.00     0.016 C 
ATOM      3  C   UNL     1       6.477 -18.516  -9.576  1.00  0.00     0.013 C 
BRANCH   2   4
ATOM      4  C   UNL     1       6.034 -20.384 -11.182  1.00  0.00    -0.045 A 
ATOM      5  C   UNL     1       2.999 -22.561 -13.352  1.00  0.00     0.044 C 
ATOM      6  C   UNL     1       4.045 -21.780 -12.614  1.00  0.00    -0.051 A 
ATOM      7  C   UNL     1       5.350 -21.693 -13.118  1.00  0.00     0.004 A 
ATOM      8  C   UNL     1       3.743 -21.187 -11.379  1.00  0.00     0.004 A 
ATOM      9  C   UNL     1       6.336 -20.996 -12.412  1.00  0.00     0.004 A 
ATOM     10  C   UNL     1       4.726 -20.489 -10.672  1.00  0.00     0.004 A 
ENDBRANCH   2   4
ENDBRANCH   1   2
BRANCH   1  11
ATOM     11  C   UNL     1       7.194 -21.176  -8.359  1.00  0.00     0.028 C 
BRANCH  11  12
ATOM     12  C   UNL     1       8.080 -22.077  -7.527  1.00  0.00    -0.028 C 
ATOM     13  C   UNL     1       8.361 -21.894  -6.219  1.00  0.00    -0.080 C 
ATOM     14  C   UNL     1       7.783 -20.748  -5.424  1.00  0.00     0.039 C 
ATOM     15  C   UNL     1       9.283 -22.874  -5.541  1.00  0.00     0.039 C 
ENDBRANCH  11  12
ENDBRANCH   1  11
TORSDOF 4
ENDMDL
MODEL 7
REMARK VINA RESULT:    -5.177      2.155      4.953
REMARK INTER + INTRA:          -7.203
REMARK INTER:                  -5.686
REMARK INTRA:                  -1.518
REMARK UNBOUND:                -0.816
REMARK SMILES CC(C)=CCC[C@H](C)c1ccc(C)cc1
REMARK SMILES IDX 6 1 7 2 8 3 9 4 13 5 12 6 11 7 14 8 10 9 15 10 5 11 4 12
REMARK SMILES IDX 2 13 1 14 3 15
REMARK H PARENT
REMARK Flexibility Score: inf
ROOT
ATOM      1  C   UNL     1       5.733 -17.709  -8.196  1.00  0.00     0.012 C 
ENDROOT
BRANCH   1   2
ATOM      2  C   UNL     1       5.948 -18.279  -6.772  1.00  0.00     0.016 C 
ATOM      3  C   UNL     1       7.075 -17.551  -6.024  1.00  0.00     0.013 C 
BRANCH   2   4
ATOM      4  C   UNL     1       6.239 -19.768  -6.832  1.00  0.00    -0.045 A 
ATOM      5  C   UNL     1       7.085 -24.001  -6.965  1.00  0.00     0.044 C 
ATOM      6  C   UNL     1       6.805 -22.527  -6.946  1.00  0.00    -0.051 A 
ATOM      7  C   UNL     1       7.710 -21.644  -6.340  1.00  0.00     0.004 A 
ATOM      8  C   UNL     1       5.605 -22.030  -7.472  1.00  0.00     0.004 A 
ATOM      9  C   UNL     1       7.433 -20.274  -6.289  1.00  0.00     0.004 A 
ATOM     10  C   UNL     1       5.326 -20.661  -7.424  1.00  0.00     0.004 A 
ENDBRANCH   2   4
ENDBRANCH   1   2
BRANCH   1  11
ATOM     11  C   UNL     1       6.904 -17.988  -9.152  1.00  0.00     0.028 C 
BRANCH  11  12
ATOM     12  C   UNL     1       6.465 -18.833 -10.327  1.00  0.00    -0.028 C 
ATOM     13  C   UNL     1       7.052 -19.986 -10.714  1.00  0.00    -0.080 C 
ATOM     14  C   UNL     1       8.230 -20.577  -9.978  1.00  0.00     0.039 C 
ATOM     15  C   UNL     1       6.505 -20.697 -11.925  1.00  0.00     0.039 C 
ENDBRANCH  11  12
ENDBRANCH   1  11
TORSDOF 4
ENDMDL
MODEL 8
REMARK VINA RESULT:    -5.127      1.994      3.485
REMARK INTER + INTRA:          -7.141
REMARK INTER:                  -5.643
REMARK INTRA:                  -1.498
REMARK UNBOUND:                -0.816
REMARK SMILES CC(C)=CCC[C@H](C)c1ccc(C)cc1
REMARK SMILES IDX 6 1 7 2 8 3 9 4 13 5 12 6 11 7 14 8 10 9 15 10 5 11 4 12
REMARK SMILES IDX 2 13 1 14 3 15
REMARK H PARENT
REMARK Flexibility Score: inf
ROOT
ATOM      1  C   UNL     1       7.140 -18.563 -10.095  1.00  0.00     0.012 C 
ENDROOT
BRANCH   1   2
ATOM      2  C   UNL     1       7.044 -20.017 -10.618  1.00  0.00     0.016 C 
ATOM      3  C   UNL     1       5.898 -20.193 -11.625  1.00  0.00     0.013 C 
BRANCH   2   4
ATOM      4  C   UNL     1       6.877 -20.989  -9.463  1.00  0.00    -0.045 A 
ATOM      5  C   UNL     1       6.422 -23.724  -6.151  1.00  0.00     0.044 C 
ATOM      6  C   UNL     1       6.594 -22.796  -7.317  1.00  0.00    -0.051 A 
ATOM      7  C   UNL     1       7.731 -21.982  -7.410  1.00  0.00     0.004 A 
ATOM      8  C   UNL     1       5.587 -22.686  -8.287  1.00  0.00     0.004 A 
ATOM      9  C   UNL     1       7.876 -21.090  -8.478  1.00  0.00     0.004 A 
ATOM     10  C   UNL     1       5.730 -21.796  -9.355  1.00  0.00     0.004 A 
ENDBRANCH   2   4
ENDBRANCH   1   2
BRANCH   1  11
ATOM     11  C   UNL     1       5.991 -18.172  -9.152  1.00  0.00     0.028 C 
BRANCH  11  12
ATOM     12  C   UNL     1       6.514 -17.725  -7.805  1.00  0.00    -0.028 C 
ATOM     13  C   UNL     1       6.143 -18.250  -6.617  1.00  0.00    -0.080 C 
ATOM     14  C   UNL     1       5.153 -19.385  -6.512  1.00  0.00     0.039 C 
ATOM     15  C   UNL     1       6.743 -17.673  -5.360  1.00  0.00     0.039 C 
ENDBRANCH  11  12
ENDBRANCH   1  11
TORSDOF 4
ENDMDL
MODEL 9
REMARK VINA RESULT:    -5.088      1.825      4.944
REMARK INTER + INTRA:          -7.094
REMARK INTER:                  -5.535
REMARK INTRA:                  -1.559
REMARK UNBOUND:                -0.816
REMARK SMILES CC(C)=CCC[C@H](C)c1ccc(C)cc1
REMARK SMILES IDX 6 1 7 2 8 3 9 4 13 5 12 6 11 7 14 8 10 9 15 10 5 11 4 12
REMARK SMILES IDX 2 13 1 14 3 15
REMARK H PARENT
REMARK Flexibility Score: inf
ROOT
ATOM      1  C   UNL     1       4.228 -21.426 -10.209  1.00  0.00     0.012 C 
ENDROOT
BRANCH   1   2
ATOM      2  C   UNL     1       4.866 -20.223 -10.947  1.00  0.00     0.016 C 
ATOM      3  C   UNL     1       5.827 -20.672 -12.058  1.00  0.00     0.013 C 
BRANCH   2   4
ATOM      4  C   UNL     1       5.591 -19.319  -9.965  1.00  0.00    -0.045 A 
ATOM      5  C   UNL     1       7.635 -16.770  -7.140  1.00  0.00     0.044 C 
ATOM      6  C   UNL     1       6.913 -17.631  -8.134  1.00  0.00    -0.051 A 
ATOM      7  C   UNL     1       5.624 -18.104  -7.856  1.00  0.00     0.004 A 
ATOM      8  C   UNL     1       7.550 -18.025  -9.320  1.00  0.00     0.004 A 
ATOM      9  C   UNL     1       4.964 -18.936  -8.766  1.00  0.00     0.004 A 
ATOM     10  C   UNL     1       6.893 -18.856 -10.232  1.00  0.00     0.004 A 
ENDBRANCH   2   4
ENDBRANCH   1   2
BRANCH   1  11
ATOM     11  C   UNL     1       5.254 -22.461  -9.721  1.00  0.00     0.028 C 
BRANCH  11  12
ATOM     12  C   UNL     1       5.232 -22.588  -8.214  1.00  0.00    -0.028 C 
ATOM     13  C   UNL     1       6.236 -22.217  -7.390  1.00  0.00    -0.080 C 
ATOM     14  C   UNL     1       7.513 -21.599  -7.905  1.00  0.00     0.039 C 
ATOM     15  C   UNL     1       6.064 -22.433  -5.908  1.00  0.00     0.039 C 
ENDBRANCH  11  12
ENDBRANCH   1  11
TORSDOF 4
ENDMDL
