MODEL 1
REMARK VINA RESULT:     5.482      0.000      0.000
REMARK INTER + INTRA:           8.669
REMARK INTER:                   9.328
REMARK INTRA:                  -0.659
REMARK UNBOUND:                -0.659
REMARK SMILES CCCCCCCCCCCCCC(=O)[O-]
REMARK SMILES IDX 8 1 9 2 10 3 11 4 12 5 13 6 14 7 15 8 16 9 7 10 6 11 5 12
REMARK SMILES IDX 4 13 3 14 2 15 1 16
REMARK H PARENT
REMARK Flexibility Score: inf
ROOT
ATOM      1  C   UNL     1     -31.006  16.776 -10.293  1.00  0.00     0.000 C 
ENDROOT
BRANCH   1   2
ATOM      2  C   UNL     1     -31.161  18.309 -10.384  1.00  0.00     0.000 C 
BRANCH   2   3
ATOM      3  C   UNL     1     -32.621  18.773 -10.529  1.00  0.00     0.000 C 
BRANCH   3   4
ATOM      4  C   UNL     1     -32.838  20.215 -10.042  1.00  0.00     0.000 C 
BRANCH   4   5
ATOM      5  C   UNL     1     -31.550  21.053 -10.087  1.00  0.00     0.006 C 
BRANCH   5   6
ATOM      6  C   UNL     1     -31.713  22.340 -10.906  1.00  0.00     0.053 C 
BRANCH   6   7
ATOM      7  C   UNL     1     -32.275  23.434 -10.054  1.00  0.00     0.041 C 
ATOM      8  O   UNL     1     -31.513  24.125  -9.327  1.00  0.00    -0.550 OA
ATOM      9  O   UNL     1     -33.632  23.724 -10.100  1.00  0.00    -0.550 OA
ENDBRANCH   6   7
ENDBRANCH   5   6
ENDBRANCH   4   5
ENDBRANCH   3   4
ENDBRANCH   2   3
ENDBRANCH   1   2
BRANCH   1  10
ATOM     10  C   UNL     1     -29.846  16.254 -11.160  1.00  0.00     0.000 C 
BRANCH  10  11
ATOM     11  C   UNL     1     -29.124  17.389 -11.918  1.00  0.00    -0.000 C 
BRANCH  11  12
ATOM     12  C   UNL     1     -28.826  17.062 -13.394  1.00  0.00    -0.000 C 
BRANCH  12  13
ATOM     13  C   UNL     1     -29.063  15.596 -13.797  1.00  0.00    -0.000 C 
BRANCH  13  14
ATOM     14  C   UNL     1     -28.126  15.128 -14.923  1.00  0.00    -0.000 C 
BRANCH  14  15
ATOM     15  C   UNL     1     -27.694  13.662 -14.758  1.00  0.00    -0.003 C 
ATOM     16  C   UNL     1     -26.259  13.411 -15.221  1.00  0.00     0.004 C 
ENDBRANCH  14  15
ENDBRANCH  13  14
ENDBRANCH  12  13
ENDBRANCH  11  12
ENDBRANCH  10  11
ENDBRANCH   1  10
TORSDOF 12
ENDMDL
MODEL 2
REMARK VINA RESULT:     5.578      0.707      1.139
REMARK INTER + INTRA:           8.832
REMARK INTER:                   8.359
REMARK INTRA:                   0.474
REMARK UNBOUND:                -0.659
REMARK SMILES CCCCCCCCCCCCCC(=O)[O-]
REMARK SMILES IDX 8 1 9 2 10 3 11 4 12 5 13 6 14 7 15 8 16 9 7 10 6 11 5 12
REMARK SMILES IDX 4 13 3 14 2 15 1 16
REMARK H PARENT
REMARK Flexibility Score: inf
ROOT
ATOM      1  C   UNL     1     -31.685  17.124 -10.241  1.00  0.00     0.000 C 
ENDROOT
BRANCH   1   2
ATOM      2  C   UNL     1     -31.311  18.614 -10.397  1.00  0.00     0.000 C 
BRANCH   2   3
ATOM      3  C   UNL     1     -32.531  19.551 -10.461  1.00  0.00     0.000 C 
BRANCH   3   4
ATOM      4  C   UNL     1     -32.238  20.948  -9.893  1.00  0.00     0.000 C 
BRANCH   4   5
ATOM      5  C   UNL     1     -31.025  21.615 -10.561  1.00  0.00     0.006 C 
BRANCH   5   6
ATOM      6  C   UNL     1     -31.268  23.095 -10.881  1.00  0.00     0.053 C 
BRANCH   6   7
ATOM      7  C   UNL     1     -32.236  23.688  -9.907  1.00  0.00     0.041 C 
ATOM      8  O   UNL     1     -31.831  24.125  -8.798  1.00  0.00    -0.550 OA
ATOM      9  O   UNL     1     -33.579  23.805 -10.244  1.00  0.00    -0.550 OA
ENDBRANCH   6   7
ENDBRANCH   5   6
ENDBRANCH   4   5
ENDBRANCH   3   4
ENDBRANCH   2   3
ENDBRANCH   1   2
BRANCH   1  10
ATOM     10  C   UNL     1     -30.585  16.189 -10.775  1.00  0.00     0.000 C 
BRANCH  10  11
ATOM     11  C   UNL     1     -29.222  16.901 -10.905  1.00  0.00    -0.000 C 
BRANCH  11  12
ATOM     12  C   UNL     1     -29.150  17.902 -12.075  1.00  0.00    -0.000 C 
BRANCH  12  13
ATOM     13  C   UNL     1     -28.732  17.296 -13.426  1.00  0.00    -0.000 C 
BRANCH  13  14
ATOM     14  C   UNL     1     -28.845  15.763 -13.452  1.00  0.00    -0.000 C 
BRANCH  14  15
ATOM     15  C   UNL     1     -28.516  15.172 -14.833  1.00  0.00    -0.003 C 
ATOM     16  C   UNL     1     -27.782  13.835 -14.746  1.00  0.00     0.004 C 
ENDBRANCH  14  15
ENDBRANCH  13  14
ENDBRANCH  12  13
ENDBRANCH  11  12
ENDBRANCH  10  11
ENDBRANCH   1  10
TORSDOF 12
ENDMDL
MODEL 3
REMARK VINA RESULT:     5.886      1.991      3.179
REMARK INTER + INTRA:           9.356
REMARK INTER:                  10.214
REMARK INTRA:                  -0.858
REMARK UNBOUND:                -0.659
REMARK SMILES CCCCCCCCCCCCCC(=O)[O-]
REMARK SMILES IDX 8 1 9 2 10 3 11 4 12 5 13 6 14 7 15 8 16 9 7 10 6 11 5 12
REMARK SMILES IDX 4 13 3 14 2 15 1 16
REMARK H PARENT
REMARK Flexibility Score: inf
ROOT
ATOM      1  C   UNL     1     -31.576  16.995 -10.296  1.00  0.00     0.000 C 
ENDROOT
BRANCH   1   2
ATOM      2  C   UNL     1     -31.347  18.518 -10.400  1.00  0.00     0.000 C 
BRANCH   2   3
ATOM      3  C   UNL     1     -32.651  19.335 -10.441  1.00  0.00     0.000 C 
BRANCH   3   4
ATOM      4  C   UNL     1     -32.453  20.794  -9.999  1.00  0.00     0.000 C 
BRANCH   4   5
ATOM      5  C   UNL     1     -31.137  21.395 -10.519  1.00  0.00     0.006 C 
BRANCH   5   6
ATOM      6  C   UNL     1     -31.267  22.882 -10.871  1.00  0.00     0.053 C 
BRANCH   6   7
ATOM      7  C   UNL     1     -32.231  23.555  -9.945  1.00  0.00     0.041 C 
ATOM      8  O   UNL     1     -31.824  24.061  -8.866  1.00  0.00    -0.550 OA
ATOM      9  O   UNL     1     -33.570  23.668 -10.296  1.00  0.00    -0.550 OA
ENDBRANCH   6   7
ENDBRANCH   5   6
ENDBRANCH   4   5
ENDBRANCH   3   4
ENDBRANCH   2   3
ENDBRANCH   1   2
BRANCH   1  10
ATOM     10  C   UNL     1     -30.391  16.188 -10.857  1.00  0.00     0.000 C 
BRANCH  10  11
ATOM     11  C   UNL     1     -29.166  17.077 -11.159  1.00  0.00    -0.000 C 
BRANCH  11  12
ATOM     12  C   UNL     1     -28.826  17.184 -12.658  1.00  0.00    -0.000 C 
BRANCH  12  13
ATOM     13  C   UNL     1     -28.494  18.604 -13.150  1.00  0.00    -0.000 C 
BRANCH  13  14
ATOM     14  C   UNL     1     -28.476  19.640 -12.014  1.00  0.00    -0.000 C 
BRANCH  14  15
ATOM     15  C   UNL     1     -27.919  20.999 -12.466  1.00  0.00    -0.003 C 
ATOM     16  C   UNL     1     -27.255  20.940 -13.842  1.00  0.00     0.004 C 
ENDBRANCH  14  15
ENDBRANCH  13  14
ENDBRANCH  12  13
ENDBRANCH  11  12
ENDBRANCH  10  11
ENDBRANCH   1  10
TORSDOF 12
ENDMDL
MODEL 4
REMARK VINA RESULT:     5.916      3.617      8.013
REMARK INTER + INTRA:           9.407
REMARK INTER:                   9.971
REMARK INTRA:                  -0.564
REMARK UNBOUND:                -0.659
REMARK SMILES CCCCCCCCCCCCCC(=O)[O-]
REMARK SMILES IDX 8 1 9 2 10 3 11 4 12 5 13 6 14 7 15 8 16 9 7 10 6 11 5 12
REMARK SMILES IDX 4 13 3 14 2 15 1 16
REMARK H PARENT
REMARK Flexibility Score: inf
ROOT
ATOM      1  C   UNL     1     -32.862  19.062 -10.181  1.00  0.00     0.000 C 
ENDROOT
BRANCH   1   2
ATOM      2  C   UNL     1     -31.455  18.461 -10.384  1.00  0.00     0.000 C 
BRANCH   2   3
ATOM      3  C   UNL     1     -31.411  16.930 -10.234  1.00  0.00     0.000 C 
BRANCH   3   4
ATOM      4  C   UNL     1     -30.461  16.260 -11.239  1.00  0.00     0.000 C 
BRANCH   4   5
ATOM      5  C   UNL     1     -29.076  16.927 -11.276  1.00  0.00     0.006 C 
BRANCH   5   6
ATOM      6  C   UNL     1     -28.799  17.636 -12.608  1.00  0.00     0.053 C 
BRANCH   6   7
ATOM      7  C   UNL     1     -29.015  16.699 -13.754  1.00  0.00     0.041 C 
ATOM      8  O   UNL     1     -28.725  15.479 -13.638  1.00  0.00    -0.550 OA
ATOM      9  O   UNL     1     -29.584  17.162 -14.933  1.00  0.00    -0.550 OA
ENDBRANCH   6   7
ENDBRANCH   5   6
ENDBRANCH   4   5
ENDBRANCH   3   4
ENDBRANCH   2   3
ENDBRANCH   1   2
BRANCH   1  10
ATOM     10  C   UNL     1     -32.828  20.596 -10.054  1.00  0.00     0.000 C 
BRANCH  10  11
ATOM     11  C   UNL     1     -31.615  21.218 -10.778  1.00  0.00    -0.000 C 
BRANCH  11  12
ATOM     12  C   UNL     1     -30.745  22.118  -9.879  1.00  0.00    -0.000 C 
BRANCH  12  13
ATOM     13  C   UNL     1     -31.430  23.406  -9.391  1.00  0.00    -0.000 C 
BRANCH  13  14
ATOM     14  C   UNL     1     -32.235  24.110 -10.496  1.00  0.00    -0.000 C 
BRANCH  14  15
ATOM     15  C   UNL     1     -33.744  24.125 -10.206  1.00  0.00    -0.003 C 
ATOM     16  C   UNL     1     -34.062  24.055  -8.712  1.00  0.00     0.004 C 
ENDBRANCH  14  15
ENDBRANCH  13  14
ENDBRANCH  12  13
ENDBRANCH  11  12
ENDBRANCH  10  11
ENDBRANCH   1  10
TORSDOF 12
ENDMDL
MODEL 5
REMARK VINA RESULT:     6.115      1.073      1.851
REMARK INTER + INTRA:           9.746
REMARK INTER:                  10.069
REMARK INTRA:                  -0.323
REMARK UNBOUND:                -0.659
REMARK SMILES CCCCCCCCCCCCCC(=O)[O-]
REMARK SMILES IDX 8 1 9 2 10 3 11 4 12 5 13 6 14 7 15 8 16 9 7 10 6 11 5 12
REMARK SMILES IDX 4 13 3 14 2 15 1 16
REMARK H PARENT
REMARK Flexibility Score: inf
ROOT
ATOM      1  C   UNL     1     -31.559  18.197 -10.468  1.00  0.00     0.000 C 
ENDROOT
BRANCH   1   2
ATOM      2  C   UNL     1     -32.661  19.256 -10.684  1.00  0.00     0.000 C 
BRANCH   2   3
ATOM      3  C   UNL     1     -32.478  20.520  -9.826  1.00  0.00     0.000 C 
BRANCH   3   4
ATOM      4  C   UNL     1     -31.792  21.664 -10.589  1.00  0.00     0.000 C 
BRANCH   4   5
ATOM      5  C   UNL     1     -31.207  22.732  -9.651  1.00  0.00     0.006 C 
BRANCH   5   6
ATOM      6  C   UNL     1     -31.798  24.125  -9.902  1.00  0.00     0.053 C 
BRANCH   6   7
ATOM      7  C   UNL     1     -33.292  24.077  -9.837  1.00  0.00     0.041 C 
ATOM      8  O   UNL     1     -33.969  23.989 -10.895  1.00  0.00    -0.550 OA
ATOM      9  O   UNL     1     -33.936  24.079  -8.606  1.00  0.00    -0.550 OA
ENDBRANCH   6   7
ENDBRANCH   5   6
ENDBRANCH   4   5
ENDBRANCH   3   4
ENDBRANCH   2   3
ENDBRANCH   1   2
BRANCH   1  10
ATOM     10  C   UNL     1     -30.156  18.825 -10.382  1.00  0.00     0.000 C 
BRANCH  10  11
ATOM     11  C   UNL     1     -29.038  17.807 -10.690  1.00  0.00    -0.000 C 
BRANCH  11  12
ATOM     12  C   UNL     1     -29.380  16.830 -11.833  1.00  0.00    -0.000 C 
BRANCH  12  13
ATOM     13  C   UNL     1     -28.787  17.200 -13.204  1.00  0.00    -0.000 C 
BRANCH  13  14
ATOM     14  C   UNL     1     -29.141  16.183 -14.301  1.00  0.00    -0.000 C 
BRANCH  14  15
ATOM     15  C   UNL     1     -28.539  14.795 -14.033  1.00  0.00    -0.003 C 
ATOM     16  C   UNL     1     -27.502  14.386 -15.078  1.00  0.00     0.004 C 
ENDBRANCH  14  15
ENDBRANCH  13  14
ENDBRANCH  12  13
ENDBRANCH  11  12
ENDBRANCH  10  11
ENDBRANCH   1  10
TORSDOF 12
ENDMDL
MODEL 6
REMARK VINA RESULT:     6.121      4.629      8.726
REMARK INTER + INTRA:           9.756
REMARK INTER:                  10.318
REMARK INTRA:                  -0.562
REMARK UNBOUND:                -0.659
REMARK SMILES CCCCCCCCCCCCCC(=O)[O-]
REMARK SMILES IDX 8 1 9 2 10 3 11 4 12 5 13 6 14 7 15 8 16 9 7 10 6 11 5 12
REMARK SMILES IDX 4 13 3 14 2 15 1 16
REMARK H PARENT
REMARK Flexibility Score: inf
ROOT
ATOM      1  C   UNL     1     -31.057  16.951 -10.664  1.00  0.00     0.000 C 
ENDROOT
BRANCH   1   2
ATOM      2  C   UNL     1     -29.656  16.453 -11.081  1.00  0.00     0.000 C 
BRANCH   2   3
ATOM      3  C   UNL     1     -28.892  17.443 -11.978  1.00  0.00     0.000 C 
BRANCH   3   4
ATOM      4  C   UNL     1     -28.858  17.006 -13.451  1.00  0.00     0.000 C 
BRANCH   4   5
ATOM      5  C   UNL     1     -28.824  15.478 -13.613  1.00  0.00     0.006 C 
BRANCH   5   6
ATOM      6  C   UNL     1     -28.383  15.043 -15.016  1.00  0.00     0.053 C 
BRANCH   6   7
ATOM      7  C   UNL     1     -27.411  13.909 -14.931  1.00  0.00     0.041 C 
ATOM      8  O   UNL     1     -27.800  12.767 -14.570  1.00  0.00    -0.550 OA
ATOM      9  O   UNL     1     -26.085  14.100 -15.298  1.00  0.00    -0.550 OA
ENDBRANCH   6   7
ENDBRANCH   5   6
ENDBRANCH   4   5
ENDBRANCH   3   4
ENDBRANCH   2   3
ENDBRANCH   1   2
BRANCH   1  10
ATOM     10  C   UNL     1     -31.095  18.475 -10.454  1.00  0.00     0.000 C 
BRANCH  10  11
ATOM     11  C   UNL     1     -32.499  19.066 -10.704  1.00  0.00    -0.000 C 
BRANCH  11  12
ATOM     12  C   UNL     1     -32.697  20.475 -10.112  1.00  0.00    -0.000 C 
BRANCH  12  13
ATOM     13  C   UNL     1     -31.423  21.336 -10.039  1.00  0.00    -0.000 C 
BRANCH  13  14
ATOM     14  C   UNL     1     -31.573  22.686 -10.759  1.00  0.00    -0.000 C 
BRANCH  14  15
ATOM     15  C   UNL     1     -32.003  23.815  -9.810  1.00  0.00    -0.003 C 
ATOM     16  C   UNL     1     -33.521  23.923  -9.665  1.00  0.00     0.004 C 
ENDBRANCH  14  15
ENDBRANCH  13  14
ENDBRANCH  12  13
ENDBRANCH  11  12
ENDBRANCH  10  11
ENDBRANCH   1  10
TORSDOF 12
ENDMDL
MODEL 7
REMARK VINA RESULT:     6.776      2.122      2.921
REMARK INTER + INTRA:          10.871
REMARK INTER:                  11.464
REMARK INTRA:                  -0.594
REMARK UNBOUND:                -0.659
REMARK SMILES CCCCCCCCCCCCCC(=O)[O-]
REMARK SMILES IDX 8 1 9 2 10 3 11 4 12 5 13 6 14 7 15 8 16 9 7 10 6 11 5 12
REMARK SMILES IDX 4 13 3 14 2 15 1 16
REMARK H PARENT
REMARK Flexibility Score: inf
ROOT
ATOM      1  C   UNL     1     -29.371  17.703 -10.964  1.00  0.00     0.000 C 
ENDROOT
BRANCH   1   2
ATOM      2  C   UNL     1     -30.802  17.172 -10.734  1.00  0.00     0.000 C 
BRANCH   2   3
ATOM      3  C   UNL     1     -31.825  18.277 -10.417  1.00  0.00     0.000 C 
BRANCH   3   4
ATOM      4  C   UNL     1     -31.194  19.678 -10.372  1.00  0.00     0.000 C 
BRANCH   4   5
ATOM      5  C   UNL     1     -32.232  20.787 -10.136  1.00  0.00     0.006 C 
BRANCH   5   6
ATOM      6  C   UNL     1     -31.860  22.101 -10.834  1.00  0.00     0.053 C 
BRANCH   6   7
ATOM      7  C   UNL     1     -32.322  23.271 -10.024  1.00  0.00     0.041 C 
ATOM      8  O   UNL     1     -31.514  23.883  -9.277  1.00  0.00    -0.550 OA
ATOM      9  O   UNL     1     -33.633  23.717 -10.132  1.00  0.00    -0.550 OA
ENDBRANCH   6   7
ENDBRANCH   5   6
ENDBRANCH   4   5
ENDBRANCH   3   4
ENDBRANCH   2   3
ENDBRANCH   1   2
BRANCH   1  10
ATOM     10  C   UNL     1     -28.976  17.688 -12.452  1.00  0.00     0.000 C 
BRANCH  10  11
ATOM     11  C   UNL     1     -28.996  16.265 -13.050  1.00  0.00    -0.000 C 
BRANCH  11  12
ATOM     12  C   UNL     1     -29.225  16.231 -14.573  1.00  0.00    -0.000 C 
BRANCH  12  13
ATOM     13  C   UNL     1     -29.713  17.556 -15.188  1.00  0.00    -0.000 C 
BRANCH  13  14
ATOM     14  C   UNL     1     -29.959  17.456 -16.702  1.00  0.00    -0.000 C 
BRANCH  14  15
ATOM     15  C   UNL     1     -30.661  18.700 -17.267  1.00  0.00    -0.003 C 
ATOM     16  C   UNL     1     -29.690  19.684 -17.921  1.00  0.00     0.004 C 
ENDBRANCH  14  15
ENDBRANCH  13  14
ENDBRANCH  12  13
ENDBRANCH  11  12
ENDBRANCH  10  11
ENDBRANCH   1  10
TORSDOF 12
ENDMDL
MODEL 8
REMARK VINA RESULT:     7.194      3.737      7.682
REMARK INTER + INTRA:          11.582
REMARK INTER:                  12.105
REMARK INTRA:                  -0.523
REMARK UNBOUND:                -0.659
REMARK SMILES CCCCCCCCCCCCCC(=O)[O-]
REMARK SMILES IDX 8 1 9 2 10 3 11 4 12 5 13 6 14 7 15 8 16 9 7 10 6 11 5 12
REMARK SMILES IDX 4 13 3 14 2 15 1 16
REMARK H PARENT
REMARK Flexibility Score: inf
ROOT
ATOM      1  C   UNL     1     -29.109  17.221 -11.384  1.00  0.00     0.000 C 
ENDROOT
BRANCH   1   2
ATOM      2  C   UNL     1     -28.849  17.385 -12.897  1.00  0.00     0.000 C 
BRANCH   2   3
ATOM      3  C   UNL     1     -29.166  16.122 -13.717  1.00  0.00     0.000 C 
BRANCH   3   4
ATOM      4  C   UNL     1     -29.083  16.361 -15.234  1.00  0.00     0.000 C 
BRANCH   4   5
ATOM      5  C   UNL     1     -29.940  17.553 -15.691  1.00  0.00     0.006 C 
BRANCH   5   6
ATOM      6  C   UNL     1     -29.901  17.758 -17.210  1.00  0.00     0.053 C 
BRANCH   6   7
ATOM      7  C   UNL     1     -30.349  19.142 -17.561  1.00  0.00     0.041 C 
ATOM      8  O   UNL     1     -31.572  19.440 -17.527  1.00  0.00    -0.550 OA
ATOM      9  O   UNL     1     -29.412  20.117 -17.878  1.00  0.00    -0.550 OA
ENDBRANCH   6   7
ENDBRANCH   5   6
ENDBRANCH   4   5
ENDBRANCH   3   4
ENDBRANCH   2   3
ENDBRANCH   1   2
BRANCH   1  10
ATOM     10  C   UNL     1     -29.826  18.441 -10.780  1.00  0.00     0.000 C 
BRANCH  10  11
ATOM     11  C   UNL     1     -31.296  18.139 -10.420  1.00  0.00    -0.000 C 
BRANCH  11  12
ATOM     12  C   UNL     1     -32.275  19.270 -10.790  1.00  0.00    -0.000 C 
BRANCH  12  13
ATOM     13  C   UNL     1     -32.124  20.558  -9.962  1.00  0.00    -0.000 C 
BRANCH  13  14
ATOM     14  C   UNL     1     -32.128  21.829 -10.828  1.00  0.00    -0.000 C 
BRANCH  14  15
ATOM     15  C   UNL     1     -31.579  23.053 -10.079  1.00  0.00    -0.003 C 
ATOM     16  C   UNL     1     -32.675  24.026  -9.648  1.00  0.00     0.004 C 
ENDBRANCH  14  15
ENDBRANCH  13  14
ENDBRANCH  12  13
ENDBRANCH  11  12
ENDBRANCH  10  11
ENDBRANCH   1  10
TORSDOF 12
ENDMDL
