MODEL 1
REMARK VINA RESULT:    -4.821      0.000      0.000
REMARK INTER + INTRA:          -6.081
REMARK INTER:                  -5.666
REMARK INTRA:                  -0.415
REMARK UNBOUND:                -0.415
REMARK SMILES C=C[C@]1(C)CC[C@H](C(=C)C)C[C@@H]1C(=C)C
REMARK SMILES IDX 7 1 6 2 5 3 3 4 12 5 11 6 4 7 8 8 10 9 9 10 13 11 14 12
REMARK SMILES IDX 15 13 2 14 1 15
REMARK H PARENT
REMARK Flexibility Score: inf
ROOT
ATOM      1  C   UNL     1     134.948 135.619 131.393  1.00  0.00     0.015 C 
ATOM      2  C   UNL     1     135.136 136.013 132.871  1.00  0.00     0.009 C 
ATOM      3  C   UNL     1     136.624 136.190 133.208  1.00  0.00     0.012 C 
ATOM      4  C   UNL     1     137.458 134.908 132.916  1.00  0.00    -0.008 C 
ATOM      5  C   UNL     1     137.238 134.512 131.409  1.00  0.00     0.024 C 
ATOM      6  C   UNL     1     135.740 134.340 131.060  1.00  0.00     0.017 C 
ATOM      7  C   UNL     1     138.953 135.235 133.148  1.00  0.00     0.016 C 
ENDROOT
BRANCH   1   8
ATOM      8  C   UNL     1     133.472 135.468 131.042  1.00  0.00    -0.077 C 
ATOM      9  C   UNL     1     133.034 134.422 130.050  1.00  0.00     0.039 C 
ATOM     10  C   UNL     1     132.537 136.254 131.603  1.00  0.00     0.008 C 
ENDBRANCH   1   8
BRANCH   5  11
ATOM     11  C   UNL     1     138.096 133.333 130.932  1.00  0.00    -0.077 C 
ATOM     12  C   UNL     1     137.771 132.051 131.180  1.00  0.00     0.008 C 
ATOM     13  C   UNL     1     139.340 133.599 130.121  1.00  0.00     0.039 C 
ENDBRANCH   5  11
BRANCH   4  14
ATOM     14  C   UNL     1     137.034 133.788 133.870  1.00  0.00    -0.028 C 
ATOM     15  C   UNL     1     137.730 133.458 134.966  1.00  0.00     0.004 C 
ENDBRANCH   4  14
TORSDOF 3
ENDMDL
MODEL 2
REMARK VINA RESULT:    -4.801      4.020      6.659
REMARK INTER + INTRA:          -6.057
REMARK INTER:                  -5.651
REMARK INTRA:                  -0.406
REMARK UNBOUND:                -0.415
REMARK SMILES C=C[C@]1(C)CC[C@H](C(=C)C)C[C@@H]1C(=C)C
REMARK SMILES IDX 7 1 6 2 5 3 3 4 12 5 11 6 4 7 8 8 10 9 9 10 13 11 14 12
REMARK SMILES IDX 15 13 2 14 1 15
REMARK H PARENT
REMARK Flexibility Score: inf
ROOT
ATOM      1  C   UNL     1     138.685 138.198 131.320  1.00  0.00     0.015 C 
ATOM      2  C   UNL     1     138.459 137.788 132.788  1.00  0.00     0.009 C 
ATOM      3  C   UNL     1     136.960 137.644 133.095  1.00  0.00     0.012 C 
ATOM      4  C   UNL     1     136.166 138.951 132.807  1.00  0.00    -0.008 C 
ATOM      5  C   UNL     1     136.424 139.363 131.311  1.00  0.00     0.024 C 
ATOM      6  C   UNL     1     137.932 139.502 130.992  1.00  0.00     0.017 C 
ATOM      7  C   UNL     1     134.658 138.659 133.006  1.00  0.00     0.016 C 
ENDROOT
BRANCH   1   8
ATOM      8  C   UNL     1     140.171 138.316 131.000  1.00  0.00    -0.077 C 
ATOM      9  C   UNL     1     141.162 137.390 131.656  1.00  0.00     0.039 C 
ATOM     10  C   UNL     1     140.627 139.238 130.134  1.00  0.00     0.008 C 
ENDBRANCH   1   8
BRANCH   5  11
ATOM     11  C   UNL     1     135.605 140.570 130.835  1.00  0.00    -0.077 C 
ATOM     12  C   UNL     1     135.914 141.836 131.172  1.00  0.00     0.008 C 
ATOM     13  C   UNL     1     134.422 140.354 129.924  1.00  0.00     0.039 C 
ENDBRANCH   5  11
BRANCH   4  14
ATOM     14  C   UNL     1     136.599 140.045 133.785  1.00  0.00    -0.028 C 
ATOM     15  C   UNL     1     135.941 140.316 134.920  1.00  0.00     0.004 C 
ENDBRANCH   4  14
TORSDOF 3
ENDMDL
MODEL 3
REMARK VINA RESULT:    -4.800      2.768      4.765
REMARK INTER + INTRA:          -6.056
REMARK INTER:                  -5.640
REMARK INTRA:                  -0.417
REMARK UNBOUND:                -0.415
REMARK SMILES C=C[C@]1(C)CC[C@H](C(=C)C)C[C@@H]1C(=C)C
REMARK SMILES IDX 7 1 6 2 5 3 3 4 12 5 11 6 4 7 8 8 10 9 9 10 13 11 14 12
REMARK SMILES IDX 15 13 2 14 1 15
REMARK H PARENT
REMARK Flexibility Score: inf
ROOT
ATOM      1  C   UNL     1     138.204 134.998 131.299  1.00  0.00     0.015 C 
ATOM      2  C   UNL     1     137.788 135.169 132.773  1.00  0.00     0.009 C 
ATOM      3  C   UNL     1     137.596 136.653 133.122  1.00  0.00     0.012 C 
ATOM      4  C   UNL     1     138.877 137.497 132.857  1.00  0.00    -0.008 C 
ATOM      5  C   UNL     1     139.296 137.295 131.354  1.00  0.00     0.024 C 
ATOM      6  C   UNL     1     139.483 135.802 130.992  1.00  0.00     0.017 C 
ATOM      7  C   UNL     1     138.536 138.988 133.099  1.00  0.00     0.016 C 
ENDROOT
BRANCH   1   8
ATOM      8  C   UNL     1     138.371 133.527 130.936  1.00  0.00    -0.077 C 
ATOM      9  C   UNL     1     137.468 132.489 131.553  1.00  0.00     0.039 C 
ATOM     10  C   UNL     1     139.314 133.124 130.067  1.00  0.00     0.008 C 
ENDBRANCH   1   8
BRANCH   5  11
ATOM     11  C   UNL     1     140.475 138.166 130.902  1.00  0.00    -0.077 C 
ATOM     12  C   UNL     1     141.754 137.867 131.196  1.00  0.00     0.008 C 
ATOM     13  C   UNL     1     140.215 139.393 130.063  1.00  0.00     0.039 C 
ENDBRANCH   5  11
BRANCH   4  14
ATOM     14  C   UNL     1     139.986 137.072 133.822  1.00  0.00    -0.028 C 
ATOM     15  C   UNL     1     140.331 137.786 134.901  1.00  0.00     0.004 C 
ENDBRANCH   4  14
TORSDOF 3
ENDMDL
MODEL 4
REMARK VINA RESULT:    -4.799      3.041      4.888
REMARK INTER + INTRA:          -6.056
REMARK INTER:                  -5.684
REMARK INTRA:                  -0.372
REMARK UNBOUND:                -0.415
REMARK SMILES C=C[C@]1(C)CC[C@H](C(=C)C)C[C@@H]1C(=C)C
REMARK SMILES IDX 7 1 6 2 5 3 3 4 12 5 11 6 4 7 8 8 10 9 9 10 13 11 14 12
REMARK SMILES IDX 15 13 2 14 1 15
REMARK H PARENT
REMARK Flexibility Score: inf
ROOT
ATOM      1  C   UNL     1     135.530 139.100 131.545  1.00  0.00     0.015 C 
ATOM      2  C   UNL     1     135.653 139.217 133.077  1.00  0.00     0.009 C 
ATOM      3  C   UNL     1     135.846 137.835 133.720  1.00  0.00     0.012 C 
ATOM      4  C   UNL     1     134.687 136.852 133.379  1.00  0.00    -0.008 C 
ATOM      5  C   UNL     1     134.566 136.761 131.813  1.00  0.00     0.024 C 
ATOM      6  C   UNL     1     134.380 138.151 131.157  1.00  0.00     0.017 C 
ATOM      7  C   UNL     1     135.047 135.458 133.947  1.00  0.00     0.016 C 
ENDROOT
BRANCH   1   8
ATOM      8  C   UNL     1     135.365 140.469 130.896  1.00  0.00    -0.077 C 
ATOM      9  C   UNL     1     134.367 140.663 129.784  1.00  0.00     0.039 C 
ATOM     10  C   UNL     1     136.096 141.525 131.296  1.00  0.00     0.008 C 
ENDBRANCH   1   8
BRANCH   5  11
ATOM     11  C   UNL     1     133.545 135.730 131.315  1.00  0.00    -0.077 C 
ATOM     12  C   UNL     1     132.225 135.985 131.253  1.00  0.00     0.008 C 
ATOM     13  C   UNL     1     134.023 134.381 130.838  1.00  0.00     0.039 C 
ENDBRANCH   5  11
BRANCH   4  14
ATOM     14  C   UNL     1     133.389 137.339 134.027  1.00  0.00    -0.028 C 
ATOM     15  C   UNL     1     133.282 137.621 135.332  1.00  0.00     0.004 C 
ENDBRANCH   4  14
TORSDOF 3
ENDMDL
MODEL 5
REMARK VINA RESULT:    -4.696      2.108      4.039
REMARK INTER + INTRA:          -5.934
REMARK INTER:                  -5.609
REMARK INTRA:                  -0.325
REMARK UNBOUND:                -0.415
REMARK SMILES C=C[C@]1(C)CC[C@H](C(=C)C)C[C@@H]1C(=C)C
REMARK SMILES IDX 7 1 6 2 5 3 3 4 12 5 11 6 4 7 8 8 10 9 9 10 13 11 14 12
REMARK SMILES IDX 15 13 2 14 1 15
REMARK H PARENT
REMARK Flexibility Score: inf
ROOT
ATOM      1  C   UNL     1     136.764 133.644 133.567  1.00  0.00     0.015 C 
ATOM      2  C   UNL     1     136.275 132.786 132.384  1.00  0.00     0.009 C 
ATOM      3  C   UNL     1     137.438 132.430 131.446  1.00  0.00     0.012 C 
ATOM      4  C   UNL     1     138.163 133.691 130.890  1.00  0.00    -0.008 C 
ATOM      5  C   UNL     1     138.638 134.561 132.111  1.00  0.00     0.024 C 
ATOM      6  C   UNL     1     137.473 134.918 133.067  1.00  0.00     0.017 C 
ATOM      7  C   UNL     1     139.398 133.226 130.080  1.00  0.00     0.016 C 
ENDROOT
BRANCH   1   8
ATOM      8  C   UNL     1     135.621 133.979 134.519  1.00  0.00    -0.077 C 
ATOM      9  C   UNL     1     135.487 133.244 135.828  1.00  0.00     0.039 C 
ATOM     10  C   UNL     1     134.718 134.929 134.218  1.00  0.00     0.008 C 
ENDBRANCH   1   8
BRANCH   5  11
ATOM     11  C   UNL     1     139.483 135.782 131.729  1.00  0.00    -0.077 C 
ATOM     12  C   UNL     1     138.999 136.800 130.994  1.00  0.00     0.008 C 
ATOM     13  C   UNL     1     140.908 135.882 132.215  1.00  0.00     0.039 C 
ENDBRANCH   5  11
BRANCH   4  14
ATOM     14  C   UNL     1     137.219 134.465 129.967  1.00  0.00    -0.028 C 
ATOM     15  C   UNL     1     136.897 134.051 128.735  1.00  0.00     0.004 C 
ENDBRANCH   4  14
TORSDOF 3
ENDMDL
MODEL 6
REMARK VINA RESULT:    -4.645      1.981      4.682
REMARK INTER + INTRA:          -5.875
REMARK INTER:                  -5.573
REMARK INTRA:                  -0.302
REMARK UNBOUND:                -0.415
REMARK SMILES C=C[C@]1(C)CC[C@H](C(=C)C)C[C@@H]1C(=C)C
REMARK SMILES IDX 7 1 6 2 5 3 3 4 12 5 11 6 4 7 8 8 10 9 9 10 13 11 14 12
REMARK SMILES IDX 15 13 2 14 1 15
REMARK H PARENT
REMARK Flexibility Score: inf
ROOT
ATOM      1  C   UNL     1     133.676 137.016 133.611  1.00  0.00     0.015 C 
ATOM      2  C   UNL     1     132.821 137.535 132.440  1.00  0.00     0.009 C 
ATOM      3  C   UNL     1     132.413 136.385 131.505  1.00  0.00     0.012 C 
ATOM      4  C   UNL     1     133.641 135.618 130.933  1.00  0.00    -0.008 C 
ATOM      5  C   UNL     1     134.511 135.113 132.143  1.00  0.00     0.024 C 
ATOM      6  C   UNL     1     134.919 136.264 133.095  1.00  0.00     0.017 C 
ATOM      7  C   UNL     1     133.125 134.401 130.129  1.00  0.00     0.016 C 
ENDROOT
BRANCH   1   8
ATOM      8  C   UNL     1     134.063 138.145 134.559  1.00  0.00    -0.077 C 
ATOM      9  C   UNL     1     135.128 139.134 134.162  1.00  0.00     0.039 C 
ATOM     10  C   UNL     1     133.470 138.285 135.758  1.00  0.00     0.008 C 
ENDBRANCH   1   8
BRANCH   5  11
ATOM     11  C   UNL     1     135.697 134.226 131.745  1.00  0.00    -0.077 C 
ATOM     12  C   UNL     1     136.703 134.665 130.966  1.00  0.00     0.008 C 
ATOM     13  C   UNL     1     135.777 132.812 132.264  1.00  0.00     0.039 C 
ENDBRANCH   5  11
BRANCH   4  14
ATOM     14  C   UNL     1     134.436 136.536 130.001  1.00  0.00    -0.028 C 
ATOM     15  C   UNL     1     133.986 136.928 128.801  1.00  0.00     0.004 C 
ENDBRANCH   4  14
TORSDOF 3
ENDMDL
MODEL 7
REMARK VINA RESULT:    -4.623      2.820      4.465
REMARK INTER + INTRA:          -5.848
REMARK INTER:                  -5.506
REMARK INTRA:                  -0.342
REMARK UNBOUND:                -0.415
REMARK SMILES C=C[C@]1(C)CC[C@H](C(=C)C)C[C@@H]1C(=C)C
REMARK SMILES IDX 7 1 6 2 5 3 3 4 12 5 11 6 4 7 8 8 10 9 9 10 13 11 14 12
REMARK SMILES IDX 15 13 2 14 1 15
REMARK H PARENT
REMARK Flexibility Score: inf
ROOT
ATOM      1  C   UNL     1     135.134 139.164 131.777  1.00  0.00     0.015 C 
ATOM      2  C   UNL     1     133.682 138.702 132.001  1.00  0.00     0.009 C 
ATOM      3  C   UNL     1     133.631 137.475 132.926  1.00  0.00     0.012 C 
ATOM      4  C   UNL     1     134.462 136.279 132.374  1.00  0.00    -0.008 C 
ATOM      5  C   UNL     1     135.936 136.776 132.135  1.00  0.00     0.024 C 
ATOM      6  C   UNL     1     135.995 138.017 131.212  1.00  0.00     0.017 C 
ATOM      7  C   UNL     1     134.466 135.156 133.440  1.00  0.00     0.016 C 
ENDROOT
BRANCH   1   8
ATOM      8  C   UNL     1     135.193 140.397 130.884  1.00  0.00    -0.077 C 
ATOM      9  C   UNL     1     136.096 141.549 131.244  1.00  0.00     0.039 C 
ATOM     10  C   UNL     1     134.451 140.486 129.766  1.00  0.00     0.008 C 
ENDBRANCH   1   8
BRANCH   5  11
ATOM     11  C   UNL     1     136.914 135.674 131.709  1.00  0.00    -0.077 C 
ATOM     12  C   UNL     1     136.989 135.218 130.445  1.00  0.00     0.008 C 
ATOM     13  C   UNL     1     137.863 135.088 132.725  1.00  0.00     0.039 C 
ENDBRANCH   5  11
BRANCH   4  14
ATOM     14  C   UNL     1     133.820 135.752 131.090  1.00  0.00    -0.028 C 
ATOM     15  C   UNL     1     132.505 135.524 130.968  1.00  0.00     0.004 C 
ENDBRANCH   4  14
TORSDOF 3
ENDMDL
MODEL 8
REMARK VINA RESULT:    -4.620      2.935      5.294
REMARK INTER + INTRA:          -5.845
REMARK INTER:                  -5.418
REMARK INTRA:                  -0.427
REMARK UNBOUND:                -0.415
REMARK SMILES C=C[C@]1(C)CC[C@H](C(=C)C)C[C@@H]1C(=C)C
REMARK SMILES IDX 7 1 6 2 5 3 3 4 12 5 11 6 4 7 8 8 10 9 9 10 13 11 14 12
REMARK SMILES IDX 15 13 2 14 1 15
REMARK H PARENT
REMARK Flexibility Score: inf
ROOT
ATOM      1  C   UNL     1     138.570 134.717 131.552  1.00  0.00     0.015 C 
ATOM      2  C   UNL     1     139.987 135.161 131.965  1.00  0.00     0.009 C 
ATOM      3  C   UNL     1     139.947 136.504 132.710  1.00  0.00     0.012 C 
ATOM      4  C   UNL     1     139.288 137.635 131.866  1.00  0.00    -0.008 C 
ATOM      5  C   UNL     1     137.852 137.155 131.439  1.00  0.00     0.024 C 
ATOM      6  C   UNL     1     137.883 135.797 130.695  1.00  0.00     0.017 C 
ATOM      7  C   UNL     1     139.165 138.897 132.753  1.00  0.00     0.016 C 
ENDROOT
BRANCH   1   8
ATOM      8  C   UNL     1     138.597 133.372 130.836  1.00  0.00    -0.077 C 
ATOM      9  C   UNL     1     137.671 132.265 131.271  1.00  0.00     0.039 C 
ATOM     10  C   UNL     1     139.437 133.143 129.811  1.00  0.00     0.008 C 
ENDBRANCH   1   8
BRANCH   5  11
ATOM     11  C   UNL     1     137.023 138.214 130.702  1.00  0.00    -0.077 C 
ATOM     12  C   UNL     1     137.061 138.368 129.366  1.00  0.00     0.008 C 
ATOM     13  C   UNL     1     136.093 139.108 131.486  1.00  0.00     0.039 C 
ENDBRANCH   5  11
BRANCH   4  14
ATOM     14  C   UNL     1     140.168 137.955 130.655  1.00  0.00    -0.028 C 
ATOM     15  C   UNL     1     140.549 139.199 130.335  1.00  0.00     0.004 C 
ENDBRANCH   4  14
TORSDOF 3
ENDMDL
MODEL 9
REMARK VINA RESULT:    -4.598      3.730      6.254
REMARK INTER + INTRA:          -5.819
REMARK INTER:                  -5.526
REMARK INTRA:                  -0.293
REMARK UNBOUND:                -0.415
REMARK SMILES C=C[C@]1(C)CC[C@H](C(=C)C)C[C@@H]1C(=C)C
REMARK SMILES IDX 7 1 6 2 5 3 3 4 12 5 11 6 4 7 8 8 10 9 9 10 13 11 14 12
REMARK SMILES IDX 15 13 2 14 1 15
REMARK H PARENT
REMARK Flexibility Score: inf
ROOT
ATOM      1  C   UNL     1     139.199 138.547 131.765  1.00  0.00     0.015 C 
ATOM      2  C   UNL     1     138.847 140.003 132.125  1.00  0.00     0.009 C 
ATOM      3  C   UNL     1     137.649 140.058 133.086  1.00  0.00     0.012 C 
ATOM      4  C   UNL     1     136.385 139.362 132.502  1.00  0.00    -0.008 C 
ATOM      5  C   UNL     1     136.769 137.884 132.124  1.00  0.00     0.024 C 
ATOM      6  C   UNL     1     137.981 137.820 131.163  1.00  0.00     0.017 C 
ATOM      7  C   UNL     1     135.289 139.344 133.595  1.00  0.00     0.016 C 
ENDROOT
BRANCH   1   8
ATOM      8  C   UNL     1     140.404 138.481 130.834  1.00  0.00    -0.077 C 
ATOM      9  C   UNL     1     140.402 139.253 129.540  1.00  0.00     0.039 C 
ATOM     10  C   UNL     1     141.485 137.743 131.142  1.00  0.00     0.008 C 
ENDBRANCH   1   8
BRANCH   5  11
ATOM     11  C   UNL     1     135.591 137.024 131.649  1.00  0.00    -0.077 C 
ATOM     12  C   UNL     1     135.140 137.047 130.381  1.00  0.00     0.008 C 
ATOM     13  C   UNL     1     134.919 136.083 132.617  1.00  0.00     0.039 C 
ENDBRANCH   5  11
BRANCH   4  14
ATOM     14  C   UNL     1     135.875 140.148 131.292  1.00  0.00    -0.028 C 
ATOM     15  C   UNL     1     135.872 141.487 131.236  1.00  0.00     0.004 C 
ENDBRANCH   4  14
TORSDOF 3
ENDMDL
