MODEL 1
REMARK VINA RESULT:    -4.530      0.000      0.000
REMARK INTER + INTRA:          -7.812
REMARK INTER:                  -6.913
REMARK INTRA:                  -0.899
REMARK UNBOUND:                -0.899
REMARK SMILES O=C([O-])CCCCCCCCC(=O)[O-]
REMARK SMILES IDX 7 1 6 2 5 3 4 4 2 5 1 6 3 7 8 8 9 9 10 10 11 11 12 12 13 13
REMARK SMILES IDX 14 14
REMARK H PARENT
REMARK Flexibility Score: inf
ROOT
ATOM      1  C   UNL     1      63.730  29.517  24.705  1.00  0.00     0.000 C 
ENDROOT
BRANCH   1   2
ATOM      2  C   UNL     1      64.150  28.192  25.353  1.00  0.00     0.000 C 
BRANCH   2   3
ATOM      3  C   UNL     1      65.355  27.581  24.623  1.00  0.00     0.006 C 
BRANCH   3   4
ATOM      4  C   UNL     1      65.143  26.097  24.293  1.00  0.00     0.053 C 
BRANCH   4   5
ATOM      5  C   UNL     1      63.995  25.895  23.352  1.00  0.00     0.041 C 
ATOM      6  O   UNL     1      63.047  25.128  23.666  1.00  0.00    -0.550 OA
ATOM      7  O   UNL     1      63.989  26.525  22.114  1.00  0.00    -0.550 OA
ENDBRANCH   4   5
ENDBRANCH   3   4
ENDBRANCH   2   3
ENDBRANCH   1   2
BRANCH   1   8
ATOM      8  C   UNL     1      62.200  29.635  24.631  1.00  0.00     0.000 C 
BRANCH   8   9
ATOM      9  C   UNL     1      61.525  28.287  24.295  1.00  0.00     0.000 C 
BRANCH   9  10
ATOM     10  C   UNL     1      60.372  27.922  25.249  1.00  0.00     0.006 C 
BRANCH  10  11
ATOM     11  C   UNL     1      60.749  26.884  26.315  1.00  0.00     0.053 C 
BRANCH  11  12
ATOM     12  C   UNL     1      61.277  27.528  27.561  1.00  0.00     0.041 C 
ATOM     13  O   UNL     1      62.145  26.941  28.259  1.00  0.00    -0.550 OA
ATOM     14  O   UNL     1      60.827  28.786  27.943  1.00  0.00    -0.550 OA
ENDBRANCH  11  12
ENDBRANCH  10  11
ENDBRANCH   9  10
ENDBRANCH   8   9
ENDBRANCH   1   8
TORSDOF 9
ENDMDL
MODEL 2
REMARK VINA RESULT:    -4.504      1.784      4.309
REMARK INTER + INTRA:          -7.773
REMARK INTER:                  -6.709
REMARK INTRA:                  -1.064
REMARK UNBOUND:                -0.899
REMARK SMILES O=C([O-])CCCCCCCCC(=O)[O-]
REMARK SMILES IDX 7 1 6 2 5 3 4 4 2 5 1 6 3 7 8 8 9 9 10 10 11 11 12 12 13 13
REMARK SMILES IDX 14 14
REMARK H PARENT
REMARK Flexibility Score: inf
ROOT
ATOM      1  C   UNL     1      62.723  30.048  26.997  1.00  0.00     0.000 C 
ENDROOT
BRANCH   1   2
ATOM      2  C   UNL     1      62.547  28.759  27.809  1.00  0.00     0.000 C 
BRANCH   2   3
ATOM      3  C   UNL     1      61.128  28.195  27.643  1.00  0.00     0.006 C 
BRANCH   3   4
ATOM      4  C   UNL     1      61.100  26.942  26.759  1.00  0.00     0.053 C 
BRANCH   4   5
ATOM      5  C   UNL     1      60.322  27.167  25.498  1.00  0.00     0.041 C 
ATOM      6  O   UNL     1      59.337  26.432  25.223  1.00  0.00    -0.550 OA
ATOM      7  O   UNL     1      60.706  28.165  24.612  1.00  0.00    -0.550 OA
ENDBRANCH   4   5
ENDBRANCH   3   4
ENDBRANCH   2   3
ENDBRANCH   1   2
BRANCH   1   8
ATOM      8  C   UNL     1      63.593  29.805  25.755  1.00  0.00     0.000 C 
BRANCH   8   9
ATOM      9  C   UNL     1      64.876  29.010  26.086  1.00  0.00     0.000 C 
BRANCH   9  10
ATOM     10  C   UNL     1      65.216  27.930  25.042  1.00  0.00     0.006 C 
BRANCH  10  11
ATOM     11  C   UNL     1      64.342  26.672  25.138  1.00  0.00     0.053 C 
BRANCH  11  12
ATOM     12  C   UNL     1      63.646  26.374  23.845  1.00  0.00     0.041 C 
ATOM     13  O   UNL     1      63.219  25.213  23.609  1.00  0.00    -0.550 OA
ATOM     14  O   UNL     1      63.446  27.381  22.910  1.00  0.00    -0.550 OA
ENDBRANCH  11  12
ENDBRANCH  10  11
ENDBRANCH   9  10
ENDBRANCH   8   9
ENDBRANCH   1   8
TORSDOF 9
ENDMDL
MODEL 3
REMARK VINA RESULT:    -4.488      1.839      2.285
REMARK INTER + INTRA:          -7.748
REMARK INTER:                  -6.728
REMARK INTRA:                  -1.021
REMARK UNBOUND:                -0.899
REMARK SMILES O=C([O-])CCCCCCCCC(=O)[O-]
REMARK SMILES IDX 7 1 6 2 5 3 4 4 2 5 1 6 3 7 8 8 9 9 10 10 11 11 12 12 13 13
REMARK SMILES IDX 14 14
REMARK H PARENT
REMARK Flexibility Score: inf
ROOT
ATOM      1  C   UNL     1      63.400  29.969  26.037  1.00  0.00     0.000 C 
ENDROOT
BRANCH   1   2
ATOM      2  C   UNL     1      64.541  28.952  26.151  1.00  0.00     0.000 C 
BRANCH   2   3
ATOM      3  C   UNL     1      64.659  28.112  24.870  1.00  0.00     0.006 C 
BRANCH   3   4
ATOM      4  C   UNL     1      64.538  26.608  25.148  1.00  0.00     0.053 C 
BRANCH   4   5
ATOM      5  C   UNL     1      64.232  25.834  23.903  1.00  0.00     0.041 C 
ATOM      6  O   UNL     1      63.097  25.311  23.745  1.00  0.00    -0.550 OA
ATOM      7  O   UNL     1      65.211  25.661  22.933  1.00  0.00    -0.550 OA
ENDBRANCH   4   5
ENDBRANCH   3   4
ENDBRANCH   2   3
ENDBRANCH   1   2
BRANCH   1   8
ATOM      8  C   UNL     1      62.664  30.126  27.376  1.00  0.00     0.000 C 
BRANCH   8   9
ATOM      9  C   UNL     1      62.468  28.775  28.098  1.00  0.00     0.000 C 
BRANCH   9  10
ATOM     10  C   UNL     1      61.135  28.083  27.754  1.00  0.00     0.006 C 
BRANCH  10  11
ATOM     11  C   UNL     1      61.275  26.912  26.772  1.00  0.00     0.053 C 
BRANCH  11  12
ATOM     12  C   UNL     1      60.505  27.147  25.508  1.00  0.00     0.041 C 
ATOM     13  O   UNL     1      59.428  26.529  25.298  1.00  0.00    -0.550 OA
ATOM     14  O   UNL     1      60.962  28.065  24.571  1.00  0.00    -0.550 OA
ENDBRANCH  11  12
ENDBRANCH  10  11
ENDBRANCH   9  10
ENDBRANCH   8   9
ENDBRANCH   1   8
TORSDOF 9
ENDMDL
MODEL 4
REMARK VINA RESULT:    -4.463      0.515      4.835
REMARK INTER + INTRA:          -7.710
REMARK INTER:                  -6.691
REMARK INTRA:                  -1.019
REMARK UNBOUND:                -0.899
REMARK SMILES O=C([O-])CCCCCCCCC(=O)[O-]
REMARK SMILES IDX 7 1 6 2 5 3 4 4 2 5 1 6 3 7 8 8 9 9 10 10 11 11 12 12 13 13
REMARK SMILES IDX 14 14
REMARK H PARENT
REMARK Flexibility Score: inf
ROOT
ATOM      1  C   UNL     1      62.382  29.503  24.960  1.00  0.00     0.000 C 
ENDROOT
BRANCH   1   2
ATOM      2  C   UNL     1      61.403  28.458  24.413  1.00  0.00     0.000 C 
BRANCH   2   3
ATOM      3  C   UNL     1      60.637  27.771  25.552  1.00  0.00     0.006 C 
BRANCH   3   4
ATOM      4  C   UNL     1      61.575  27.063  26.539  1.00  0.00     0.053 C 
BRANCH   4   5
ATOM      5  C   UNL     1      61.383  27.555  27.941  1.00  0.00     0.041 C 
ATOM      6  O   UNL     1      61.789  26.867  28.914  1.00  0.00    -0.550 OA
ATOM      7  O   UNL     1      60.726  28.756  28.173  1.00  0.00    -0.550 OA
ENDBRANCH   4   5
ENDBRANCH   3   4
ENDBRANCH   2   3
ENDBRANCH   1   2
BRANCH   1   8
ATOM      8  C   UNL     1      63.748  29.397  24.268  1.00  0.00     0.000 C 
BRANCH   8   9
ATOM      9  C   UNL     1      64.761  28.575  25.094  1.00  0.00     0.000 C 
BRANCH   9  10
ATOM     10  C   UNL     1      65.329  27.359  24.338  1.00  0.00     0.006 C 
BRANCH  10  11
ATOM     11  C   UNL     1      64.501  26.077  24.505  1.00  0.00     0.053 C 
BRANCH  11  12
ATOM     12  C   UNL     1      63.632  25.814  23.313  1.00  0.00     0.041 C 
ATOM     13  O   UNL     1      62.701  24.968  23.383  1.00  0.00    -0.550 OA
ATOM     14  O   UNL     1      63.833  26.516  22.131  1.00  0.00    -0.550 OA
ENDBRANCH  11  12
ENDBRANCH  10  11
ENDBRANCH   9  10
ENDBRANCH   8   9
ENDBRANCH   1   8
TORSDOF 9
ENDMDL
MODEL 5
REMARK VINA RESULT:    -4.448      1.625      2.682
REMARK INTER + INTRA:          -7.687
REMARK INTER:                  -6.741
REMARK INTRA:                  -0.946
REMARK UNBOUND:                -0.899
REMARK SMILES O=C([O-])CCCCCCCCC(=O)[O-]
REMARK SMILES IDX 7 1 6 2 5 3 4 4 2 5 1 6 3 7 8 8 9 9 10 10 11 11 12 12 13 13
REMARK SMILES IDX 14 14
REMARK H PARENT
REMARK Flexibility Score: inf
ROOT
ATOM      1  C   UNL     1      61.982  29.644  25.191  1.00  0.00     0.000 C 
ENDROOT
BRANCH   1   2
ATOM      2  C   UNL     1      61.969  28.416  24.272  1.00  0.00     0.000 C 
BRANCH   2   3
ATOM      3  C   UNL     1      61.848  27.121  25.087  1.00  0.00     0.006 C 
BRANCH   3   4
ATOM      4  C   UNL     1      63.213  26.595  25.550  1.00  0.00     0.053 C 
BRANCH   4   5
ATOM      5  C   UNL     1      63.947  25.902  24.444  1.00  0.00     0.041 C 
ATOM      6  O   UNL     1      65.205  25.940  24.398  1.00  0.00    -0.550 OA
ATOM      7  O   UNL     1      63.241  25.244  23.444  1.00  0.00    -0.550 OA
ENDBRANCH   4   5
ENDBRANCH   3   4
ENDBRANCH   2   3
ENDBRANCH   1   2
BRANCH   1   8
ATOM      8  C   UNL     1      63.394  30.237  25.300  1.00  0.00     0.000 C 
BRANCH   8   9
ATOM      9  C   UNL     1      63.866  30.360  26.766  1.00  0.00     0.000 C 
BRANCH   9  10
ATOM     10  C   UNL     1      62.735  30.163  27.793  1.00  0.00     0.006 C 
BRANCH  10  11
ATOM     11  C   UNL     1      62.855  28.870  28.612  1.00  0.00     0.053 C 
BRANCH  11  12
ATOM     12  C   UNL     1      61.549  28.140  28.698  1.00  0.00     0.041 C 
ATOM     13  O   UNL     1      60.472  28.782  28.824  1.00  0.00    -0.550 OA
ATOM     14  O   UNL     1      61.516  26.754  28.617  1.00  0.00    -0.550 OA
ENDBRANCH  11  12
ENDBRANCH  10  11
ENDBRANCH   9  10
ENDBRANCH   8   9
ENDBRANCH   1   8
TORSDOF 9
ENDMDL
MODEL 6
REMARK VINA RESULT:    -4.393     11.658     13.702
REMARK INTER + INTRA:          -7.603
REMARK INTER:                  -6.722
REMARK INTRA:                  -0.882
REMARK UNBOUND:                -0.899
REMARK SMILES O=C([O-])CCCCCCCCC(=O)[O-]
REMARK SMILES IDX 7 1 6 2 5 3 4 4 2 5 1 6 3 7 8 8 9 9 10 10 11 11 12 12 13 13
REMARK SMILES IDX 14 14
REMARK H PARENT
REMARK Flexibility Score: inf
ROOT
ATOM      1  C   UNL     1      63.638  30.785  13.169  1.00  0.00     0.000 C 
ENDROOT
BRANCH   1   2
ATOM      2  C   UNL     1      62.547  31.746  12.681  1.00  0.00     0.000 C 
BRANCH   2   3
ATOM      3  C   UNL     1      62.530  33.031  13.521  1.00  0.00     0.006 C 
BRANCH   3   4
ATOM      4  C   UNL     1      61.104  33.488  13.856  1.00  0.00     0.053 C 
BRANCH   4   5
ATOM      5  C   UNL     1      60.333  32.424  14.575  1.00  0.00     0.041 C 
ATOM      6  O   UNL     1      59.262  31.978  14.084  1.00  0.00    -0.550 OA
ATOM      7  O   UNL     1      60.777  31.952  15.803  1.00  0.00    -0.550 OA
ENDBRANCH   4   5
ENDBRANCH   3   4
ENDBRANCH   2   3
ENDBRANCH   1   2
BRANCH   1   8
ATOM      8  C   UNL     1      63.136  29.334  13.172  1.00  0.00     0.000 C 
BRANCH   8   9
ATOM      9  C   UNL     1      61.668  29.224  13.642  1.00  0.00     0.000 C 
BRANCH   9  10
ATOM     10  C   UNL     1      60.788  28.370  12.710  1.00  0.00     0.006 C 
BRANCH  10  11
ATOM     11  C   UNL     1      59.966  29.188  11.704  1.00  0.00     0.053 C 
BRANCH  11  12
ATOM     12  C   UNL     1      60.581  29.173  10.338  1.00  0.00     0.041 C 
ATOM     13  O   UNL     1      60.205  30.001   9.466  1.00  0.00    -0.550 OA
ATOM     14  O   UNL     1      61.584  28.262  10.031  1.00  0.00    -0.550 OA
ENDBRANCH  11  12
ENDBRANCH  10  11
ENDBRANCH   9  10
ENDBRANCH   8   9
ENDBRANCH   1   8
TORSDOF 9
ENDMDL
MODEL 7
REMARK VINA RESULT:    -4.318      1.997      3.078
REMARK INTER + INTRA:          -7.488
REMARK INTER:                  -6.350
REMARK INTRA:                  -1.138
REMARK UNBOUND:                -0.899
REMARK SMILES O=C([O-])CCCCCCCCC(=O)[O-]
REMARK SMILES IDX 7 1 6 2 5 3 4 4 2 5 1 6 3 7 8 8 9 9 10 10 11 11 12 12 13 13
REMARK SMILES IDX 14 14
REMARK H PARENT
REMARK Flexibility Score: inf
ROOT
ATOM      1  C   UNL     1      65.248  28.507  24.997  1.00  0.00     0.000 C 
ENDROOT
BRANCH   1   2
ATOM      2  C   UNL     1      64.951  27.002  24.980  1.00  0.00     0.000 C 
BRANCH   2   3
ATOM      3  C   UNL     1      63.566  26.708  25.573  1.00  0.00     0.006 C 
BRANCH   3   4
ATOM      4  C   UNL     1      62.461  26.728  24.509  1.00  0.00     0.053 C 
BRANCH   4   5
ATOM      5  C   UNL     1      61.537  27.893  24.687  1.00  0.00     0.041 C 
ATOM      6  O   UNL     1      61.844  29.022  24.221  1.00  0.00    -0.550 OA
ATOM      7  O   UNL     1      60.353  27.740  25.398  1.00  0.00    -0.550 OA
ENDBRANCH   4   5
ENDBRANCH   3   4
ENDBRANCH   2   3
ENDBRANCH   1   2
BRANCH   1   8
ATOM      8  C   UNL     1      65.064  29.090  26.406  1.00  0.00     0.000 C 
BRANCH   8   9
ATOM      9  C   UNL     1      64.125  30.316  26.414  1.00  0.00     0.000 C 
BRANCH   9  10
ATOM     10  C   UNL     1      62.935  30.171  27.381  1.00  0.00     0.006 C 
BRANCH  10  11
ATOM     11  C   UNL     1      63.090  29.031  28.397  1.00  0.00     0.053 C 
BRANCH  11  12
ATOM     12  C   UNL     1      61.821  28.252  28.562  1.00  0.00     0.041 C 
ATOM     13  O   UNL     1      61.847  26.992  28.561  1.00  0.00    -0.550 OA
ATOM     14  O   UNL     1      60.612  28.913  28.739  1.00  0.00    -0.550 OA
ENDBRANCH  11  12
ENDBRANCH  10  11
ENDBRANCH   9  10
ENDBRANCH   8   9
ENDBRANCH   1   8
TORSDOF 9
ENDMDL
MODEL 8
REMARK VINA RESULT:    -4.316     11.849     13.126
REMARK INTER + INTRA:          -7.486
REMARK INTER:                  -6.489
REMARK INTRA:                  -0.997
REMARK UNBOUND:                -0.899
REMARK SMILES O=C([O-])CCCCCCCCC(=O)[O-]
REMARK SMILES IDX 7 1 6 2 5 3 4 4 2 5 1 6 3 7 8 8 9 9 10 10 11 11 12 12 13 13
REMARK SMILES IDX 14 14
REMARK H PARENT
REMARK Flexibility Score: inf
ROOT
ATOM      1  C   UNL     1      64.045  30.209  12.924  1.00  0.00     0.000 C 
ENDROOT
BRANCH   1   2
ATOM      2  C   UNL     1      63.140  28.995  12.682  1.00  0.00     0.000 C 
BRANCH   2   3
ATOM      3  C   UNL     1      61.807  29.145  13.430  1.00  0.00     0.006 C 
BRANCH   3   4
ATOM      4  C   UNL     1      60.625  28.584  12.629  1.00  0.00     0.053 C 
BRANCH   4   5
ATOM      5  C   UNL     1      60.543  29.186  11.260  1.00  0.00     0.041 C 
ATOM      6  O   UNL     1      60.277  30.409  11.122  1.00  0.00    -0.550 OA
ATOM      7  O   UNL     1      60.727  28.390  10.137  1.00  0.00    -0.550 OA
ENDBRANCH   4   5
ENDBRANCH   3   4
ENDBRANCH   2   3
ENDBRANCH   1   2
BRANCH   1   8
ATOM      8  C   UNL     1      63.596  31.411  12.081  1.00  0.00     0.000 C 
BRANCH   8   9
ATOM      9  C   UNL     1      63.848  32.756  12.798  1.00  0.00     0.000 C 
BRANCH   9  10
ATOM     10  C   UNL     1      62.763  33.114  13.831  1.00  0.00     0.006 C 
BRANCH  10  11
ATOM     11  C   UNL     1      61.328  32.960  13.308  1.00  0.00     0.053 C 
BRANCH  11  12
ATOM     12  C   UNL     1      60.422  32.348  14.332  1.00  0.00     0.041 C 
ATOM     13  O   UNL     1      59.276  31.944  14.003  1.00  0.00    -0.550 OA
ATOM     14  O   UNL     1      60.849  32.201  15.646  1.00  0.00    -0.550 OA
ENDBRANCH  11  12
ENDBRANCH  10  11
ENDBRANCH   9  10
ENDBRANCH   8   9
ENDBRANCH   1   8
TORSDOF 9
ENDMDL
MODEL 9
REMARK VINA RESULT:    -4.298      1.717      4.539
REMARK INTER + INTRA:          -7.458
REMARK INTER:                  -6.688
REMARK INTRA:                  -0.769
REMARK UNBOUND:                -0.899
REMARK SMILES O=C([O-])CCCCCCCCC(=O)[O-]
REMARK SMILES IDX 7 1 6 2 5 3 4 4 2 5 1 6 3 7 8 8 9 9 10 10 11 11 12 12 13 13
REMARK SMILES IDX 14 14
REMARK H PARENT
REMARK Flexibility Score: inf
ROOT
ATOM      1  C   UNL     1      63.307  30.459  25.344  1.00  0.00     0.000 C 
ENDROOT
BRANCH   1   2
ATOM      2  C   UNL     1      63.831  29.852  26.651  1.00  0.00     0.000 C 
BRANCH   2   3
ATOM      3  C   UNL     1      62.937  30.243  27.837  1.00  0.00     0.006 C 
BRANCH   3   4
ATOM      4  C   UNL     1      62.909  29.161  28.924  1.00  0.00     0.053 C 
BRANCH   4   5
ATOM      5  C   UNL     1      61.670  28.322  28.843  1.00  0.00     0.041 C 
ATOM      6  O   UNL     1      60.538  28.870  28.789  1.00  0.00    -0.550 OA
ATOM      7  O   UNL     1      61.765  26.936  28.861  1.00  0.00    -0.550 OA
ENDBRANCH   4   5
ENDBRANCH   3   4
ENDBRANCH   2   3
ENDBRANCH   1   2
BRANCH   1   8
ATOM      8  C   UNL     1      62.700  29.379  24.437  1.00  0.00     0.000 C 
BRANCH   8   9
ATOM      9  C   UNL     1      61.491  28.675  25.094  1.00  0.00     0.000 C 
BRANCH   9  10
ATOM     10  C   UNL     1      61.573  27.138  25.042  1.00  0.00     0.006 C 
BRANCH  10  11
ATOM     11  C   UNL     1      62.857  26.560  25.653  1.00  0.00     0.053 C 
BRANCH  11  12
ATOM     12  C   UNL     1      63.731  25.921  24.617  1.00  0.00     0.041 C 
ATOM     13  O   UNL     1      64.981  26.059  24.671  1.00  0.00    -0.550 OA
ATOM     14  O   UNL     1      63.169  25.154  23.604  1.00  0.00    -0.550 OA
ENDBRANCH  11  12
ENDBRANCH  10  11
ENDBRANCH   9  10
ENDBRANCH   8   9
ENDBRANCH   1   8
TORSDOF 9
ENDMDL
