MODEL 1
REMARK VINA RESULT:    -3.484      0.000      0.000
REMARK INTER + INTRA:          -3.249
REMARK INTER:                  -4.299
REMARK INTRA:                   1.050
REMARK UNBOUND:                 1.050
REMARK SMILES CC1=CC=CC(C)(C)CC1=O
REMARK SMILES IDX 1 1 2 2 3 3 10 4 11 5 9 6 4 8 5 9 6 10 7 11 8 12
REMARK H PARENT
REMARK Flexibility Score: 80.00
ROOT
ATOM      1  C   UNL     1       4.121  27.278  18.252  1.00  0.00     0.048 C 
ATOM      2  C   UNL     1       4.271  28.277  19.375  1.00  0.00    -0.008 C 
ATOM      3  C   UNL     1       3.371  28.228  20.380  1.00  0.00     0.007 C 
ENDROOT
BRANCH   2   4
ATOM      4  C   UNL     1       5.444  29.184  19.320  1.00  0.00     0.159 C 
ATOM      5  O   UNL     1       6.062  29.314  18.228  1.00  0.00    -0.295 OA
BRANCH   4   6
ATOM      6  C   UNL     1       5.933  29.974  20.494  1.00  0.00     0.091 CG0
ATOM      7  G   UNL     1       4.871  30.939  21.065  1.00  0.00     0.000 G0
ENDBRANCH   4   6
ENDBRANCH   2   4
BRANCH   3   8
ATOM      8  C   UNL     1       3.275  29.046  21.612  1.00  0.00    -0.003 C 
ATOM      9  C   UNL     1       3.906  30.187  21.920  1.00  0.00    -0.020 C 
BRANCH   9  10
ATOM     10  C   UNL     1       4.873  30.942  21.039  1.00  0.00    -0.010 CG0
ATOM     11  C   UNL     1       4.085  31.531  19.847  1.00  0.00     0.016 C 
ATOM     12  C   UNL     1       5.497  32.117  21.826  1.00  0.00     0.016 C 
ATOM     13  G   UNL     1       5.935  29.970  20.479  1.00  0.00     0.000 G0
ENDBRANCH   9  10
ENDBRANCH   3   8
TORSDOF 0
ENDMDL
MODEL 2
REMARK VINA RESULT:    -3.442     18.173     18.894
REMARK INTER + INTRA:          -3.196
REMARK INTER:                  -4.259
REMARK INTRA:                   1.063
REMARK UNBOUND:                 1.050
REMARK SMILES CC1=CC=CC(C)(C)CC1=O
REMARK SMILES IDX 1 1 2 2 3 3 10 4 11 5 9 6 4 8 5 9 6 10 7 11 8 12
REMARK H PARENT
REMARK Flexibility Score: 80.00
ROOT
ATOM      1  C   UNL     1      17.256  21.606  30.624  1.00  0.00     0.048 C 
ATOM      2  C   UNL     1      17.505  22.506  31.811  1.00  0.00    -0.008 C 
ATOM      3  C   UNL     1      18.046  21.948  32.917  1.00  0.00     0.007 C 
ENDROOT
BRANCH   2   4
ATOM      4  C   UNL     1      17.204  23.949  31.641  1.00  0.00     0.159 C 
ATOM      5  O   UNL     1      16.497  24.311  30.661  1.00  0.00    -0.295 OA
BRANCH   4   6
ATOM      6  C   UNL     1      17.685  25.010  32.582  1.00  0.00     0.091 CG0
ATOM      7  G   UNL     1      17.203  24.800  34.034  1.00  0.00     0.000 G0
ENDBRANCH   4   6
ENDBRANCH   2   4
BRANCH   3   8
ATOM      8  C   UNL     1      18.424  22.569  34.208  1.00  0.00    -0.003 C 
ATOM      9  C   UNL     1      18.093  23.772  34.696  1.00  0.00    -0.020 C 
BRANCH   9  10
ATOM     10  C   UNL     1      17.204  24.796  34.030  1.00  0.00    -0.010 CG0
ATOM     11  C   UNL     1      15.764  24.235  33.990  1.00  0.00     0.016 C 
ATOM     12  C   UNL     1      17.185  26.099  34.862  1.00  0.00     0.016 C 
ATOM     13  G   UNL     1      17.671  25.024  32.575  1.00  0.00     0.000 G0
ENDBRANCH   9  10
ENDBRANCH   3   8
TORSDOF 0
ENDMDL
MODEL 3
REMARK VINA RESULT:    -3.430      1.423      2.383
REMARK INTER + INTRA:          -3.182
REMARK INTER:                  -4.214
REMARK INTRA:                   1.032
REMARK UNBOUND:                 1.050
REMARK SMILES CC1=CC=CC(C)(C)CC1=O
REMARK SMILES IDX 1 1 2 2 3 3 10 4 11 5 9 6 4 8 5 9 6 10 7 11 8 12
REMARK H PARENT
REMARK Flexibility Score: 80.00
ROOT
ATOM      1  C   UNL     1       3.002  28.026  21.974  1.00  0.00     0.048 C 
ATOM      2  C   UNL     1       4.031  29.010  21.469  1.00  0.00    -0.008 C 
ATOM      3  C   UNL     1       4.481  29.945  22.334  1.00  0.00     0.007 C 
ENDROOT
BRANCH   2   4
ATOM      4  C   UNL     1       4.522  28.822  20.081  1.00  0.00     0.159 C 
ATOM      5  O   UNL     1       3.878  28.063  19.306  1.00  0.00    -0.295 OA
BRANCH   4   6
ATOM      6  C   UNL     1       5.742  29.500  19.537  1.00  0.00     0.091 CG0
ATOM      7  G   UNL     1       5.667  31.041  19.610  1.00  0.00     0.000 G0
ENDBRANCH   4   6
ENDBRANCH   2   4
BRANCH   3   8
ATOM      8  C   UNL     1       5.492  31.011  22.142  1.00  0.00    -0.003 C 
ATOM      9  C   UNL     1       6.017  31.482  21.004  1.00  0.00    -0.020 C 
BRANCH   9  10
ATOM     10  C   UNL     1       5.667  31.037  19.604  1.00  0.00    -0.010 CG0
ATOM     11  C   UNL     1       4.218  31.485  19.301  1.00  0.00     0.016 C 
ATOM     12  C   UNL     1       6.601  31.725  18.582  1.00  0.00     0.016 C 
ATOM     13  G   UNL     1       5.721  29.496  19.518  1.00  0.00     0.000 G0
ENDBRANCH   9  10
ENDBRANCH   3   8
TORSDOF 0
ENDMDL
MODEL 4
REMARK VINA RESULT:    -3.313     18.252     19.010
REMARK INTER + INTRA:          -3.038
REMARK INTER:                  -3.784
REMARK INTRA:                   0.746
REMARK UNBOUND:                 1.050
REMARK SMILES CC1=CC=CC(C)(C)CC1=O
REMARK SMILES IDX 1 1 2 2 3 3 10 4 11 5 9 6 4 8 5 9 6 10 7 11 8 12
REMARK H PARENT
REMARK Flexibility Score: 80.00
ROOT
ATOM      1  C   UNL     1      18.185  21.401  32.537  1.00  0.00     0.048 C 
ATOM      2  C   UNL     1      17.777  22.848  32.679  1.00  0.00    -0.008 C 
ATOM      3  C   UNL     1      17.177  23.436  31.621  1.00  0.00     0.007 C 
ENDROOT
BRANCH   2   4
ATOM      4  C   UNL     1      18.000  23.487  34.000  1.00  0.00     0.159 C 
ATOM      5  O   UNL     1      18.315  22.760  34.981  1.00  0.00    -0.295 OA
BRANCH   4   6
ATOM      6  C   UNL     1      17.885  24.962  34.234  1.00  0.00     0.091 CG0
ATOM      7  G   UNL     1      16.485  25.524  33.904  1.00  0.00     0.000 G0
ENDBRANCH   4   6
ENDBRANCH   2   4
BRANCH   3   8
ATOM      8  C   UNL     1      16.648  24.812  31.470  1.00  0.00    -0.003 C 
ATOM      9  C   UNL     1      16.338  25.706  32.417  1.00  0.00    -0.020 C 
BRANCH   9  10
ATOM     10  C   UNL     1      16.486  25.519  33.909  1.00  0.00    -0.010 CG0
ATOM     11  C   UNL     1      16.368  26.905  34.585  1.00  0.00     0.016 C 
ATOM     12  C   UNL     1      15.342  24.628  34.446  1.00  0.00     0.016 C 
ATOM     13  G   UNL     1      17.886  24.948  34.227  1.00  0.00     0.000 G0
ENDBRANCH   9  10
ENDBRANCH   3   8
TORSDOF 0
ENDMDL
MODEL 5
REMARK VINA RESULT:    -3.043     11.344     12.377
REMARK INTER + INTRA:          -2.704
REMARK INTER:                  -3.462
REMARK INTRA:                   0.758
REMARK UNBOUND:                 1.050
REMARK SMILES CC1=CC=CC(C)(C)CC1=O
REMARK SMILES IDX 1 1 2 2 3 3 10 4 11 5 9 6 4 8 5 9 6 10 7 11 8 12
REMARK H PARENT
REMARK Flexibility Score: 80.00
ROOT
ATOM      1  C   UNL     1      12.725  27.275  23.820  1.00  0.00     0.048 C 
ATOM      2  C   UNL     1      13.669  26.958  24.956  1.00  0.00    -0.008 C 
ATOM      3  C   UNL     1      14.140  25.695  25.045  1.00  0.00     0.007 C 
ENDROOT
BRANCH   2   4
ATOM      4  C   UNL     1      14.063  28.082  25.841  1.00  0.00     0.159 C 
ATOM      5  O   UNL     1      13.768  29.259  25.497  1.00  0.00    -0.295 OA
BRANCH   4   6
ATOM      6  C   UNL     1      14.786  27.897  27.140  1.00  0.00     0.091 CG0
ATOM      7  G   UNL     1      16.156  27.204  26.981  1.00  0.00     0.000 G0
ENDBRANCH   4   6
ENDBRANCH   2   4
BRANCH   3   8
ATOM      8  C   UNL     1      15.086  25.098  26.017  1.00  0.00    -0.003 C 
ATOM      9  C   UNL     1      15.956  25.708  26.832  1.00  0.00    -0.020 C 
BRANCH   9  10
ATOM     10  C   UNL     1      16.161  27.198  26.971  1.00  0.00    -0.010 CG0
ATOM     11  C   UNL     1      16.981  27.456  28.256  1.00  0.00     0.016 C 
ATOM     12  C   UNL     1      16.975  27.733  25.771  1.00  0.00     0.016 C 
ATOM     13  G   UNL     1      14.794  27.900  27.125  1.00  0.00     0.000 G0
ENDBRANCH   9  10
ENDBRANCH   3   8
TORSDOF 0
ENDMDL
MODEL 6
REMARK VINA RESULT:    -2.971     12.555     13.577
REMARK INTER + INTRA:          -2.615
REMARK INTER:                  -3.380
REMARK INTRA:                   0.765
REMARK UNBOUND:                 1.050
REMARK SMILES CC1=CC=CC(C)(C)CC1=O
REMARK SMILES IDX 1 1 2 2 3 3 10 4 11 5 9 6 4 8 5 9 6 10 7 11 8 12
REMARK H PARENT
REMARK Flexibility Score: 80.00
ROOT
ATOM      1  C   UNL     1      13.639  25.909  24.624  1.00  0.00     0.048 C 
ATOM      2  C   UNL     1      14.819  26.127  25.541  1.00  0.00    -0.008 C 
ATOM      3  C   UNL     1      15.913  26.727  25.022  1.00  0.00     0.007 C 
ENDROOT
BRANCH   2   4
ATOM      4  C   UNL     1      14.653  25.733  26.962  1.00  0.00     0.159 C 
ATOM      5  O   UNL     1      13.507  25.401  27.371  1.00  0.00    -0.295 OA
BRANCH   4   6
ATOM      6  C   UNL     1      15.782  25.693  27.946  1.00  0.00     0.091 CG0
ATOM      7  G   UNL     1      16.501  27.051  28.103  1.00  0.00     0.000 G0
ENDBRANCH   4   6
ENDBRANCH   2   4
BRANCH   3   8
ATOM      8  C   UNL     1      17.194  27.094  25.669  1.00  0.00    -0.003 C 
ATOM      9  C   UNL     1      17.469  27.248  26.970  1.00  0.00    -0.020 C 
BRANCH   9  10
ATOM     10  C   UNL     1      16.509  27.050  28.119  1.00  0.00    -0.010 CG0
ATOM     11  C   UNL     1      17.326  27.000  29.431  1.00  0.00     0.016 C 
ATOM     12  C   UNL     1      15.538  28.250  28.208  1.00  0.00     0.016 C 
ATOM     13  G   UNL     1      15.776  25.700  27.959  1.00  0.00     0.000 G0
ENDBRANCH   9  10
ENDBRANCH   3   8
TORSDOF 0
ENDMDL
MODEL 7
REMARK VINA RESULT:    -2.814      8.858      9.846
REMARK INTER + INTRA:          -2.422
REMARK INTER:                  -3.176
REMARK INTRA:                   0.754
REMARK UNBOUND:                 1.050
REMARK SMILES CC1=CC=CC(C)(C)CC1=O
REMARK SMILES IDX 1 1 2 2 3 3 10 4 11 5 9 6 4 8 5 9 6 10 7 11 8 12
REMARK H PARENT
REMARK Flexibility Score: 80.00
ROOT
ATOM      1  C   UNL     1      14.382  25.607  25.146  1.00  0.00     0.048 C 
ATOM      2  C   UNL     1      13.747  26.923  24.760  1.00  0.00    -0.008 C 
ATOM      3  C   UNL     1      12.746  26.893  23.854  1.00  0.00     0.007 C 
ENDROOT
BRANCH   2   4
ATOM      4  C   UNL     1      14.227  28.137  25.467  1.00  0.00     0.159 C 
ATOM      5  O   UNL     1      14.983  27.999  26.466  1.00  0.00    -0.295 OA
BRANCH   4   6
ATOM      6  C   UNL     1      13.872  29.530  25.047  1.00  0.00     0.091 CG0
ATOM      7  G   UNL     1      12.352  29.800  25.051  1.00  0.00     0.000 G0
ENDBRANCH   4   6
ENDBRANCH   2   4
BRANCH   3   8
ATOM      8  C   UNL     1      11.925  27.999  23.307  1.00  0.00    -0.003 C 
ATOM      9  C   UNL     1      11.734  29.231  23.795  1.00  0.00    -0.020 C 
BRANCH   9  10
ATOM     10  C   UNL     1      12.355  29.805  25.047  1.00  0.00    -0.010 CG0
ATOM     11  C   UNL     1      12.154  31.338  25.028  1.00  0.00     0.016 C 
ATOM     12  C   UNL     1      11.637  29.246  26.297  1.00  0.00     0.016 C 
ATOM     13  G   UNL     1      13.873  29.520  25.054  1.00  0.00     0.000 G0
ENDBRANCH   9  10
ENDBRANCH   3   8
TORSDOF 0
ENDMDL
MODEL 8
REMARK VINA RESULT:    -2.758      9.800     10.868
REMARK INTER + INTRA:          -2.352
REMARK INTER:                  -3.103
REMARK INTRA:                   0.751
REMARK UNBOUND:                 1.050
REMARK SMILES CC1=CC=CC(C)(C)CC1=O
REMARK SMILES IDX 1 1 2 2 3 3 10 4 11 5 9 6 4 8 5 9 6 10 7 11 8 12
REMARK H PARENT
REMARK Flexibility Score: 80.00
ROOT
ATOM      1  C   UNL     1      11.462  28.480  23.259  1.00  0.00     0.048 C 
ATOM      2  C   UNL     1      12.315  27.803  24.307  1.00  0.00    -0.008 C 
ATOM      3  C   UNL     1      12.908  26.637  23.972  1.00  0.00     0.007 C 
ENDROOT
BRANCH   2   4
ATOM      4  C   UNL     1      12.493  28.515  25.597  1.00  0.00     0.159 C 
ATOM      5  O   UNL     1      12.113  29.714  25.687  1.00  0.00    -0.295 OA
BRANCH   4   6
ATOM      6  C   UNL     1      13.092  27.881  26.814  1.00  0.00     0.091 CG0
ATOM      7  G   UNL     1      14.533  27.371  26.590  1.00  0.00     0.000 G0
ENDBRANCH   4   6
ENDBRANCH   2   4
BRANCH   3   8
ATOM      8  C   UNL     1      13.810  25.766  24.764  1.00  0.00    -0.003 C 
ATOM      9  C   UNL     1      14.514  26.059  25.864  1.00  0.00    -0.020 C 
BRANCH   9  10
ATOM     10  C   UNL     1      14.532  27.383  26.592  1.00  0.00    -0.010 CG0
ATOM     11  C   UNL     1      15.174  27.163  27.981  1.00  0.00     0.016 C 
ATOM     12  C   UNL     1      15.405  28.398  25.819  1.00  0.00     0.016 C 
ATOM     13  G   UNL     1      13.086  27.880  26.804  1.00  0.00     0.000 G0
ENDBRANCH   9  10
ENDBRANCH   3   8
TORSDOF 0
ENDMDL
MODEL 9
REMARK VINA RESULT:    -2.755     11.942     12.937
REMARK INTER + INTRA:          -2.349
REMARK INTER:                  -3.094
REMARK INTRA:                   0.746
REMARK UNBOUND:                 1.050
REMARK SMILES CC1=CC=CC(C)(C)CC1=O
REMARK SMILES IDX 1 1 2 2 3 3 10 4 11 5 9 6 4 8 5 9 6 10 7 11 8 12
REMARK H PARENT
REMARK Flexibility Score: 80.00
ROOT
ATOM      1  C   UNL     1      17.001  26.504  24.946  1.00  0.00     0.048 C 
ATOM      2  C   UNL     1      16.198  26.384  26.220  1.00  0.00    -0.008 C 
ATOM      3  C   UNL     1      16.729  26.906  27.347  1.00  0.00     0.007 C 
ENDROOT
BRANCH   2   4
ATOM      4  C   UNL     1      14.852  25.768  26.114  1.00  0.00     0.159 C 
ATOM      5  O   UNL     1      14.372  25.549  24.968  1.00  0.00    -0.295 OA
BRANCH   4   6
ATOM      6  C   UNL     1      14.027  25.375  27.301  1.00  0.00     0.091 CG0
ATOM      7  G   UNL     1      13.706  26.559  28.239  1.00  0.00     0.000 G0
ENDBRANCH   4   6
ENDBRANCH   2   4
BRANCH   3   8
ATOM      8  C   UNL     1      16.176  26.965  28.720  1.00  0.00    -0.003 C 
ATOM      9  C   UNL     1      14.907  26.831  29.126  1.00  0.00    -0.020 C 
BRANCH   9  10
ATOM     10  C   UNL     1      13.710  26.552  28.249  1.00  0.00    -0.010 CG0
ATOM     11  C   UNL     1      12.536  26.117  29.156  1.00  0.00     0.016 C 
ATOM     12  C   UNL     1      13.286  27.841  27.508  1.00  0.00     0.016 C 
ATOM     13  G   UNL     1      14.029  25.389  27.285  1.00  0.00     0.000 G0
ENDBRANCH   9  10
ENDBRANCH   3   8
TORSDOF 0
ENDMDL
