MODEL 1
REMARK VINA RESULT:    -5.764      0.000      0.000
REMARK INTER + INTRA:         -10.314
REMARK INTER:                  -8.796
REMARK INTRA:                  -1.517
REMARK UNBOUND:                -1.517
REMARK SMILES CC(=O)CCC=C(C)CCC=C(C)CCC=C(C)C
REMARK SMILES IDX 10 1 11 2 12 3 13 4 14 5 15 6 16 7 18 8 17 9 19 10 9 11 7 12
REMARK SMILES IDX 6 13 8 14 5 15 4 16 2 17 3 18 1 19
REMARK H PARENT
REMARK Flexibility Score: inf
ROOT
ATOM      1  C   UNL     1       2.419   2.280  15.830  1.00  0.00     0.032 C 
ENDROOT
BRANCH   1   2
ATOM      2  C   UNL     1       2.093   2.415  17.296  1.00  0.00    -0.028 C 
ATOM      3  C   UNL     1       0.850   2.285  17.816  1.00  0.00    -0.077 C 
ATOM      4  C   UNL     1      -0.339   1.917  16.959  1.00  0.00     0.039 C 
BRANCH   3   5
ATOM      5  C   UNL     1       0.650   2.494  19.301  1.00  0.00     0.034 C 
BRANCH   5   6
ATOM      6  C   UNL     1       1.279   3.818  19.752  1.00  0.00     0.032 C 
BRANCH   6   7
ATOM      7  C   UNL     1       0.506   4.991  19.203  1.00  0.00    -0.028 C 
ATOM      8  C   UNL     1       0.127   7.038  17.897  1.00  0.00     0.039 C 
ATOM      9  C   UNL     1       1.032   5.944  18.402  1.00  0.00    -0.080 C 
ATOM     10  C   UNL     1       2.494   5.951  18.018  1.00  0.00     0.039 C 
ENDBRANCH   6   7
ENDBRANCH   5   6
ENDBRANCH   3   5
ENDBRANCH   1   2
BRANCH   1  11
ATOM     11  C   UNL     1       3.362   3.401  15.380  1.00  0.00     0.034 C 
BRANCH  11  12
ATOM     12  C   UNL     1       3.898   3.127  13.991  1.00  0.00    -0.077 C 
ATOM     13  C   UNL     1       4.207   4.173  13.191  1.00  0.00    -0.028 C 
ATOM     14  C   UNL     1       4.093   1.697  13.546  1.00  0.00     0.039 C 
BRANCH  13  15
ATOM     15  C   UNL     1       4.703   4.045  11.772  1.00  0.00     0.035 C 
BRANCH  15  16
ATOM     16  C   UNL     1       3.752   4.763  10.803  1.00  0.00     0.079 C 
BRANCH  16  17
ATOM     17  C   UNL     1       2.380   4.135  10.694  1.00  0.00     0.130 C 
ATOM     18  O   UNL     1       2.293   3.016  10.213  1.00  0.00    -0.300 OA
ATOM     19  C   UNL     1       1.124   4.827  11.145  1.00  0.00     0.087 C 
ENDBRANCH  16  17
ENDBRANCH  15  16
ENDBRANCH  13  15
ENDBRANCH  11  12
ENDBRANCH   1  11
TORSDOF 9
ENDMDL
MODEL 2
REMARK VINA RESULT:    -5.738      2.757      7.025
REMARK INTER + INTRA:         -10.274
REMARK INTER:                  -9.033
REMARK INTRA:                  -1.241
REMARK UNBOUND:                -1.517
REMARK SMILES CC(=O)CCC=C(C)CCC=C(C)CCC=C(C)C
REMARK SMILES IDX 10 1 11 2 12 3 13 4 14 5 15 6 16 7 18 8 17 9 19 10 9 11 7 12
REMARK SMILES IDX 6 13 8 14 5 15 4 16 2 17 3 18 1 19
REMARK H PARENT
REMARK Flexibility Score: inf
ROOT
ATOM      1  C   UNL     1       2.280   4.370  17.526  1.00  0.00     0.032 C 
ENDROOT
BRANCH   1   2
ATOM      2  C   UNL     1       3.057   4.112  16.259  1.00  0.00    -0.028 C 
ATOM      3  C   UNL     1       2.957   2.982  15.520  1.00  0.00    -0.077 C 
ATOM      4  C   UNL     1       1.984   1.881  15.874  1.00  0.00     0.039 C 
BRANCH   3   5
ATOM      5  C   UNL     1       3.831   2.826  14.296  1.00  0.00     0.034 C 
BRANCH   5   6
ATOM      6  C   UNL     1       3.752   4.075  13.410  1.00  0.00     0.032 C 
BRANCH   6   7
ATOM      7  C   UNL     1       2.424   4.143  12.699  1.00  0.00    -0.028 C 
ATOM      8  C   UNL     1       0.873   4.561  10.839  1.00  0.00     0.039 C 
ATOM      9  C   UNL     1       2.257   4.588  11.434  1.00  0.00    -0.080 C 
ATOM     10  C   UNL     1       3.409   5.122  10.614  1.00  0.00     0.039 C 
ENDBRANCH   6   7
ENDBRANCH   5   6
ENDBRANCH   3   5
ENDBRANCH   1   2
BRANCH   1  11
ATOM     11  C   UNL     1       2.175   5.875  17.798  1.00  0.00     0.034 C 
BRANCH  11  12
ATOM     12  C   UNL     1       0.759   6.254  18.173  1.00  0.00    -0.077 C 
ATOM     13  C   UNL     1       0.103   5.508  19.091  1.00  0.00    -0.028 C 
ATOM     14  C   UNL     1       0.126   7.467  17.530  1.00  0.00     0.039 C 
BRANCH  13  15
ATOM     15  C   UNL     1      -1.324   5.744  19.521  1.00  0.00     0.035 C 
BRANCH  15  16
ATOM     16  C   UNL     1      -2.282   4.846  18.724  1.00  0.00     0.079 C 
BRANCH  16  17
ATOM     17  C   UNL     1      -1.936   3.373  18.765  1.00  0.00     0.130 C 
ATOM     18  O   UNL     1      -2.079   2.775  19.820  1.00  0.00    -0.300 OA
ATOM     19  C   UNL     1      -1.421   2.619  17.571  1.00  0.00     0.087 C 
ENDBRANCH  16  17
ENDBRANCH  15  16
ENDBRANCH  13  15
ENDBRANCH  11  12
ENDBRANCH   1  11
TORSDOF 9
ENDMDL
MODEL 3
REMARK VINA RESULT:    -5.638      1.809      3.684
REMARK INTER + INTRA:         -10.122
REMARK INTER:                  -8.943
REMARK INTRA:                  -1.179
REMARK UNBOUND:                -1.517
REMARK SMILES CC(=O)CCC=C(C)CCC=C(C)CCC=C(C)C
REMARK SMILES IDX 10 1 11 2 12 3 13 4 14 5 15 6 16 7 18 8 17 9 19 10 9 11 7 12
REMARK SMILES IDX 6 13 8 14 5 15 4 16 2 17 3 18 1 19
REMARK H PARENT
REMARK Flexibility Score: inf
ROOT
ATOM      1  C   UNL     1       2.010   4.877  17.978  1.00  0.00     0.032 C 
ENDROOT
BRANCH   1   2
ATOM      2  C   UNL     1       0.829   5.327  18.802  1.00  0.00    -0.028 C 
ATOM      3  C   UNL     1       0.038   6.379  18.489  1.00  0.00    -0.077 C 
ATOM      4  C   UNL     1       0.234   7.175  17.220  1.00  0.00     0.039 C 
BRANCH   3   5
ATOM      5  C   UNL     1      -1.086   6.757  19.428  1.00  0.00     0.034 C 
BRANCH   5   6
ATOM      6  C   UNL     1      -2.347   5.939  19.122  1.00  0.00     0.032 C 
BRANCH   6   7
ATOM      7  C   UNL     1      -2.308   4.612  19.837  1.00  0.00    -0.028 C 
ATOM      8  C   UNL     1      -2.019   2.184  20.085  1.00  0.00     0.039 C 
ATOM      9  C   UNL     1      -2.065   3.427  19.235  1.00  0.00    -0.080 C 
ATOM     10  C   UNL     1      -1.858   3.315  17.742  1.00  0.00     0.039 C 
ENDBRANCH   6   7
ENDBRANCH   5   6
ENDBRANCH   3   5
ENDBRANCH   1   2
BRANCH   1  11
ATOM     11  C   UNL     1       1.971   3.361  17.760  1.00  0.00     0.034 C 
BRANCH  11  12
ATOM     12  C   UNL     1       2.773   2.974  16.537  1.00  0.00    -0.077 C 
ATOM     13  C   UNL     1       3.198   3.947  15.698  1.00  0.00    -0.028 C 
ATOM     14  C   UNL     1       3.095   1.517  16.297  1.00  0.00     0.039 C 
BRANCH  13  15
ATOM     15  C   UNL     1       3.963   3.700  14.421  1.00  0.00     0.035 C 
BRANCH  15  16
ATOM     16  C   UNL     1       3.085   4.015  13.200  1.00  0.00     0.079 C 
BRANCH  16  17
ATOM     17  C   UNL     1       3.860   4.288  11.929  1.00  0.00     0.130 C 
ATOM     18  O   UNL     1       4.951   3.757  11.791  1.00  0.00    -0.300 OA
ATOM     19  C   UNL     1       3.351   5.186  10.836  1.00  0.00     0.087 C 
ENDBRANCH  16  17
ENDBRANCH  15  16
ENDBRANCH  13  15
ENDBRANCH  11  12
ENDBRANCH   1  11
TORSDOF 9
ENDMDL
MODEL 4
REMARK VINA RESULT:    -5.599      1.478      2.817
REMARK INTER + INTRA:         -10.063
REMARK INTER:                  -8.913
REMARK INTRA:                  -1.149
REMARK UNBOUND:                -1.517
REMARK SMILES CC(=O)CCC=C(C)CCC=C(C)CCC=C(C)C
REMARK SMILES IDX 10 1 11 2 12 3 13 4 14 5 15 6 16 7 18 8 17 9 19 10 9 11 7 12
REMARK SMILES IDX 6 13 8 14 5 15 4 16 2 17 3 18 1 19
REMARK H PARENT
REMARK Flexibility Score: inf
ROOT
ATOM      1  C   UNL     1       3.105   4.105  15.827  1.00  0.00     0.032 C 
ENDROOT
BRANCH   1   2
ATOM      2  C   UNL     1       2.351   3.946  17.123  1.00  0.00    -0.028 C 
ATOM      3  C   UNL     1       2.203   4.927  18.045  1.00  0.00    -0.077 C 
ATOM      4  C   UNL     1       2.740   6.321  17.818  1.00  0.00     0.039 C 
BRANCH   3   5
ATOM      5  C   UNL     1       1.465   4.623  19.329  1.00  0.00     0.034 C 
BRANCH   5   6
ATOM      6  C   UNL     1      -0.024   4.966  19.193  1.00  0.00     0.032 C 
BRANCH   6   7
ATOM      7  C   UNL     1      -0.879   3.882  19.799  1.00  0.00    -0.028 C 
ATOM      8  C   UNL     1      -2.239   1.835  19.847  1.00  0.00     0.039 C 
ATOM      9  C   UNL     1      -1.439   2.870  19.099  1.00  0.00    -0.080 C 
ATOM     10  C   UNL     1      -1.299   2.762  17.598  1.00  0.00     0.039 C 
ENDBRANCH   6   7
ENDBRANCH   5   6
ENDBRANCH   3   5
ENDBRANCH   1   2
BRANCH   1  11
ATOM     11  C   UNL     1       3.380   2.738  15.190  1.00  0.00     0.034 C 
BRANCH  11  12
ATOM     12  C   UNL     1       3.624   2.878  13.704  1.00  0.00    -0.077 C 
ATOM     13  C   UNL     1       4.209   4.006  13.240  1.00  0.00    -0.028 C 
ATOM     14  C   UNL     1       3.230   1.747  12.783  1.00  0.00     0.039 C 
BRANCH  13  15
ATOM     15  C   UNL     1       4.468   4.297  11.782  1.00  0.00     0.035 C 
BRANCH  15  16
ATOM     16  C   UNL     1       3.902   5.673  11.399  1.00  0.00     0.079 C 
BRANCH  16  17
ATOM     17  C   UNL     1       2.608   5.620  10.617  1.00  0.00     0.130 C 
ATOM     18  O   UNL     1       2.529   6.270   9.586  1.00  0.00    -0.300 OA
ATOM     19  C   UNL     1       1.419   4.812  11.055  1.00  0.00     0.087 C 
ENDBRANCH  16  17
ENDBRANCH  15  16
ENDBRANCH  13  15
ENDBRANCH  11  12
ENDBRANCH   1  11
TORSDOF 9
ENDMDL
MODEL 5
REMARK VINA RESULT:    -5.570      2.668      5.119
REMARK INTER + INTRA:         -10.018
REMARK INTER:                  -7.891
REMARK INTRA:                  -2.126
REMARK UNBOUND:                -1.517
REMARK SMILES CC(=O)CCC=C(C)CCC=C(C)CCC=C(C)C
REMARK SMILES IDX 10 1 11 2 12 3 13 4 14 5 15 6 16 7 18 8 17 9 19 10 9 11 7 12
REMARK SMILES IDX 6 13 8 14 5 15 4 16 2 17 3 18 1 19
REMARK H PARENT
REMARK Flexibility Score: inf
ROOT
ATOM      1  C   UNL     1      -1.499   1.786  20.249  1.00  0.00     0.032 C 
ENDROOT
BRANCH   1   2
ATOM      2  C   UNL     1      -1.964   3.211  20.092  1.00  0.00    -0.028 C 
ATOM      3  C   UNL     1      -2.057   3.857  18.906  1.00  0.00    -0.077 C 
ATOM      4  C   UNL     1      -1.758   3.165  17.596  1.00  0.00     0.039 C 
BRANCH   3   5
ATOM      5  C   UNL     1      -2.491   5.306  18.890  1.00  0.00     0.034 C 
BRANCH   5   6
ATOM      6  C   UNL     1      -1.471   6.185  19.623  1.00  0.00     0.032 C 
BRANCH   6   7
ATOM      7  C   UNL     1      -0.062   5.778  19.268  1.00  0.00    -0.028 C 
ATOM      8  C   UNL     1       2.103   5.897  18.111  1.00  0.00     0.039 C 
ATOM      9  C   UNL     1       0.695   6.388  18.330  1.00  0.00    -0.080 C 
ATOM     10  C   UNL     1       0.167   7.530  17.492  1.00  0.00     0.039 C 
ENDBRANCH   6   7
ENDBRANCH   5   6
ENDBRANCH   3   5
ENDBRANCH   1   2
BRANCH   1  11
ATOM     11  C   UNL     1      -0.183   1.729  21.033  1.00  0.00     0.034 C 
BRANCH  11  12
ATOM     12  C   UNL     1       0.996   1.995  20.123  1.00  0.00    -0.077 C 
ATOM     13  C   UNL     1       1.066   1.347  18.937  1.00  0.00    -0.028 C 
ATOM     14  C   UNL     1       2.048   2.991  20.551  1.00  0.00     0.039 C 
BRANCH  13  15
ATOM     15  C   UNL     1       2.205   1.481  17.957  1.00  0.00     0.035 C 
BRANCH  15  16
ATOM     16  C   UNL     1       1.881   2.543  16.896  1.00  0.00     0.079 C 
BRANCH  16  17
ATOM     17  C   UNL     1       2.822   2.549  15.711  1.00  0.00     0.130 C 
ATOM     18  O   UNL     1       2.916   1.532  15.041  1.00  0.00    -0.300 OA
ATOM     19  C   UNL     1       3.647   3.745  15.327  1.00  0.00     0.087 C 
ENDBRANCH  16  17
ENDBRANCH  15  16
ENDBRANCH  13  15
ENDBRANCH  11  12
ENDBRANCH   1  11
TORSDOF 9
ENDMDL
MODEL 6
REMARK VINA RESULT:    -5.520     13.194     14.989
REMARK INTER + INTRA:          -9.942
REMARK INTER:                  -8.764
REMARK INTRA:                  -1.178
REMARK UNBOUND:                -1.517
REMARK SMILES CC(=O)CCC=C(C)CCC=C(C)CCC=C(C)C
REMARK SMILES IDX 10 1 11 2 12 3 13 4 14 5 15 6 16 7 18 8 17 9 19 10 9 11 7 12
REMARK SMILES IDX 6 13 8 14 5 15 4 16 2 17 3 18 1 19
REMARK H PARENT
REMARK Flexibility Score: inf
ROOT
ATOM      1  C   UNL     1      -4.171  -8.445  12.116  1.00  0.00     0.032 C 
ENDROOT
BRANCH   1   2
ATOM      2  C   UNL     1      -5.416  -7.594  12.085  1.00  0.00    -0.028 C 
ATOM      3  C   UNL     1      -6.497  -7.853  11.313  1.00  0.00    -0.077 C 
ATOM      4  C   UNL     1      -6.578  -9.084  10.441  1.00  0.00     0.039 C 
BRANCH   3   5
ATOM      5  C   UNL     1      -7.664  -6.890  11.337  1.00  0.00     0.034 C 
BRANCH   5   6
ATOM      6  C   UNL     1      -8.342  -6.894  12.712  1.00  0.00     0.032 C 
BRANCH   6   7
ATOM      7  C   UNL     1      -9.322  -8.034  12.821  1.00  0.00    -0.028 C 
ATOM      8  C   UNL     1     -10.274 -10.124  13.700  1.00  0.00     0.039 C 
ATOM      9  C   UNL     1      -9.192  -9.075  13.674  1.00  0.00    -0.080 C 
ATOM     10  C   UNL     1      -7.992  -9.221  14.581  1.00  0.00     0.039 C 
ENDBRANCH   6   7
ENDBRANCH   5   6
ENDBRANCH   3   5
ENDBRANCH   1   2
BRANCH   1  11
ATOM     11  C   UNL     1      -2.916  -7.566  12.139  1.00  0.00     0.034 C 
BRANCH  11  12
ATOM     12  C   UNL     1      -1.679  -8.402  12.387  1.00  0.00    -0.077 C 
ATOM     13  C   UNL     1      -0.553  -8.127  11.691  1.00  0.00    -0.028 C 
ATOM     14  C   UNL     1      -1.731  -9.505  13.419  1.00  0.00     0.039 C 
BRANCH  13  15
ATOM     15  C   UNL     1       0.733  -8.909  11.803  1.00  0.00     0.035 C 
BRANCH  15  16
ATOM     16  C   UNL     1       0.944  -9.780  10.556  1.00  0.00     0.079 C 
BRANCH  16  17
ATOM     17  C   UNL     1       1.890  -9.189   9.534  1.00  0.00     0.130 C 
ATOM     18  O   UNL     1       2.629  -8.282   9.886  1.00  0.00    -0.300 OA
ATOM     19  C   UNL     1       1.955  -9.661   8.108  1.00  0.00     0.087 C 
ENDBRANCH  16  17
ENDBRANCH  15  16
ENDBRANCH  13  15
ENDBRANCH  11  12
ENDBRANCH   1  11
TORSDOF 9
ENDMDL
MODEL 7
REMARK VINA RESULT:    -5.471      1.664      3.615
REMARK INTER + INTRA:          -9.867
REMARK INTER:                  -7.915
REMARK INTRA:                  -1.952
REMARK UNBOUND:                -1.517
REMARK SMILES CC(=O)CCC=C(C)CCC=C(C)CCC=C(C)C
REMARK SMILES IDX 10 1 11 2 12 3 13 4 14 5 15 6 16 7 18 8 17 9 19 10 9 11 7 12
REMARK SMILES IDX 6 13 8 14 5 15 4 16 2 17 3 18 1 19
REMARK H PARENT
REMARK Flexibility Score: inf
ROOT
ATOM      1  C   UNL     1      -1.233   1.387  17.472  1.00  0.00     0.032 C 
ENDROOT
BRANCH   1   2
ATOM      2  C   UNL     1      -1.454   2.873  17.602  1.00  0.00    -0.028 C 
ATOM      3  C   UNL     1      -1.792   3.495  18.756  1.00  0.00    -0.077 C 
ATOM      4  C   UNL     1      -1.915   2.744  20.061  1.00  0.00     0.039 C 
BRANCH   3   5
ATOM      5  C   UNL     1      -2.034   4.988  18.741  1.00  0.00     0.034 C 
BRANCH   5   6
ATOM      6  C   UNL     1      -0.959   5.720  19.554  1.00  0.00     0.032 C 
BRANCH   6   7
ATOM      7  C   UNL     1       0.248   6.014  18.699  1.00  0.00    -0.028 C 
ATOM      8  C   UNL     1       2.507   5.687  17.786  1.00  0.00     0.039 C 
ATOM      9  C   UNL     1       1.395   5.300  18.727  1.00  0.00    -0.080 C 
ATOM     10  C   UNL     1       1.597   4.146  19.682  1.00  0.00     0.039 C 
ENDBRANCH   6   7
ENDBRANCH   5   6
ENDBRANCH   3   5
ENDBRANCH   1   2
BRANCH   1  11
ATOM     11  C   UNL     1      -0.329   1.078  16.273  1.00  0.00     0.034 C 
BRANCH  11  12
ATOM     12  C   UNL     1       1.121   1.351  16.610  1.00  0.00    -0.077 C 
ATOM     13  C   UNL     1       1.886   2.019  15.716  1.00  0.00    -0.028 C 
ATOM     14  C   UNL     1       1.667   0.891  17.941  1.00  0.00     0.039 C 
BRANCH  13  15
ATOM     15  C   UNL     1       3.353   2.317  15.901  1.00  0.00     0.035 C 
BRANCH  15  16
ATOM     16  C   UNL     1       3.756   3.560  15.095  1.00  0.00     0.079 C 
BRANCH  16  17
ATOM     17  C   UNL     1       4.006   3.297  13.625  1.00  0.00     0.130 C 
ATOM     18  O   UNL     1       4.274   2.156  13.280  1.00  0.00    -0.300 OA
ATOM     19  C   UNL     1       3.945   4.373  12.578  1.00  0.00     0.087 C 
ENDBRANCH  16  17
ENDBRANCH  15  16
ENDBRANCH  13  15
ENDBRANCH  11  12
ENDBRANCH   1  11
TORSDOF 9
ENDMDL
MODEL 8
REMARK VINA RESULT:    -5.462     12.353     14.695
REMARK INTER + INTRA:          -9.853
REMARK INTER:                  -8.803
REMARK INTRA:                  -1.050
REMARK UNBOUND:                -1.517
REMARK SMILES CC(=O)CCC=C(C)CCC=C(C)CCC=C(C)C
REMARK SMILES IDX 10 1 11 2 12 3 13 4 14 5 15 6 16 7 18 8 17 9 19 10 9 11 7 12
REMARK SMILES IDX 6 13 8 14 5 15 4 16 2 17 3 18 1 19
REMARK H PARENT
REMARK Flexibility Score: inf
ROOT
ATOM      1  C   UNL     1      -0.564  -6.014   7.130  1.00  0.00     0.032 C 
ENDROOT
BRANCH   1   2
ATOM      2  C   UNL     1       0.357  -6.453   8.241  1.00  0.00    -0.028 C 
ATOM      3  C   UNL     1       1.525  -5.842   8.550  1.00  0.00    -0.077 C 
ATOM      4  C   UNL     1       1.986  -4.595   7.832  1.00  0.00     0.039 C 
BRANCH   3   5
ATOM      5  C   UNL     1       2.382  -6.414   9.656  1.00  0.00     0.034 C 
BRANCH   5   6
ATOM      6  C   UNL     1       1.641  -6.363  10.998  1.00  0.00     0.032 C 
BRANCH   6   7
ATOM      7  C   UNL     1       1.379  -7.755  11.516  1.00  0.00    -0.028 C 
ATOM      8  C   UNL     1       0.038  -9.679  12.254  1.00  0.00     0.039 C 
ATOM      9  C   UNL     1       0.150  -8.254  11.777  1.00  0.00    -0.080 C 
ATOM     10  C   UNL     1      -1.102  -7.421  11.621  1.00  0.00     0.039 C 
ENDBRANCH   6   7
ENDBRANCH   5   6
ENDBRANCH   3   5
ENDBRANCH   1   2
BRANCH   1  11
ATOM     11  C   UNL     1      -0.253  -6.775   5.837  1.00  0.00     0.034 C 
BRANCH  11  12
ATOM     12  C   UNL     1      -1.087  -6.247   4.690  1.00  0.00    -0.077 C 
ATOM     13  C   UNL     1      -1.783  -7.123   3.930  1.00  0.00    -0.028 C 
ATOM     14  C   UNL     1      -1.138  -4.758   4.440  1.00  0.00     0.039 C 
BRANCH  13  15
ATOM     15  C   UNL     1      -2.614  -6.740   2.730  1.00  0.00     0.035 C 
BRANCH  15  16
ATOM     16  C   UNL     1      -3.373  -7.961   2.189  1.00  0.00     0.079 C 
BRANCH  16  17
ATOM     17  C   UNL     1      -4.683  -8.244   2.891  1.00  0.00     0.130 C 
ATOM     18  O   UNL     1      -5.551  -7.385   2.864  1.00  0.00    -0.300 OA
ATOM     19  C   UNL     1      -4.960  -9.527   3.624  1.00  0.00     0.087 C 
ENDBRANCH  16  17
ENDBRANCH  15  16
ENDBRANCH  13  15
ENDBRANCH  11  12
ENDBRANCH   1  11
TORSDOF 9
ENDMDL
MODEL 9
REMARK VINA RESULT:    -5.456      1.770      2.816
REMARK INTER + INTRA:          -9.844
REMARK INTER:                  -8.528
REMARK INTRA:                  -1.316
REMARK UNBOUND:                -1.517
REMARK SMILES CC(=O)CCC=C(C)CCC=C(C)CCC=C(C)C
REMARK SMILES IDX 10 1 11 2 12 3 13 4 14 5 15 6 16 7 18 8 17 9 19 10 9 11 7 12
REMARK SMILES IDX 6 13 8 14 5 15 4 16 2 17 3 18 1 19
REMARK H PARENT
REMARK Flexibility Score: inf
ROOT
ATOM      1  C   UNL     1       2.275   2.395  17.098  1.00  0.00     0.032 C 
ENDROOT
BRANCH   1   2
ATOM      2  C   UNL     1       2.046   3.877  17.265  1.00  0.00    -0.028 C 
ATOM      3  C   UNL     1       1.801   4.482  18.450  1.00  0.00    -0.077 C 
ATOM      4  C   UNL     1       1.801   3.715  19.752  1.00  0.00     0.039 C 
BRANCH   3   5
ATOM      5  C   UNL     1       1.539   5.971  18.474  1.00  0.00     0.034 C 
BRANCH   5   6
ATOM      6  C   UNL     1       0.237   6.305  17.735  1.00  0.00     0.032 C 
BRANCH   6   7
ATOM      7  C   UNL     1      -0.917   6.394  18.702  1.00  0.00    -0.028 C 
ATOM      8  C   UNL     1      -2.893   5.621  19.944  1.00  0.00     0.039 C 
ATOM      9  C   UNL     1      -1.812   5.404  18.916  1.00  0.00    -0.080 C 
ATOM     10  C   UNL     1      -1.768   4.104  18.146  1.00  0.00     0.039 C 
ENDBRANCH   6   7
ENDBRANCH   5   6
ENDBRANCH   3   5
ENDBRANCH   1   2
BRANCH   1  11
ATOM     11  C   UNL     1       1.806   1.928  15.716  1.00  0.00     0.034 C 
BRANCH  11  12
ATOM     12  C   UNL     1       2.933   2.015  14.709  1.00  0.00    -0.077 C 
ATOM     13  C   UNL     1       2.635   1.998  13.390  1.00  0.00    -0.028 C 
ATOM     14  C   UNL     1       4.354   2.141  15.205  1.00  0.00     0.039 C 
BRANCH  13  15
ATOM     15  C   UNL     1       3.659   2.030  12.282  1.00  0.00     0.035 C 
BRANCH  15  16
ATOM     16  C   UNL     1       3.330   3.144  11.278  1.00  0.00     0.079 C 
BRANCH  16  17
ATOM     17  C   UNL     1       4.070   4.442  11.522  1.00  0.00     0.130 C 
ATOM     18  O   UNL     1       5.087   4.410  12.197  1.00  0.00    -0.300 OA
ATOM     19  C   UNL     1       3.605   5.764  10.979  1.00  0.00     0.087 C 
ENDBRANCH  16  17
ENDBRANCH  15  16
ENDBRANCH  13  15
ENDBRANCH  11  12
ENDBRANCH   1  11
TORSDOF 9
ENDMDL
