MODEL 1
REMARK VINA RESULT:    -3.730      0.000      0.000
REMARK INTER + INTRA:         -10.243
REMARK INTER:                  -7.219
REMARK INTRA:                  -3.024
REMARK UNBOUND:                -3.024
REMARK SMILES CCCCCCCCCCCCCCCCCC(=O)[O-]
REMARK SMILES IDX 10 1 11 2 12 3 13 4 14 5 15 6 16 7 17 8 18 9 19 10 20 11
REMARK SMILES IDX 9 12 8 13 7 14 6 15 5 16 4 17 3 18 2 19 1 20
REMARK H PARENT
REMARK Flexibility Score: inf
ROOT
ATOM      1  C   UNL     1       9.071  -7.714  33.372  1.00  0.00     0.000 C 
ENDROOT
BRANCH   1   2
ATOM      2  C   UNL     1      10.240  -7.665  34.363  1.00  0.00     0.000 C 
BRANCH   2   3
ATOM      3  C   UNL     1      10.045  -8.683  35.495  1.00  0.00     0.000 C 
BRANCH   3   4
ATOM      4  C   UNL     1      10.424  -8.120  36.877  1.00  0.00     0.000 C 
BRANCH   4   5
ATOM      5  C   UNL     1      11.133  -6.751  36.855  1.00  0.00     0.000 C 
BRANCH   5   6
ATOM      6  C   UNL     1      10.452  -5.651  37.688  1.00  0.00     0.000 C 
BRANCH   6   7
ATOM      7  C   UNL     1      11.059  -4.259  37.448  1.00  0.00     0.006 C 
BRANCH   7   8
ATOM      8  C   UNL     1      11.903  -4.208  36.167  1.00  0.00     0.053 C 
BRANCH   8   9
ATOM      9  C   UNL     1      13.073  -3.283  36.310  1.00  0.00     0.041 C 
ATOM     10  O   UNL     1      12.935  -2.050  36.092  1.00  0.00    -0.550 OA
ATOM     11  O   UNL     1      14.306  -3.777  36.715  1.00  0.00    -0.550 OA
ENDBRANCH   8   9
ENDBRANCH   7   8
ENDBRANCH   6   7
ENDBRANCH   5   6
ENDBRANCH   4   5
ENDBRANCH   3   4
ENDBRANCH   2   3
ENDBRANCH   1   2
BRANCH   1  12
ATOM     12  C   UNL     1       8.648  -6.303  32.947  1.00  0.00     0.000 C 
BRANCH  12  13
ATOM     13  C   UNL     1       9.309  -5.239  33.837  1.00  0.00    -0.000 C 
BRANCH  13  14
ATOM     14  C   UNL     1       8.285  -4.321  34.524  1.00  0.00    -0.000 C 
BRANCH  14  15
ATOM     15  C   UNL     1       7.586  -5.005  35.712  1.00  0.00    -0.000 C 
BRANCH  15  16
ATOM     16  C   UNL     1       6.057  -4.843  35.671  1.00  0.00    -0.000 C 
BRANCH  16  17
ATOM     17  C   UNL     1       5.314  -6.161  35.949  1.00  0.00    -0.000 C 
BRANCH  17  18
ATOM     18  C   UNL     1       6.008  -7.384  35.317  1.00  0.00    -0.000 C 
BRANCH  18  19
ATOM     19  C   UNL     1       6.398  -8.494  36.310  1.00  0.00    -0.003 C 
ATOM     20  C   UNL     1       6.758  -7.960  37.696  1.00  0.00     0.004 C 
ENDBRANCH  18  19
ENDBRANCH  17  18
ENDBRANCH  16  17
ENDBRANCH  15  16
ENDBRANCH  14  15
ENDBRANCH  13  14
ENDBRANCH  12  13
ENDBRANCH   1  12
TORSDOF 16
ENDMDL
MODEL 2
REMARK VINA RESULT:    -3.649      1.053      3.091
REMARK INTER + INTRA:         -10.085
REMARK INTER:                  -6.905
REMARK INTRA:                  -3.180
REMARK UNBOUND:                -3.024
REMARK SMILES CCCCCCCCCCCCCCCCCC(=O)[O-]
REMARK SMILES IDX 10 1 11 2 12 3 13 4 14 5 15 6 16 7 17 8 18 9 19 10 20 11
REMARK SMILES IDX 9 12 8 13 7 14 6 15 5 16 4 17 3 18 2 19 1 20
REMARK H PARENT
REMARK Flexibility Score: inf
ROOT
ATOM      1  C   UNL     1       8.271  -6.645  33.378  1.00  0.00     0.000 C 
ENDROOT
BRANCH   1   2
ATOM      2  C   UNL     1       8.956  -5.273  33.405  1.00  0.00     0.000 C 
BRANCH   2   3
ATOM      3  C   UNL     1       8.253  -4.327  34.389  1.00  0.00     0.000 C 
BRANCH   3   4
ATOM      4  C   UNL     1       7.594  -5.069  35.566  1.00  0.00     0.000 C 
BRANCH   4   5
ATOM      5  C   UNL     1       8.400  -5.057  36.880  1.00  0.00     0.000 C 
BRANCH   5   6
ATOM      6  C   UNL     1       9.541  -4.026  36.936  1.00  0.00     0.000 C 
BRANCH   6   7
ATOM      7  C   UNL     1      10.934  -4.677  36.937  1.00  0.00     0.006 C 
BRANCH   7   8
ATOM      8  C   UNL     1      11.795  -4.207  35.757  1.00  0.00     0.053 C 
BRANCH   8   9
ATOM      9  C   UNL     1      12.961  -3.385  36.213  1.00  0.00     0.041 C 
ATOM     10  O   UNL     1      14.002  -3.947  36.642  1.00  0.00    -0.550 OA
ATOM     11  O   UNL     1      12.909  -1.999  36.135  1.00  0.00    -0.550 OA
ENDBRANCH   8   9
ENDBRANCH   7   8
ENDBRANCH   6   7
ENDBRANCH   5   6
ENDBRANCH   4   5
ENDBRANCH   3   4
ENDBRANCH   2   3
ENDBRANCH   1   2
BRANCH   1  12
ATOM     12  C   UNL     1       9.299  -7.777  33.486  1.00  0.00     0.000 C 
BRANCH  12  13
ATOM     13  C   UNL     1      10.420  -7.410  34.471  1.00  0.00    -0.000 C 
BRANCH  13  14
ATOM     14  C   UNL     1      10.479  -8.356  35.682  1.00  0.00    -0.000 C 
BRANCH  14  15
ATOM     15  C   UNL     1       9.180  -9.162  35.862  1.00  0.00    -0.000 C 
BRANCH  15  16
ATOM     16  C   UNL     1       8.416  -8.774  37.139  1.00  0.00    -0.000 C 
BRANCH  16  17
ATOM     17  C   UNL     1       6.920  -8.525  36.881  1.00  0.00    -0.000 C 
BRANCH  17  18
ATOM     18  C   UNL     1       6.392  -9.281  35.647  1.00  0.00    -0.000 C 
BRANCH  18  19
ATOM     19  C   UNL     1       5.384  -8.497  34.787  1.00  0.00    -0.003 C 
ATOM     20  C   UNL     1       5.316  -8.992  33.343  1.00  0.00     0.004 C 
ENDBRANCH  18  19
ENDBRANCH  17  18
ENDBRANCH  16  17
ENDBRANCH  15  16
ENDBRANCH  14  15
ENDBRANCH  13  14
ENDBRANCH  12  13
ENDBRANCH   1  12
TORSDOF 16
ENDMDL
MODEL 3
REMARK VINA RESULT:    -3.637      1.599      4.409
REMARK INTER + INTRA:         -10.062
REMARK INTER:                  -7.488
REMARK INTRA:                  -2.574
REMARK UNBOUND:                -3.024
REMARK SMILES CCCCCCCCCCCCCCCCCC(=O)[O-]
REMARK SMILES IDX 10 1 11 2 12 3 13 4 14 5 15 6 16 7 17 8 18 9 19 10 20 11
REMARK SMILES IDX 9 12 8 13 7 14 6 15 5 16 4 17 3 18 2 19 1 20
REMARK H PARENT
REMARK Flexibility Score: inf
ROOT
ATOM      1  C   UNL     1       8.846  -5.250  33.447  1.00  0.00     0.000 C 
ENDROOT
BRANCH   1   2
ATOM      2  C   UNL     1       8.266  -4.263  34.467  1.00  0.00     0.000 C 
BRANCH   2   3
ATOM      3  C   UNL     1       7.525  -5.002  35.590  1.00  0.00     0.000 C 
BRANCH   3   4
ATOM      4  C   UNL     1       8.210  -4.850  36.960  1.00  0.00     0.000 C 
BRANCH   4   5
ATOM      5  C   UNL     1       8.677  -3.421  37.303  1.00  0.00     0.000 C 
BRANCH   5   6
ATOM      6  C   UNL     1      10.193  -3.266  37.519  1.00  0.00     0.000 C 
BRANCH   6   7
ATOM      7  C   UNL     1      10.990  -4.504  37.075  1.00  0.00     0.006 C 
BRANCH   7   8
ATOM      8  C   UNL     1      11.854  -4.224  35.838  1.00  0.00     0.053 C 
BRANCH   8   9
ATOM      9  C   UNL     1      13.029  -3.356  36.168  1.00  0.00     0.041 C 
ATOM     10  O   UNL     1      14.150  -3.874  36.413  1.00  0.00    -0.550 OA
ATOM     11  O   UNL     1      12.894  -1.973  36.174  1.00  0.00    -0.550 OA
ENDBRANCH   8   9
ENDBRANCH   7   8
ENDBRANCH   6   7
ENDBRANCH   5   6
ENDBRANCH   4   5
ENDBRANCH   3   4
ENDBRANCH   2   3
ENDBRANCH   1   2
BRANCH   1  12
ATOM     12  C   UNL     1       8.866  -6.676  34.009  1.00  0.00     0.000 C 
BRANCH  12  13
ATOM     13  C   UNL     1      10.308  -7.167  34.214  1.00  0.00    -0.000 C 
BRANCH  13  14
ATOM     14  C   UNL     1      10.401  -8.333  35.212  1.00  0.00    -0.000 C 
BRANCH  14  15
ATOM     15  C   UNL     1       9.450  -8.160  36.409  1.00  0.00    -0.000 C 
BRANCH  15  16
ATOM     16  C   UNL     1      10.199  -8.049  37.748  1.00  0.00    -0.000 C 
BRANCH  16  17
ATOM     17  C   UNL     1      11.673  -8.475  37.638  1.00  0.00    -0.000 C 
BRANCH  17  18
ATOM     18  C   UNL     1      12.446  -8.307  38.960  1.00  0.00    -0.000 C 
BRANCH  18  19
ATOM     19  C   UNL     1      13.911  -7.859  38.805  1.00  0.00    -0.003 C 
ATOM     20  C   UNL     1      14.084  -6.343  38.873  1.00  0.00     0.004 C 
ENDBRANCH  18  19
ENDBRANCH  17  18
ENDBRANCH  16  17
ENDBRANCH  15  16
ENDBRANCH  14  15
ENDBRANCH  13  14
ENDBRANCH  12  13
ENDBRANCH   1  12
TORSDOF 16
ENDMDL
MODEL 4
REMARK VINA RESULT:    -3.533      1.184      2.969
REMARK INTER + INTRA:          -9.861
REMARK INTER:                  -7.224
REMARK INTRA:                  -2.637
REMARK UNBOUND:                -3.024
REMARK SMILES CCCCCCCCCCCCCCCCCC(=O)[O-]
REMARK SMILES IDX 10 1 11 2 12 3 13 4 14 5 15 6 16 7 17 8 18 9 19 10 20 11
REMARK SMILES IDX 9 12 8 13 7 14 6 15 5 16 4 17 3 18 2 19 1 20
REMARK H PARENT
REMARK Flexibility Score: inf
ROOT
ATOM      1  C   UNL     1      10.505 -10.045  36.483  1.00  0.00     0.000 C 
ENDROOT
BRANCH   1   2
ATOM      2  C   UNL     1      10.442  -8.700  37.218  1.00  0.00     0.000 C 
BRANCH   2   3
ATOM      3  C   UNL     1      11.763  -8.405  37.941  1.00  0.00     0.000 C 
BRANCH   3   4
ATOM      4  C   UNL     1      11.941  -6.912  38.276  1.00  0.00     0.000 C 
BRANCH   4   5
ATOM      5  C   UNL     1      10.675  -6.048  38.106  1.00  0.00     0.000 C 
BRANCH   5   6
ATOM      6  C   UNL     1      10.851  -4.802  37.221  1.00  0.00     0.000 C 
BRANCH   6   7
ATOM      7  C   UNL     1      11.381  -5.137  35.816  1.00  0.00     0.006 C 
BRANCH   7   8
ATOM      8  C   UNL     1      11.934  -3.901  35.095  1.00  0.00     0.053 C 
BRANCH   8   9
ATOM      9  C   UNL     1      12.995  -3.217  35.902  1.00  0.00     0.041 C 
ATOM     10  O   UNL     1      14.076  -3.809  36.158  1.00  0.00    -0.550 OA
ATOM     11  O   UNL     1      12.802  -1.914  36.345  1.00  0.00    -0.550 OA
ENDBRANCH   8   9
ENDBRANCH   7   8
ENDBRANCH   6   7
ENDBRANCH   5   6
ENDBRANCH   4   5
ENDBRANCH   3   4
ENDBRANCH   2   3
ENDBRANCH   1   2
BRANCH   1  12
ATOM     12  C   UNL     1      10.087  -9.893  35.016  1.00  0.00     0.000 C 
BRANCH  12  13
ATOM     13  C   UNL     1      10.530  -8.533  34.455  1.00  0.00    -0.000 C 
BRANCH  13  14
ATOM     14  C   UNL     1       9.586  -8.006  33.364  1.00  0.00    -0.000 C 
BRANCH  14  15
ATOM     15  C   UNL     1       8.777  -6.781  33.827  1.00  0.00    -0.000 C 
BRANCH  15  16
ATOM     16  C   UNL     1       7.415  -7.165  34.430  1.00  0.00    -0.000 C 
BRANCH  16  17
ATOM     17  C   UNL     1       7.432  -7.179  35.968  1.00  0.00    -0.000 C 
BRANCH  17  18
ATOM     18  C   UNL     1       7.291  -5.773  36.581  1.00  0.00    -0.000 C 
BRANCH  18  19
ATOM     19  C   UNL     1       6.507  -4.765  35.722  1.00  0.00    -0.003 C 
ATOM     20  C   UNL     1       7.339  -3.548  35.317  1.00  0.00     0.004 C 
ENDBRANCH  18  19
ENDBRANCH  17  18
ENDBRANCH  16  17
ENDBRANCH  15  16
ENDBRANCH  14  15
ENDBRANCH  13  14
ENDBRANCH  12  13
ENDBRANCH   1  12
TORSDOF 16
ENDMDL
MODEL 5
REMARK VINA RESULT:    -3.503      1.494      3.197
REMARK INTER + INTRA:          -9.803
REMARK INTER:                  -6.763
REMARK INTRA:                  -3.040
REMARK UNBOUND:                -3.024
REMARK SMILES CCCCCCCCCCCCCCCCCC(=O)[O-]
REMARK SMILES IDX 10 1 11 2 12 3 13 4 14 5 15 6 16 7 17 8 18 9 19 10 20 11
REMARK SMILES IDX 9 12 8 13 7 14 6 15 5 16 4 17 3 18 2 19 1 20
REMARK H PARENT
REMARK Flexibility Score: inf
ROOT
ATOM      1  C   UNL     1      10.204  -8.678  35.654  1.00  0.00     0.000 C 
ENDROOT
BRANCH   1   2
ATOM      2  C   UNL     1      10.526  -8.181  34.240  1.00  0.00     0.000 C 
BRANCH   2   3
ATOM      3  C   UNL     1       9.271  -8.180  33.357  1.00  0.00     0.000 C 
BRANCH   3   4
ATOM      4  C   UNL     1       8.744  -6.763  33.068  1.00  0.00     0.000 C 
BRANCH   4   5
ATOM      5  C   UNL     1       8.048  -6.069  34.256  1.00  0.00     0.000 C 
BRANCH   5   6
ATOM      6  C   UNL     1       8.366  -4.571  34.413  1.00  0.00     0.000 C 
BRANCH   6   7
ATOM      7  C   UNL     1       9.003  -4.235  35.772  1.00  0.00     0.006 C 
BRANCH   7   8
ATOM      8  C   UNL     1      10.377  -4.896  35.946  1.00  0.00     0.053 C 
BRANCH   8   9
ATOM      9  C   UNL     1      11.474  -4.054  35.372  1.00  0.00     0.041 C 
ATOM     10  O   UNL     1      11.734  -4.107  34.141  1.00  0.00    -0.550 OA
ATOM     11  O   UNL     1      12.189  -3.189  36.190  1.00  0.00    -0.550 OA
ENDBRANCH   8   9
ENDBRANCH   7   8
ENDBRANCH   6   7
ENDBRANCH   5   6
ENDBRANCH   4   5
ENDBRANCH   3   4
ENDBRANCH   2   3
ENDBRANCH   1   2
BRANCH   1  12
ATOM     12  C   UNL     1       8.877  -9.445  35.681  1.00  0.00     0.000 C 
BRANCH  12  13
ATOM     13  C   UNL     1       8.088  -9.134  36.962  1.00  0.00    -0.000 C 
BRANCH  13  14
ATOM     14  C   UNL     1       8.396  -7.738  37.525  1.00  0.00    -0.000 C 
BRANCH  14  15
ATOM     15  C   UNL     1       7.135  -6.867  37.663  1.00  0.00    -0.000 C 
BRANCH  15  16
ATOM     16  C   UNL     1       5.887  -7.535  37.063  1.00  0.00    -0.000 C 
BRANCH  16  17
ATOM     17  C   UNL     1       4.989  -6.541  36.306  1.00  0.00    -0.000 C 
BRANCH  17  18
ATOM     18  C   UNL     1       4.225  -7.193  35.138  1.00  0.00    -0.000 C 
BRANCH  18  19
ATOM     19  C   UNL     1       4.549  -8.679  34.898  1.00  0.00    -0.003 C 
ATOM     20  C   UNL     1       5.248  -8.931  33.563  1.00  0.00     0.004 C 
ENDBRANCH  18  19
ENDBRANCH  17  18
ENDBRANCH  16  17
ENDBRANCH  15  16
ENDBRANCH  14  15
ENDBRANCH  13  14
ENDBRANCH  12  13
ENDBRANCH   1  12
TORSDOF 16
ENDMDL
MODEL 6
REMARK VINA RESULT:    -3.492      2.276      4.020
REMARK INTER + INTRA:          -9.781
REMARK INTER:                  -7.342
REMARK INTRA:                  -2.439
REMARK UNBOUND:                -3.024
REMARK SMILES CCCCCCCCCCCCCCCCCC(=O)[O-]
REMARK SMILES IDX 10 1 11 2 12 3 13 4 14 5 15 6 16 7 17 8 18 9 19 10 20 11
REMARK SMILES IDX 9 12 8 13 7 14 6 15 5 16 4 17 3 18 2 19 1 20
REMARK H PARENT
REMARK Flexibility Score: inf
ROOT
ATOM      1  C   UNL     1      10.225  -7.127  34.001  1.00  0.00     0.000 C 
ENDROOT
BRANCH   1   2
ATOM      2  C   UNL     1      10.443  -8.637  33.842  1.00  0.00     0.000 C 
BRANCH   2   3
ATOM      3  C   UNL     1      10.245  -9.365  35.179  1.00  0.00     0.000 C 
BRANCH   3   4
ATOM      4  C   UNL     1      10.524  -8.465  36.397  1.00  0.00     0.000 C 
BRANCH   4   5
ATOM      5  C   UNL     1      10.200  -9.097  37.765  1.00  0.00     0.000 C 
BRANCH   5   6
ATOM      6  C   UNL     1      10.855  -8.405  38.974  1.00  0.00     0.000 C 
BRANCH   6   7
ATOM      7  C   UNL     1      12.211  -7.766  38.632  1.00  0.00     0.006 C 
BRANCH   7   8
ATOM      8  C   UNL     1      13.362  -8.779  38.693  1.00  0.00     0.053 C 
BRANCH   8   9
ATOM      9  C   UNL     1      14.698  -8.105  38.645  1.00  0.00     0.041 C 
ATOM     10  O   UNL     1      15.752  -8.793  38.603  1.00  0.00    -0.550 OA
ATOM     11  O   UNL     1      14.778  -6.719  38.614  1.00  0.00    -0.550 OA
ENDBRANCH   8   9
ENDBRANCH   7   8
ENDBRANCH   6   7
ENDBRANCH   5   6
ENDBRANCH   4   5
ENDBRANCH   3   4
ENDBRANCH   2   3
ENDBRANCH   1   2
BRANCH   1  12
ATOM     12  C   UNL     1       8.769  -6.746  33.708  1.00  0.00     0.000 C 
BRANCH  12  13
ATOM     13  C   UNL     1       8.672  -5.302  33.193  1.00  0.00    -0.000 C 
BRANCH  13  14
ATOM     14  C   UNL     1       8.452  -4.282  34.322  1.00  0.00    -0.000 C 
BRANCH  14  15
ATOM     15  C   UNL     1       7.615  -4.856  35.478  1.00  0.00    -0.000 C 
BRANCH  15  16
ATOM     16  C   UNL     1       8.094  -4.365  36.856  1.00  0.00    -0.000 C 
BRANCH  16  17
ATOM     17  C   UNL     1       9.310  -5.151  37.373  1.00  0.00    -0.000 C 
BRANCH  17  18
ATOM     18  C   UNL     1      10.604  -4.314  37.380  1.00  0.00    -0.000 C 
BRANCH  18  19
ATOM     19  C   UNL     1      11.699  -4.802  36.413  1.00  0.00    -0.003 C 
ATOM     20  C   UNL     1      12.062  -3.767  35.349  1.00  0.00     0.004 C 
ENDBRANCH  18  19
ENDBRANCH  17  18
ENDBRANCH  16  17
ENDBRANCH  15  16
ENDBRANCH  14  15
ENDBRANCH  13  14
ENDBRANCH  12  13
ENDBRANCH   1  12
TORSDOF 16
ENDMDL
MODEL 7
REMARK VINA RESULT:    -3.474      4.065      5.745
REMARK INTER + INTRA:          -9.747
REMARK INTER:                  -8.093
REMARK INTRA:                  -1.654
REMARK UNBOUND:                -3.024
REMARK SMILES CCCCCCCCCCCCCCCCCC(=O)[O-]
REMARK SMILES IDX 10 1 11 2 12 3 13 4 14 5 15 6 16 7 17 8 18 9 19 10 20 11
REMARK SMILES IDX 9 12 8 13 7 14 6 15 5 16 4 17 3 18 2 19 1 20
REMARK H PARENT
REMARK Flexibility Score: inf
ROOT
ATOM      1  C   UNL     1      11.231  -4.892  37.522  1.00  0.00     0.000 C 
ENDROOT
BRANCH   1   2
ATOM      2  C   UNL     1      11.859  -6.223  37.956  1.00  0.00     0.000 C 
BRANCH   2   3
ATOM      3  C   UNL     1      12.877  -6.009  39.085  1.00  0.00     0.000 C 
BRANCH   3   4
ATOM      4  C   UNL     1      14.266  -6.583  38.753  1.00  0.00     0.000 C 
BRANCH   4   5
ATOM      5  C   UNL     1      14.353  -8.123  38.745  1.00  0.00     0.000 C 
BRANCH   5   6
ATOM      6  C   UNL     1      15.708  -8.696  38.295  1.00  0.00     0.000 C 
BRANCH   6   7
ATOM      7  C   UNL     1      15.896 -10.169  38.695  1.00  0.00     0.006 C 
BRANCH   7   8
ATOM      8  C   UNL     1      14.565 -10.932  38.735  1.00  0.00     0.053 C 
BRANCH   8   9
ATOM      9  C   UNL     1      14.491 -11.975  37.663  1.00  0.00     0.041 C 
ATOM     10  O   UNL     1      15.547 -12.470  37.187  1.00  0.00    -0.550 OA
ATOM     11  O   UNL     1      13.256 -12.424  37.211  1.00  0.00    -0.550 OA
ENDBRANCH   8   9
ENDBRANCH   7   8
ENDBRANCH   6   7
ENDBRANCH   5   6
ENDBRANCH   4   5
ENDBRANCH   3   4
ENDBRANCH   2   3
ENDBRANCH   1   2
BRANCH   1  12
ATOM     12  C   UNL     1      11.991  -4.283  36.338  1.00  0.00     0.000 C 
BRANCH  12  13
ATOM     13  C   UNL     1      11.383  -4.735  35.002  1.00  0.00    -0.000 C 
BRANCH  13  14
ATOM     14  C   UNL     1       9.984  -4.145  34.758  1.00  0.00    -0.000 C 
BRANCH  14  15
ATOM     15  C   UNL     1       9.148  -4.997  33.786  1.00  0.00    -0.000 C 
BRANCH  15  16
ATOM     16  C   UNL     1       8.014  -5.759  34.493  1.00  0.00    -0.000 C 
BRANCH  16  17
ATOM     17  C   UNL     1       8.180  -7.285  34.401  1.00  0.00    -0.000 C 
BRANCH  17  18
ATOM     18  C   UNL     1       9.076  -7.859  35.515  1.00  0.00    -0.000 C 
BRANCH  18  19
ATOM     19  C   UNL     1      10.521  -8.178  35.087  1.00  0.00    -0.003 C 
ATOM     20  C   UNL     1      10.627  -8.647  33.637  1.00  0.00     0.004 C 
ENDBRANCH  18  19
ENDBRANCH  17  18
ENDBRANCH  16  17
ENDBRANCH  15  16
ENDBRANCH  14  15
ENDBRANCH  13  14
ENDBRANCH  12  13
ENDBRANCH   1  12
TORSDOF 16
ENDMDL
MODEL 8
REMARK VINA RESULT:    -3.407      2.283      5.128
REMARK INTER + INTRA:          -9.618
REMARK INTER:                  -7.165
REMARK INTRA:                  -2.453
REMARK UNBOUND:                -3.024
REMARK SMILES CCCCCCCCCCCCCCCCCC(=O)[O-]
REMARK SMILES IDX 10 1 11 2 12 3 13 4 14 5 15 6 16 7 17 8 18 9 19 10 20 11
REMARK SMILES IDX 9 12 8 13 7 14 6 15 5 16 4 17 3 18 2 19 1 20
REMARK H PARENT
REMARK Flexibility Score: inf
ROOT
ATOM      1  C   UNL     1      10.864  -7.918  35.270  1.00  0.00     0.000 C 
ENDROOT
BRANCH   1   2
ATOM      2  C   UNL     1      10.186  -8.479  34.014  1.00  0.00     0.000 C 
BRANCH   2   3
ATOM      3  C   UNL     1       8.732  -7.998  33.912  1.00  0.00     0.000 C 
BRANCH   3   4
ATOM      4  C   UNL     1       8.529  -6.939  32.812  1.00  0.00     0.000 C 
BRANCH   4   5
ATOM      5  C   UNL     1       8.881  -5.495  33.221  1.00  0.00     0.000 C 
BRANCH   5   6
ATOM      6  C   UNL     1       8.356  -5.062  34.601  1.00  0.00     0.000 C 
BRANCH   6   7
ATOM      7  C   UNL     1       9.433  -4.383  35.464  1.00  0.00     0.006 C 
BRANCH   7   8
ATOM      8  C   UNL     1      10.801  -4.356  34.768  1.00  0.00     0.053 C 
BRANCH   8   9
ATOM      9  C   UNL     1      11.865  -3.792  35.659  1.00  0.00     0.041 C 
ATOM     10  O   UNL     1      13.075  -3.854  35.316  1.00  0.00    -0.550 OA
ATOM     11  O   UNL     1      11.518  -3.169  36.851  1.00  0.00    -0.550 OA
ENDBRANCH   8   9
ENDBRANCH   7   8
ENDBRANCH   6   7
ENDBRANCH   5   6
ENDBRANCH   4   5
ENDBRANCH   3   4
ENDBRANCH   2   3
ENDBRANCH   1   2
BRANCH   1  12
ATOM     12  C   UNL     1       9.945  -8.033  36.492  1.00  0.00     0.000 C 
BRANCH  12  13
ATOM     13  C   UNL     1      10.314  -6.991  37.558  1.00  0.00    -0.000 C 
BRANCH  13  14
ATOM     14  C   UNL     1      11.784  -7.087  37.998  1.00  0.00    -0.000 C 
BRANCH  14  15
ATOM     15  C   UNL     1      12.089  -8.395  38.748  1.00  0.00    -0.000 C 
BRANCH  15  16
ATOM     16  C   UNL     1      13.578  -8.777  38.688  1.00  0.00    -0.000 C 
BRANCH  16  17
ATOM     17  C   UNL     1      13.797 -10.299  38.656  1.00  0.00    -0.000 C 
BRANCH  17  18
ATOM     18  C   UNL     1      12.483 -11.091  38.515  1.00  0.00    -0.000 C 
BRANCH  18  19
ATOM     19  C   UNL     1      12.367 -11.934  37.231  1.00  0.00    -0.003 C 
ATOM     20  C   UNL     1      11.173 -11.540  36.363  1.00  0.00     0.004 C 
ENDBRANCH  18  19
ENDBRANCH  17  18
ENDBRANCH  16  17
ENDBRANCH  15  16
ENDBRANCH  14  15
ENDBRANCH  13  14
ENDBRANCH  12  13
ENDBRANCH   1  12
TORSDOF 16
ENDMDL
MODEL 9
REMARK VINA RESULT:    -3.397      3.916      6.049
REMARK INTER + INTRA:          -9.599
REMARK INTER:                  -6.380
REMARK INTRA:                  -3.219
REMARK UNBOUND:                -3.024
REMARK SMILES CCCCCCCCCCCCCCCCCC(=O)[O-]
REMARK SMILES IDX 10 1 11 2 12 3 13 4 14 5 15 6 16 7 17 8 18 9 19 10 20 11
REMARK SMILES IDX 9 12 8 13 7 14 6 15 5 16 4 17 3 18 2 19 1 20
REMARK H PARENT
REMARK Flexibility Score: inf
ROOT
ATOM      1  C   UNL     1       9.221  -7.604  33.609  1.00  0.00     0.000 C 
ENDROOT
BRANCH   1   2
ATOM      2  C   UNL     1      10.498  -7.765  34.442  1.00  0.00     0.000 C 
BRANCH   2   3
ATOM      3  C   UNL     1      10.182  -8.339  35.830  1.00  0.00     0.000 C 
BRANCH   3   4
ATOM      4  C   UNL     1       9.042  -9.374  35.803  1.00  0.00     0.000 C 
BRANCH   4   5
ATOM      5  C   UNL     1       8.026  -9.258  36.957  1.00  0.00     0.000 C 
BRANCH   5   6
ATOM      6  C   UNL     1       6.763  -8.441  36.633  1.00  0.00     0.000 C 
BRANCH   6   7
ATOM      7  C   UNL     1       6.042  -8.932  35.367  1.00  0.00     0.006 C 
BRANCH   7   8
ATOM      8  C   UNL     1       4.895  -8.000  34.955  1.00  0.00     0.053 C 
BRANCH   8   9
ATOM      9  C   UNL     1       3.612  -8.365  35.637  1.00  0.00     0.041 C 
ATOM     10  O   UNL     1       3.189  -9.550  35.597  1.00  0.00    -0.550 OA
ATOM     11  O   UNL     1       2.899  -7.403  36.341  1.00  0.00    -0.550 OA
ENDBRANCH   8   9
ENDBRANCH   7   8
ENDBRANCH   6   7
ENDBRANCH   5   6
ENDBRANCH   4   5
ENDBRANCH   3   4
ENDBRANCH   2   3
ENDBRANCH   1   2
BRANCH   1  12
ATOM     12  C   UNL     1       8.837  -6.126  33.467  1.00  0.00     0.000 C 
BRANCH  12  13
ATOM     13  C   UNL     1       7.856  -5.705  34.572  1.00  0.00    -0.000 C 
BRANCH  13  14
ATOM     14  C   UNL     1       7.896  -4.195  34.856  1.00  0.00    -0.000 C 
BRANCH  14  15
ATOM     15  C   UNL     1       8.149  -3.882  36.341  1.00  0.00    -0.000 C 
BRANCH  15  16
ATOM     16  C   UNL     1       8.319  -5.152  37.192  1.00  0.00    -0.000 C 
BRANCH  16  17
ATOM     17  C   UNL     1       9.711  -5.248  37.840  1.00  0.00    -0.000 C 
BRANCH  17  18
ATOM     18  C   UNL     1      10.711  -4.226  37.266  1.00  0.00    -0.000 C 
BRANCH  18  19
ATOM     19  C   UNL     1      11.722  -4.803  36.258  1.00  0.00    -0.003 C 
ATOM     20  C   UNL     1      11.663  -4.118  34.893  1.00  0.00     0.004 C 
ENDBRANCH  18  19
ENDBRANCH  17  18
ENDBRANCH  16  17
ENDBRANCH  15  16
ENDBRANCH  14  15
ENDBRANCH  13  14
ENDBRANCH  12  13
ENDBRANCH   1  12
TORSDOF 16
ENDMDL
