MODEL 1
REMARK VINA RESULT:    -6.054      0.000      0.000
REMARK INTER + INTRA:          -6.925
REMARK INTER:                  -6.761
REMARK INTRA:                  -0.164
REMARK UNBOUND:                -0.164
REMARK SMILES C=CCc1ccc2c(c1)OCO2
REMARK SMILES IDX 3 1 2 2 1 3 4 4 9 5 5 6 8 7 6 8 7 9 10 10 12 11 11 12
REMARK H PARENT
REMARK Flexibility Score: inf
ROOT
ATOM      1  C   UNL     1       5.678  -0.500 -21.197  1.00  0.00     0.062 C 
ENDROOT
BRANCH   1   2
ATOM      2  C   UNL     1       5.094   0.604 -22.034  1.00  0.00    -0.030 C 
ATOM      3  C   UNL     1       4.746   1.779 -21.501  1.00  0.00     0.004 C 
ENDBRANCH   1   2
BRANCH   1   4
ATOM      4  C   UNL     1       5.089  -1.829 -21.582  1.00  0.00    -0.040 A 
ATOM      5  C   UNL     1       3.811  -2.200 -21.107  1.00  0.00     0.054 A 
ATOM      6  C   UNL     1       5.792  -2.699 -22.456  1.00  0.00     0.008 A 
ATOM      7  C   UNL     1       3.295  -3.428 -21.512  1.00  0.00     0.166 A 
ATOM      8  C   UNL     1       5.233  -3.931 -22.841  1.00  0.00     0.051 A 
ATOM      9  C   UNL     1       3.976  -4.258 -22.342  1.00  0.00     0.165 A 
ATOM     10  O   UNL     1       2.082  -4.002 -21.181  1.00  0.00    -0.454 OA
ATOM     11  O   UNL     1       3.226  -5.394 -22.574  1.00  0.00    -0.454 OA
ATOM     12  C   UNL     1       1.998  -5.271 -21.844  1.00  0.00     0.468 C 
ENDBRANCH   1   4
TORSDOF 2
ENDMDL
MODEL 2
REMARK VINA RESULT:    -5.966     10.876     14.013
REMARK INTER + INTRA:          -6.827
REMARK INTER:                  -6.627
REMARK INTRA:                  -0.200
REMARK UNBOUND:                -0.164
REMARK SMILES C=CCc1ccc2c(c1)OCO2
REMARK SMILES IDX 3 1 2 2 1 3 4 4 9 5 5 6 8 7 6 8 7 9 10 10 12 11 11 12
REMARK H PARENT
REMARK Flexibility Score: inf
ROOT
ATOM      1  C   UNL     1       6.068   8.149 -21.832  1.00  0.00     0.062 C 
ENDROOT
BRANCH   1   2
ATOM      2  C   UNL     1       4.738   7.596 -21.401  1.00  0.00    -0.030 C 
ATOM      3  C   UNL     1       4.318   6.390 -21.794  1.00  0.00     0.004 C 
ENDBRANCH   1   2
BRANCH   1   4
ATOM      4  C   UNL     1       5.894   9.456 -22.554  1.00  0.00    -0.040 A 
ATOM      5  C   UNL     1       6.987  10.038 -23.236  1.00  0.00     0.054 A 
ATOM      6  C   UNL     1       4.625  10.091 -22.592  1.00  0.00     0.008 A 
ATOM      7  C   UNL     1       6.772  11.235 -23.914  1.00  0.00     0.166 A 
ATOM      8  C   UNL     1       4.452  11.300 -23.290  1.00  0.00     0.051 A 
ATOM      9  C   UNL     1       5.557  11.840 -23.939  1.00  0.00     0.165 A 
ATOM     10  O   UNL     1       7.675  11.985 -24.642  1.00  0.00    -0.454 OA
ATOM     11  O   UNL     1       5.637  13.001 -24.683  1.00  0.00    -0.454 OA
ATOM     12  C   UNL     1       6.985  13.133 -25.155  1.00  0.00     0.468 C 
ENDBRANCH   1   4
TORSDOF 2
ENDMDL
MODEL 3
REMARK VINA RESULT:    -5.923     10.063     13.143
REMARK INTER + INTRA:          -6.779
REMARK INTER:                  -6.590
REMARK INTRA:                  -0.189
REMARK UNBOUND:                -0.164
REMARK SMILES C=CCc1ccc2c(c1)OCO2
REMARK SMILES IDX 3 1 2 2 1 3 4 4 9 5 5 6 8 7 6 8 7 9 10 10 12 11 11 12
REMARK H PARENT
REMARK Flexibility Score: inf
ROOT
ATOM      1  C   UNL     1       4.755   7.748 -21.157  1.00  0.00     0.062 C 
ENDROOT
BRANCH   1   2
ATOM      2  C   UNL     1       4.483   6.511 -21.968  1.00  0.00    -0.030 C 
ATOM      3  C   UNL     1       5.263   5.429 -21.882  1.00  0.00     0.004 C 
ENDBRANCH   1   2
BRANCH   1   4
ATOM      4  C   UNL     1       5.431   8.797 -21.996  1.00  0.00    -0.040 A 
ATOM      5  C   UNL     1       4.667   9.822 -22.598  1.00  0.00     0.054 A 
ATOM      6  C   UNL     1       6.842   8.791 -22.151  1.00  0.00     0.008 A 
ATOM      7  C   UNL     1       5.339  10.787 -23.343  1.00  0.00     0.166 A 
ATOM      8  C   UNL     1       7.481   9.787 -22.911  1.00  0.00     0.051 A 
ATOM      9  C   UNL     1       6.687  10.770 -23.493  1.00  0.00     0.165 A 
ATOM     10  O   UNL     1       4.813  11.871 -24.019  1.00  0.00    -0.454 OA
ATOM     11  O   UNL     1       7.077  11.842 -24.273  1.00  0.00    -0.454 OA
ATOM     12  C   UNL     1       5.900  12.578 -24.634  1.00  0.00     0.468 C 
ENDBRANCH   1   4
TORSDOF 2
ENDMDL
MODEL 4
REMARK VINA RESULT:    -5.648      0.762      1.838
REMARK INTER + INTRA:          -6.472
REMARK INTER:                  -6.291
REMARK INTRA:                  -0.181
REMARK UNBOUND:                -0.164
REMARK SMILES C=CCc1ccc2c(c1)OCO2
REMARK SMILES IDX 3 1 2 2 1 3 4 4 9 5 5 6 8 7 6 8 7 9 10 10 12 11 11 12
REMARK H PARENT
REMARK Flexibility Score: inf
ROOT
ATOM      1  C   UNL     1       5.953  -0.532 -21.537  1.00  0.00     0.062 C 
ENDROOT
BRANCH   1   2
ATOM      2  C   UNL     1       5.474   0.670 -22.304  1.00  0.00    -0.030 C 
ATOM      3  C   UNL     1       5.190   1.824 -21.695  1.00  0.00     0.004 C 
ENDBRANCH   1   2
BRANCH   1   4
ATOM      4  C   UNL     1       4.904  -1.609 -21.526  1.00  0.00    -0.040 A 
ATOM      5  C   UNL     1       5.110  -2.803 -22.254  1.00  0.00     0.054 A 
ATOM      6  C   UNL     1       3.724  -1.454 -20.752  1.00  0.00     0.008 A 
ATOM      7  C   UNL     1       4.124  -3.784 -22.192  1.00  0.00     0.166 A 
ATOM      8  C   UNL     1       2.754  -2.472 -20.717  1.00  0.00     0.051 A 
ATOM      9  C   UNL     1       2.995  -3.626 -21.457  1.00  0.00     0.165 A 
ATOM     10  O   UNL     1       4.099  -5.018 -22.813  1.00  0.00    -0.454 OA
ATOM     11  O   UNL     1       2.204  -4.752 -21.578  1.00  0.00    -0.454 OA
ATOM     12  C   UNL     1       2.878  -5.675 -22.444  1.00  0.00     0.468 C 
ENDBRANCH   1   4
TORSDOF 2
ENDMDL
MODEL 5
REMARK VINA RESULT:    -5.458      4.818      7.537
REMARK INTER + INTRA:          -6.260
REMARK INTER:                  -6.081
REMARK INTRA:                  -0.179
REMARK UNBOUND:                -0.164
REMARK SMILES C=CCc1ccc2c(c1)OCO2
REMARK SMILES IDX 3 1 2 2 1 3 4 4 9 5 5 6 8 7 6 8 7 9 10 10 12 11 11 12
REMARK H PARENT
REMARK Flexibility Score: inf
ROOT
ATOM      1  C   UNL     1       4.574   0.709 -21.140  1.00  0.00     0.062 C 
ENDROOT
BRANCH   1   2
ATOM      2  C   UNL     1       5.687  -0.221 -21.534  1.00  0.00    -0.030 C 
ATOM      3  C   UNL     1       5.448  -1.478 -21.919  1.00  0.00     0.004 C 
ENDBRANCH   1   2
BRANCH   1   4
ATOM      4  C   UNL     1       4.930   2.134 -21.464  1.00  0.00    -0.040 A 
ATOM      5  C   UNL     1       4.006   3.171 -21.202  1.00  0.00     0.054 A 
ATOM      6  C   UNL     1       6.209   2.451 -21.993  1.00  0.00     0.008 A 
ATOM      7  C   UNL     1       4.390   4.477 -21.493  1.00  0.00     0.166 A 
ATOM      8  C   UNL     1       6.556   3.786 -22.271  1.00  0.00     0.051 A 
ATOM      9  C   UNL     1       5.611   4.772 -22.006  1.00  0.00     0.165 A 
ATOM     10  O   UNL     1       3.666   5.642 -21.328  1.00  0.00    -0.454 OA
ATOM     11  O   UNL     1       5.716   6.137 -22.189  1.00  0.00    -0.454 OA
ATOM     12  C   UNL     1       4.484   6.737 -21.765  1.00  0.00     0.468 C 
ENDBRANCH   1   4
TORSDOF 2
ENDMDL
MODEL 6
REMARK VINA RESULT:    -5.211      9.077     11.990
REMARK INTER + INTRA:          -5.984
REMARK INTER:                  -5.762
REMARK INTRA:                  -0.221
REMARK UNBOUND:                -0.164
REMARK SMILES C=CCc1ccc2c(c1)OCO2
REMARK SMILES IDX 3 1 2 2 1 3 4 4 9 5 5 6 8 7 6 8 7 9 10 10 12 11 11 12
REMARK H PARENT
REMARK Flexibility Score: inf
ROOT
ATOM      1  C   UNL     1       4.647   6.699 -21.504  1.00  0.00     0.062 C 
ENDROOT
BRANCH   1   2
ATOM      2  C   UNL     1       4.856   5.306 -22.030  1.00  0.00    -0.030 C 
ATOM      3  C   UNL     1       5.982   4.627 -21.790  1.00  0.00     0.004 C 
ENDBRANCH   1   2
BRANCH   1   4
ATOM      4  C   UNL     1       5.345   7.708 -22.375  1.00  0.00    -0.040 A 
ATOM      5  C   UNL     1       4.840   8.000 -23.662  1.00  0.00     0.054 A 
ATOM      6  C   UNL     1       6.484   8.404 -21.894  1.00  0.00     0.008 A 
ATOM      7  C   UNL     1       5.502   8.960 -24.422  1.00  0.00     0.166 A 
ATOM      8  C   UNL     1       7.123   9.369 -22.694  1.00  0.00     0.051 A 
ATOM      9  C   UNL     1       6.597   9.616 -23.958  1.00  0.00     0.165 A 
ATOM     10  O   UNL     1       5.202   9.407 -25.694  1.00  0.00    -0.454 OA
ATOM     11  O   UNL     1       7.039  10.507 -24.916  1.00  0.00    -0.454 OA
ATOM     12  C   UNL     1       6.169  10.405 -26.052  1.00  0.00     0.468 C 
ENDBRANCH   1   4
TORSDOF 2
ENDMDL
MODEL 7
REMARK VINA RESULT:    -5.168      3.118      5.280
REMARK INTER + INTRA:          -5.936
REMARK INTER:                  -5.723
REMARK INTRA:                  -0.212
REMARK UNBOUND:                -0.164
REMARK SMILES C=CCc1ccc2c(c1)OCO2
REMARK SMILES IDX 3 1 2 2 1 3 4 4 9 5 5 6 8 7 6 8 7 9 10 10 12 11 11 12
REMARK H PARENT
REMARK Flexibility Score: inf
ROOT
ATOM      1  C   UNL     1       4.788  -3.187 -22.153  1.00  0.00     0.062 C 
ENDROOT
BRANCH   1   2
ATOM      2  C   UNL     1       5.153  -3.944 -23.399  1.00  0.00    -0.030 C 
ATOM      3  C   UNL     1       6.419  -4.267 -23.679  1.00  0.00     0.004 C 
ENDBRANCH   1   2
BRANCH   1   4
ATOM      4  C   UNL     1       4.960  -1.707 -22.359  1.00  0.00    -0.040 A 
ATOM      5  C   UNL     1       4.293  -1.059 -23.423  1.00  0.00     0.054 A 
ATOM      6  C   UNL     1       5.756  -0.946 -21.463  1.00  0.00     0.008 A 
ATOM      7  C   UNL     1       4.460   0.316 -23.558  1.00  0.00     0.166 A 
ATOM      8  C   UNL     1       5.897   0.443 -21.636  1.00  0.00     0.051 A 
ATOM      9  C   UNL     1       5.229   1.036 -22.703  1.00  0.00     0.165 A 
ATOM     10  O   UNL     1       3.918   1.159 -24.509  1.00  0.00    -0.454 OA
ATOM     11  O   UNL     1       5.210   2.366 -23.073  1.00  0.00    -0.454 OA
ATOM     12  C   UNL     1       4.376   2.490 -24.234  1.00  0.00     0.468 C 
ENDBRANCH   1   4
TORSDOF 2
ENDMDL
MODEL 8
REMARK VINA RESULT:    -5.167      8.165     10.707
REMARK INTER + INTRA:          -5.935
REMARK INTER:                  -5.733
REMARK INTRA:                  -0.202
REMARK UNBOUND:                -0.164
REMARK SMILES C=CCc1ccc2c(c1)OCO2
REMARK SMILES IDX 3 1 2 2 1 3 4 4 9 5 5 6 8 7 6 8 7 9 10 10 12 11 11 12
REMARK H PARENT
REMARK Flexibility Score: inf
ROOT
ATOM      1  C   UNL     1       4.669  10.471 -22.698  1.00  0.00     0.062 C 
ENDROOT
BRANCH   1   2
ATOM      2  C   UNL     1       3.482  11.117 -23.357  1.00  0.00    -0.030 C 
ATOM      3  C   UNL     1       2.403  11.481 -22.658  1.00  0.00     0.004 C 
ENDBRANCH   1   2
BRANCH   1   4
ATOM      4  C   UNL     1       4.547   8.973 -22.729  1.00  0.00    -0.040 A 
ATOM      5  C   UNL     1       4.344   8.305 -23.958  1.00  0.00     0.054 A 
ATOM      6  C   UNL     1       4.679   8.218 -21.534  1.00  0.00     0.008 A 
ATOM      7  C   UNL     1       4.264   6.915 -23.941  1.00  0.00     0.166 A 
ATOM      8  C   UNL     1       4.593   6.814 -21.563  1.00  0.00     0.051 A 
ATOM      9  C   UNL     1       4.383   6.201 -22.794  1.00  0.00     0.165 A 
ATOM     10  O   UNL     1       4.069   6.053 -25.003  1.00  0.00    -0.454 OA
ATOM     11  O   UNL     1       4.267   4.853 -23.076  1.00  0.00    -0.454 OA
ATOM     12  C   UNL     1       4.064   4.713 -24.489  1.00  0.00     0.468 C 
ENDBRANCH   1   4
TORSDOF 2
ENDMDL
MODEL 9
REMARK VINA RESULT:    -5.146      2.062      2.848
REMARK INTER + INTRA:          -5.911
REMARK INTER:                  -5.746
REMARK INTRA:                  -0.165
REMARK UNBOUND:                -0.164
REMARK SMILES C=CCc1ccc2c(c1)OCO2
REMARK SMILES IDX 3 1 2 2 1 3 4 4 9 5 5 6 8 7 6 8 7 9 10 10 12 11 11 12
REMARK H PARENT
REMARK Flexibility Score: inf
ROOT
ATOM      1  C   UNL     1       5.594   1.802 -21.870  1.00  0.00     0.062 C 
ENDROOT
BRANCH   1   2
ATOM      2  C   UNL     1       4.461   2.452 -21.126  1.00  0.00    -0.030 C 
ATOM      3  C   UNL     1       4.015   3.669 -21.451  1.00  0.00     0.004 C 
ENDBRANCH   1   2
BRANCH   1   4
ATOM      4  C   UNL     1       5.237   0.395 -22.261  1.00  0.00    -0.040 A 
ATOM      5  C   UNL     1       4.413   0.161 -23.385  1.00  0.00     0.054 A 
ATOM      6  C   UNL     1       5.760  -0.707 -21.533  1.00  0.00     0.008 A 
ATOM      7  C   UNL     1       4.132  -1.159 -23.726  1.00  0.00     0.166 A 
ATOM      8  C   UNL     1       5.451  -2.025 -21.914  1.00  0.00     0.051 A 
ATOM      9  C   UNL     1       4.628  -2.207 -23.021  1.00  0.00     0.165 A 
ATOM     10  O   UNL     1       3.358  -1.632 -24.768  1.00  0.00    -0.454 OA
ATOM     11  O   UNL     1       4.190  -3.390 -23.584  1.00  0.00    -0.454 OA
ATOM     12  C   UNL     1       3.368  -3.065 -24.713  1.00  0.00     0.468 C 
ENDBRANCH   1   4
TORSDOF 2
ENDMDL
