MODEL 1
REMARK VINA RESULT:     0.067      0.000      0.000
REMARK INTER + INTRA:          -0.859
REMARK INTER:                   0.145
REMARK INTRA:                  -1.003
REMARK UNBOUND:                -1.003
REMARK SMILES CCCCCCCCCCCCCCCCCCCCCC(=O)[O-]
REMARK SMILES IDX 12 1 11 2 10 3 9 4 8 5 7 6 6 7 5 8 4 9 3 10 2 11 1 12 13 13
REMARK SMILES IDX 14 14 15 15 16 16 17 17 18 18 19 19 20 20 21 21 22 22 23 23
REMARK SMILES IDX 24 24
REMARK H PARENT
REMARK Flexibility Score: inf
ROOT
ATOM      1  C   UNL     1     -15.118 -15.117  19.206  1.00  0.00     0.000 C 
ENDROOT
BRANCH   1   2
ATOM      2  C   UNL     1     -14.144 -16.213  18.733  1.00  0.00     0.000 C 
BRANCH   2   3
ATOM      3  C   UNL     1     -14.125 -17.466  19.628  1.00  0.00     0.000 C 
BRANCH   3   4
ATOM      4  C   UNL     1     -13.836 -17.134  21.104  1.00  0.00    -0.000 C 
BRANCH   4   5
ATOM      5  C   UNL     1     -14.861 -17.768  22.060  1.00  0.00    -0.000 C 
BRANCH   5   6
ATOM      6  C   UNL     1     -14.260 -18.094  23.439  1.00  0.00    -0.000 C 
BRANCH   6   7
ATOM      7  C   UNL     1     -14.482 -16.958  24.460  1.00  0.00    -0.000 C 
BRANCH   7   8
ATOM      8  C   UNL     1     -15.122 -15.692  23.858  1.00  0.00    -0.000 C 
BRANCH   8   9
ATOM      9  C   UNL     1     -14.662 -14.367  24.491  1.00  0.00    -0.000 C 
BRANCH   9  10
ATOM     10  C   UNL     1     -13.220 -13.994  24.111  1.00  0.00    -0.000 C 
BRANCH  10  11
ATOM     11  C   UNL     1     -12.694 -12.860  24.999  1.00  0.00    -0.003 C 
ATOM     12  C   UNL     1     -11.439 -12.228  24.399  1.00  0.00     0.004 C 
ENDBRANCH  10  11
ENDBRANCH   9  10
ENDBRANCH   8   9
ENDBRANCH   7   8
ENDBRANCH   6   7
ENDBRANCH   5   6
ENDBRANCH   4   5
ENDBRANCH   3   4
ENDBRANCH   2   3
ENDBRANCH   1   2
BRANCH   1  13
ATOM     13  C   UNL     1     -15.081 -13.872  18.301  1.00  0.00     0.000 C 
BRANCH  13  14
ATOM     14  C   UNL     1     -14.839 -12.573  19.086  1.00  0.00     0.000 C 
BRANCH  14  15
ATOM     15  C   UNL     1     -15.062 -12.741  20.601  1.00  0.00     0.000 C 
BRANCH  15  16
ATOM     16  C   UNL     1     -13.804 -12.411  21.432  1.00  0.00     0.000 C 
BRANCH  16  17
ATOM     17  C   UNL     1     -12.700 -13.483  21.356  1.00  0.00     0.000 C 
BRANCH  17  18
ATOM     18  C   UNL     1     -12.136 -13.748  19.948  1.00  0.00     0.000 C 
BRANCH  18  19
ATOM     19  C   UNL     1     -11.013 -12.793  19.497  1.00  0.00     0.000 C 
BRANCH  19  20
ATOM     20  C   UNL     1     -10.936 -12.534  17.980  1.00  0.00     0.006 C 
BRANCH  20  21
ATOM     21  C   UNL     1     -11.995 -11.543  17.459  1.00  0.00     0.053 C 
BRANCH  21  22
ATOM     22  C   UNL     1     -11.388 -10.332  16.820  1.00  0.00     0.041 C 
ATOM     23  O   UNL     1     -10.137 -10.182  16.805  1.00  0.00    -0.550 OA
ATOM     24  O   UNL     1     -12.202  -9.387  16.206  1.00  0.00    -0.550 OA
ENDBRANCH  21  22
ENDBRANCH  20  21
ENDBRANCH  19  20
ENDBRANCH  18  19
ENDBRANCH  17  18
ENDBRANCH  16  17
ENDBRANCH  15  16
ENDBRANCH  14  15
ENDBRANCH  13  14
ENDBRANCH   1  13
TORSDOF 20
ENDMDL
MODEL 2
REMARK VINA RESULT:     0.490     16.826     20.998
REMARK INTER + INTRA:           0.059
REMARK INTER:                   1.342
REMARK INTRA:                  -1.283
REMARK UNBOUND:                -1.003
REMARK SMILES CCCCCCCCCCCCCCCCCCCCCC(=O)[O-]
REMARK SMILES IDX 12 1 11 2 10 3 9 4 8 5 7 6 6 7 5 8 4 9 3 10 2 11 1 12 13 13
REMARK SMILES IDX 14 14 15 15 16 16 17 17 18 18 19 19 20 20 21 21 22 22 23 23
REMARK SMILES IDX 24 24
REMARK H PARENT
REMARK Flexibility Score: inf
ROOT
ATOM      1  C   UNL     1       4.418  -4.685  12.342  1.00  0.00     0.000 C 
ENDROOT
BRANCH   1   2
ATOM      2  C   UNL     1       3.575  -5.917  12.721  1.00  0.00     0.000 C 
BRANCH   2   3
ATOM      3  C   UNL     1       3.295  -6.047  14.230  1.00  0.00     0.000 C 
BRANCH   3   4
ATOM      4  C   UNL     1       1.921  -6.679  14.524  1.00  0.00    -0.000 C 
BRANCH   4   5
ATOM      5  C   UNL     1       1.772  -8.077  13.899  1.00  0.00    -0.000 C 
BRANCH   5   6
ATOM      6  C   UNL     1       1.618  -9.184  14.957  1.00  0.00    -0.000 C 
BRANCH   6   7
ATOM      7  C   UNL     1       0.459  -8.903  15.937  1.00  0.00    -0.000 C 
BRANCH   7   8
ATOM      8  C   UNL     1      -0.926  -8.826  15.264  1.00  0.00    -0.000 C 
BRANCH   8   9
ATOM      9  C   UNL     1      -1.581  -7.434  15.282  1.00  0.00    -0.000 C 
BRANCH   9  10
ATOM     10  C   UNL     1      -1.091  -6.560  16.448  1.00  0.00    -0.000 C 
BRANCH  10  11
ATOM     11  C   UNL     1      -2.262  -6.115  17.331  1.00  0.00    -0.003 C 
ATOM     12  C   UNL     1      -1.935  -4.817  18.066  1.00  0.00     0.004 C 
ENDBRANCH  10  11
ENDBRANCH   9  10
ENDBRANCH   8   9
ENDBRANCH   7   8
ENDBRANCH   6   7
ENDBRANCH   5   6
ENDBRANCH   4   5
ENDBRANCH   3   4
ENDBRANCH   2   3
ENDBRANCH   1   2
BRANCH   1  13
ATOM     13  C   UNL     1       3.702  -3.777  11.326  1.00  0.00     0.000 C 
BRANCH  13  14
ATOM     14  C   UNL     1       4.366  -3.795   9.941  1.00  0.00     0.000 C 
BRANCH  14  15
ATOM     15  C   UNL     1       5.096  -2.479   9.611  1.00  0.00     0.000 C 
BRANCH  15  16
ATOM     16  C   UNL     1       4.514  -1.765   8.372  1.00  0.00     0.000 C 
BRANCH  16  17
ATOM     17  C   UNL     1       4.976  -0.304   8.212  1.00  0.00     0.000 C 
BRANCH  17  18
ATOM     18  C   UNL     1       4.047   0.752   8.838  1.00  0.00     0.000 C 
BRANCH  18  19
ATOM     19  C   UNL     1       4.752   2.013   9.377  1.00  0.00     0.000 C 
BRANCH  19  20
ATOM     20  C   UNL     1       5.109   1.980  10.876  1.00  0.00     0.006 C 
BRANCH  20  21
ATOM     21  C   UNL     1       4.474   0.806  11.645  1.00  0.00     0.053 C 
BRANCH  21  22
ATOM     22  C   UNL     1       4.621   0.939  13.129  1.00  0.00     0.041 C 
ATOM     23  O   UNL     1       5.125   0.002  13.804  1.00  0.00    -0.550 OA
ATOM     24  O   UNL     1       4.236   2.115  13.764  1.00  0.00    -0.550 OA
ENDBRANCH  21  22
ENDBRANCH  20  21
ENDBRANCH  19  20
ENDBRANCH  18  19
ENDBRANCH  17  18
ENDBRANCH  16  17
ENDBRANCH  15  16
ENDBRANCH  14  15
ENDBRANCH  13  14
ENDBRANCH   1  13
TORSDOF 20
ENDMDL
MODEL 3
REMARK VINA RESULT:     0.657      1.083      2.912
REMARK INTER + INTRA:           0.423
REMARK INTER:                  -0.522
REMARK INTRA:                   0.945
REMARK UNBOUND:                -1.003
REMARK SMILES CCCCCCCCCCCCCCCCCCCCCC(=O)[O-]
REMARK SMILES IDX 12 1 11 2 10 3 9 4 8 5 7 6 6 7 5 8 4 9 3 10 2 11 1 12 13 13
REMARK SMILES IDX 14 14 15 15 16 16 17 17 18 18 19 19 20 20 21 21 22 22 23 23
REMARK SMILES IDX 24 24
REMARK H PARENT
REMARK Flexibility Score: inf
ROOT
ATOM      1  C   UNL     1     -14.489 -12.067  20.328  1.00  0.00     0.000 C 
ENDROOT
BRANCH   1   2
ATOM      2  C   UNL     1     -14.910 -12.422  18.889  1.00  0.00     0.000 C 
BRANCH   2   3
ATOM      3  C   UNL     1     -14.895 -13.931  18.583  1.00  0.00     0.000 C 
BRANCH   3   4
ATOM      4  C   UNL     1     -14.699 -14.789  19.848  1.00  0.00    -0.000 C 
BRANCH   4   5
ATOM      5  C   UNL     1     -13.459 -15.695  19.756  1.00  0.00    -0.000 C 
BRANCH   5   6
ATOM      6  C   UNL     1     -13.369 -16.693  20.925  1.00  0.00    -0.000 C 
BRANCH   6   7
ATOM      7  C   UNL     1     -14.459 -17.784  20.851  1.00  0.00    -0.000 C 
BRANCH   7   8
ATOM      8  C   UNL     1     -15.124 -18.096  22.206  1.00  0.00    -0.000 C 
BRANCH   8   9
ATOM      9  C   UNL     1     -14.166 -18.125  23.409  1.00  0.00    -0.000 C 
BRANCH   9  10
ATOM     10  C   UNL     1     -14.600 -17.177  24.539  1.00  0.00    -0.000 C 
BRANCH  10  11
ATOM     11  C   UNL     1     -14.990 -15.803  23.984  1.00  0.00    -0.003 C 
ATOM     12  C   UNL     1     -14.476 -14.680  24.883  1.00  0.00     0.004 C 
ENDBRANCH  10  11
ENDBRANCH   9  10
ENDBRANCH   8   9
ENDBRANCH   7   8
ENDBRANCH   6   7
ENDBRANCH   5   6
ENDBRANCH   4   5
ENDBRANCH   3   4
ENDBRANCH   2   3
ENDBRANCH   1   2
BRANCH   1  13
ATOM     13  C   UNL     1     -15.125 -13.003  21.371  1.00  0.00     0.000 C 
BRANCH  13  14
ATOM     14  C   UNL     1     -14.880 -12.538  22.815  1.00  0.00     0.000 C 
BRANCH  14  15
ATOM     15  C   UNL     1     -13.396 -12.609  23.221  1.00  0.00     0.000 C 
BRANCH  15  16
ATOM     16  C   UNL     1     -12.439 -12.529  22.013  1.00  0.00     0.000 C 
BRANCH  16  17
ATOM     17  C   UNL     1     -11.323 -13.592  22.022  1.00  0.00     0.000 C 
BRANCH  17  18
ATOM     18  C   UNL     1     -10.839 -14.049  20.633  1.00  0.00     0.000 C 
BRANCH  18  19
ATOM     19  C   UNL     1     -10.667 -12.923  19.593  1.00  0.00     0.000 C 
BRANCH  19  20
ATOM     20  C   UNL     1     -11.428 -13.127  18.269  1.00  0.00     0.006 C 
BRANCH  20  21
ATOM     21  C   UNL     1     -10.994 -12.167  17.144  1.00  0.00     0.053 C 
BRANCH  21  22
ATOM     22  C   UNL     1     -11.829 -10.924  17.091  1.00  0.00     0.041 C 
ATOM     23  O   UNL     1     -13.073 -10.987  17.279  1.00  0.00    -0.550 OA
ATOM     24  O   UNL     1     -11.227  -9.690  16.870  1.00  0.00    -0.550 OA
ENDBRANCH  21  22
ENDBRANCH  20  21
ENDBRANCH  19  20
ENDBRANCH  18  19
ENDBRANCH  17  18
ENDBRANCH  16  17
ENDBRANCH  15  16
ENDBRANCH  14  15
ENDBRANCH  13  14
ENDBRANCH   1  13
TORSDOF 20
ENDMDL
MODEL 4
REMARK VINA RESULT:     0.679      2.454      4.056
REMARK INTER + INTRA:           0.470
REMARK INTER:                   2.599
REMARK INTRA:                  -2.129
REMARK UNBOUND:                -1.003
REMARK SMILES CCCCCCCCCCCCCCCCCCCCCC(=O)[O-]
REMARK SMILES IDX 12 1 11 2 10 3 9 4 8 5 7 6 6 7 5 8 4 9 3 10 2 11 1 12 13 13
REMARK SMILES IDX 14 14 15 15 16 16 17 17 18 18 19 19 20 20 21 21 22 22 23 23
REMARK SMILES IDX 24 24
REMARK H PARENT
REMARK Flexibility Score: inf
ROOT
ATOM      1  C   UNL     1     -13.569 -12.578  20.016  1.00  0.00     0.000 C 
ENDROOT
BRANCH   1   2
ATOM      2  C   UNL     1     -14.765 -13.543  19.904  1.00  0.00     0.000 C 
BRANCH   2   3
ATOM      3  C   UNL     1     -14.858 -14.275  18.552  1.00  0.00     0.000 C 
BRANCH   3   4
ATOM      4  C   UNL     1     -14.998 -15.800  18.713  1.00  0.00    -0.000 C 
BRANCH   4   5
ATOM      5  C   UNL     1     -13.790 -16.428  19.430  1.00  0.00    -0.000 C 
BRANCH   5   6
ATOM      6  C   UNL     1     -14.180 -17.644  20.290  1.00  0.00    -0.000 C 
BRANCH   6   7
ATOM      7  C   UNL     1     -15.116 -17.262  21.457  1.00  0.00    -0.000 C 
BRANCH   7   8
ATOM      8  C   UNL     1     -14.633 -17.759  22.834  1.00  0.00    -0.000 C 
BRANCH   8   9
ATOM      9  C   UNL     1     -14.075 -16.664  23.760  1.00  0.00    -0.000 C 
BRANCH   9  10
ATOM     10  C   UNL     1     -13.483 -15.474  22.988  1.00  0.00    -0.000 C 
BRANCH  10  11
ATOM     11  C   UNL     1     -13.490 -14.204  23.846  1.00  0.00    -0.003 C 
ATOM     12  C   UNL     1     -14.610 -14.248  24.884  1.00  0.00     0.004 C 
ENDBRANCH  10  11
ENDBRANCH   9  10
ENDBRANCH   8   9
ENDBRANCH   7   8
ENDBRANCH   6   7
ENDBRANCH   5   6
ENDBRANCH   4   5
ENDBRANCH   3   4
ENDBRANCH   2   3
ENDBRANCH   1   2
BRANCH   1  13
ATOM     13  C   UNL     1     -12.349 -13.235  20.685  1.00  0.00     0.000 C 
BRANCH  13  14
ATOM     14  C   UNL     1     -11.094 -13.200  19.799  1.00  0.00     0.000 C 
BRANCH  14  15
ATOM     15  C   UNL     1     -11.421 -13.294  18.296  1.00  0.00     0.000 C 
BRANCH  15  16
ATOM     16  C   UNL     1     -10.896 -12.086  17.492  1.00  0.00     0.000 C 
BRANCH  16  17
ATOM     17  C   UNL     1     -11.996 -11.110  17.030  1.00  0.00     0.000 C 
BRANCH  17  18
ATOM     18  C   UNL     1     -11.505  -9.706  16.634  1.00  0.00     0.000 C 
BRANCH  18  19
ATOM     19  C   UNL     1     -10.395  -9.119  17.529  1.00  0.00     0.000 C 
BRANCH  19  20
ATOM     20  C   UNL     1     -10.755  -7.806  18.252  1.00  0.00     0.006 C 
BRANCH  20  21
ATOM     21  C   UNL     1      -9.535  -6.943  18.627  1.00  0.00     0.053 C 
BRANCH  21  22
ATOM     22  C   UNL     1      -9.911  -5.717  19.402  1.00  0.00     0.041 C 
ATOM     23  O   UNL     1     -10.232  -5.809  20.616  1.00  0.00    -0.550 OA
ATOM     24  O   UNL     1      -9.868  -4.468  18.793  1.00  0.00    -0.550 OA
ENDBRANCH  21  22
ENDBRANCH  20  21
ENDBRANCH  19  20
ENDBRANCH  18  19
ENDBRANCH  17  18
ENDBRANCH  16  17
ENDBRANCH  15  16
ENDBRANCH  14  15
ENDBRANCH  13  14
ENDBRANCH   1  13
TORSDOF 20
ENDMDL
MODEL 5
REMARK VINA RESULT:     0.725      3.426      7.279
REMARK INTER + INTRA:           0.570
REMARK INTER:                   1.411
REMARK INTRA:                  -0.841
REMARK UNBOUND:                -1.003
REMARK SMILES CCCCCCCCCCCCCCCCCCCCCC(=O)[O-]
REMARK SMILES IDX 12 1 11 2 10 3 9 4 8 5 7 6 6 7 5 8 4 9 3 10 2 11 1 12 13 13
REMARK SMILES IDX 14 14 15 15 16 16 17 17 18 18 19 19 20 20 21 21 22 22 23 23
REMARK SMILES IDX 24 24
REMARK H PARENT
REMARK Flexibility Score: inf
ROOT
ATOM      1  C   UNL     1     -13.793 -12.804  19.206  1.00  0.00     0.000 C 
ENDROOT
BRANCH   1   2
ATOM      2  C   UNL     1     -12.468 -13.267  19.841  1.00  0.00     0.000 C 
BRANCH   2   3
ATOM      3  C   UNL     1     -11.221 -12.558  19.281  1.00  0.00     0.000 C 
BRANCH   3   4
ATOM      4  C   UNL     1     -11.294 -12.349  17.757  1.00  0.00    -0.000 C 
BRANCH   4   5
ATOM      5  C   UNL     1     -12.176 -11.149  17.370  1.00  0.00    -0.000 C 
BRANCH   5   6
ATOM      6  C   UNL     1     -11.379 -10.029  16.677  1.00  0.00    -0.000 C 
BRANCH   6   7
ATOM      7  C   UNL     1     -10.306  -9.414  17.601  1.00  0.00    -0.000 C 
BRANCH   7   8
ATOM      8  C   UNL     1     -10.384  -7.879  17.716  1.00  0.00    -0.000 C 
BRANCH   8   9
ATOM      9  C   UNL     1      -9.604  -7.275  18.896  1.00  0.00    -0.000 C 
BRANCH   9  10
ATOM     10  C   UNL     1      -9.902  -5.781  19.105  1.00  0.00    -0.000 C 
BRANCH  10  11
ATOM     11  C   UNL     1      -9.788  -5.400  20.585  1.00  0.00    -0.003 C 
ATOM     12  C   UNL     1      -9.548  -3.900  20.751  1.00  0.00     0.004 C 
ENDBRANCH  10  11
ENDBRANCH   9  10
ENDBRANCH   8   9
ENDBRANCH   7   8
ENDBRANCH   6   7
ENDBRANCH   5   6
ENDBRANCH   4   5
ENDBRANCH   3   4
ENDBRANCH   2   3
ENDBRANCH   1   2
BRANCH   1  13
ATOM     13  C   UNL     1     -14.988 -12.963  20.163  1.00  0.00     0.000 C 
BRANCH  13  14
ATOM     14  C   UNL     1     -15.116 -11.796  21.154  1.00  0.00     0.000 C 
BRANCH  14  15
ATOM     15  C   UNL     1     -14.614 -12.153  22.566  1.00  0.00     0.000 C 
BRANCH  15  16
ATOM     16  C   UNL     1     -15.069 -13.553  23.028  1.00  0.00     0.000 C 
BRANCH  16  17
ATOM     17  C   UNL     1     -13.913 -14.505  23.389  1.00  0.00     0.000 C 
BRANCH  17  18
ATOM     18  C   UNL     1     -14.322 -15.779  24.150  1.00  0.00     0.000 C 
BRANCH  18  19
ATOM     19  C   UNL     1     -14.465 -17.046  23.283  1.00  0.00     0.000 C 
BRANCH  19  20
ATOM     20  C   UNL     1     -15.064 -16.822  21.880  1.00  0.00     0.006 C 
BRANCH  20  21
ATOM     21  C   UNL     1     -14.269 -17.496  20.745  1.00  0.00     0.053 C 
BRANCH  21  22
ATOM     22  C   UNL     1     -14.041 -16.583  19.579  1.00  0.00     0.041 C 
ATOM     23  O   UNL     1     -12.871 -16.352  19.174  1.00  0.00    -0.550 OA
ATOM     24  O   UNL     1     -15.123 -16.018  18.915  1.00  0.00    -0.550 OA
ENDBRANCH  21  22
ENDBRANCH  20  21
ENDBRANCH  19  20
ENDBRANCH  18  19
ENDBRANCH  17  18
ENDBRANCH  16  17
ENDBRANCH  15  16
ENDBRANCH  14  15
ENDBRANCH  13  14
ENDBRANCH   1  13
TORSDOF 20
ENDMDL
MODEL 6
REMARK VINA RESULT:     0.776      3.212      7.463
REMARK INTER + INTRA:           0.679
REMARK INTER:                   1.931
REMARK INTRA:                  -1.252
REMARK UNBOUND:                -1.003
REMARK SMILES CCCCCCCCCCCCCCCCCCCCCC(=O)[O-]
REMARK SMILES IDX 12 1 11 2 10 3 9 4 8 5 7 6 6 7 5 8 4 9 3 10 2 11 1 12 13 13
REMARK SMILES IDX 14 14 15 15 16 16 17 17 18 18 19 19 20 20 21 21 22 22 23 23
REMARK SMILES IDX 24 24
REMARK H PARENT
REMARK Flexibility Score: inf
ROOT
ATOM      1  C   UNL     1     -13.803 -13.221  19.131  1.00  0.00     0.000 C 
ENDROOT
BRANCH   1   2
ATOM      2  C   UNL     1     -12.606 -12.890  20.042  1.00  0.00     0.000 C 
BRANCH   2   3
ATOM      3  C   UNL     1     -11.236 -13.252  19.438  1.00  0.00     0.000 C 
BRANCH   3   4
ATOM      4  C   UNL     1     -11.298 -13.458  17.913  1.00  0.00    -0.000 C 
BRANCH   4   5
ATOM      5  C   UNL     1     -10.880 -12.199  17.134  1.00  0.00    -0.000 C 
BRANCH   5   6
ATOM      6  C   UNL     1     -11.953 -11.095  17.175  1.00  0.00    -0.000 C 
BRANCH   6   7
ATOM      7  C   UNL     1     -11.365  -9.695  16.897  1.00  0.00    -0.000 C 
BRANCH   7   8
ATOM      8  C   UNL     1     -10.315  -9.240  17.929  1.00  0.00    -0.000 C 
BRANCH   8   9
ATOM      9  C   UNL     1     -10.155  -7.717  18.066  1.00  0.00    -0.000 C 
BRANCH   9  10
ATOM     10  C   UNL     1      -8.968  -7.319  18.959  1.00  0.00    -0.000 C 
BRANCH  10  11
ATOM     11  C   UNL     1      -9.293  -6.067  19.781  1.00  0.00    -0.003 C 
ATOM     12  C   UNL     1      -9.996  -5.014  18.925  1.00  0.00     0.004 C 
ENDBRANCH  10  11
ENDBRANCH   9  10
ENDBRANCH   8   9
ENDBRANCH   7   8
ENDBRANCH   6   7
ENDBRANCH   5   6
ENDBRANCH   4   5
ENDBRANCH   3   4
ENDBRANCH   2   3
ENDBRANCH   1   2
BRANCH   1  13
ATOM     13  C   UNL     1     -14.702 -14.320  19.724  1.00  0.00     0.000 C 
BRANCH  13  14
ATOM     14  C   UNL     1     -14.764 -15.577  18.842  1.00  0.00     0.000 C 
BRANCH  14  15
ATOM     15  C   UNL     1     -13.737 -16.648  19.255  1.00  0.00     0.000 C 
BRANCH  15  16
ATOM     16  C   UNL     1     -13.597 -16.786  20.786  1.00  0.00     0.000 C 
BRANCH  16  17
ATOM     17  C   UNL     1     -14.608 -17.757  21.426  1.00  0.00     0.000 C 
BRANCH  17  18
ATOM     18  C   UNL     1     -15.104 -17.361  22.828  1.00  0.00     0.000 C 
BRANCH  18  19
ATOM     19  C   UNL     1     -14.045 -16.714  23.743  1.00  0.00     0.000 C 
BRANCH  19  20
ATOM     20  C   UNL     1     -14.584 -16.119  25.059  1.00  0.00     0.006 C 
BRANCH  20  21
ATOM     21  C   UNL     1     -14.787 -14.592  25.019  1.00  0.00     0.053 C 
BRANCH  21  22
ATOM     22  C   UNL     1     -14.286 -13.976  23.749  1.00  0.00     0.041 C 
ATOM     23  O   UNL     1     -15.065 -13.307  23.019  1.00  0.00    -0.550 OA
ATOM     24  O   UNL     1     -12.950 -14.108  23.391  1.00  0.00    -0.550 OA
ENDBRANCH  21  22
ENDBRANCH  20  21
ENDBRANCH  19  20
ENDBRANCH  18  19
ENDBRANCH  17  18
ENDBRANCH  16  17
ENDBRANCH  15  16
ENDBRANCH  14  15
ENDBRANCH  13  14
ENDBRANCH   1  13
TORSDOF 20
ENDMDL
MODEL 7
REMARK VINA RESULT:     0.851      3.099      5.190
REMARK INTER + INTRA:           0.844
REMARK INTER:                   2.396
REMARK INTRA:                  -1.552
REMARK UNBOUND:                -1.003
REMARK SMILES CCCCCCCCCCCCCCCCCCCCCC(=O)[O-]
REMARK SMILES IDX 12 1 11 2 10 3 9 4 8 5 7 6 6 7 5 8 4 9 3 10 2 11 1 12 13 13
REMARK SMILES IDX 14 14 15 15 16 16 17 17 18 18 19 19 20 20 21 21 22 22 23 23
REMARK SMILES IDX 24 24
REMARK H PARENT
REMARK Flexibility Score: inf
ROOT
ATOM      1  C   UNL     1     -13.719 -12.850  18.999  1.00  0.00     0.000 C 
ENDROOT
BRANCH   1   2
ATOM      2  C   UNL     1     -14.799 -12.370  19.987  1.00  0.00     0.000 C 
BRANCH   2   3
ATOM      3  C   UNL     1     -15.119 -13.378  21.107  1.00  0.00     0.000 C 
BRANCH   3   4
ATOM      4  C   UNL     1     -14.575 -12.932  22.478  1.00  0.00    -0.000 C 
BRANCH   4   5
ATOM      5  C   UNL     1     -13.386 -13.789  22.944  1.00  0.00    -0.000 C 
BRANCH   5   6
ATOM      6  C   UNL     1     -13.802 -14.884  23.943  1.00  0.00    -0.000 C 
BRANCH   6   7
ATOM      7  C   UNL     1     -13.780 -16.293  23.313  1.00  0.00    -0.000 C 
BRANCH   7   8
ATOM      8  C   UNL     1     -15.100 -16.691  22.623  1.00  0.00    -0.000 C 
BRANCH   8   9
ATOM      9  C   UNL     1     -15.117 -18.105  22.019  1.00  0.00    -0.000 C 
BRANCH   9  10
ATOM     10  C   UNL     1     -14.853 -18.110  20.504  1.00  0.00    -0.000 C 
BRANCH  10  11
ATOM     11  C   UNL     1     -14.603 -16.690  19.986  1.00  0.00    -0.003 C 
ATOM     12  C   UNL     1     -13.342 -16.631  19.127  1.00  0.00     0.004 C 
ENDBRANCH  10  11
ENDBRANCH   9  10
ENDBRANCH   8   9
ENDBRANCH   7   8
ENDBRANCH   6   7
ENDBRANCH   5   6
ENDBRANCH   4   5
ENDBRANCH   3   4
ENDBRANCH   2   3
ENDBRANCH   1   2
BRANCH   1  13
ATOM     13  C   UNL     1     -12.391 -13.185  19.702  1.00  0.00     0.000 C 
BRANCH  13  14
ATOM     14  C   UNL     1     -11.177 -12.531  19.023  1.00  0.00     0.000 C 
BRANCH  14  15
ATOM     15  C   UNL     1     -11.411 -12.246  17.527  1.00  0.00     0.000 C 
BRANCH  15  16
ATOM     16  C   UNL     1     -11.582 -10.743  17.223  1.00  0.00     0.000 C 
BRANCH  16  17
ATOM     17  C   UNL     1     -10.283  -9.924  17.346  1.00  0.00     0.000 C 
BRANCH  17  18
ATOM     18  C   UNL     1     -10.471  -8.397  17.406  1.00  0.00     0.000 C 
BRANCH  18  19
ATOM     19  C   UNL     1      -9.855  -7.706  18.639  1.00  0.00     0.000 C 
BRANCH  19  20
ATOM     20  C   UNL     1      -9.304  -6.287  18.394  1.00  0.00     0.006 C 
BRANCH  20  21
ATOM     21  C   UNL     1     -10.172  -5.166  18.996  1.00  0.00     0.053 C 
BRANCH  21  22
ATOM     22  C   UNL     1      -9.952  -4.992  20.468  1.00  0.00     0.041 C 
ATOM     23  O   UNL     1      -9.265  -4.027  20.897  1.00  0.00    -0.550 OA
ATOM     24  O   UNL     1     -10.537  -5.874  21.369  1.00  0.00    -0.550 OA
ENDBRANCH  21  22
ENDBRANCH  20  21
ENDBRANCH  19  20
ENDBRANCH  18  19
ENDBRANCH  17  18
ENDBRANCH  16  17
ENDBRANCH  15  16
ENDBRANCH  14  15
ENDBRANCH  13  14
ENDBRANCH   1  13
TORSDOF 20
ENDMDL
MODEL 8
REMARK VINA RESULT:     0.976      3.435      7.475
REMARK INTER + INTRA:           1.113
REMARK INTER:                   3.054
REMARK INTRA:                  -1.940
REMARK UNBOUND:                -1.003
REMARK SMILES CCCCCCCCCCCCCCCCCCCCCC(=O)[O-]
REMARK SMILES IDX 12 1 11 2 10 3 9 4 8 5 7 6 6 7 5 8 4 9 3 10 2 11 1 12 13 13
REMARK SMILES IDX 14 14 15 15 16 16 17 17 18 18 19 19 20 20 21 21 22 22 23 23
REMARK SMILES IDX 24 24
REMARK H PARENT
REMARK Flexibility Score: inf
ROOT
ATOM      1  C   UNL     1     -13.760 -12.156  19.085  1.00  0.00     0.000 C 
ENDROOT
BRANCH   1   2
ATOM      2  C   UNL     1     -12.573 -12.853  19.776  1.00  0.00     0.000 C 
BRANCH   2   3
ATOM      3  C   UNL     1     -11.267 -12.824  18.962  1.00  0.00     0.000 C 
BRANCH   3   4
ATOM      4  C   UNL     1     -11.516 -12.834  17.442  1.00  0.00    -0.000 C 
BRANCH   4   5
ATOM      5  C   UNL     1     -10.870 -11.631  16.733  1.00  0.00    -0.000 C 
BRANCH   5   6
ATOM      6  C   UNL     1     -11.402 -10.283  17.253  1.00  0.00    -0.000 C 
BRANCH   6   7
ATOM      7  C   UNL     1     -10.335  -9.169  17.197  1.00  0.00    -0.000 C 
BRANCH   7   8
ATOM      8  C   UNL     1     -10.212  -8.353  18.500  1.00  0.00    -0.000 C 
BRANCH   8   9
ATOM      9  C   UNL     1      -9.127  -7.263  18.484  1.00  0.00    -0.000 C 
BRANCH   9  10
ATOM     10  C   UNL     1      -8.952  -6.576  19.849  1.00  0.00    -0.000 C 
BRANCH  10  11
ATOM     11  C   UNL     1      -9.783  -5.290  19.927  1.00  0.00    -0.003 C 
ATOM     12  C   UNL     1     -10.259  -4.857  18.541  1.00  0.00     0.004 C 
ENDBRANCH  10  11
ENDBRANCH   9  10
ENDBRANCH   8   9
ENDBRANCH   7   8
ENDBRANCH   6   7
ENDBRANCH   5   6
ENDBRANCH   4   5
ENDBRANCH   3   4
ENDBRANCH   2   3
ENDBRANCH   1   2
BRANCH   1  13
ATOM     13  C   UNL     1     -15.118 -12.677  19.590  1.00  0.00     0.000 C 
BRANCH  13  14
ATOM     14  C   UNL     1     -15.048 -14.125  20.099  1.00  0.00     0.000 C 
BRANCH  14  15
ATOM     15  C   UNL     1     -15.094 -15.161  18.960  1.00  0.00     0.000 C 
BRANCH  15  16
ATOM     16  C   UNL     1     -13.955 -16.199  19.048  1.00  0.00     0.000 C 
BRANCH  16  17
ATOM     17  C   UNL     1     -14.365 -17.528  19.712  1.00  0.00     0.000 C 
BRANCH  17  18
ATOM     18  C   UNL     1     -13.993 -17.662  21.200  1.00  0.00     0.000 C 
BRANCH  18  19
ATOM     19  C   UNL     1     -15.116 -17.304  22.194  1.00  0.00     0.000 C 
BRANCH  19  20
ATOM     20  C   UNL     1     -14.722 -16.309  23.304  1.00  0.00     0.006 C 
BRANCH  20  21
ATOM     21  C   UNL     1     -13.410 -15.550  23.027  1.00  0.00     0.053 C 
BRANCH  21  22
ATOM     22  C   UNL     1     -13.478 -14.110  23.436  1.00  0.00     0.041 C 
ATOM     23  O   UNL     1     -12.478 -13.360  23.283  1.00  0.00    -0.550 OA
ATOM     24  O   UNL     1     -14.658 -13.588  23.952  1.00  0.00    -0.550 OA
ENDBRANCH  21  22
ENDBRANCH  20  21
ENDBRANCH  19  20
ENDBRANCH  18  19
ENDBRANCH  17  18
ENDBRANCH  16  17
ENDBRANCH  15  16
ENDBRANCH  14  15
ENDBRANCH  13  14
ENDBRANCH   1  13
TORSDOF 20
ENDMDL
MODEL 9
REMARK VINA RESULT:     2.013     17.245     22.533
REMARK INTER + INTRA:           3.362
REMARK INTER:                   4.473
REMARK INTRA:                  -1.110
REMARK UNBOUND:                -1.003
REMARK SMILES CCCCCCCCCCCCCCCCCCCCCC(=O)[O-]
REMARK SMILES IDX 12 1 11 2 10 3 9 4 8 5 7 6 6 7 5 8 4 9 3 10 2 11 1 12 13 13
REMARK SMILES IDX 14 14 15 15 16 16 17 17 18 18 19 19 20 20 21 21 22 22 23 23
REMARK SMILES IDX 24 24
REMARK H PARENT
REMARK Flexibility Score: inf
ROOT
ATOM      1  C   UNL     1       3.954  -2.450  12.028  1.00  0.00     0.000 C 
ENDROOT
BRANCH   1   2
ATOM      2  C   UNL     1       5.118  -2.220  11.047  1.00  0.00     0.000 C 
BRANCH   2   3
ATOM      3  C   UNL     1       5.100  -3.150   9.819  1.00  0.00     0.000 C 
BRANCH   3   4
ATOM      4  C   UNL     1       4.779  -2.400   8.513  1.00  0.00    -0.000 C 
BRANCH   4   5
ATOM      5  C   UNL     1       3.429  -1.666   8.574  1.00  0.00    -0.000 C 
BRANCH   5   6
ATOM      6  C   UNL     1       3.560  -0.161   8.276  1.00  0.00    -0.000 C 
BRANCH   6   7
ATOM      7  C   UNL     1       5.012   0.342   8.420  1.00  0.00    -0.000 C 
BRANCH   7   8
ATOM      8  C   UNL     1       5.125   1.789   8.938  1.00  0.00    -0.000 C 
BRANCH   8   9
ATOM      9  C   UNL     1       4.406   2.059  10.271  1.00  0.00    -0.000 C 
BRANCH   9  10
ATOM     10  C   UNL     1       5.089   1.374  11.466  1.00  0.00    -0.000 C 
BRANCH  10  11
ATOM     11  C   UNL     1       4.354   1.691  12.774  1.00  0.00    -0.003 C 
ATOM     12  C   UNL     1       5.044   1.031  13.966  1.00  0.00     0.004 C 
ENDBRANCH  10  11
ENDBRANCH   9  10
ENDBRANCH   8   9
ENDBRANCH   7   8
ENDBRANCH   6   7
ENDBRANCH   5   6
ENDBRANCH   4   5
ENDBRANCH   3   4
ENDBRANCH   2   3
ENDBRANCH   1   2
BRANCH   1  13
ATOM     13  C   UNL     1       3.263  -3.808  11.808  1.00  0.00     0.000 C 
BRANCH  13  14
ATOM     14  C   UNL     1       4.259  -4.977  11.740  1.00  0.00     0.000 C 
BRANCH  14  15
ATOM     15  C   UNL     1       4.679  -5.486  13.132  1.00  0.00     0.000 C 
BRANCH  15  16
ATOM     16  C   UNL     1       3.516  -5.483  14.147  1.00  0.00     0.000 C 
BRANCH  16  17
ATOM     17  C   UNL     1       2.328  -6.378  13.746  1.00  0.00     0.000 C 
BRANCH  17  18
ATOM     18  C   UNL     1       2.586  -7.894  13.838  1.00  0.00     0.000 C 
BRANCH  18  19
ATOM     19  C   UNL     1       1.701  -8.652  14.847  1.00  0.00     0.000 C 
BRANCH  19  20
ATOM     20  C   UNL     1       0.252  -8.141  14.970  1.00  0.00     0.006 C 
BRANCH  20  21
ATOM     21  C   UNL     1      -0.029  -7.361  16.268  1.00  0.00     0.053 C 
BRANCH  21  22
ATOM     22  C   UNL     1      -1.445  -6.882  16.360  1.00  0.00     0.041 C 
ATOM     23  O   UNL     1      -2.384  -7.587  15.904  1.00  0.00    -0.550 OA
ATOM     24  O   UNL     1      -1.733  -5.674  16.984  1.00  0.00    -0.550 OA
ENDBRANCH  21  22
ENDBRANCH  20  21
ENDBRANCH  19  20
ENDBRANCH  18  19
ENDBRANCH  17  18
ENDBRANCH  16  17
ENDBRANCH  15  16
ENDBRANCH  14  15
ENDBRANCH  13  14
ENDBRANCH   1  13
TORSDOF 20
ENDMDL
