MODEL 1
REMARK VINA RESULT:    -6.012      0.000      0.000
REMARK INTER + INTRA:          -6.539
REMARK INTER:                  -6.539
REMARK INTRA:                   0.000
REMARK UNBOUND:                 0.000
REMARK SMILES Cc1cc(O)c2c(c1)C(=O)c1cc(O)cc(O)c1C2=O
REMARK SMILES IDX 1 1 2 2 8 3 7 4 6 5 4 6 3 7 19 8 20 9 18 10 11 11 9 12 10 13
REMARK SMILES IDX 12 14 13 15 15 16 16 17 5 18 17 20 14 22
REMARK H PARENT 5 19 17 21 14 23
REMARK Flexibility Score: inf
ROOT
ATOM      1  C   UNL     1     101.441 117.045  95.125  1.00  0.00     0.044 C 
ATOM      2  C   UNL     1     101.415 118.545  95.162  1.00  0.00    -0.047 A 
ATOM      3  C   UNL     1     100.302 119.243  94.681  1.00  0.00     0.016 A 
ATOM      4  C   UNL     1     100.257 120.645  94.738  1.00  0.00     0.038 A 
ATOM      5  C   UNL     1     101.345 121.363  95.286  1.00  0.00     0.076 A 
ATOM      6  C   UNL     1     102.432 120.647  95.848  1.00  0.00     0.127 A 
ATOM      7  C   UNL     1     102.465 119.251  95.761  1.00  0.00     0.050 A 
ATOM      8  C   UNL     1     101.326 122.846  95.193  1.00  0.00     0.201 C 
ATOM      9  O   UNL     1     102.410 123.482  95.114  1.00  0.00    -0.288 OA
ATOM     10  C   UNL     1     100.035 123.557  95.005  1.00  0.00     0.076 A 
ATOM     11  C   UNL     1      98.949 122.836  94.460  1.00  0.00     0.041 A 
ATOM     12  C   UNL     1      99.071 121.377  94.233  1.00  0.00     0.194 C 
ATOM     13  O   UNL     1      98.153 120.753  93.631  1.00  0.00    -0.289 OA
ATOM     14  C   UNL     1      97.755 123.506  94.139  1.00  0.00     0.059 A 
ATOM     15  C   UNL     1      97.628 124.876  94.369  1.00  0.00     0.120 A 
ATOM     16  C   UNL     1      98.684 125.585  94.945  1.00  0.00     0.093 A 
ATOM     17  C   UNL     1      99.875 124.938  95.291  1.00  0.00     0.131 A 
ENDROOT
BRANCH   6  18
ATOM     18  O   UNL     1     103.477 121.274  96.529  1.00  0.00    -0.507 OA
ATOM     19  H   UNL     1     104.384 120.850  96.672  1.00  0.00     0.293 HD
ENDBRANCH   6  18
BRANCH  17  20
ATOM     20  O   UNL     1     100.851 125.693  95.946  1.00  0.00    -0.507 OA
ATOM     21  H   UNL     1     100.641 126.490  96.531  1.00  0.00     0.293 HD
ENDBRANCH  17  20
BRANCH  15  22
ATOM     22  O   UNL     1      96.440 125.521  94.030  1.00  0.00    -0.508 OA
ATOM     23  H   UNL     1      96.041 126.241  94.622  1.00  0.00     0.293 HD
ENDBRANCH  15  22
TORSDOF 3
ENDMDL
MODEL 2
REMARK VINA RESULT:    -5.976      1.492      5.543
REMARK INTER + INTRA:          -6.500
REMARK INTER:                  -6.500
REMARK INTRA:                   0.000
REMARK UNBOUND:                 0.000
REMARK SMILES Cc1cc(O)c2c(c1)C(=O)c1cc(O)cc(O)c1C2=O
REMARK SMILES IDX 1 1 2 2 8 3 7 4 6 5 4 6 3 7 19 8 20 9 18 10 11 11 9 12 10 13
REMARK SMILES IDX 12 14 13 15 15 16 16 17 5 18 17 20 14 22
REMARK H PARENT 5 19 17 21 14 23
REMARK Flexibility Score: inf
ROOT
ATOM      1  C   UNL     1      96.845 124.889  93.835  1.00  0.00     0.044 C 
ATOM      2  C   UNL     1      98.053 124.189  94.385  1.00  0.00    -0.047 A 
ATOM      3  C   UNL     1      98.155 122.796  94.307  1.00  0.00     0.016 A 
ATOM      4  C   UNL     1      99.295 122.134  94.794  1.00  0.00     0.038 A 
ATOM      5  C   UNL     1     100.350 122.878  95.368  1.00  0.00     0.076 A 
ATOM      6  C   UNL     1     100.277 124.295  95.367  1.00  0.00     0.127 A 
ATOM      7  C   UNL     1      99.124 124.931  94.897  1.00  0.00     0.050 A 
ATOM      8  C   UNL     1     101.469 122.135  96.004  1.00  0.00     0.201 C 
ATOM      9  O   UNL     1     102.089 122.647  96.974  1.00  0.00    -0.288 OA
ATOM     10  C   UNL     1     101.728 120.723  95.623  1.00  0.00     0.076 A 
ATOM     11  C   UNL     1     100.672 119.983  95.046  1.00  0.00     0.041 A 
ATOM     12  C   UNL     1      99.399 120.658  94.701  1.00  0.00     0.194 C 
ATOM     13  O   UNL     1      98.411 119.979  94.304  1.00  0.00    -0.289 OA
ATOM     14  C   UNL     1     100.835 118.609  94.798  1.00  0.00     0.059 A 
ATOM     15  C   UNL     1     102.038 117.971  95.102  1.00  0.00     0.120 A 
ATOM     16  C   UNL     1     103.099 118.708  95.635  1.00  0.00     0.093 A 
ATOM     17  C   UNL     1     102.969 120.080  95.872  1.00  0.00     0.131 A 
ENDROOT
BRANCH   6  18
ATOM     18  O   UNL     1     101.333 125.105  95.788  1.00  0.00    -0.507 OA
ATOM     19  H   UNL     1     101.391 125.511  96.712  1.00  0.00     0.293 HD
ENDBRANCH   6  18
BRANCH  17  20
ATOM     20  O   UNL     1     104.100 120.766  96.319  1.00  0.00    -0.507 OA
ATOM     21  H   UNL     1     104.801 121.152  95.700  1.00  0.00     0.293 HD
ENDBRANCH  17  20
BRANCH  15  22
ATOM     22  O   UNL     1     102.172 116.606  94.860  1.00  0.00    -0.508 OA
ATOM     23  H   UNL     1     101.374 116.032  94.612  1.00  0.00     0.293 HD
ENDBRANCH  15  22
TORSDOF 3
ENDMDL
MODEL 3
REMARK VINA RESULT:    -5.659      1.405      3.299
REMARK INTER + INTRA:          -6.155
REMARK INTER:                  -6.155
REMARK INTRA:                   0.000
REMARK UNBOUND:                 0.000
REMARK SMILES Cc1cc(O)c2c(c1)C(=O)c1cc(O)cc(O)c1C2=O
REMARK SMILES IDX 1 1 2 2 8 3 7 4 6 5 4 6 3 7 19 8 20 9 18 10 11 11 9 12 10 13
REMARK SMILES IDX 12 14 13 15 15 16 16 17 5 18 17 20 14 22
REMARK H PARENT 5 19 17 21 14 23
REMARK Flexibility Score: inf
ROOT
ATOM      1  C   UNL     1     103.148 117.103  95.224  1.00  0.00     0.044 C 
ATOM      2  C   UNL     1     102.146 118.216  95.335  1.00  0.00    -0.047 A 
ATOM      3  C   UNL     1     102.577 119.543  95.443  1.00  0.00     0.016 A 
ATOM      4  C   UNL     1     101.647 120.592  95.520  1.00  0.00     0.038 A 
ATOM      5  C   UNL     1     100.263 120.311  95.485  1.00  0.00     0.076 A 
ATOM      6  C   UNL     1      99.834 118.973  95.290  1.00  0.00     0.127 A 
ATOM      7  C   UNL     1     100.777 117.942  95.238  1.00  0.00     0.050 A 
ATOM      8  C   UNL     1      99.312 121.430  95.717  1.00  0.00     0.201 C 
ATOM      9  O   UNL     1      98.196 121.202  96.253  1.00  0.00    -0.288 OA
ATOM     10  C   UNL     1      99.753 122.831  95.492  1.00  0.00     0.076 A 
ATOM     11  C   UNL     1     101.138 123.108  95.523  1.00  0.00     0.041 A 
ATOM     12  C   UNL     1     102.112 121.997  95.627  1.00  0.00     0.194 C 
ATOM     13  O   UNL     1     103.340 122.245  95.783  1.00  0.00    -0.289 OA
ATOM     14  C   UNL     1     101.586 124.438  95.451  1.00  0.00     0.059 A 
ATOM     15  C   UNL     1     100.675 125.488  95.334  1.00  0.00     0.120 A 
ATOM     16  C   UNL     1      99.307 125.216  95.262  1.00  0.00     0.093 A 
ATOM     17  C   UNL     1      98.836 123.900  95.311  1.00  0.00     0.131 A 
ENDROOT
BRANCH   6  18
ATOM     18  O   UNL     1      98.493 118.629  95.108  1.00  0.00    -0.507 OA
ATOM     19  H   UNL     1      97.731 119.073  95.601  1.00  0.00     0.293 HD
ENDBRANCH   6  18
BRANCH  17  20
ATOM     20  O   UNL     1      97.465 123.700  95.140  1.00  0.00    -0.507 OA
ATOM     21  H   UNL     1      97.075 122.967  94.562  1.00  0.00     0.293 HD
ENDBRANCH  17  20
BRANCH  15  22
ATOM     22  O   UNL     1     101.143 126.800  95.278  1.00  0.00    -0.508 OA
ATOM     23  H   UNL     1     101.999 127.077  95.745  1.00  0.00     0.293 HD
ENDBRANCH  15  22
TORSDOF 3
ENDMDL
MODEL 4
REMARK VINA RESULT:    -5.524      5.801      8.743
REMARK INTER + INTRA:          -6.009
REMARK INTER:                  -6.009
REMARK INTRA:                   0.000
REMARK UNBOUND:                 0.000
REMARK SMILES Cc1cc(O)c2c(c1)C(=O)c1cc(O)cc(O)c1C2=O
REMARK SMILES IDX 1 1 2 2 8 3 7 4 6 5 4 6 3 7 19 8 20 9 18 10 11 11 9 12 10 13
REMARK SMILES IDX 12 14 13 15 15 16 16 17 5 18 17 20 14 22
REMARK H PARENT 5 19 17 21 14 23
REMARK Flexibility Score: inf
ROOT
ATOM      1  C   UNL     1     102.985 119.409  95.527  1.00  0.00     0.044 C 
ATOM      2  C   UNL     1     102.596 118.158  94.794  1.00  0.00    -0.047 A 
ATOM      3  C   UNL     1     101.509 117.394  95.232  1.00  0.00     0.016 A 
ATOM      4  C   UNL     1     101.120 116.238  94.537  1.00  0.00     0.038 A 
ATOM      5  C   UNL     1     101.830 115.839  93.382  1.00  0.00     0.076 A 
ATOM      6  C   UNL     1     102.877 116.663  92.895  1.00  0.00     0.127 A 
ATOM      7  C   UNL     1     103.260 117.798  93.616  1.00  0.00     0.050 A 
ATOM      8  C   UNL     1     101.484 114.534  92.760  1.00  0.00     0.201 C 
ATOM      9  O   UNL     1     102.369 113.875  92.154  1.00  0.00    -0.288 OA
ATOM     10  C   UNL     1     100.153 113.925  93.015  1.00  0.00     0.076 A 
ATOM     11  C   UNL     1      99.444 114.329  94.169  1.00  0.00     0.041 A 
ATOM     12  C   UNL     1      99.962 115.438  95.004  1.00  0.00     0.194 C 
ATOM     13  O   UNL     1      99.403 115.718  96.100  1.00  0.00    -0.289 OA
ATOM     14  C   UNL     1      98.247 113.679  94.518  1.00  0.00     0.059 A 
ATOM     15  C   UNL     1      97.744 112.647  93.726  1.00  0.00     0.120 A 
ATOM     16  C   UNL     1      98.420 112.272  92.562  1.00  0.00     0.093 A 
ATOM     17  C   UNL     1      99.602 112.916  92.182  1.00  0.00     0.131 A 
ENDROOT
BRANCH   6  18
ATOM     18  O   UNL     1     103.534 116.414  91.689  1.00  0.00    -0.507 OA
ATOM     19  H   UNL     1     104.186 115.653  91.555  1.00  0.00     0.293 HD
ENDBRANCH   6  18
BRANCH  17  20
ATOM     20  O   UNL     1     100.171 112.550  90.961  1.00  0.00    -0.507 OA
ATOM     21  H   UNL     1     101.068 112.091  90.878  1.00  0.00     0.293 HD
ENDBRANCH  17  20
BRANCH  15  22
ATOM     22  O   UNL     1      96.564 112.008  94.099  1.00  0.00    -0.508 OA
ATOM     23  H   UNL     1      95.766 111.963  93.475  1.00  0.00     0.293 HD
ENDBRANCH  15  22
TORSDOF 3
ENDMDL
MODEL 5
REMARK VINA RESULT:    -5.522      3.252      4.777
REMARK INTER + INTRA:          -6.007
REMARK INTER:                  -6.007
REMARK INTRA:                   0.000
REMARK UNBOUND:                 0.000
REMARK SMILES Cc1cc(O)c2c(c1)C(=O)c1cc(O)cc(O)c1C2=O
REMARK SMILES IDX 1 1 2 2 8 3 7 4 6 5 4 6 3 7 19 8 20 9 18 10 11 11 9 12 10 13
REMARK SMILES IDX 12 14 13 15 15 16 16 17 5 18 17 20 14 22
REMARK H PARENT 5 19 17 21 14 23
REMARK Flexibility Score: inf
ROOT
ATOM      1  C   UNL     1      99.954 113.225  94.612  1.00  0.00     0.044 C 
ATOM      2  C   UNL     1     100.664 114.537  94.782  1.00  0.00    -0.047 A 
ATOM      3  C   UNL     1      99.960 115.667  95.212  1.00  0.00     0.016 A 
ATOM      4  C   UNL     1     100.621 116.892  95.401  1.00  0.00     0.038 A 
ATOM      5  C   UNL     1     102.010 116.988  95.157  1.00  0.00     0.076 A 
ATOM      6  C   UNL     1     102.731 115.819  94.803  1.00  0.00     0.127 A 
ATOM      7  C   UNL     1     102.049 114.616  94.600  1.00  0.00     0.050 A 
ATOM      8  C   UNL     1     102.644 118.330  95.224  1.00  0.00     0.201 C 
ATOM      9  O   UNL     1     103.646 118.586  94.505  1.00  0.00    -0.288 OA
ATOM     10  C   UNL     1     101.986 119.420  95.990  1.00  0.00     0.076 A 
ATOM     11  C   UNL     1     100.598 119.319  96.236  1.00  0.00     0.041 A 
ATOM     12  C   UNL     1      99.870 118.084  95.864  1.00  0.00     0.194 C 
ATOM     13  O   UNL     1      98.612 118.037  95.964  1.00  0.00    -0.289 OA
ATOM     14  C   UNL     1      99.915 120.391  96.836  1.00  0.00     0.059 A 
ATOM     15  C   UNL     1     100.598 121.549  97.206  1.00  0.00     0.120 A 
ATOM     16  C   UNL     1     101.977 121.637  97.003  1.00  0.00     0.093 A 
ATOM     17  C   UNL     1     102.684 120.577  96.426  1.00  0.00     0.131 A 
ENDROOT
BRANCH   6  18
ATOM     18  O   UNL     1     104.122 115.800  94.679  1.00  0.00    -0.507 OA
ATOM     19  H   UNL     1     104.619 116.211  93.901  1.00  0.00     0.293 HD
ENDBRANCH   6  18
BRANCH  17  20
ATOM     20  O   UNL     1     104.072 120.700  96.338  1.00  0.00    -0.507 OA
ATOM     21  H   UNL     1     104.582 120.672  95.465  1.00  0.00     0.293 HD
ENDBRANCH  17  20
BRANCH  15  22
ATOM     22  O   UNL     1      99.897 122.604  97.787  1.00  0.00    -0.508 OA
ATOM     23  H   UNL     1      98.902 122.726  97.635  1.00  0.00     0.293 HD
ENDBRANCH  15  22
TORSDOF 3
ENDMDL
MODEL 6
REMARK VINA RESULT:    -5.478      1.341      6.283
REMARK INTER + INTRA:          -5.959
REMARK INTER:                  -5.959
REMARK INTRA:                   0.000
REMARK UNBOUND:                 0.000
REMARK SMILES Cc1cc(O)c2c(c1)C(=O)c1cc(O)cc(O)c1C2=O
REMARK SMILES IDX 1 1 2 2 8 3 7 4 6 5 4 6 3 7 19 8 20 9 18 10 11 11 9 12 10 13
REMARK SMILES IDX 12 14 13 15 15 16 16 17 5 18 17 20 14 22
REMARK H PARENT 5 19 17 21 14 23
REMARK Flexibility Score: inf
ROOT
ATOM      1  C   UNL     1      96.684 127.088  94.998  1.00  0.00     0.044 C 
ATOM      2  C   UNL     1      97.202 125.684  94.890  1.00  0.00    -0.047 A 
ATOM      3  C   UNL     1      98.558 125.415  95.109  1.00  0.00     0.016 A 
ATOM      4  C   UNL     1      99.048 124.101  95.038  1.00  0.00     0.038 A 
ATOM      5  C   UNL     1      98.166 123.036  94.743  1.00  0.00     0.076 A 
ATOM      6  C   UNL     1      96.780 123.304  94.606  1.00  0.00     0.127 A 
ATOM      7  C   UNL     1      96.319 124.623  94.660  1.00  0.00     0.050 A 
ATOM      8  C   UNL     1      98.744 121.684  94.530  1.00  0.00     0.201 C 
ATOM      9  O   UNL     1      98.175 120.875  93.750  1.00  0.00    -0.288 OA
ATOM     10  C   UNL     1     100.083 121.357  95.086  1.00  0.00     0.076 A 
ATOM     11  C   UNL     1     100.961 122.424  95.382  1.00  0.00     0.041 A 
ATOM     12  C   UNL     1     100.484 123.823  95.278  1.00  0.00     0.194 C 
ATOM     13  O   UNL     1     101.297 124.779  95.418  1.00  0.00    -0.289 OA
ATOM     14  C   UNL     1     102.281 122.154  95.779  1.00  0.00     0.059 A 
ATOM     15  C   UNL     1     102.730 120.838  95.898  1.00  0.00     0.120 A 
ATOM     16  C   UNL     1     101.854 119.780  95.645  1.00  0.00     0.093 A 
ATOM     17  C   UNL     1     100.529 120.022  95.269  1.00  0.00     0.131 A 
ENDROOT
BRANCH   6  18
ATOM     18  O   UNL     1      95.828 122.295  94.452  1.00  0.00    -0.507 OA
ATOM     19  H   UNL     1      94.831 122.454  94.514  1.00  0.00     0.293 HD
ENDBRANCH   6  18
BRANCH  17  20
ATOM     20  O   UNL     1      99.689 118.917  95.122  1.00  0.00    -0.507 OA
ATOM     21  H   UNL     1      99.993 117.962  95.257  1.00  0.00     0.293 HD
ENDBRANCH  17  20
BRANCH  15  22
ATOM     22  O   UNL     1     104.048 120.594  96.280  1.00  0.00    -0.508 OA
ATOM     23  H   UNL     1     104.289 119.818  96.886  1.00  0.00     0.293 HD
ENDBRANCH  15  22
TORSDOF 3
ENDMDL
MODEL 7
REMARK VINA RESULT:    -5.463     14.895     16.209
REMARK INTER + INTRA:          -5.942
REMARK INTER:                  -5.942
REMARK INTRA:                   0.000
REMARK UNBOUND:                 0.000
REMARK SMILES Cc1cc(O)c2c(c1)C(=O)c1cc(O)cc(O)c1C2=O
REMARK SMILES IDX 1 1 2 2 8 3 7 4 6 5 4 6 3 7 19 8 20 9 18 10 11 11 9 12 10 13
REMARK SMILES IDX 12 14 13 15 15 16 16 17 5 18 17 20 14 22
REMARK H PARENT 5 19 17 21 14 23
REMARK Flexibility Score: inf
ROOT
ATOM      1  C   UNL     1      90.969 117.202 104.733  1.00  0.00     0.044 C 
ATOM      2  C   UNL     1      89.775 118.112 104.721  1.00  0.00    -0.047 A 
ATOM      3  C   UNL     1      89.942 119.495 104.859  1.00  0.00     0.016 A 
ATOM      4  C   UNL     1      88.833 120.356 104.820  1.00  0.00     0.038 A 
ATOM      5  C   UNL     1      87.536 119.826 104.640  1.00  0.00     0.076 A 
ATOM      6  C   UNL     1      87.382 118.434 104.416  1.00  0.00     0.127 A 
ATOM      7  C   UNL     1      88.498 117.593 104.480  1.00  0.00     0.050 A 
ATOM      8  C   UNL     1      86.377 120.751 104.753  1.00  0.00     0.201 C 
ATOM      9  O   UNL     1      85.269 120.319 105.167  1.00  0.00    -0.288 OA
ATOM     10  C   UNL     1      86.576 122.210 104.559  1.00  0.00     0.076 A 
ATOM     11  C   UNL     1      87.876 122.736 104.737  1.00  0.00     0.041 A 
ATOM     12  C   UNL     1      89.019 121.821 104.960  1.00  0.00     0.194 C 
ATOM     13  O   UNL     1      90.157 122.288 105.245  1.00  0.00    -0.289 OA
ATOM     14  C   UNL     1      88.079 124.127 104.698  1.00  0.00     0.059 A 
ATOM     15  C   UNL     1      87.010 124.993 104.469  1.00  0.00     0.120 A 
ATOM     16  C   UNL     1      85.731 124.476 104.252  1.00  0.00     0.093 A 
ATOM     17  C   UNL     1      85.506 123.095 104.266  1.00  0.00     0.131 A 
ENDROOT
BRANCH   6  18
ATOM     18  O   UNL     1      86.155 117.852 104.094  1.00  0.00    -0.507 OA
ATOM     19  H   UNL     1      85.451 118.310 103.531  1.00  0.00     0.293 HD
ENDBRANCH   6  18
BRANCH  17  20
ATOM     20  O   UNL     1      84.221 122.649 103.951  1.00  0.00    -0.507 OA
ATOM     21  H   UNL     1      84.034 121.785 103.460  1.00  0.00     0.293 HD
ENDBRANCH  17  20
BRANCH  15  22
ATOM     22  O   UNL     1      87.234 126.368 104.448  1.00  0.00    -0.508 OA
ATOM     23  H   UNL     1      88.141 126.761 104.674  1.00  0.00     0.293 HD
ENDBRANCH  15  22
TORSDOF 3
ENDMDL
MODEL 8
REMARK VINA RESULT:    -5.460      1.391      2.144
REMARK INTER + INTRA:          -5.939
REMARK INTER:                  -5.939
REMARK INTRA:                   0.000
REMARK UNBOUND:                 0.000
REMARK SMILES Cc1cc(O)c2c(c1)C(=O)c1cc(O)cc(O)c1C2=O
REMARK SMILES IDX 1 1 2 2 8 3 7 4 6 5 4 6 3 7 19 8 20 9 18 10 11 11 9 12 10 13
REMARK SMILES IDX 12 14 13 15 15 16 16 17 5 18 17 20 14 22
REMARK H PARENT 5 19 17 21 14 23
REMARK Flexibility Score: inf
ROOT
ATOM      1  C   UNL     1     102.592 119.237  95.567  1.00  0.00     0.044 C 
ATOM      2  C   UNL     1     101.894 120.550  95.363  1.00  0.00    -0.047 A 
ATOM      3  C   UNL     1     100.521 120.582  95.092  1.00  0.00     0.016 A 
ATOM      4  C   UNL     1      99.853 121.807  94.927  1.00  0.00     0.038 A 
ATOM      5  C   UNL     1     100.570 123.020  95.036  1.00  0.00     0.076 A 
ATOM      6  C   UNL     1     101.942 122.982  95.394  1.00  0.00     0.127 A 
ATOM      7  C   UNL     1     102.591 121.751  95.533  1.00  0.00     0.050 A 
ATOM      8  C   UNL     1      99.862 124.286  94.710  1.00  0.00     0.201 C 
ATOM      9  O   UNL     1     100.507 125.260  94.238  1.00  0.00    -0.288 OA
ATOM     10  C   UNL     1      98.379 124.336  94.762  1.00  0.00     0.076 A 
ATOM     11  C   UNL     1      97.665 123.121  94.656  1.00  0.00     0.041 A 
ATOM     12  C   UNL     1      98.398 121.833  94.647  1.00  0.00     0.194 C 
ATOM     13  O   UNL     1      97.778 120.755  94.426  1.00  0.00    -0.289 OA
ATOM     14  C   UNL     1      96.263 123.139  94.563  1.00  0.00     0.059 A 
ATOM     15  C   UNL     1      95.566 124.347  94.590  1.00  0.00     0.120 A 
ATOM     16  C   UNL     1      96.264 125.548  94.735  1.00  0.00     0.093 A 
ATOM     17  C   UNL     1      97.658 125.556  94.850  1.00  0.00     0.131 A 
ENDROOT
BRANCH   6  18
ATOM     18  O   UNL     1     102.685 124.135  95.657  1.00  0.00    -0.507 OA
ATOM     19  H   UNL     1     102.657 124.961  95.075  1.00  0.00     0.293 HD
ENDBRANCH   6  18
BRANCH  17  20
ATOM     20  O   UNL     1      98.278 126.785  95.085  1.00  0.00    -0.507 OA
ATOM     21  H   UNL     1      98.701 127.038  95.968  1.00  0.00     0.293 HD
ENDBRANCH  17  20
BRANCH  15  22
ATOM     22  O   UNL     1      94.177 124.341  94.482  1.00  0.00    -0.508 OA
ATOM     23  H   UNL     1      93.646 123.479  94.534  1.00  0.00     0.293 HD
ENDBRANCH  15  22
TORSDOF 3
ENDMDL
MODEL 9
REMARK VINA RESULT:    -3.386      3.943      7.994
REMARK INTER + INTRA:          -3.683
REMARK INTER:                  -3.683
REMARK INTRA:                   0.000
REMARK UNBOUND:                 0.000
REMARK SMILES Cc1cc(O)c2c(c1)C(=O)c1cc(O)cc(O)c1C2=O
REMARK SMILES IDX 1 1 2 2 8 3 7 4 6 5 4 6 3 7 19 8 20 9 18 10 11 11 9 12 10 13
REMARK SMILES IDX 12 14 13 15 15 16 16 17 5 18 17 20 14 22
REMARK H PARENT 5 19 17 21 14 23
REMARK Flexibility Score: inf
ROOT
ATOM      1  C   UNL     1     101.843 122.274  95.490  1.00  0.00     0.044 C 
ATOM      2  C   UNL     1     101.505 120.812  95.482  1.00  0.00    -0.047 A 
ATOM      3  C   UNL     1     102.246 119.922  94.696  1.00  0.00     0.016 A 
ATOM      4  C   UNL     1     101.955 118.548  94.703  1.00  0.00     0.038 A 
ATOM      5  C   UNL     1     100.905 118.055  95.511  1.00  0.00     0.076 A 
ATOM      6  C   UNL     1     100.213 118.949  96.367  1.00  0.00     0.127 A 
ATOM      7  C   UNL     1     100.506 120.316  96.328  1.00  0.00     0.050 A 
ATOM      8  C   UNL     1     100.531 116.623  95.379  1.00  0.00     0.201 C 
ATOM      9  O   UNL     1      99.341 116.265  95.585  1.00  0.00    -0.288 OA
ATOM     10  C   UNL     1     101.510 115.652  94.826  1.00  0.00     0.076 A 
ATOM     11  C   UNL     1     102.561 116.148  94.022  1.00  0.00     0.041 A 
ATOM     12  C   UNL     1     102.749 117.611  93.874  1.00  0.00     0.194 C 
ATOM     13  O   UNL     1     103.604 118.058  93.059  1.00  0.00    -0.289 OA
ATOM     14  C   UNL     1     103.425 115.253  93.369  1.00  0.00     0.059 A 
ATOM     15  C   UNL     1     103.264 113.875  93.520  1.00  0.00     0.120 A 
ATOM     16  C   UNL     1     102.253 113.381  94.346  1.00  0.00     0.093 A 
ATOM     17  C   UNL     1     101.392 114.251  95.023  1.00  0.00     0.131 A 
ENDROOT
BRANCH   6  18
ATOM     18  O   UNL     1      99.260 118.522  97.294  1.00  0.00    -0.507 OA
ATOM     19  H   UNL     1      98.527 119.116  97.655  1.00  0.00     0.293 HD
ENDBRANCH   6  18
BRANCH  17  20
ATOM     20  O   UNL     1     100.465 113.687  95.901  1.00  0.00    -0.507 OA
ATOM     21  H   UNL     1      99.744 113.039  95.613  1.00  0.00     0.293 HD
ENDBRANCH  17  20
BRANCH  15  22
ATOM     22  O   UNL     1     104.125 113.007  92.853  1.00  0.00    -0.508 OA
ATOM     23  H   UNL     1     103.900 112.025  92.735  1.00  0.00     0.293 HD
ENDBRANCH  15  22
TORSDOF 3
ENDMDL
