MODEL 1
REMARK VINA RESULT:    -2.607      0.000      0.000
REMARK INTER + INTRA:          -3.921
REMARK INTER:                  -3.369
REMARK INTRA:                  -0.552
REMARK UNBOUND:                -0.552
REMARK SMILES CCCCCCC(C)=O
REMARK SMILES IDX 4 1 3 2 2 3 1 4 5 5 6 6 7 7 9 8 8 9
REMARK H PARENT
REMARK Flexibility Score: inf
ROOT
ATOM      1  C   UNL     1     118.220 118.334 121.298  1.00  0.00     0.000 C 
ENDROOT
BRANCH   1   2
ATOM      2  C   UNL     1     117.770 118.506 119.837  1.00  0.00    -0.000 C 
BRANCH   2   3
ATOM      3  C   UNL     1     118.950 118.482 118.852  1.00  0.00    -0.003 C 
ATOM      4  C   UNL     1     120.265 118.070 119.511  1.00  0.00     0.004 C 
ENDBRANCH   2   3
ENDBRANCH   1   2
BRANCH   1   5
ATOM      5  C   UNL     1     117.605 117.091 121.962  1.00  0.00     0.008 C 
BRANCH   5   6
ATOM      6  C   UNL     1     117.069 116.075 120.942  1.00  0.00     0.075 C 
BRANCH   6   7
ATOM      7  C   UNL     1     118.103 115.020 120.652  1.00  0.00     0.129 C 
ATOM      8  O   UNL     1     118.640 114.434 121.579  1.00  0.00    -0.300 OA
ATOM      9  C   UNL     1     118.482 114.662 119.245  1.00  0.00     0.087 C 
ENDBRANCH   6   7
ENDBRANCH   5   6
ENDBRANCH   1   5
TORSDOF 5
ENDMDL
MODEL 2
REMARK VINA RESULT:    -2.581      2.425      3.836
REMARK INTER + INTRA:          -3.887
REMARK INTER:                  -3.489
REMARK INTRA:                  -0.398
REMARK UNBOUND:                -0.552
REMARK SMILES CCCCCCC(C)=O
REMARK SMILES IDX 4 1 3 2 2 3 1 4 5 5 6 6 7 7 9 8 8 9
REMARK H PARENT
REMARK Flexibility Score: inf
ROOT
ATOM      1  C   UNL     1     118.561 115.763 120.124  1.00  0.00     0.000 C 
ENDROOT
BRANCH   1   2
ATOM      2  C   UNL     1     118.426 114.802 118.930  1.00  0.00    -0.000 C 
BRANCH   2   3
ATOM      3  C   UNL     1     118.057 113.374 119.363  1.00  0.00    -0.003 C 
ATOM      4  C   UNL     1     118.616 112.306 118.425  1.00  0.00     0.004 C 
ENDBRANCH   2   3
ENDBRANCH   1   2
BRANCH   1   5
ATOM      5  C   UNL     1     117.976 115.179 121.420  1.00  0.00     0.008 C 
BRANCH   5   6
ATOM      6  C   UNL     1     116.895 116.075 122.041  1.00  0.00     0.075 C 
BRANCH   6   7
ATOM      7  C   UNL     1     115.558 115.381 122.027  1.00  0.00     0.129 C 
ATOM      8  O   UNL     1     115.001 115.126 123.083  1.00  0.00    -0.300 OA
ATOM      9  C   UNL     1     114.886 115.004 120.739  1.00  0.00     0.087 C 
ENDBRANCH   6   7
ENDBRANCH   5   6
ENDBRANCH   1   5
TORSDOF 5
ENDMDL
MODEL 3
REMARK VINA RESULT:    -2.556      2.689      3.273
REMARK INTER + INTRA:          -3.854
REMARK INTER:                  -3.319
REMARK INTRA:                  -0.535
REMARK UNBOUND:                -0.552
REMARK SMILES CCCCCCC(C)=O
REMARK SMILES IDX 4 1 3 2 2 3 1 4 5 5 6 6 7 7 9 8 8 9
REMARK H PARENT
REMARK Flexibility Score: inf
ROOT
ATOM      1  C   UNL     1     114.853 118.083 120.298  1.00  0.00     0.000 C 
ENDROOT
BRANCH   1   2
ATOM      2  C   UNL     1     116.072 118.928 119.888  1.00  0.00    -0.000 C 
BRANCH   2   3
ATOM      3  C   UNL     1     117.403 118.210 120.161  1.00  0.00    -0.003 C 
ATOM      4  C   UNL     1     117.455 117.562 121.544  1.00  0.00     0.004 C 
ENDBRANCH   2   3
ENDBRANCH   1   2
BRANCH   1   5
ATOM      5  C   UNL     1     114.368 117.162 119.167  1.00  0.00     0.008 C 
BRANCH   5   6
ATOM      6  C   UNL     1     113.746 115.858 119.688  1.00  0.00     0.075 C 
BRANCH   6   7
ATOM      7  C   UNL     1     114.785 115.011 120.373  1.00  0.00     0.129 C 
ATOM      8  O   UNL     1     114.648 114.729 121.553  1.00  0.00    -0.300 OA
ATOM      9  C   UNL     1     115.984 114.495 119.634  1.00  0.00     0.087 C 
ENDBRANCH   6   7
ENDBRANCH   5   6
ENDBRANCH   1   5
TORSDOF 5
ENDMDL
MODEL 4
REMARK VINA RESULT:    -2.531      3.209      4.915
REMARK INTER + INTRA:          -3.823
REMARK INTER:                  -3.251
REMARK INTRA:                  -0.572
REMARK UNBOUND:                -0.552
REMARK SMILES CCCCCCC(C)=O
REMARK SMILES IDX 4 1 3 2 2 3 1 4 5 5 6 6 7 7 9 8 8 9
REMARK H PARENT
REMARK Flexibility Score: inf
ROOT
ATOM      1  C   UNL     1     115.124 115.134 121.268  1.00  0.00     0.000 C 
ENDROOT
BRANCH   1   2
ATOM      2  C   UNL     1     115.480 114.657 119.850  1.00  0.00    -0.000 C 
BRANCH   2   3
ATOM      3  C   UNL     1     114.287 114.742 118.884  1.00  0.00    -0.003 C 
ATOM      4  C   UNL     1     112.994 115.171 119.575  1.00  0.00     0.004 C 
ENDBRANCH   2   3
ENDBRANCH   1   2
BRANCH   1   5
ATOM      5  C   UNL     1     115.940 116.364 121.699  1.00  0.00     0.008 C 
BRANCH   5   6
ATOM      6  C   UNL     1     115.193 117.685 121.464  1.00  0.00     0.075 C 
BRANCH   6   7
ATOM      7  C   UNL     1     115.628 118.316 120.167  1.00  0.00     0.129 C 
ATOM      8  O   UNL     1     116.811 118.557 119.983  1.00  0.00    -0.300 OA
ATOM      9  C   UNL     1     114.640 118.648 119.089  1.00  0.00     0.087 C 
ENDBRANCH   6   7
ENDBRANCH   5   6
ENDBRANCH   1   5
TORSDOF 5
ENDMDL
MODEL 5
REMARK VINA RESULT:    -2.530      2.585      3.881
REMARK INTER + INTRA:          -3.821
REMARK INTER:                  -3.246
REMARK INTRA:                  -0.575
REMARK UNBOUND:                -0.552
REMARK SMILES CCCCCCC(C)=O
REMARK SMILES IDX 4 1 3 2 2 3 1 4 5 5 6 6 7 7 9 8 8 9
REMARK H PARENT
REMARK Flexibility Score: inf
ROOT
ATOM      1  C   UNL     1     118.112 118.157 120.352  1.00  0.00     0.000 C 
ENDROOT
BRANCH   1   2
ATOM      2  C   UNL     1     118.734 116.807 119.957  1.00  0.00    -0.000 C 
BRANCH   2   3
ATOM      3  C   UNL     1     118.007 115.614 120.599  1.00  0.00    -0.003 C 
ATOM      4  C   UNL     1     117.402 115.952 121.961  1.00  0.00     0.004 C 
ENDBRANCH   2   3
ENDBRANCH   1   2
BRANCH   1   5
ATOM      5  C   UNL     1     117.287 118.782 119.216  1.00  0.00     0.008 C 
BRANCH   5   6
ATOM      6  C   UNL     1     115.996 119.448 119.714  1.00  0.00     0.075 C 
BRANCH   6   7
ATOM      7  C   UNL     1     115.070 118.424 120.318  1.00  0.00     0.129 C 
ATOM      8  O   UNL     1     114.727 118.538 121.484  1.00  0.00    -0.300 OA
ATOM      9  C   UNL     1     114.549 117.270 119.514  1.00  0.00     0.087 C 
ENDBRANCH   6   7
ENDBRANCH   5   6
ENDBRANCH   1   5
TORSDOF 5
ENDMDL
MODEL 6
REMARK VINA RESULT:    -2.525      1.895      4.086
REMARK INTER + INTRA:          -3.815
REMARK INTER:                  -3.277
REMARK INTRA:                  -0.538
REMARK UNBOUND:                -0.552
REMARK SMILES CCCCCCC(C)=O
REMARK SMILES IDX 4 1 3 2 2 3 1 4 5 5 6 6 7 7 9 8 8 9
REMARK H PARENT
REMARK Flexibility Score: inf
ROOT
ATOM      1  C   UNL     1     117.506 113.848 119.683  1.00  0.00     0.000 C 
ENDROOT
BRANCH   1   2
ATOM      2  C   UNL     1     116.141 114.376 119.208  1.00  0.00    -0.000 C 
BRANCH   2   3
ATOM      3  C   UNL     1     115.244 114.817 120.376  1.00  0.00    -0.003 C 
ATOM      4  C   UNL     1     114.516 116.132 120.100  1.00  0.00     0.004 C 
ENDBRANCH   2   3
ENDBRANCH   1   2
BRANCH   1   5
ATOM      5  C   UNL     1     118.177 114.781 120.703  1.00  0.00     0.008 C 
BRANCH   5   6
ATOM      6  C   UNL     1     118.708 116.074 120.067  1.00  0.00     0.075 C 
BRANCH   6   7
ATOM      7  C   UNL     1     118.039 117.278 120.676  1.00  0.00     0.129 C 
ATOM      8  O   UNL     1     117.851 117.316 121.882  1.00  0.00    -0.300 OA
ATOM      9  C   UNL     1     117.606 118.442 119.834  1.00  0.00     0.087 C 
ENDBRANCH   6   7
ENDBRANCH   5   6
ENDBRANCH   1   5
TORSDOF 5
ENDMDL
MODEL 7
REMARK VINA RESULT:    -2.507      2.327      3.369
REMARK INTER + INTRA:          -3.791
REMARK INTER:                  -3.248
REMARK INTRA:                  -0.543
REMARK UNBOUND:                -0.552
REMARK SMILES CCCCCCC(C)=O
REMARK SMILES IDX 4 1 3 2 2 3 1 4 5 5 6 6 7 7 9 8 8 9
REMARK H PARENT
REMARK Flexibility Score: inf
ROOT
ATOM      1  C   UNL     1     113.899 115.642 119.746  1.00  0.00     0.000 C 
ENDROOT
BRANCH   1   2
ATOM      2  C   UNL     1     114.323 117.041 119.268  1.00  0.00    -0.000 C 
BRANCH   2   3
ATOM      3  C   UNL     1     114.794 117.939 120.423  1.00  0.00    -0.003 C 
ATOM      4  C   UNL     1     116.082 118.695 120.100  1.00  0.00     0.004 C 
ENDBRANCH   2   3
ENDBRANCH   1   2
BRANCH   1   5
ATOM      5  C   UNL     1     114.905 115.025 120.731  1.00  0.00     0.008 C 
BRANCH   5   6
ATOM      6  C   UNL     1     116.168 114.495 120.037  1.00  0.00     0.075 C 
BRANCH   6   7
ATOM      7  C   UNL     1     117.392 115.212 120.542  1.00  0.00     0.129 C 
ATOM      8  O   UNL     1     117.507 115.436 121.738  1.00  0.00    -0.300 OA
ATOM      9  C   UNL     1     118.483 115.650 119.611  1.00  0.00     0.087 C 
ENDBRANCH   6   7
ENDBRANCH   5   6
ENDBRANCH   1   5
TORSDOF 5
ENDMDL
MODEL 8
REMARK VINA RESULT:    -2.505      2.690      4.269
REMARK INTER + INTRA:          -3.789
REMARK INTER:                  -3.213
REMARK INTRA:                  -0.576
REMARK UNBOUND:                -0.552
REMARK SMILES CCCCCCC(C)=O
REMARK SMILES IDX 4 1 3 2 2 3 1 4 5 5 6 6 7 7 9 8 8 9
REMARK H PARENT
REMARK Flexibility Score: inf
ROOT
ATOM      1  C   UNL     1     115.417 114.818 120.634  1.00  0.00     0.000 C 
ENDROOT
BRANCH   1   2
ATOM      2  C   UNL     1     116.338 114.332 119.502  1.00  0.00    -0.000 C 
BRANCH   2   3
ATOM      3  C   UNL     1     117.826 114.547 119.822  1.00  0.00    -0.003 C 
ATOM      4  C   UNL     1     118.060 115.060 121.242  1.00  0.00     0.004 C 
ENDBRANCH   2   3
ENDBRANCH   1   2
BRANCH   1   5
ATOM      5  C   UNL     1     114.264 115.696 120.121  1.00  0.00     0.008 C 
BRANCH   5   6
ATOM      6  C   UNL     1     114.755 116.958 119.396  1.00  0.00     0.075 C 
BRANCH   6   7
ATOM      7  C   UNL     1     115.375 117.923 120.372  1.00  0.00     0.129 C 
ATOM      8  O   UNL     1     114.736 118.283 121.349  1.00  0.00    -0.300 OA
ATOM      9  C   UNL     1     116.767 118.446 120.177  1.00  0.00     0.087 C 
ENDBRANCH   6   7
ENDBRANCH   5   6
ENDBRANCH   1   5
TORSDOF 5
ENDMDL
MODEL 9
REMARK VINA RESULT:    -2.470      1.817      3.668
REMARK INTER + INTRA:          -3.744
REMARK INTER:                  -3.232
REMARK INTRA:                  -0.512
REMARK UNBOUND:                -0.552
REMARK SMILES CCCCCCC(C)=O
REMARK SMILES IDX 4 1 3 2 2 3 1 4 5 5 6 6 7 7 9 8 8 9
REMARK H PARENT
REMARK Flexibility Score: inf
ROOT
ATOM      1  C   UNL     1     114.951 114.842 120.707  1.00  0.00     0.000 C 
ENDROOT
BRANCH   1   2
ATOM      2  C   UNL     1     115.926 114.882 119.518  1.00  0.00    -0.000 C 
BRANCH   2   3
ATOM      3  C   UNL     1     117.169 114.007 119.748  1.00  0.00    -0.003 C 
ATOM      4  C   UNL     1     118.477 114.770 119.550  1.00  0.00     0.004 C 
ENDBRANCH   2   3
ENDBRANCH   1   2
BRANCH   1   5
ATOM      5  C   UNL     1     115.531 115.502 121.969  1.00  0.00     0.008 C 
BRANCH   5   6
ATOM      6  C   UNL     1     115.810 117.000 121.782  1.00  0.00     0.075 C 
BRANCH   6   7
ATOM      7  C   UNL     1     117.250 117.315 122.093  1.00  0.00     0.129 C 
ATOM      8  O   UNL     1     117.748 116.890 123.125  1.00  0.00    -0.300 OA
ATOM      9  C   UNL     1     118.093 118.131 121.159  1.00  0.00     0.087 C 
ENDBRANCH   6   7
ENDBRANCH   5   6
ENDBRANCH   1   5
TORSDOF 5
ENDMDL
