MODEL 1
REMARK VINA RESULT:    -4.301      0.000      0.000
REMARK INTER + INTRA:          -5.538
REMARK INTER:                  -5.306
REMARK INTRA:                  -0.232
REMARK UNBOUND:                -0.232
REMARK SMILES COC(=O)c1ccccc1C(=O)OC
REMARK SMILES IDX 5 1 6 2 7 3 8 4 9 5 10 6 3 7 4 8 2 9 1 10 11 11 12 12 13 13
REMARK SMILES IDX 14 14
REMARK H PARENT
REMARK Flexibility Score: inf
ROOT
ATOM      1  C   UNL     1      -0.757  -9.474 -41.161  1.00  0.00     0.074 A 
ATOM      2  C   UNL     1      -1.316  -9.366 -42.447  1.00  0.00     0.016 A 
ATOM      3  C   UNL     1      -2.513  -8.678 -42.649  1.00  0.00     0.001 A 
ATOM      4  C   UNL     1      -3.171  -8.088 -41.572  1.00  0.00     0.001 A 
ATOM      5  C   UNL     1      -2.622  -8.165 -40.291  1.00  0.00     0.016 A 
ATOM      6  C   UNL     1      -1.405  -8.833 -40.068  1.00  0.00     0.074 A 
ENDROOT
BRANCH   1   7
ATOM      7  C   UNL     1       0.453 -10.313 -41.002  1.00  0.00     0.338 C 
ATOM      8  O   UNL     1       0.362 -11.480 -40.530  1.00  0.00    -0.246 OA
BRANCH   7   9
ATOM      9  O   UNL     1       1.691  -9.825 -41.433  1.00  0.00    -0.465 OA
ATOM     10  C   UNL     1       2.667 -10.652 -42.056  1.00  0.00     0.282 C 
ENDBRANCH   7   9
ENDBRANCH   1   7
BRANCH   6  11
ATOM     11  C   UNL     1      -0.824  -8.777 -38.706  1.00  0.00     0.338 C 
ATOM     12  O   UNL     1      -0.331  -7.702 -38.267  1.00  0.00    -0.246 OA
BRANCH  11  13
ATOM     13  O   UNL     1      -0.880  -9.909 -37.887  1.00  0.00    -0.465 OA
ATOM     14  C   UNL     1      -0.881  -9.829 -36.467  1.00  0.00     0.282 C 
ENDBRANCH  11  13
ENDBRANCH   6  11
TORSDOF 4
ENDMDL
MODEL 2
REMARK VINA RESULT:    -4.282      0.521      3.810
REMARK INTER + INTRA:          -5.515
REMARK INTER:                  -5.198
REMARK INTRA:                  -0.317
REMARK UNBOUND:                -0.232
REMARK SMILES COC(=O)c1ccccc1C(=O)OC
REMARK SMILES IDX 5 1 6 2 7 3 8 4 9 5 10 6 3 7 4 8 2 9 1 10 11 11 12 12 13 13
REMARK SMILES IDX 14 14
REMARK H PARENT
REMARK Flexibility Score: inf
ROOT
ATOM      1  C   UNL     1      -1.374  -8.803 -40.075  1.00  0.00     0.074 A 
ATOM      2  C   UNL     1      -2.590  -8.130 -40.293  1.00  0.00     0.016 A 
ATOM      3  C   UNL     1      -3.153  -8.071 -41.568  1.00  0.00     0.001 A 
ATOM      4  C   UNL     1      -2.513  -8.679 -42.644  1.00  0.00     0.001 A 
ATOM      5  C   UNL     1      -1.317  -9.370 -42.446  1.00  0.00     0.016 A 
ATOM      6  C   UNL     1      -0.742  -9.463 -41.166  1.00  0.00     0.074 A 
ENDROOT
BRANCH   1   7
ATOM      7  C   UNL     1      -0.777  -8.729 -38.721  1.00  0.00     0.338 C 
ATOM      8  O   UNL     1      -0.343  -7.632 -38.274  1.00  0.00    -0.246 OA
BRANCH   7   9
ATOM      9  O   UNL     1      -0.749  -9.874 -37.917  1.00  0.00    -0.465 OA
ATOM     10  C   UNL     1      -1.835 -10.791 -37.851  1.00  0.00     0.282 C 
ENDBRANCH   7   9
ENDBRANCH   1   7
BRANCH   6  11
ATOM     11  C   UNL     1       0.465 -10.307 -41.008  1.00  0.00     0.338 C 
ATOM     12  O   UNL     1       0.366 -11.485 -40.569  1.00  0.00    -0.246 OA
BRANCH  11  13
ATOM     13  O   UNL     1       1.710  -9.808 -41.406  1.00  0.00    -0.465 OA
ATOM     14  C   UNL     1       2.640 -10.579 -42.158  1.00  0.00     0.282 C 
ENDBRANCH  11  13
ENDBRANCH   6  11
TORSDOF 4
ENDMDL
MODEL 3
REMARK VINA RESULT:    -4.068      1.410      3.827
REMARK INTER + INTRA:          -5.251
REMARK INTER:                  -4.922
REMARK INTRA:                  -0.329
REMARK UNBOUND:                -0.232
REMARK SMILES COC(=O)c1ccccc1C(=O)OC
REMARK SMILES IDX 5 1 6 2 7 3 8 4 9 5 10 6 3 7 4 8 2 9 1 10 11 11 12 12 13 13
REMARK SMILES IDX 14 14
REMARK H PARENT
REMARK Flexibility Score: inf
ROOT
ATOM      1  C   UNL     1      -2.260  -8.698 -40.706  1.00  0.00     0.074 A 
ATOM      2  C   UNL     1      -3.482  -8.009 -40.601  1.00  0.00     0.016 A 
ATOM      3  C   UNL     1      -4.207  -7.666 -41.742  1.00  0.00     0.001 A 
ATOM      4  C   UNL     1      -3.725  -8.003 -43.005  1.00  0.00     0.001 A 
ATOM      5  C   UNL     1      -2.526  -8.706 -43.131  1.00  0.00     0.016 A 
ATOM      6  C   UNL     1      -1.790  -9.083 -41.993  1.00  0.00     0.074 A 
ENDROOT
BRANCH   1   7
ATOM      7  C   UNL     1      -1.489  -8.930 -39.462  1.00  0.00     0.338 C 
ATOM      8  O   UNL     1      -1.639  -9.998 -38.809  1.00  0.00    -0.246 OA
BRANCH   7   9
ATOM      9  O   UNL     1      -0.548  -7.981 -39.049  1.00  0.00    -0.465 OA
ATOM     10  C   UNL     1      -0.877  -6.901 -38.184  1.00  0.00     0.282 C 
ENDBRANCH   7   9
ENDBRANCH   1   7
BRANCH   6  11
ATOM     11  C   UNL     1      -0.588  -9.925 -42.194  1.00  0.00     0.338 C 
ATOM     12  O   UNL     1      -0.706 -11.159 -42.428  1.00  0.00    -0.246 OA
BRANCH  11  13
ATOM     13  O   UNL     1       0.678  -9.331 -42.182  1.00  0.00    -0.465 OA
ATOM     14  C   UNL     1       1.848 -10.028 -41.768  1.00  0.00     0.282 C 
ENDBRANCH  11  13
ENDBRANCH   6  11
TORSDOF 4
ENDMDL
MODEL 4
REMARK VINA RESULT:    -3.967      2.240      4.510
REMARK INTER + INTRA:          -5.126
REMARK INTER:                  -4.710
REMARK INTRA:                  -0.416
REMARK UNBOUND:                -0.232
REMARK SMILES COC(=O)c1ccccc1C(=O)OC
REMARK SMILES IDX 5 1 6 2 7 3 8 4 9 5 10 6 3 7 4 8 2 9 1 10 11 11 12 12 13 13
REMARK SMILES IDX 14 14
REMARK H PARENT
REMARK Flexibility Score: inf
ROOT
ATOM      1  C   UNL     1      -0.167  -9.959 -41.745  1.00  0.00     0.074 A 
ATOM      2  C   UNL     1       1.070  -9.436 -42.162  1.00  0.00     0.016 A 
ATOM      3  C   UNL     1       2.231 -10.206 -42.089  1.00  0.00     0.001 A 
ATOM      4  C   UNL     1       2.177 -11.508 -41.598  1.00  0.00     0.001 A 
ATOM      5  C   UNL     1       0.957 -12.054 -41.199  1.00  0.00     0.016 A 
ATOM      6  C   UNL     1      -0.230 -11.305 -41.286  1.00  0.00     0.074 A 
ENDROOT
BRANCH   1   7
ATOM      7  C   UNL     1      -1.337  -9.050 -41.744  1.00  0.00     0.338 C 
ATOM      8  O   UNL     1      -1.887  -8.718 -42.829  1.00  0.00    -0.246 OA
BRANCH   7   9
ATOM      9  O   UNL     1      -1.864  -8.609 -40.526  1.00  0.00    -0.465 OA
ATOM     10  C   UNL     1      -1.047  -8.296 -39.404  1.00  0.00     0.282 C 
ENDBRANCH   7   9
ENDBRANCH   1   7
BRANCH   6  11
ATOM     11  C   UNL     1      -1.504 -11.985 -40.954  1.00  0.00     0.338 C 
ATOM     12  O   UNL     1      -1.875 -12.093 -39.753  1.00  0.00    -0.246 OA
BRANCH  11  13
ATOM     13  O   UNL     1      -2.322 -12.456 -41.986  1.00  0.00    -0.465 OA
ATOM     14  C   UNL     1      -3.616 -11.923 -42.243  1.00  0.00     0.282 C 
ENDBRANCH  11  13
ENDBRANCH   6  11
TORSDOF 4
ENDMDL
MODEL 5
REMARK VINA RESULT:    -3.964      2.234      4.114
REMARK INTER + INTRA:          -5.123
REMARK INTER:                  -4.704
REMARK INTRA:                  -0.419
REMARK UNBOUND:                -0.232
REMARK SMILES COC(=O)c1ccccc1C(=O)OC
REMARK SMILES IDX 5 1 6 2 7 3 8 4 9 5 10 6 3 7 4 8 2 9 1 10 11 11 12 12 13 13
REMARK SMILES IDX 14 14
REMARK H PARENT
REMARK Flexibility Score: inf
ROOT
ATOM      1  C   UNL     1      -0.223 -11.293 -41.259  1.00  0.00     0.074 A 
ATOM      2  C   UNL     1       0.968 -12.036 -41.184  1.00  0.00     0.016 A 
ATOM      3  C   UNL     1       2.179 -11.488 -41.610  1.00  0.00     0.001 A 
ATOM      4  C   UNL     1       2.219 -10.192 -42.120  1.00  0.00     0.001 A 
ATOM      5  C   UNL     1       1.052  -9.430 -42.183  1.00  0.00     0.016 A 
ATOM      6  C   UNL     1      -0.175  -9.953 -41.737  1.00  0.00     0.074 A 
ENDROOT
BRANCH   1   7
ATOM      7  C   UNL     1      -1.487 -11.975 -40.896  1.00  0.00     0.338 C 
ATOM      8  O   UNL     1      -1.861 -12.027 -39.693  1.00  0.00    -0.246 OA
BRANCH   7   9
ATOM      9  O   UNL     1      -2.295 -12.511 -41.905  1.00  0.00    -0.465 OA
ATOM     10  C   UNL     1      -3.565 -11.968 -42.241  1.00  0.00     0.282 C 
ENDBRANCH   7   9
ENDBRANCH   1   7
BRANCH   6  11
ATOM     11  C   UNL     1      -1.349  -9.050 -41.727  1.00  0.00     0.338 C 
ATOM     12  O   UNL     1      -1.887  -8.691 -42.810  1.00  0.00    -0.246 OA
BRANCH  11  13
ATOM     13  O   UNL     1      -1.895  -8.645 -40.505  1.00  0.00    -0.465 OA
ATOM     14  C   UNL     1      -1.091  -8.267 -39.394  1.00  0.00     0.282 C 
ENDBRANCH  11  13
ENDBRANCH   6  11
TORSDOF 4
ENDMDL
MODEL 6
REMARK VINA RESULT:    -3.913     14.470     16.141
REMARK INTER + INTRA:          -5.060
REMARK INTER:                  -4.687
REMARK INTRA:                  -0.374
REMARK UNBOUND:                -0.232
REMARK SMILES COC(=O)c1ccccc1C(=O)OC
REMARK SMILES IDX 5 1 6 2 7 3 8 4 9 5 10 6 3 7 4 8 2 9 1 10 11 11 12 12 13 13
REMARK SMILES IDX 14 14
REMARK H PARENT
REMARK Flexibility Score: inf
ROOT
ATOM      1  C   UNL     1       0.725 -25.078 -46.220  1.00  0.00     0.074 A 
ATOM      2  C   UNL     1       0.365 -25.940 -47.271  1.00  0.00     0.016 A 
ATOM      3  C   UNL     1      -0.976 -26.206 -47.548  1.00  0.00     0.001 A 
ATOM      4  C   UNL     1      -1.978 -25.618 -46.781  1.00  0.00     0.001 A 
ATOM      5  C   UNL     1      -1.644 -24.742 -45.747  1.00  0.00     0.016 A 
ATOM      6  C   UNL     1      -0.300 -24.441 -45.465  1.00  0.00     0.074 A 
ENDROOT
BRANCH   1   7
ATOM      7  C   UNL     1       2.166 -24.930 -45.909  1.00  0.00     0.338 C 
ATOM      8  O   UNL     1       2.871 -24.096 -46.539  1.00  0.00    -0.246 OA
BRANCH   7   9
ATOM      9  O   UNL     1       2.727 -25.681 -44.871  1.00  0.00    -0.465 OA
ATOM     10  C   UNL     1       3.456 -25.089 -43.803  1.00  0.00     0.282 C 
ENDBRANCH   7   9
ENDBRANCH   1   7
BRANCH   6  11
ATOM     11  C   UNL     1      -0.023 -23.417 -44.431  1.00  0.00     0.338 C 
ATOM     12  O   UNL     1       0.155 -23.756 -43.229  1.00  0.00    -0.246 OA
BRANCH  11  13
ATOM     13  O   UNL     1       0.099 -22.075 -44.807  1.00  0.00    -0.465 OA
ATOM     14  C   UNL     1      -0.090 -21.002 -43.892  1.00  0.00     0.282 C 
ENDBRANCH  11  13
ENDBRANCH   6  11
TORSDOF 4
ENDMDL
MODEL 7
REMARK VINA RESULT:    -3.879     14.520     16.385
REMARK INTER + INTRA:          -5.018
REMARK INTER:                  -4.664
REMARK INTRA:                  -0.355
REMARK UNBOUND:                -0.232
REMARK SMILES COC(=O)c1ccccc1C(=O)OC
REMARK SMILES IDX 5 1 6 2 7 3 8 4 9 5 10 6 3 7 4 8 2 9 1 10 11 11 12 12 13 13
REMARK SMILES IDX 14 14
REMARK H PARENT
REMARK Flexibility Score: inf
ROOT
ATOM      1  C   UNL     1      -0.549 -24.577 -45.553  1.00  0.00     0.074 A 
ATOM      2  C   UNL     1      -1.826 -24.994 -45.969  1.00  0.00     0.016 A 
ATOM      3  C   UNL     1      -1.973 -25.905 -47.016  1.00  0.00     0.001 A 
ATOM      4  C   UNL     1      -0.850 -26.412 -47.664  1.00  0.00     0.001 A 
ATOM      5  C   UNL     1       0.427 -26.028 -47.254  1.00  0.00     0.016 A 
ATOM      6  C   UNL     1       0.601 -25.130 -46.186  1.00  0.00     0.074 A 
ENDROOT
BRANCH   1   7
ATOM      7  C   UNL     1      -0.469 -23.524 -44.514  1.00  0.00     0.338 C 
ATOM      8  O   UNL     1      -0.612 -23.819 -43.296  1.00  0.00    -0.246 OA
BRANCH   7   9
ATOM      9  O   UNL     1      -0.177 -22.208 -44.888  1.00  0.00    -0.465 OA
ATOM     10  C   UNL     1      -0.053 -21.152 -43.944  1.00  0.00     0.282 C 
ENDBRANCH   7   9
ENDBRANCH   1   7
BRANCH   6  11
ATOM     11  C   UNL     1       1.983 -24.856 -45.730  1.00  0.00     0.338 C 
ATOM     12  O   UNL     1       2.739 -24.103 -46.402  1.00  0.00    -0.246 OA
BRANCH  11  13
ATOM     13  O   UNL     1       2.426 -25.392 -44.516  1.00  0.00    -0.465 OA
ATOM     14  C   UNL     1       3.002 -24.592 -43.490  1.00  0.00     0.282 C 
ENDBRANCH  11  13
ENDBRANCH   6  11
TORSDOF 4
ENDMDL
MODEL 8
REMARK VINA RESULT:    -3.800      2.181      4.062
REMARK INTER + INTRA:          -4.921
REMARK INTER:                  -4.451
REMARK INTRA:                  -0.470
REMARK UNBOUND:                -0.232
REMARK SMILES COC(=O)c1ccccc1C(=O)OC
REMARK SMILES IDX 5 1 6 2 7 3 8 4 9 5 10 6 3 7 4 8 2 9 1 10 11 11 12 12 13 13
REMARK SMILES IDX 14 14
REMARK H PARENT
REMARK Flexibility Score: inf
ROOT
ATOM      1  C   UNL     1      -1.345  -8.722 -39.049  1.00  0.00     0.074 A 
ATOM      2  C   UNL     1      -0.788  -7.545 -38.520  1.00  0.00     0.016 A 
ATOM      3  C   UNL     1      -0.383  -7.483 -37.186  1.00  0.00     0.001 A 
ATOM      4  C   UNL     1      -0.529  -8.595 -36.360  1.00  0.00     0.001 A 
ATOM      5  C   UNL     1      -1.060  -9.780 -36.870  1.00  0.00     0.016 A 
ATOM      6  C   UNL     1      -1.453  -9.872 -38.217  1.00  0.00     0.074 A 
ENDROOT
BRANCH   1   7
ATOM      7  C   UNL     1      -1.857  -8.681 -40.439  1.00  0.00     0.338 C 
ATOM      8  O   UNL     1      -2.967  -8.138 -40.694  1.00  0.00    -0.246 OA
BRANCH   7   9
ATOM      9  O   UNL     1      -1.074  -9.197 -41.477  1.00  0.00    -0.465 OA
ATOM     10  C   UNL     1      -1.523 -10.243 -42.330  1.00  0.00     0.282 C 
ENDBRANCH   7   9
ENDBRANCH   1   7
BRANCH   6  11
ATOM     11  C   UNL     1      -1.900 -11.192 -38.719  1.00  0.00     0.338 C 
ATOM     12  O   UNL     1      -1.078 -11.979 -39.264  1.00  0.00    -0.246 OA
BRANCH  11  13
ATOM     13  O   UNL     1      -3.229 -11.585 -38.532  1.00  0.00    -0.465 OA
ATOM     14  C   UNL     1      -4.227 -11.414 -39.532  1.00  0.00     0.282 C 
ENDBRANCH  11  13
ENDBRANCH   6  11
TORSDOF 4
ENDMDL
MODEL 9
REMARK VINA RESULT:    -3.786      2.244      4.588
REMARK INTER + INTRA:          -4.904
REMARK INTER:                  -4.436
REMARK INTRA:                  -0.468
REMARK UNBOUND:                -0.232
REMARK SMILES COC(=O)c1ccccc1C(=O)OC
REMARK SMILES IDX 5 1 6 2 7 3 8 4 9 5 10 6 3 7 4 8 2 9 1 10 11 11 12 12 13 13
REMARK SMILES IDX 14 14
REMARK H PARENT
REMARK Flexibility Score: inf
ROOT
ATOM      1  C   UNL     1      -1.475  -9.889 -38.173  1.00  0.00     0.074 A 
ATOM      2  C   UNL     1      -1.021  -9.852 -36.843  1.00  0.00     0.016 A 
ATOM      3  C   UNL     1      -0.481  -8.684 -36.305  1.00  0.00     0.001 A 
ATOM      4  C   UNL     1      -0.384  -7.534 -37.086  1.00  0.00     0.001 A 
ATOM      5  C   UNL     1      -0.849  -7.542 -38.402  1.00  0.00     0.016 A 
ATOM      6  C   UNL     1      -1.419  -8.702 -38.957  1.00  0.00     0.074 A 
ENDROOT
BRANCH   1   7
ATOM      7  C   UNL     1      -1.931 -11.191 -38.712  1.00  0.00     0.338 C 
ATOM      8  O   UNL     1      -1.124 -11.948 -39.317  1.00  0.00    -0.246 OA
BRANCH   7   9
ATOM      9  O   UNL     1      -3.250 -11.603 -38.494  1.00  0.00    -0.465 OA
ATOM     10  C   UNL     1      -4.278 -11.429 -39.462  1.00  0.00     0.282 C 
ENDBRANCH   7   9
ENDBRANCH   1   7
BRANCH   6  11
ATOM     11  C   UNL     1      -1.995  -8.607 -40.318  1.00  0.00     0.338 C 
ATOM     12  O   UNL     1      -3.104  -8.035 -40.502  1.00  0.00    -0.246 OA
BRANCH  11  13
ATOM     13  O   UNL     1      -1.273  -9.104 -41.408  1.00  0.00    -0.465 OA
ATOM     14  C   UNL     1      -1.812 -10.058 -42.314  1.00  0.00     0.282 C 
ENDBRANCH  11  13
ENDBRANCH   6  11
TORSDOF 4
ENDMDL
