MODEL 1
REMARK VINA RESULT:    -5.257      0.000      0.000
REMARK INTER + INTRA:          -7.709
REMARK INTER:                  -8.023
REMARK INTRA:                   0.314
REMARK UNBOUND:                 0.314
REMARK SMILES CC1=CCC[C@@H](C)C(=O)C[C@@H](C(C)C)C(=O)C1
REMARK SMILES IDX 8 1 9 2 6 3 7 4 5 5 4 6 3 7 2 8 1 9 10 11 11 12 15 13 16 14
REMARK SMILES IDX 17 15 12 17 13 18 14 19
REMARK H PARENT
REMARK Flexibility Score: 70.00
ROOT
ATOM      1  C   UNL     1      -5.551 -14.294  30.032  1.00  0.00     0.136 C 
ATOM      2  O   UNL     1      -5.995 -15.086  30.851  1.00  0.00    -0.299 OA
ENDROOT
BRANCH   1   3
ATOM      3  C   UNL     1      -6.204 -14.181  28.670  1.00  0.00     0.053 C 
ATOM      4  C   UNL     1      -7.599 -14.815  28.723  1.00  0.00     0.016 C 
BRANCH   3   5
ATOM      5  C   UNL     1      -5.360 -14.848  27.556  1.00  0.00     0.015 C 
BRANCH   5   6
ATOM      6  C   UNL     1      -3.873 -14.452  27.570  1.00  0.00     0.028 C 
BRANCH   6   7
ATOM      7  C   UNL     1      -3.604 -13.275  26.663  1.00  0.00    -0.028 C 
ATOM      8  C   UNL     1      -3.157 -12.065  27.069  1.00  0.00    -0.070 CG0
ATOM      9  C   UNL     1      -2.955 -10.996  26.025  1.00  0.00     0.039 C 
ATOM     10  G   UNL     1      -2.863 -11.738  28.523  1.00  0.00     0.000 G0
ENDBRANCH   6   7
ENDBRANCH   5   6
ENDBRANCH   3   5
ENDBRANCH   1   3
BRANCH   1  11
ATOM     11  C   UNL     1      -4.388 -13.409  30.424  1.00  0.00     0.087 C 
BRANCH  11  12
ATOM     12  C   UNL     1      -4.746 -11.901  30.430  1.00  0.00     0.066 C 
BRANCH  12  13
ATOM     13  C   UNL     1      -4.072 -11.163  29.281  1.00  0.00     0.140 C 
ATOM     14  O   UNL     1      -4.538 -10.102  28.894  1.00  0.00    -0.299 OA
BRANCH  13  15
ATOM     15  C   UNL     1      -2.876 -11.730  28.544  1.00  0.00     0.106 CG0
ATOM     16  G   UNL     1      -3.146 -12.042  27.082  1.00  0.00     0.000 G0
ENDBRANCH  13  15
ENDBRANCH  12  13
BRANCH  12  17
ATOM     17  C   UNL     1      -4.461 -11.188  31.787  1.00  0.00    -0.006 C 
ATOM     18  C   UNL     1      -3.013 -10.691  31.945  1.00  0.00     0.008 C 
ATOM     19  C   UNL     1      -4.848 -12.067  32.987  1.00  0.00     0.008 C 
ENDBRANCH  12  17
ENDBRANCH  11  12
ENDBRANCH   1  11
TORSDOF 1
ENDMDL
MODEL 2
REMARK VINA RESULT:    -5.247      1.822      2.271
REMARK INTER + INTRA:          -7.694
REMARK INTER:                  -7.546
REMARK INTRA:                  -0.148
REMARK UNBOUND:                 0.314
REMARK SMILES CC1=CCC[C@@H](C)C(=O)C[C@@H](C(C)C)C(=O)C1
REMARK SMILES IDX 8 1 9 2 6 3 7 4 5 5 4 6 3 7 2 8 1 9 10 11 11 12 15 13 16 14
REMARK SMILES IDX 17 15 12 17 13 18 14 19
REMARK H PARENT
REMARK Flexibility Score: 70.00
ROOT
ATOM      1  C   UNL     1      -5.495 -14.437  30.627  1.00  0.00     0.136 C 
ATOM      2  O   UNL     1      -6.324 -15.117  31.215  1.00  0.00    -0.299 OA
ENDROOT
BRANCH   1   3
ATOM      3  C   UNL     1      -5.790 -13.946  29.223  1.00  0.00     0.053 C 
ATOM      4  C   UNL     1      -7.141 -14.507  28.764  1.00  0.00     0.016 C 
BRANCH   3   5
ATOM      5  C   UNL     1      -4.681 -14.343  28.218  1.00  0.00     0.015 C 
BRANCH   5   6
ATOM      6  C   UNL     1      -3.767 -13.179  27.796  1.00  0.00     0.028 C 
BRANCH   6   7
ATOM      7  C   UNL     1      -2.310 -13.511  28.013  1.00  0.00    -0.028 C 
ATOM      8  C   UNL     1      -1.491 -12.886  28.890  1.00  0.00    -0.070 CG0
ATOM      9  C   UNL     1      -0.055 -13.339  28.966  1.00  0.00     0.039 C 
ATOM     10  G   UNL     1      -1.952 -11.748  29.784  1.00  0.00     0.000 G0
ENDBRANCH   6   7
ENDBRANCH   5   6
ENDBRANCH   3   5
ENDBRANCH   1   3
BRANCH   1  11
ATOM     11  C   UNL     1      -4.215 -14.061  31.340  1.00  0.00     0.087 C 
BRANCH  11  12
ATOM     12  C   UNL     1      -3.954 -12.533  31.355  1.00  0.00     0.066 C 
BRANCH  12  13
ATOM     13  C   UNL     1      -2.482 -12.218  31.129  1.00  0.00     0.140 C 
ATOM     14  O   UNL     1      -1.703 -12.286  32.067  1.00  0.00    -0.299 OA
BRANCH  13  15
ATOM     15  C   UNL     1      -1.949 -11.750  29.790  1.00  0.00     0.106 CG0
ATOM     16  G   UNL     1      -1.495 -12.877  28.879  1.00  0.00     0.000 G0
ENDBRANCH  13  15
ENDBRANCH  12  13
BRANCH  12  17
ATOM     17  C   UNL     1      -4.483 -11.813  32.633  1.00  0.00    -0.006 C 
ATOM     18  C   UNL     1      -5.353 -12.700  33.540  1.00  0.00     0.008 C 
ATOM     19  C   UNL     1      -5.233 -10.516  32.291  1.00  0.00     0.008 C 
ENDBRANCH  12  17
ENDBRANCH  11  12
ENDBRANCH   1  11
TORSDOF 1
ENDMDL
MODEL 3
REMARK VINA RESULT:    -5.212      2.085      3.953
REMARK INTER + INTRA:          -7.641
REMARK INTER:                  -7.609
REMARK INTRA:                  -0.032
REMARK UNBOUND:                 0.314
REMARK SMILES CC1=CCC[C@@H](C)C(=O)C[C@@H](C(C)C)C(=O)C1
REMARK SMILES IDX 8 1 9 2 6 3 7 4 5 5 4 6 3 7 2 8 1 9 10 11 11 12 15 13 16 14
REMARK SMILES IDX 17 15 12 17 13 18 14 19
REMARK H PARENT
REMARK Flexibility Score: 70.00
ROOT
ATOM      1  C   UNL     1      -2.545 -11.968  31.242  1.00  0.00     0.136 C 
ATOM      2  O   UNL     1      -2.169 -10.818  31.071  1.00  0.00    -0.299 OA
ENDROOT
BRANCH   1   3
ATOM      3  C   UNL     1      -1.544 -13.103  31.166  1.00  0.00     0.053 C 
ATOM      4  C   UNL     1      -0.222 -12.655  31.802  1.00  0.00     0.016 C 
BRANCH   3   5
ATOM      5  C   UNL     1      -1.300 -13.575  29.712  1.00  0.00     0.015 C 
BRANCH   5   6
ATOM      6  C   UNL     1      -1.987 -12.707  28.644  1.00  0.00     0.028 C 
BRANCH   6   7
ATOM      7  C   UNL     1      -2.829 -13.541  27.708  1.00  0.00    -0.028 C 
ATOM      8  C   UNL     1      -4.173 -13.669  27.774  1.00  0.00    -0.070 CG0
ATOM      9  C   UNL     1      -4.852 -14.557  26.763  1.00  0.00     0.039 C 
ATOM     10  G   UNL     1      -5.019 -12.970  28.824  1.00  0.00     0.000 G0
ENDBRANCH   6   7
ENDBRANCH   5   6
ENDBRANCH   3   5
ENDBRANCH   1   3
BRANCH   1  11
ATOM     11  C   UNL     1      -3.999 -12.222  31.575  1.00  0.00     0.087 C 
BRANCH  11  12
ATOM     12  C   UNL     1      -4.429 -13.693  31.338  1.00  0.00     0.066 C 
BRANCH  12  13
ATOM     13  C   UNL     1      -5.260 -13.832  30.069  1.00  0.00     0.140 C 
ATOM     14  O   UNL     1      -6.117 -14.700  30.006  1.00  0.00    -0.299 OA
BRANCH  13  15
ATOM     15  C   UNL     1      -5.018 -12.977  28.843  1.00  0.00     0.106 CG0
ATOM     16  G   UNL     1      -4.184 -13.658  27.771  1.00  0.00     0.000 G0
ENDBRANCH  13  15
ENDBRANCH  12  13
BRANCH  12  17
ATOM     17  C   UNL     1      -5.161 -14.342  32.552  1.00  0.00    -0.006 C 
ATOM     18  C   UNL     1      -5.569 -13.343  33.649  1.00  0.00     0.008 C 
ATOM     19  C   UNL     1      -4.345 -15.491  33.165  1.00  0.00     0.008 C 
ENDBRANCH  12  17
ENDBRANCH  11  12
ENDBRANCH   1  11
TORSDOF 1
ENDMDL
MODEL 4
REMARK VINA RESULT:    -5.177      2.317      3.518
REMARK INTER + INTRA:          -7.586
REMARK INTER:                  -7.766
REMARK INTRA:                   0.179
REMARK UNBOUND:                 0.314
REMARK SMILES CC1=CCC[C@@H](C)C(=O)C[C@@H](C(C)C)C(=O)C1
REMARK SMILES IDX 8 1 9 2 6 3 7 4 5 5 4 6 3 7 2 8 1 9 10 11 11 12 15 13 16 14
REMARK SMILES IDX 17 15 12 17 13 18 14 19
REMARK H PARENT
REMARK Flexibility Score: 70.00
ROOT
ATOM      1  C   UNL     1      -4.876 -12.416  29.106  1.00  0.00     0.136 C 
ATOM      2  O   UNL     1      -5.126 -11.248  29.370  1.00  0.00    -0.299 OA
ENDROOT
BRANCH   1   3
ATOM      3  C   UNL     1      -4.332 -12.775  27.738  1.00  0.00     0.053 C 
ATOM      4  C   UNL     1      -4.666 -14.239  27.429  1.00  0.00     0.016 C 
BRANCH   3   5
ATOM      5  C   UNL     1      -2.804 -12.545  27.635  1.00  0.00     0.015 C 
BRANCH   5   6
ATOM      6  C   UNL     1      -1.955 -13.672  28.246  1.00  0.00     0.028 C 
BRANCH   6   7
ATOM      7  C   UNL     1      -0.881 -13.127  29.157  1.00  0.00    -0.028 C 
ATOM      8  C   UNL     1      -0.933 -13.122  30.508  1.00  0.00    -0.070 CG0
ATOM      9  C   UNL     1       0.227 -12.522  31.261  1.00  0.00     0.039 C 
ATOM     10  G   UNL     1      -2.108 -13.681  31.292  1.00  0.00     0.000 G0
ENDBRANCH   6   7
ENDBRANCH   5   6
ENDBRANCH   3   5
ENDBRANCH   1   3
BRANCH   1  11
ATOM     11  C   UNL     1      -5.072 -13.468  30.176  1.00  0.00     0.087 C 
BRANCH  11  12
ATOM     12  C   UNL     1      -4.650 -12.985  31.588  1.00  0.00     0.066 C 
BRANCH  12  13
ATOM     13  C   UNL     1      -3.165 -12.654  31.642  1.00  0.00     0.140 C 
ATOM     14  O   UNL     1      -2.813 -11.515  31.907  1.00  0.00    -0.299 OA
BRANCH  13  15
ATOM     15  C   UNL     1      -2.094 -13.672  31.309  1.00  0.00     0.106 CG0
ATOM     16  G   UNL     1      -0.945 -13.112  30.488  1.00  0.00     0.000 G0
ENDBRANCH  13  15
ENDBRANCH  12  13
BRANCH  12  17
ATOM     17  C   UNL     1      -5.040 -13.966  32.735  1.00  0.00    -0.006 C 
ATOM     18  C   UNL     1      -5.964 -15.115  32.294  1.00  0.00     0.008 C 
ATOM     19  C   UNL     1      -5.656 -13.228  33.934  1.00  0.00     0.008 C 
ENDBRANCH  12  17
ENDBRANCH  11  12
ENDBRANCH   1  11
TORSDOF 1
ENDMDL
MODEL 5
REMARK VINA RESULT:    -5.145      1.639      4.005
REMARK INTER + INTRA:          -7.538
REMARK INTER:                  -8.163
REMARK INTRA:                   0.625
REMARK UNBOUND:                 0.314
REMARK SMILES CC1=CCC[C@@H](C)C(=O)C[C@@H](C(C)C)C(=O)C1
REMARK SMILES IDX 8 1 9 2 6 3 7 4 5 5 4 6 3 7 2 8 1 9 10 11 11 12 15 13 16 14
REMARK SMILES IDX 17 15 12 17 13 18 14 19
REMARK H PARENT
REMARK Flexibility Score: 70.00
ROOT
ATOM      1  C   UNL     1      -5.443 -14.018  30.343  1.00  0.00     0.136 C 
ATOM      2  O   UNL     1      -6.274 -14.914  30.377  1.00  0.00    -0.299 OA
ENDROOT
BRANCH   1   3
ATOM      3  C   UNL     1      -4.549 -13.781  31.544  1.00  0.00     0.053 C 
ATOM      4  C   UNL     1      -4.864 -14.824  32.622  1.00  0.00     0.016 C 
BRANCH   3   5
ATOM      5  C   UNL     1      -4.710 -12.353  32.123  1.00  0.00     0.015 C 
BRANCH   5   6
ATOM      6  C   UNL     1      -3.426 -11.507  32.080  1.00  0.00     0.028 C 
BRANCH   6   7
ATOM      7  C   UNL     1      -2.216 -12.350  31.754  1.00  0.00    -0.028 C 
ATOM      8  C   UNL     1      -1.535 -12.318  30.586  1.00  0.00    -0.070 CG0
ATOM      9  C   UNL     1      -0.355 -13.242  30.427  1.00  0.00     0.039 C 
ATOM     10  G   UNL     1      -1.914 -11.404  29.434  1.00  0.00     0.000 G0
ENDBRANCH   6   7
ENDBRANCH   5   6
ENDBRANCH   3   5
ENDBRANCH   1   3
BRANCH   1  11
ATOM     11  C   UNL     1      -5.296 -13.201  29.079  1.00  0.00     0.087 C 
BRANCH  11  12
ATOM     12  C   UNL     1      -3.823 -13.062  28.612  1.00  0.00     0.066 C 
BRANCH  12  13
ATOM     13  C   UNL     1      -3.290 -11.658  28.861  1.00  0.00     0.140 C 
ATOM     14  O   UNL     1      -3.972 -10.694  28.548  1.00  0.00    -0.299 OA
BRANCH  13  15
ATOM     15  C   UNL     1      -1.906 -11.404  29.420  1.00  0.00     0.106 CG0
ATOM     16  G   UNL     1      -1.531 -12.316  30.575  1.00  0.00     0.000 G0
ENDBRANCH  13  15
ENDBRANCH  12  13
BRANCH  12  17
ATOM     17  C   UNL     1      -3.587 -13.489  27.131  1.00  0.00    -0.006 C 
ATOM     18  C   UNL     1      -3.450 -12.311  26.150  1.00  0.00     0.008 C 
ATOM     19  C   UNL     1      -4.668 -14.462  26.636  1.00  0.00     0.008 C 
ENDBRANCH  12  17
ENDBRANCH  11  12
ENDBRANCH   1  11
TORSDOF 1
ENDMDL
MODEL 6
REMARK VINA RESULT:    -5.100      2.519      4.880
REMARK INTER + INTRA:          -7.470
REMARK INTER:                  -7.870
REMARK INTRA:                   0.400
REMARK UNBOUND:                 0.314
REMARK SMILES CC1=CCC[C@@H](C)C(=O)C[C@@H](C(C)C)C(=O)C1
REMARK SMILES IDX 8 1 9 2 6 3 7 4 5 5 4 6 3 7 2 8 1 9 10 11 11 12 15 13 16 14
REMARK SMILES IDX 17 15 12 17 13 18 14 19
REMARK H PARENT
REMARK Flexibility Score: 70.00
ROOT
ATOM      1  C   UNL     1      -1.458 -13.329  29.527  1.00  0.00     0.136 C 
ATOM      2  O   UNL     1      -0.311 -13.754  29.549  1.00  0.00    -0.299 OA
ENDROOT
BRANCH   1   3
ATOM      3  C   UNL     1      -2.047 -12.697  30.772  1.00  0.00     0.053 C 
ATOM      4  C   UNL     1      -0.915 -12.347  31.745  1.00  0.00     0.016 C 
BRANCH   3   5
ATOM      5  C   UNL     1      -3.079 -13.618  31.467  1.00  0.00     0.015 C 
BRANCH   5   6
ATOM      6  C   UNL     1      -4.544 -13.211  31.234  1.00  0.00     0.028 C 
BRANCH   6   7
ATOM      7  C   UNL     1      -5.418 -14.414  30.970  1.00  0.00    -0.028 C 
ATOM      8  C   UNL     1      -6.108 -14.641  29.829  1.00  0.00    -0.070 CG0
ATOM      9  C   UNL     1      -6.945 -15.891  29.742  1.00  0.00     0.039 C 
ATOM     10  G   UNL     1      -6.083 -13.688  28.646  1.00  0.00     0.000 G0
ENDBRANCH   6   7
ENDBRANCH   5   6
ENDBRANCH   3   5
ENDBRANCH   1   3
BRANCH   1  11
ATOM     11  C   UNL     1      -2.242 -13.404  28.236  1.00  0.00     0.087 C 
BRANCH  11  12
ATOM     12  C   UNL     1      -3.630 -12.717  28.327  1.00  0.00     0.066 C 
BRANCH  12  13
ATOM     13  C   UNL     1      -4.748 -13.664  27.915  1.00  0.00     0.140 C 
ATOM     14  O   UNL     1      -4.593 -14.388  26.943  1.00  0.00    -0.299 OA
BRANCH  13  15
ATOM     15  C   UNL     1      -6.086 -13.698  28.624  1.00  0.00     0.106 CG0
ATOM     16  G   UNL     1      -6.124 -14.627  29.824  1.00  0.00     0.000 G0
ENDBRANCH  13  15
ENDBRANCH  12  13
BRANCH  12  17
ATOM     17  C   UNL     1      -3.724 -11.375  27.538  1.00  0.00    -0.006 C 
ATOM     18  C   UNL     1      -3.007 -11.392  26.178  1.00  0.00     0.008 C 
ATOM     19  C   UNL     1      -3.233 -10.184  28.376  1.00  0.00     0.008 C 
ENDBRANCH  12  17
ENDBRANCH  11  12
ENDBRANCH   1  11
TORSDOF 1
ENDMDL
MODEL 7
REMARK VINA RESULT:    -5.051      1.611      4.091
REMARK INTER + INTRA:          -7.395
REMARK INTER:                  -7.959
REMARK INTRA:                   0.564
REMARK UNBOUND:                 0.314
REMARK SMILES CC1=CCC[C@@H](C)C(=O)C[C@@H](C(C)C)C(=O)C1
REMARK SMILES IDX 8 1 9 2 6 3 7 4 5 5 4 6 3 7 2 8 1 9 10 11 11 12 15 13 16 14
REMARK SMILES IDX 17 15 12 17 13 18 14 19
REMARK H PARENT
REMARK Flexibility Score: 70.00
ROOT
ATOM      1  C   UNL     1      -4.020 -12.734  31.646  1.00  0.00     0.136 C 
ATOM      2  O   UNL     1      -3.250 -13.638  31.939  1.00  0.00    -0.299 OA
ENDROOT
BRANCH   1   3
ATOM      3  C   UNL     1      -3.786 -11.342  32.200  1.00  0.00     0.053 C 
ATOM      4  C   UNL     1      -4.813 -10.378  31.594  1.00  0.00     0.016 C 
BRANCH   3   5
ATOM      5  C   UNL     1      -2.350 -10.833  31.922  1.00  0.00     0.015 C 
BRANCH   5   6
ATOM      6  C   UNL     1      -1.957 -10.835  30.435  1.00  0.00     0.028 C 
BRANCH   6   7
ATOM      7  C   UNL     1      -1.225 -12.100  30.056  1.00  0.00    -0.028 C 
ATOM      8  C   UNL     1      -1.486 -12.854  28.964  1.00  0.00    -0.070 CG0
ATOM      9  C   UNL     1      -0.663 -14.098  28.747  1.00  0.00     0.039 C 
ATOM     10  G   UNL     1      -2.574 -12.508  27.962  1.00  0.00     0.000 G0
ENDBRANCH   6   7
ENDBRANCH   5   6
ENDBRANCH   3   5
ENDBRANCH   1   3
BRANCH   1  11
ATOM     11  C   UNL     1      -5.160 -13.021  30.694  1.00  0.00     0.087 C 
BRANCH  11  12
ATOM     12  C   UNL     1      -4.680 -13.462  29.287  1.00  0.00     0.066 C 
BRANCH  12  13
ATOM     13  C   UNL     1      -3.956 -12.333  28.567  1.00  0.00     0.140 C 
ATOM     14  O   UNL     1      -4.514 -11.255  28.428  1.00  0.00    -0.299 OA
BRANCH  13  15
ATOM     15  C   UNL     1      -2.586 -12.513  27.946  1.00  0.00     0.106 CG0
ATOM     16  G   UNL     1      -1.497 -12.856  28.948  1.00  0.00     0.000 G0
ENDBRANCH  13  15
ENDBRANCH  12  13
BRANCH  12  17
ATOM     17  C   UNL     1      -5.810 -14.054  28.390  1.00  0.00    -0.006 C 
ATOM     18  C   UNL     1      -6.757 -15.018  29.125  1.00  0.00     0.008 C 
ATOM     19  C   UNL     1      -5.246 -14.731  27.131  1.00  0.00     0.008 C 
ENDBRANCH  12  17
ENDBRANCH  11  12
ENDBRANCH   1  11
TORSDOF 1
ENDMDL
MODEL 8
REMARK VINA RESULT:    -4.996      2.143      3.988
REMARK INTER + INTRA:          -7.311
REMARK INTER:                  -7.469
REMARK INTRA:                   0.158
REMARK UNBOUND:                 0.314
REMARK SMILES CC1=CCC[C@@H](C)C(=O)C[C@@H](C(C)C)C(=O)C1
REMARK SMILES IDX 8 1 9 2 6 3 7 4 5 5 4 6 3 7 2 8 1 9 10 11 11 12 15 13 16 14
REMARK SMILES IDX 17 15 12 17 13 18 14 19
REMARK H PARENT
REMARK Flexibility Score: 70.00
ROOT
ATOM      1  C   UNL     1      -5.378 -14.126  28.279  1.00  0.00     0.136 C 
ATOM      2  O   UNL     1      -5.326 -14.581  27.145  1.00  0.00    -0.299 OA
ENDROOT
BRANCH   1   3
ATOM      3  C   UNL     1      -6.126 -14.884  29.357  1.00  0.00     0.053 C 
ATOM      4  C   UNL     1      -7.563 -15.144  28.888  1.00  0.00     0.016 C 
BRANCH   3   5
ATOM      5  C   UNL     1      -6.137 -14.128  30.708  1.00  0.00     0.015 C 
BRANCH   5   6
ATOM      6  C   UNL     1      -5.044 -14.579  31.692  1.00  0.00     0.028 C 
BRANCH   6   7
ATOM      7  C   UNL     1      -4.118 -13.442  32.053  1.00  0.00    -0.028 C 
ATOM      8  C   UNL     1      -2.964 -13.143  31.414  1.00  0.00    -0.070 CG0
ATOM      9  C   UNL     1      -2.154 -11.977  31.920  1.00  0.00     0.039 C 
ATOM     10  G   UNL     1      -2.450 -13.935  30.224  1.00  0.00     0.000 G0
ENDBRANCH   6   7
ENDBRANCH   5   6
ENDBRANCH   3   5
ENDBRANCH   1   3
BRANCH   1  11
ATOM     11  C   UNL     1      -4.648 -12.837  28.586  1.00  0.00     0.087 C 
BRANCH  11  12
ATOM     12  C   UNL     1      -3.227 -12.781  27.967  1.00  0.00     0.066 C 
BRANCH  12  13
ATOM     13  C   UNL     1      -2.158 -13.126  28.994  1.00  0.00     0.140 C 
ATOM     14  O   UNL     1      -1.004 -12.776  28.798  1.00  0.00    -0.299 OA
BRANCH  13  15
ATOM     15  C   UNL     1      -2.453 -13.955  30.226  1.00  0.00     0.106 CG0
ATOM     16  G   UNL     1      -2.962 -13.144  31.406  1.00  0.00     0.000 G0
ENDBRANCH  13  15
ENDBRANCH  12  13
BRANCH  12  17
ATOM     17  C   UNL     1      -2.899 -11.431  27.259  1.00  0.00    -0.006 C 
ATOM     18  C   UNL     1      -3.350 -10.184  28.040  1.00  0.00     0.008 C 
ATOM     19  C   UNL     1      -3.458 -11.384  25.828  1.00  0.00     0.008 C 
ENDBRANCH  12  17
ENDBRANCH  11  12
ENDBRANCH   1  11
TORSDOF 1
ENDMDL
MODEL 9
REMARK VINA RESULT:    -4.950      2.050      2.949
REMARK INTER + INTRA:          -7.241
REMARK INTER:                  -7.575
REMARK INTRA:                   0.334
REMARK UNBOUND:                 0.314
REMARK SMILES CC1=CCC[C@@H](C)C(=O)C[C@@H](C(C)C)C(=O)C1
REMARK SMILES IDX 8 1 9 2 6 3 7 4 5 5 4 6 3 7 2 8 1 9 10 11 11 12 15 13 16 14
REMARK SMILES IDX 17 15 12 17 13 18 14 19
REMARK H PARENT
REMARK Flexibility Score: 70.00
ROOT
ATOM      1  C   UNL     1      -4.388 -13.108  31.870  1.00  0.00     0.136 C 
ATOM      2  O   UNL     1      -4.391 -12.147  32.627  1.00  0.00    -0.299 OA
ENDROOT
BRANCH   1   3
ATOM      3  C   UNL     1      -5.625 -13.976  31.757  1.00  0.00     0.053 C 
ATOM      4  C   UNL     1      -5.709 -14.898  32.979  1.00  0.00     0.016 C 
BRANCH   3   5
ATOM      5  C   UNL     1      -5.636 -14.817  30.457  1.00  0.00     0.015 C 
BRANCH   5   6
ATOM      6  C   UNL     1      -6.259 -14.099  29.247  1.00  0.00     0.028 C 
BRANCH   6   7
ATOM      7  C   UNL     1      -5.244 -13.875  28.151  1.00  0.00    -0.028 C 
ATOM      8  C   UNL     1      -4.431 -12.799  28.049  1.00  0.00    -0.070 CG0
ATOM      9  C   UNL     1      -3.485 -12.733  26.878  1.00  0.00     0.039 C 
ATOM     10  G   UNL     1      -4.441 -11.658  29.052  1.00  0.00     0.000 G0
ENDBRANCH   6   7
ENDBRANCH   5   6
ENDBRANCH   3   5
ENDBRANCH   1   3
BRANCH   1  11
ATOM     11  C   UNL     1      -3.160 -13.374  31.028  1.00  0.00     0.087 C 
BRANCH  11  12
ATOM     12  C   UNL     1      -2.369 -12.086  30.681  1.00  0.00     0.066 C 
BRANCH  12  13
ATOM     13  C   UNL     1      -3.058 -11.288  29.583  1.00  0.00     0.140 C 
ATOM     14  O   UNL     1      -2.520 -10.283  29.144  1.00  0.00    -0.299 OA
BRANCH  13  15
ATOM     15  C   UNL     1      -4.431 -11.652  29.055  1.00  0.00     0.106 CG0
ATOM     16  G   UNL     1      -4.424 -12.802  28.063  1.00  0.00     0.000 G0
ENDBRANCH  13  15
ENDBRANCH  12  13
BRANCH  12  17
ATOM     17  C   UNL     1      -0.873 -12.339  30.325  1.00  0.00    -0.006 C 
ATOM     18  C   UNL     1      -0.658 -13.366  29.199  1.00  0.00     0.008 C 
ATOM     19  C   UNL     1      -0.049 -12.735  31.560  1.00  0.00     0.008 C 
ENDBRANCH  12  17
ENDBRANCH  11  12
ENDBRANCH   1  11
TORSDOF 1
ENDMDL
