MODEL 1
REMARK VINA RESULT:    -3.228      0.000      0.000
REMARK INTER + INTRA:          -4.050
REMARK INTER:                  -3.889
REMARK INTRA:                  -0.161
REMARK UNBOUND:                -0.161
REMARK SMILES O=c1c(O)c(-c2ccc(O)c(O)c2)oc2cc(O)cc(O)c12
REMARK SMILES IDX 5 1 3 2 2 3 1 4 22 5 20 6 19 7 17 8 16 9 15 10 14 11 6 12
REMARK SMILES IDX 7 13 8 14 9 15 13 16 11 17 10 18 12 20 4 22 21 24 18 26
REMARK H PARENT 10 19 12 21 4 23 21 25 18 27
REMARK Flexibility Score: inf
ROOT
ATOM      1  C   UNL     1      26.301  37.224  23.888  1.00  0.00     0.180 A 
ATOM      2  C   UNL     1      26.429  37.937  22.680  1.00  0.00     0.208 A 
ATOM      3  C   UNL     1      26.656  37.224  21.493  1.00  0.00     0.238 A 
ATOM      4  O   UNL     1      26.761  37.849  20.403  1.00  0.00    -0.285 OA
ATOM      5  C   UNL     1      26.772  35.818  21.535  1.00  0.00     0.111 A 
ATOM      6  C   UNL     1      27.005  35.026  20.385  1.00  0.00     0.134 A 
ATOM      7  C   UNL     1      27.118  33.633  20.511  1.00  0.00     0.093 A 
ATOM      8  C   UNL     1      27.003  33.020  21.760  1.00  0.00     0.123 A 
ATOM      9  C   UNL     1      26.773  33.797  22.900  1.00  0.00     0.094 A 
ATOM     10  C   UNL     1      26.656  35.186  22.795  1.00  0.00     0.146 A 
ATOM     11  O   UNL     1      26.432  35.901  23.892  1.00  0.00    -0.452 OA
ENDROOT
BRANCH   1  12
ATOM     12  C   UNL     1      26.043  37.904  25.178  1.00  0.00     0.025 A 
ATOM     13  C   UNL     1      27.004  37.916  26.205  1.00  0.00     0.016 A 
ATOM     14  C   UNL     1      26.747  38.584  27.404  1.00  0.00     0.051 A 
ATOM     15  C   UNL     1      25.535  39.261  27.591  1.00  0.00     0.157 A 
ATOM     16  C   UNL     1      24.838  38.602  25.363  1.00  0.00     0.062 A 
ATOM     17  C   UNL     1      24.580  39.273  26.567  1.00  0.00     0.158 A 
BRANCH  15  18
ATOM     18  O   UNL     1      25.275  39.928  28.787  1.00  0.00    -0.504 OA
ATOM     19  H   UNL     1      26.023  40.305  29.357  1.00  0.00     0.293 HD
ENDBRANCH  15  18
BRANCH  17  20
ATOM     20  O   UNL     1      23.377  39.954  26.752  1.00  0.00    -0.504 OA
ATOM     21  H   UNL     1      23.356  40.943  26.966  1.00  0.00     0.293 HD
ENDBRANCH  17  20
ENDBRANCH   1  12
BRANCH   2  22
ATOM     22  O   UNL     1      26.359  39.332  22.672  1.00  0.00    -0.502 OA
ATOM     23  H   UNL     1      26.825  39.904  23.366  1.00  0.00     0.293 HD
ENDBRANCH   2  22
BRANCH   6  24
ATOM     24  O   UNL     1      27.125  35.609  19.122  1.00  0.00    -0.507 OA
ATOM     25  H   UNL     1      26.389  35.537  18.430  1.00  0.00     0.293 HD
ENDBRANCH   6  24
BRANCH   8  26
ATOM     26  O   UNL     1      27.120  31.635  21.859  1.00  0.00    -0.508 OA
ATOM     27  H   UNL     1      26.675  31.017  21.190  1.00  0.00     0.293 HD
ENDBRANCH   8  26
TORSDOF 6
ENDMDL
MODEL 2
REMARK VINA RESULT:    -1.916     12.494     15.386
REMARK INTER + INTRA:          -2.469
REMARK INTER:                  -2.193
REMARK INTRA:                  -0.277
REMARK UNBOUND:                -0.161
REMARK SMILES O=c1c(O)c(-c2ccc(O)c(O)c2)oc2cc(O)cc(O)c12
REMARK SMILES IDX 5 1 3 2 2 3 1 4 22 5 20 6 19 7 17 8 16 9 15 10 14 11 6 12
REMARK SMILES IDX 7 13 8 14 9 15 13 16 11 17 10 18 12 20 4 22 21 24 18 26
REMARK H PARENT 10 19 12 21 4 23 21 25 18 27
REMARK Flexibility Score: inf
ROOT
ATOM      1  C   UNL     1      12.154  39.181  28.797  1.00  0.00     0.180 A 
ATOM      2  C   UNL     1      13.321  39.355  29.566  1.00  0.00     0.208 A 
ATOM      3  C   UNL     1      14.553  39.493  28.908  1.00  0.00     0.238 A 
ATOM      4  O   UNL     1      15.603  39.661  29.586  1.00  0.00    -0.285 OA
ATOM      5  C   UNL     1      14.602  39.436  27.499  1.00  0.00     0.111 A 
ATOM      6  C   UNL     1      15.802  39.563  26.761  1.00  0.00     0.134 A 
ATOM      7  C   UNL     1      15.769  39.484  25.360  1.00  0.00     0.093 A 
ATOM      8  C   UNL     1      14.562  39.282  24.687  1.00  0.00     0.123 A 
ATOM      9  C   UNL     1      13.372  39.157  25.412  1.00  0.00     0.094 A 
ATOM     10  C   UNL     1      13.385  39.233  26.807  1.00  0.00     0.146 A 
ATOM     11  O   UNL     1      12.240  39.116  27.471  1.00  0.00    -0.452 OA
ENDROOT
BRANCH   1  12
ATOM     12  C   UNL     1      10.816  39.046  29.417  1.00  0.00     0.025 A 
ATOM     13  C   UNL     1       9.892  40.106  29.402  1.00  0.00     0.016 A 
ATOM     14  C   UNL     1       8.626  39.947  29.972  1.00  0.00     0.051 A 
ATOM     15  C   UNL     1       8.261  38.725  30.551  1.00  0.00     0.157 A 
ATOM     16  C   UNL     1      10.436  37.816  29.980  1.00  0.00     0.062 A 
ATOM     17  C   UNL     1       9.166  37.657  30.552  1.00  0.00     0.158 A 
BRANCH  15  18
ATOM     18  O   UNL     1       6.999  38.563  31.121  1.00  0.00    -0.504 OA
ATOM     19  H   UNL     1       6.158  38.858  30.640  1.00  0.00     0.293 HD
ENDBRANCH  15  18
BRANCH  17  20
ATOM     20  O   UNL     1       8.797  36.439  31.122  1.00  0.00    -0.504 OA
ATOM     21  H   UNL     1       7.857  36.073  31.029  1.00  0.00     0.293 HD
ENDBRANCH  17  20
ENDBRANCH   1  12
BRANCH   2  22
ATOM     22  O   UNL     1      13.253  39.360  30.961  1.00  0.00    -0.502 OA
ATOM     23  H   UNL     1      12.703  40.037  31.477  1.00  0.00     0.293 HD
ENDBRANCH   2  22
BRANCH   6  24
ATOM     24  O   UNL     1      17.024  39.764  27.404  1.00  0.00    -0.507 OA
ATOM     25  H   UNL     1      17.140  39.588  28.394  1.00  0.00     0.293 HD
ENDBRANCH   6  24
BRANCH   8  26
ATOM     26  O   UNL     1      14.556  39.208  23.296  1.00  0.00    -0.508 OA
ATOM     27  H   UNL     1      15.295  39.621  22.740  1.00  0.00     0.293 HD
ENDBRANCH   8  26
TORSDOF 6
ENDMDL
MODEL 3
REMARK VINA RESULT:    -1.298      1.502      6.871
REMARK INTER + INTRA:          -1.724
REMARK INTER:                  -1.796
REMARK INTRA:                   0.072
REMARK UNBOUND:                -0.161
REMARK SMILES O=c1c(O)c(-c2ccc(O)c(O)c2)oc2cc(O)cc(O)c12
REMARK SMILES IDX 5 1 3 2 2 3 1 4 22 5 20 6 19 7 17 8 16 9 15 10 14 11 6 12
REMARK SMILES IDX 7 13 8 14 9 15 13 16 11 17 10 18 12 20 4 22 21 24 18 26
REMARK H PARENT 10 19 12 21 4 23 21 25 18 27
REMARK Flexibility Score: inf
ROOT
ATOM      1  C   UNL     1      25.754  37.392  24.643  1.00  0.00     0.180 A 
ATOM      2  C   UNL     1      24.814  38.438  24.700  1.00  0.00     0.208 A 
ATOM      3  C   UNL     1      24.523  39.022  25.943  1.00  0.00     0.238 A 
ATOM      4  O   UNL     1      23.691  39.968  26.006  1.00  0.00    -0.285 OA
ATOM      5  C   UNL     1      25.157  38.538  27.107  1.00  0.00     0.111 A 
ATOM      6  C   UNL     1      24.917  39.068  28.397  1.00  0.00     0.134 A 
ATOM      7  C   UNL     1      25.581  38.524  29.507  1.00  0.00     0.093 A 
ATOM      8  C   UNL     1      26.478  37.465  29.352  1.00  0.00     0.123 A 
ATOM      9  C   UNL     1      26.721  36.938  28.079  1.00  0.00     0.094 A 
ATOM     10  C   UNL     1      26.069  37.466  26.961  1.00  0.00     0.146 A 
ATOM     11  O   UNL     1      26.321  36.951  25.763  1.00  0.00    -0.452 OA
ENDROOT
BRANCH   1  12
ATOM     12  C   UNL     1      26.128  36.739  23.368  1.00  0.00     0.025 A 
ATOM     13  C   UNL     1      26.144  35.339  23.240  1.00  0.00     0.016 A 
ATOM     14  C   UNL     1      26.477  34.745  22.019  1.00  0.00     0.051 A 
ATOM     15  C   UNL     1      26.783  35.540  20.907  1.00  0.00     0.157 A 
ATOM     16  C   UNL     1      26.415  37.531  22.244  1.00  0.00     0.062 A 
ATOM     17  C   UNL     1      26.749  36.936  21.019  1.00  0.00     0.158 A 
BRANCH  15  18
ATOM     18  O   UNL     1      27.116  34.952  19.688  1.00  0.00    -0.504 OA
ATOM     19  H   UNL     1      27.441  33.994  19.633  1.00  0.00     0.293 HD
ENDBRANCH  15  18
BRANCH  17  20
ATOM     20  O   UNL     1      27.046  37.725  19.908  1.00  0.00    -0.504 OA
ATOM     21  H   UNL     1      27.041  37.344  18.970  1.00  0.00     0.293 HD
ENDBRANCH  17  20
ENDBRANCH   1  12
BRANCH   2  22
ATOM     22  O   UNL     1      24.163  38.867  23.541  1.00  0.00    -0.502 OA
ATOM     23  H   UNL     1      23.448  39.585  23.553  1.00  0.00     0.293 HD
ENDBRANCH   2  22
BRANCH   6  24
ATOM     24  O   UNL     1      24.025  40.125  28.586  1.00  0.00    -0.507 OA
ATOM     25  H   UNL     1      24.242  41.065  28.279  1.00  0.00     0.293 HD
ENDBRANCH   6  24
BRANCH   8  26
ATOM     26  O   UNL     1      27.125  36.943  30.470  1.00  0.00    -0.508 OA
ATOM     27  H   UNL     1      26.608  36.638  31.286  1.00  0.00     0.293 HD
ENDBRANCH   8  26
TORSDOF 6
ENDMDL
