MODEL 1
REMARK VINA RESULT:    -3.661      0.000      0.000
REMARK INTER + INTRA:          -5.897
REMARK INTER:                  -4.945
REMARK INTRA:                  -0.952
REMARK UNBOUND:                -0.952
REMARK SMILES C[C@@H](O)[C@H](O)[C@@H](O)[C@H](O)C=O
REMARK SMILES IDX 4 1 2 2 1 3 3 4 6 6 8 7 10 8 11 9 9 10 7 12 5 14
REMARK H PARENT 3 5 9 11 7 13 5 15
REMARK Flexibility Score: inf
ROOT
ATOM      1  C   UNL     1      96.985   4.906  24.959  1.00  0.00     0.174 C 
ENDROOT
BRANCH   1   2
ATOM      2  C   UNL     1      95.637   5.671  25.064  1.00  0.00     0.142 C 
ATOM      3  C   UNL     1      95.228   6.297  23.723  1.00  0.00     0.041 C 
BRANCH   2   4
ATOM      4  O   UNL     1      94.611   4.854  25.569  1.00  0.00    -0.391 OA
ATOM      5  H   UNL     1      94.392   4.176  24.878  1.00  0.00     0.211 HD
ENDBRANCH   2   4
ENDBRANCH   1   2
BRANCH   1   6
ATOM      6  C   UNL     1      97.014   3.578  25.777  1.00  0.00     0.181 C 
BRANCH   6   7
ATOM      7  C   UNL     1      98.446   3.023  26.008  1.00  0.00     0.209 C 
BRANCH   7   8
ATOM      8  C   UNL     1      98.744   1.844  25.113  1.00  0.00     0.258 C 
ATOM      9  O   UNL     1      98.751   1.984  23.902  1.00  0.00    -0.300 OA
ENDBRANCH   7   8
BRANCH   7  10
ATOM     10  O   UNL     1      99.420   4.025  25.853  1.00  0.00    -0.383 OA
ATOM     11  H   UNL     1      99.534   4.480  26.729  1.00  0.00     0.211 HD
ENDBRANCH   7  10
ENDBRANCH   6   7
BRANCH   6  12
ATOM     12  O   UNL     1      96.196   2.608  25.167  1.00  0.00    -0.387 OA
ATOM     13  H   UNL     1      96.655   1.732  25.236  1.00  0.00     0.211 HD
ENDBRANCH   6  12
ENDBRANCH   1   6
BRANCH   1  14
ATOM     14  O   UNL     1      97.319   4.660  23.614  1.00  0.00    -0.388 OA
ATOM     15  H   UNL     1      96.992   3.754  23.378  1.00  0.00     0.211 HD
ENDBRANCH   1  14
TORSDOF 8
ENDMDL
MODEL 2
REMARK VINA RESULT:    -3.646      7.379      9.222
REMARK INTER + INTRA:          -5.877
REMARK INTER:                  -5.300
REMARK INTRA:                  -0.576
REMARK UNBOUND:                -0.952
REMARK SMILES C[C@@H](O)[C@H](O)[C@@H](O)[C@H](O)C=O
REMARK SMILES IDX 4 1 2 2 1 3 3 4 6 6 8 7 10 8 11 9 9 10 7 12 5 14
REMARK H PARENT 3 5 9 11 7 13 5 15
REMARK Flexibility Score: inf
ROOT
ATOM      1  C   UNL     1      98.966   7.111  18.311  1.00  0.00     0.174 C 
ENDROOT
BRANCH   1   2
ATOM      2  C   UNL     1      97.909   6.835  19.416  1.00  0.00     0.142 C 
ATOM      3  C   UNL     1      97.821   7.988  20.426  1.00  0.00     0.041 C 
BRANCH   2   4
ATOM      4  O   UNL     1      96.645   6.550  18.871  1.00  0.00    -0.391 OA
ATOM      5  H   UNL     1      95.989   7.173  19.276  1.00  0.00     0.211 HD
ENDBRANCH   2   4
ENDBRANCH   1   2
BRANCH   1   6
ATOM      6  C   UNL     1      99.073   8.614  17.911  1.00  0.00     0.181 C 
BRANCH   6   7
ATOM      7  C   UNL     1      98.225   8.987  16.664  1.00  0.00     0.209 C 
BRANCH   7   8
ATOM      8  C   UNL     1      99.082   9.505  15.536  1.00  0.00     0.258 C 
ATOM      9  O   UNL     1      99.508  10.648  15.568  1.00  0.00    -0.300 OA
ENDBRANCH   7   8
BRANCH   7  10
ATOM     10  O   UNL     1      97.435   7.905  16.234  1.00  0.00    -0.383 OA
ATOM     11  H   UNL     1      97.572   7.794  15.257  1.00  0.00     0.211 HD
ENDBRANCH   7  10
ENDBRANCH   6   7
BRANCH   6  12
ATOM     12  O   UNL     1     100.419   8.978  17.725  1.00  0.00    -0.387 OA
ATOM     13  H   UNL     1     100.816   9.152  18.617  1.00  0.00     0.211 HD
ENDBRANCH   6  12
ENDBRANCH   1   6
BRANCH   1  14
ATOM     14  O   UNL     1     100.227   6.613  18.688  1.00  0.00    -0.388 OA
ATOM     15  H   UNL     1     100.856   7.379  18.734  1.00  0.00     0.211 HD
ENDBRANCH   1  14
TORSDOF 8
ENDMDL
MODEL 3
REMARK VINA RESULT:    -3.611      1.803      2.598
REMARK INTER + INTRA:          -5.830
REMARK INTER:                  -4.853
REMARK INTRA:                  -0.977
REMARK UNBOUND:                -0.952
REMARK SMILES C[C@@H](O)[C@H](O)[C@@H](O)[C@H](O)C=O
REMARK SMILES IDX 4 1 2 2 1 3 3 4 6 6 8 7 10 8 11 9 9 10 7 12 5 14
REMARK H PARENT 3 5 9 11 7 13 5 15
REMARK Flexibility Score: inf
ROOT
ATOM      1  C   UNL     1      96.301   6.195  23.855  1.00  0.00     0.174 C 
ENDROOT
BRANCH   1   2
ATOM      2  C   UNL     1      96.541   7.032  25.142  1.00  0.00     0.142 C 
ATOM      3  C   UNL     1      95.948   8.444  25.027  1.00  0.00     0.041 C 
BRANCH   2   4
ATOM      4  O   UNL     1      96.058   6.378  26.288  1.00  0.00    -0.391 OA
ATOM      5  H   UNL     1      95.086   6.564  26.361  1.00  0.00     0.211 HD
ENDBRANCH   2   4
ENDBRANCH   1   2
BRANCH   1   6
ATOM      6  C   UNL     1      97.051   4.828  23.850  1.00  0.00     0.181 C 
BRANCH   6   7
ATOM      7  C   UNL     1      96.112   3.604  24.027  1.00  0.00     0.209 C 
BRANCH   7   8
ATOM      8  C   UNL     1      96.883   2.309  24.092  1.00  0.00     0.258 C 
ATOM      9  O   UNL     1      97.507   2.020  25.100  1.00  0.00    -0.300 OA
ENDBRANCH   7   8
BRANCH   7  10
ATOM     10  O   UNL     1      95.282   3.748  25.153  1.00  0.00    -0.383 OA
ATOM     11  H   UNL     1      95.614   3.133  25.859  1.00  0.00     0.211 HD
ENDBRANCH   7  10
ENDBRANCH   6   7
BRANCH   6  12
ATOM     12  O   UNL     1      98.067   4.822  24.824  1.00  0.00    -0.387 OA
ATOM     13  H   UNL     1      97.874   5.547  25.474  1.00  0.00     0.211 HD
ENDBRANCH   6  12
ENDBRANCH   1   6
BRANCH   1  14
ATOM     14  O   UNL     1      94.924   6.000  23.635  1.00  0.00    -0.388 OA
ATOM     15  H   UNL     1      94.814   5.156  23.126  1.00  0.00     0.211 HD
ENDBRANCH   1  14
TORSDOF 8
ENDMDL
MODEL 4
REMARK VINA RESULT:    -3.549      5.326      6.924
REMARK INTER + INTRA:          -5.747
REMARK INTER:                  -5.339
REMARK INTRA:                  -0.407
REMARK UNBOUND:                -0.952
REMARK SMILES C[C@@H](O)[C@H](O)[C@@H](O)[C@H](O)C=O
REMARK SMILES IDX 4 1 2 2 1 3 3 4 6 6 8 7 10 8 11 9 9 10 7 12 5 14
REMARK H PARENT 3 5 9 11 7 13 5 15
REMARK Flexibility Score: inf
ROOT
ATOM      1  C   UNL     1      96.730   7.544  19.727  1.00  0.00     0.174 C 
ENDROOT
BRANCH   1   2
ATOM      2  C   UNL     1      96.033   7.373  21.105  1.00  0.00     0.142 C 
ATOM      3  C   UNL     1      94.630   7.998  21.119  1.00  0.00     0.041 C 
BRANCH   2   4
ATOM      4  O   UNL     1      95.984   6.025  21.502  1.00  0.00    -0.391 OA
ATOM      5  H   UNL     1      95.814   5.474  20.695  1.00  0.00     0.211 HD
ENDBRANCH   2   4
ENDBRANCH   1   2
BRANCH   1   6
ATOM      6  C   UNL     1      98.285   7.446  19.798  1.00  0.00     0.181 C 
BRANCH   6   7
ATOM      7  C   UNL     1      98.942   7.026  18.455  1.00  0.00     0.209 C 
BRANCH   7   8
ATOM      8  C   UNL     1      98.835   8.113  17.413  1.00  0.00     0.258 C 
ATOM      9  O   UNL     1      98.023   8.014  16.508  1.00  0.00    -0.300 OA
ENDBRANCH   7   8
BRANCH   7  10
ATOM     10  O   UNL     1     100.281   6.637  18.634  1.00  0.00    -0.383 OA
ATOM     11  H   UNL     1     100.645   6.372  17.749  1.00  0.00     0.211 HD
ENDBRANCH   7  10
ENDBRANCH   6   7
BRANCH   6  12
ATOM     12  O   UNL     1      98.675   6.580  20.836  1.00  0.00    -0.387 OA
ATOM     13  H   UNL     1      97.877   6.387  21.392  1.00  0.00     0.211 HD
ENDBRANCH   6  12
ENDBRANCH   1   6
BRANCH   1  14
ATOM     14  O   UNL     1      96.223   6.623  18.791  1.00  0.00    -0.388 OA
ATOM     15  H   UNL     1      96.647   5.743  18.968  1.00  0.00     0.211 HD
ENDBRANCH   1  14
TORSDOF 8
ENDMDL
MODEL 5
REMARK VINA RESULT:    -3.534      2.167      4.293
REMARK INTER + INTRA:          -5.725
REMARK INTER:                  -4.753
REMARK INTRA:                  -0.972
REMARK UNBOUND:                -0.952
REMARK SMILES C[C@@H](O)[C@H](O)[C@@H](O)[C@H](O)C=O
REMARK SMILES IDX 4 1 2 2 1 3 3 4 6 6 8 7 10 8 11 9 9 10 7 12 5 14
REMARK H PARENT 3 5 9 11 7 13 5 15
REMARK Flexibility Score: inf
ROOT
ATOM      1  C   UNL     1      97.006   4.823  23.835  1.00  0.00     0.174 C 
ENDROOT
BRANCH   1   2
ATOM      2  C   UNL     1      96.104   3.581  24.075  1.00  0.00     0.142 C 
ATOM      3  C   UNL     1      96.924   2.286  24.161  1.00  0.00     0.041 C 
BRANCH   2   4
ATOM      4  O   UNL     1      95.294   3.736  25.213  1.00  0.00    -0.391 OA
ATOM      5  H   UNL     1      95.607   3.095  25.902  1.00  0.00     0.211 HD
ENDBRANCH   2   4
ENDBRANCH   1   2
BRANCH   1   6
ATOM      6  C   UNL     1      96.226   6.173  23.852  1.00  0.00     0.181 C 
BRANCH   6   7
ATOM      7  C   UNL     1      96.482   7.023  25.126  1.00  0.00     0.209 C 
BRANCH   7   8
ATOM      8  C   UNL     1      95.951   8.428  24.981  1.00  0.00     0.258 C 
ATOM      9  O   UNL     1      95.525   8.812  23.905  1.00  0.00    -0.300 OA
ENDBRANCH   7   8
BRANCH   7  10
ATOM     10  O   UNL     1      95.951   6.405  26.273  1.00  0.00    -0.383 OA
ATOM     11  H   UNL     1      95.185   5.840  25.991  1.00  0.00     0.211 HD
ENDBRANCH   7  10
ENDBRANCH   6   7
BRANCH   6  12
ATOM     12  O   UNL     1      94.848   5.947  23.671  1.00  0.00    -0.387 OA
ATOM     13  H   UNL     1      94.438   6.791  23.350  1.00  0.00     0.211 HD
ENDBRANCH   6  12
ENDBRANCH   1   6
BRANCH   1  14
ATOM     14  O   UNL     1      98.067   4.859  24.760  1.00  0.00    -0.388 OA
ATOM     15  H   UNL     1      98.862   5.230  24.298  1.00  0.00     0.211 HD
ENDBRANCH   1  14
TORSDOF 8
ENDMDL
MODEL 6
REMARK VINA RESULT:    -3.533      4.812      6.467
REMARK INTER + INTRA:          -5.725
REMARK INTER:                  -5.121
REMARK INTRA:                  -0.604
REMARK UNBOUND:                -0.952
REMARK SMILES C[C@@H](O)[C@H](O)[C@@H](O)[C@H](O)C=O
REMARK SMILES IDX 4 1 2 2 1 3 3 4 6 6 8 7 10 8 11 9 9 10 7 12 5 14
REMARK H PARENT 3 5 9 11 7 13 5 15
REMARK Flexibility Score: inf
ROOT
ATOM      1  C   UNL     1      97.840   6.787  19.325  1.00  0.00     0.174 C 
ENDROOT
BRANCH   1   2
ATOM      2  C   UNL     1      99.010   7.207  18.393  1.00  0.00     0.142 C 
ATOM      3  C   UNL     1      99.233   8.726  18.401  1.00  0.00     0.041 C 
BRANCH   2   4
ATOM      4  O   UNL     1     100.199   6.525  18.709  1.00  0.00    -0.391 OA
ATOM      5  H   UNL     1     100.840   7.184  19.080  1.00  0.00     0.211 HD
ENDBRANCH   2   4
ENDBRANCH   1   2
BRANCH   1   6
ATOM      6  C   UNL     1      97.665   7.716  20.565  1.00  0.00     0.181 C 
BRANCH   6   7
ATOM      7  C   UNL     1      98.138   7.070  21.896  1.00  0.00     0.209 C 
BRANCH   7   8
ATOM      8  C   UNL     1      96.977   6.581  22.727  1.00  0.00     0.258 C 
ATOM      9  O   UNL     1      96.248   5.702  22.300  1.00  0.00    -0.300 OA
ENDBRANCH   7   8
BRANCH   7  10
ATOM     10  O   UNL     1      99.060   6.033  21.668  1.00  0.00    -0.383 OA
ATOM     11  H   UNL     1      99.831   6.169  22.278  1.00  0.00     0.211 HD
ENDBRANCH   7  10
ENDBRANCH   6   7
BRANCH   6  12
ATOM     12  O   UNL     1      96.331   8.152  20.668  1.00  0.00    -0.387 OA
ATOM     13  H   UNL     1      96.337   9.137  20.782  1.00  0.00     0.211 HD
ENDBRANCH   6  12
ENDBRANCH   1   6
BRANCH   1  14
ATOM     14  O   UNL     1      96.633   6.699  18.605  1.00  0.00    -0.388 OA
ATOM     15  H   UNL     1      95.938   7.193  19.112  1.00  0.00     0.211 HD
ENDBRANCH   1  14
TORSDOF 8
ENDMDL
MODEL 7
REMARK VINA RESULT:    -3.512      5.384      7.077
REMARK INTER + INTRA:          -5.696
REMARK INTER:                  -5.082
REMARK INTRA:                  -0.615
REMARK UNBOUND:                -0.952
REMARK SMILES C[C@@H](O)[C@H](O)[C@@H](O)[C@H](O)C=O
REMARK SMILES IDX 4 1 2 2 1 3 3 4 6 6 8 7 10 8 11 9 9 10 7 12 5 14
REMARK H PARENT 3 5 9 11 7 13 5 15
REMARK Flexibility Score: inf
ROOT
ATOM      1  C   UNL     1      97.743   7.603  20.467  1.00  0.00     0.174 C 
ENDROOT
BRANCH   1   2
ATOM      2  C   UNL     1      98.027   6.809  21.772  1.00  0.00     0.142 C 
ATOM      3  C   UNL     1      96.780   6.067  22.275  1.00  0.00     0.041 C 
BRANCH   2   4
ATOM      4  O   UNL     1      99.108   5.923  21.619  1.00  0.00    -0.391 OA
ATOM      5  H   UNL     1      98.898   5.094  22.120  1.00  0.00     0.211 HD
ENDBRANCH   2   4
ENDBRANCH   1   2
BRANCH   1   6
ATOM      6  C   UNL     1      97.802   6.728  19.178  1.00  0.00     0.181 C 
BRANCH   6   7
ATOM      7  C   UNL     1      98.999   7.071  18.250  1.00  0.00     0.209 C 
BRANCH   7   8
ATOM      8  C   UNL     1      99.137   8.559  18.037  1.00  0.00     0.258 C 
ATOM      9  O   UNL     1      98.287   9.167  17.408  1.00  0.00    -0.300 OA
ENDBRANCH   7   8
BRANCH   7  10
ATOM     10  O   UNL     1     100.201   6.523  18.733  1.00  0.00    -0.383 OA
ATOM     11  H   UNL     1     100.889   7.240  18.728  1.00  0.00     0.211 HD
ENDBRANCH   7  10
ENDBRANCH   6   7
BRANCH   6  12
ATOM     12  O   UNL     1      96.587   6.808  18.474  1.00  0.00    -0.387 OA
ATOM     13  H   UNL     1      96.127   5.932  18.554  1.00  0.00     0.211 HD
ENDBRANCH   6  12
ENDBRANCH   1   6
BRANCH   1  14
ATOM     14  O   UNL     1      96.507   8.273  20.548  1.00  0.00    -0.388 OA
ATOM     15  H   UNL     1      95.795   7.590  20.653  1.00  0.00     0.211 HD
ENDBRANCH   1  14
TORSDOF 8
ENDMDL
MODEL 8
REMARK VINA RESULT:    -3.440      2.086      3.664
REMARK INTER + INTRA:          -5.599
REMARK INTER:                  -4.695
REMARK INTRA:                  -0.904
REMARK UNBOUND:                -0.952
REMARK SMILES C[C@@H](O)[C@H](O)[C@@H](O)[C@H](O)C=O
REMARK SMILES IDX 4 1 2 2 1 3 3 4 6 6 8 7 10 8 11 9 9 10 7 12 5 14
REMARK H PARENT 3 5 9 11 7 13 5 15
REMARK Flexibility Score: inf
ROOT
ATOM      1  C   UNL     1      95.336   6.297  23.308  1.00  0.00     0.174 C 
ENDROOT
BRANCH   1   2
ATOM      2  C   UNL     1      95.116   6.620  21.804  1.00  0.00     0.142 C 
ATOM      3  C   UNL     1      94.566   8.038  21.597  1.00  0.00     0.041 C 
BRANCH   2   4
ATOM      4  O   UNL     1      96.287   6.422  21.052  1.00  0.00    -0.391 OA
ATOM      5  H   UNL     1      96.249   5.512  20.660  1.00  0.00     0.211 HD
ENDBRANCH   2   4
ENDBRANCH   1   2
BRANCH   1   6
ATOM      6  C   UNL     1      96.181   5.010  23.554  1.00  0.00     0.181 C 
BRANCH   6   7
ATOM      7  C   UNL     1      95.963   4.382  24.957  1.00  0.00     0.209 C 
BRANCH   7   8
ATOM      8  C   UNL     1      97.108   4.685  25.893  1.00  0.00     0.258 C 
ATOM      9  O   UNL     1      97.347   5.838  26.212  1.00  0.00    -0.300 OA
ENDBRANCH   7   8
BRANCH   7  10
ATOM     10  O   UNL     1      94.739   4.787  25.519  1.00  0.00    -0.383 OA
ATOM     11  H   UNL     1      94.705   5.780  25.498  1.00  0.00     0.211 HD
ENDBRANCH   7  10
ENDBRANCH   6   7
BRANCH   6  12
ATOM     12  O   UNL     1      97.546   5.269  23.330  1.00  0.00    -0.387 OA
ATOM     13  H   UNL     1      97.721   6.217  23.565  1.00  0.00     0.211 HD
ENDBRANCH   6  12
ENDBRANCH   1   6
BRANCH   1  14
ATOM     14  O   UNL     1      95.909   7.395  23.978  1.00  0.00    -0.388 OA
ATOM     15  H   UNL     1      95.548   8.224  23.570  1.00  0.00     0.211 HD
ENDBRANCH   1  14
TORSDOF 8
ENDMDL
MODEL 9
REMARK VINA RESULT:    -3.432      1.832      2.580
REMARK INTER + INTRA:          -5.588
REMARK INTER:                  -4.625
REMARK INTRA:                  -0.963
REMARK UNBOUND:                -0.952
REMARK SMILES C[C@@H](O)[C@H](O)[C@@H](O)[C@H](O)C=O
REMARK SMILES IDX 4 1 2 2 1 3 3 4 6 6 8 7 10 8 11 9 9 10 7 12 5 14
REMARK H PARENT 3 5 9 11 7 13 5 15
REMARK Flexibility Score: inf
ROOT
ATOM      1  C   UNL     1      95.795   5.020  24.565  1.00  0.00     0.174 C 
ENDROOT
BRANCH   1   2
ATOM      2  C   UNL     1      95.826   6.463  23.991  1.00  0.00     0.142 C 
ATOM      3  C   UNL     1      94.752   6.675  22.914  1.00  0.00     0.041 C 
BRANCH   2   4
ATOM      4  O   UNL     1      95.716   7.431  25.005  1.00  0.00    -0.391 OA
ATOM      5  H   UNL     1      95.997   7.013  25.859  1.00  0.00     0.211 HD
ENDBRANCH   2   4
ENDBRANCH   1   2
BRANCH   1   6
ATOM      6  C   UNL     1      97.124   4.596  25.262  1.00  0.00     0.181 C 
BRANCH   6   7
ATOM      7  C   UNL     1      97.027   4.554  26.811  1.00  0.00     0.209 C 
BRANCH   7   8
ATOM      8  C   UNL     1      98.239   3.904  27.433  1.00  0.00     0.258 C 
ATOM      9  O   UNL     1      99.051   3.327  26.729  1.00  0.00    -0.300 OA
ENDBRANCH   7   8
BRANCH   7  10
ATOM     10  O   UNL     1      96.817   5.836  27.351  1.00  0.00    -0.383 OA
ATOM     11  H   UNL     1      96.710   6.472  26.596  1.00  0.00     0.211 HD
ENDBRANCH   7  10
ENDBRANCH   6   7
BRANCH   6  12
ATOM     12  O   UNL     1      98.181   5.430  24.851  1.00  0.00    -0.387 OA
ATOM     13  H   UNL     1      97.794   6.188  24.341  1.00  0.00     0.211 HD
ENDBRANCH   6  12
ENDBRANCH   1   6
BRANCH   1  14
ATOM     14  O   UNL     1      94.707   4.854  25.443  1.00  0.00    -0.388 OA
ATOM     15  H   UNL     1      94.019   5.529  25.208  1.00  0.00     0.211 HD
ENDBRANCH   1  14
TORSDOF 8
ENDMDL
