MODEL 1
REMARK VINA RESULT:    -5.399      0.000      0.000
REMARK INTER + INTRA:          -6.155
REMARK INTER:                  -5.872
REMARK INTRA:                  -0.283
REMARK UNBOUND:                -0.283
REMARK SMILES CC(=O)c1cc(C)ccc1O
REMARK SMILES IDX 7 1 6 2 5 3 4 4 10 5 9 6 8 7 2 8 3 9 1 10 11 11
REMARK H PARENT 11 12
REMARK Flexibility Score: inf
ROOT
ATOM      1  C   UNL     1       1.711   4.423 -17.597  1.00  0.00     0.044 C 
ATOM      2  C   UNL     1       1.310   3.066 -18.094  1.00  0.00    -0.050 A 
ATOM      3  C   UNL     1       0.092   2.892 -18.767  1.00  0.00     0.019 A 
ATOM      4  C   UNL     1      -0.277   1.633 -19.280  1.00  0.00     0.059 A 
ATOM      5  C   UNL     1       0.595   0.534 -19.091  1.00  0.00     0.126 A 
ATOM      6  C   UNL     1       1.824   0.724 -18.449  1.00  0.00     0.047 A 
ATOM      7  C   UNL     1       2.183   1.980 -17.959  1.00  0.00     0.007 A 
ENDROOT
BRANCH   4   8
ATOM      8  C   UNL     1      -1.547   1.507 -20.034  1.00  0.00     0.163 C 
ATOM      9  O   UNL     1      -1.531   1.100 -21.227  1.00  0.00    -0.294 OA
ATOM     10  C   UNL     1      -2.849   1.947 -19.438  1.00  0.00     0.093 C 
ENDBRANCH   4   8
BRANCH   5  11
ATOM     11  O   UNL     1       0.268  -0.761 -19.501  1.00  0.00    -0.507 OA
ATOM     12  H   UNL     1      -0.683  -1.085 -19.609  1.00  0.00     0.293 HD
ENDBRANCH   5  11
TORSDOF 2
ENDMDL
MODEL 2
REMARK VINA RESULT:    -5.002      1.629      3.730
REMARK INTER + INTRA:          -5.724
REMARK INTER:                  -5.444
REMARK INTRA:                  -0.280
REMARK UNBOUND:                -0.283
REMARK SMILES CC(=O)c1cc(C)ccc1O
REMARK SMILES IDX 7 1 6 2 5 3 4 4 10 5 9 6 8 7 2 8 3 9 1 10 11 11
REMARK H PARENT 11 12
REMARK Flexibility Score: inf
ROOT
ATOM      1  C   UNL     1      -2.984   2.018 -19.706  1.00  0.00     0.044 C 
ATOM      2  C   UNL     1      -1.605   1.440 -19.587  1.00  0.00    -0.050 A 
ATOM      3  C   UNL     1      -0.597   2.152 -18.922  1.00  0.00     0.019 A 
ATOM      4  C   UNL     1       0.690   1.602 -18.761  1.00  0.00     0.059 A 
ATOM      5  C   UNL     1       0.960   0.320 -19.298  1.00  0.00     0.126 A 
ATOM      6  C   UNL     1      -0.063  -0.398 -19.929  1.00  0.00     0.047 A 
ATOM      7  C   UNL     1      -1.337   0.153 -20.068  1.00  0.00     0.007 A 
ENDROOT
BRANCH   4   8
ATOM      8  C   UNL     1       1.709   2.365 -18.002  1.00  0.00     0.163 C 
ATOM      9  O   UNL     1       2.672   1.760 -17.459  1.00  0.00    -0.294 OA
ATOM     10  C   UNL     1       1.568   3.841 -17.785  1.00  0.00     0.093 C 
ENDBRANCH   4   8
BRANCH   5  11
ATOM     11  O   UNL     1       2.229  -0.261 -19.249  1.00  0.00    -0.507 OA
ATOM     12  H   UNL     1       2.559  -0.933 -19.928  1.00  0.00     0.293 HD
ENDBRANCH   5  11
TORSDOF 2
ENDMDL
MODEL 3
REMARK VINA RESULT:    -4.958      1.553      1.885
REMARK INTER + INTRA:          -5.676
REMARK INTER:                  -5.365
REMARK INTRA:                  -0.311
REMARK UNBOUND:                -0.283
REMARK SMILES CC(=O)c1cc(C)ccc1O
REMARK SMILES IDX 7 1 6 2 5 3 4 4 10 5 9 6 8 7 2 8 3 9 1 10 11 11
REMARK H PARENT 11 12
REMARK Flexibility Score: inf
ROOT
ATOM      1  C   UNL     1       2.113   4.478 -17.742  1.00  0.00     0.044 C 
ATOM      2  C   UNL     1       1.586   3.194 -18.309  1.00  0.00    -0.050 A 
ATOM      3  C   UNL     1       1.121   3.145 -19.631  1.00  0.00     0.019 A 
ATOM      4  C   UNL     1       0.667   1.935 -20.193  1.00  0.00     0.059 A 
ATOM      5  C   UNL     1       0.671   0.765 -19.395  1.00  0.00     0.126 A 
ATOM      6  C   UNL     1       1.171   0.816 -18.089  1.00  0.00     0.047 A 
ATOM      7  C   UNL     1       1.630   2.018 -17.550  1.00  0.00     0.007 A 
ENDROOT
BRANCH   4   8
ATOM      8  C   UNL     1       0.237   1.917 -21.611  1.00  0.00     0.163 C 
ATOM      9  O   UNL     1      -0.877   1.416 -21.924  1.00  0.00    -0.294 OA
ATOM     10  C   UNL     1       1.144   2.398 -22.702  1.00  0.00     0.093 C 
ENDBRANCH   4   8
BRANCH   5  11
ATOM     11  O   UNL     1       0.166  -0.455 -19.852  1.00  0.00    -0.507 OA
ATOM     12  H   UNL     1      -0.691  -0.537 -20.382  1.00  0.00     0.293 HD
ENDBRANCH   5  11
TORSDOF 2
ENDMDL
MODEL 4
REMARK VINA RESULT:    -4.772      8.061      8.601
REMARK INTER + INTRA:          -5.473
REMARK INTER:                  -5.194
REMARK INTRA:                  -0.279
REMARK UNBOUND:                -0.283
REMARK SMILES CC(=O)c1cc(C)ccc1O
REMARK SMILES IDX 7 1 6 2 5 3 4 4 10 5 9 6 8 7 2 8 3 9 1 10 11 11
REMARK H PARENT 11 12
REMARK Flexibility Score: inf
ROOT
ATOM      1  C   UNL     1       3.006   7.116 -22.670  1.00  0.00     0.044 C 
ATOM      2  C   UNL     1       3.306   6.702 -24.080  1.00  0.00    -0.050 A 
ATOM      3  C   UNL     1       3.066   5.384 -24.494  1.00  0.00     0.019 A 
ATOM      4  C   UNL     1       3.299   4.993 -25.828  1.00  0.00     0.059 A 
ATOM      5  C   UNL     1       3.796   5.949 -26.746  1.00  0.00     0.126 A 
ATOM      6  C   UNL     1       3.998   7.271 -26.332  1.00  0.00     0.047 A 
ATOM      7  C   UNL     1       3.750   7.648 -25.012  1.00  0.00     0.007 A 
ENDROOT
BRANCH   4   8
ATOM      8  C   UNL     1       2.979   3.604 -26.237  1.00  0.00     0.163 C 
ATOM      9  O   UNL     1       3.577   3.084 -27.216  1.00  0.00    -0.294 OA
ATOM     10  C   UNL     1       1.884   2.833 -25.566  1.00  0.00     0.093 C 
ENDBRANCH   4   8
BRANCH   5  11
ATOM     11  O   UNL     1       4.125   5.622 -28.064  1.00  0.00    -0.507 OA
ATOM     12  H   UNL     1       4.815   6.125 -28.605  1.00  0.00     0.293 HD
ENDBRANCH   5  11
TORSDOF 2
ENDMDL
MODEL 5
REMARK VINA RESULT:    -4.650      1.564      2.049
REMARK INTER + INTRA:          -5.340
REMARK INTER:                  -5.035
REMARK INTRA:                  -0.305
REMARK UNBOUND:                -0.283
REMARK SMILES CC(=O)c1cc(C)ccc1O
REMARK SMILES IDX 7 1 6 2 5 3 4 4 10 5 9 6 8 7 2 8 3 9 1 10 11 11
REMARK H PARENT 11 12
REMARK Flexibility Score: inf
ROOT
ATOM      1  C   UNL     1       1.652   1.602 -17.480  1.00  0.00     0.044 C 
ATOM      2  C   UNL     1       0.918   1.089 -18.683  1.00  0.00    -0.050 A 
ATOM      3  C   UNL     1      -0.392   1.514 -18.944  1.00  0.00     0.019 A 
ATOM      4  C   UNL     1      -1.077   1.076 -20.095  1.00  0.00     0.059 A 
ATOM      5  C   UNL     1      -0.428   0.183 -20.982  1.00  0.00     0.126 A 
ATOM      6  C   UNL     1       0.893  -0.207 -20.731  1.00  0.00     0.047 A 
ATOM      7  C   UNL     1       1.564   0.245 -19.595  1.00  0.00     0.007 A 
ENDROOT
BRANCH   4   8
ATOM      8  C   UNL     1      -2.440   1.594 -20.362  1.00  0.00     0.163 C 
ATOM      9  O   UNL     1      -2.782   1.886 -21.539  1.00  0.00    -0.294 OA
ATOM     10  C   UNL     1      -3.396   1.872 -19.242  1.00  0.00     0.093 C 
ENDBRANCH   4   8
BRANCH   5  11
ATOM     11  O   UNL     1      -1.065  -0.356 -22.102  1.00  0.00    -0.507 OA
ATOM     12  H   UNL     1      -1.157  -1.350 -22.263  1.00  0.00     0.293 HD
ENDBRANCH   5  11
TORSDOF 2
ENDMDL
MODEL 6
REMARK VINA RESULT:    -4.603      7.294      7.790
REMARK INTER + INTRA:          -5.290
REMARK INTER:                  -5.005
REMARK INTRA:                  -0.285
REMARK UNBOUND:                -0.283
REMARK SMILES CC(=O)c1cc(C)ccc1O
REMARK SMILES IDX 7 1 6 2 5 3 4 4 10 5 9 6 8 7 2 8 3 9 1 10 11 11
REMARK H PARENT 11 12
REMARK Flexibility Score: inf
ROOT
ATOM      1  C   UNL     1       4.125   8.417 -25.628  1.00  0.00     0.044 C 
ATOM      2  C   UNL     1       3.601   7.170 -24.980  1.00  0.00    -0.050 A 
ATOM      3  C   UNL     1       3.409   6.007 -25.740  1.00  0.00     0.019 A 
ATOM      4  C   UNL     1       2.961   4.816 -25.136  1.00  0.00     0.059 A 
ATOM      5  C   UNL     1       2.689   4.811 -23.746  1.00  0.00     0.126 A 
ATOM      6  C   UNL     1       2.918   5.967 -22.990  1.00  0.00     0.047 A 
ATOM      7  C   UNL     1       3.375   7.136 -23.599  1.00  0.00     0.007 A 
ENDROOT
BRANCH   4   8
ATOM      8  C   UNL     1       2.826   3.595 -25.966  1.00  0.00     0.163 C 
ATOM      9  O   UNL     1       1.985   2.711 -25.652  1.00  0.00    -0.294 OA
ATOM     10  C   UNL     1       3.741   3.342 -27.125  1.00  0.00     0.093 C 
ENDBRANCH   4   8
BRANCH   5  11
ATOM     11  O   UNL     1       2.170   3.694 -23.088  1.00  0.00    -0.507 OA
ATOM     12  H   UNL     1       2.746   2.957 -22.707  1.00  0.00     0.293 HD
ENDBRANCH   5  11
TORSDOF 2
ENDMDL
MODEL 7
REMARK VINA RESULT:    -4.563      2.631      4.152
REMARK INTER + INTRA:          -5.246
REMARK INTER:                  -4.952
REMARK INTRA:                  -0.294
REMARK UNBOUND:                -0.283
REMARK SMILES CC(=O)c1cc(C)ccc1O
REMARK SMILES IDX 7 1 6 2 5 3 4 4 10 5 9 6 8 7 2 8 3 9 1 10 11 11
REMARK H PARENT 11 12
REMARK Flexibility Score: inf
ROOT
ATOM      1  C   UNL     1      -0.696   1.531 -21.338  1.00  0.00     0.044 C 
ATOM      2  C   UNL     1       0.305   1.629 -20.225  1.00  0.00    -0.050 A 
ATOM      3  C   UNL     1       0.903   2.860 -19.919  1.00  0.00     0.019 A 
ATOM      4  C   UNL     1       1.810   2.976 -18.848  1.00  0.00     0.059 A 
ATOM      5  C   UNL     1       2.124   1.824 -18.087  1.00  0.00     0.126 A 
ATOM      6  C   UNL     1       1.495   0.607 -18.377  1.00  0.00     0.047 A 
ATOM      7  C   UNL     1       0.588   0.510 -19.432  1.00  0.00     0.007 A 
ENDROOT
BRANCH   4   8
ATOM      8  C   UNL     1       2.376   4.308 -18.525  1.00  0.00     0.163 C 
ATOM      9  O   UNL     1       2.253   4.778 -17.362  1.00  0.00    -0.294 OA
ATOM     10  C   UNL     1       3.013   5.155 -19.583  1.00  0.00     0.093 C 
ENDBRANCH   4   8
BRANCH   5  11
ATOM     11  O   UNL     1       3.070   1.839 -17.059  1.00  0.00    -0.507 OA
ATOM     12  H   UNL     1       3.184   1.083 -16.399  1.00  0.00     0.293 HD
ENDBRANCH   5  11
TORSDOF 2
ENDMDL
MODEL 8
REMARK VINA RESULT:    -4.558      1.968      3.099
REMARK INTER + INTRA:          -5.241
REMARK INTER:                  -4.929
REMARK INTRA:                  -0.312
REMARK UNBOUND:                -0.283
REMARK SMILES CC(=O)c1cc(C)ccc1O
REMARK SMILES IDX 7 1 6 2 5 3 4 4 10 5 9 6 8 7 2 8 3 9 1 10 11 11
REMARK H PARENT 11 12
REMARK Flexibility Score: inf
ROOT
ATOM      1  C   UNL     1       2.102  -0.924 -19.362  1.00  0.00     0.044 C 
ATOM      2  C   UNL     1       0.957   0.044 -19.383  1.00  0.00    -0.050 A 
ATOM      3  C   UNL     1      -0.211  -0.259 -20.096  1.00  0.00     0.019 A 
ATOM      4  C   UNL     1      -1.312   0.620 -20.087  1.00  0.00     0.059 A 
ATOM      5  C   UNL     1      -1.218   1.829 -19.356  1.00  0.00     0.126 A 
ATOM      6  C   UNL     1      -0.061   2.106 -18.618  1.00  0.00     0.047 A 
ATOM      7  C   UNL     1       1.016   1.220 -18.625  1.00  0.00     0.007 A 
ENDROOT
BRANCH   4   8
ATOM      8  C   UNL     1      -2.548   0.233 -20.809  1.00  0.00     0.163 C 
ATOM      9  O   UNL     1      -3.113   1.059 -21.575  1.00  0.00    -0.294 OA
ATOM     10  C   UNL     1      -3.199  -1.096 -20.573  1.00  0.00     0.093 C 
ENDBRANCH   4   8
BRANCH   5  11
ATOM     11  O   UNL     1      -2.235   2.787 -19.359  1.00  0.00    -0.507 OA
ATOM     12  H   UNL     1      -3.218   2.554 -19.327  1.00  0.00     0.293 HD
ENDBRANCH   5  11
TORSDOF 2
ENDMDL
MODEL 9
REMARK VINA RESULT:    -2.727      7.823      8.475
REMARK INTER + INTRA:          -3.249
REMARK INTER:                  -2.992
REMARK INTRA:                  -0.257
REMARK UNBOUND:                -0.283
REMARK SMILES CC(=O)c1cc(C)ccc1O
REMARK SMILES IDX 7 1 6 2 5 3 4 4 10 5 9 6 8 7 2 8 3 9 1 10 11 11
REMARK H PARENT 11 12
REMARK Flexibility Score: inf
ROOT
ATOM      1  C   UNL     1       4.125   5.622 -28.169  1.00  0.00     0.044 C 
ATOM      2  C   UNL     1       3.784   6.010 -26.761  1.00  0.00    -0.050 A 
ATOM      3  C   UNL     1       3.316   5.044 -25.858  1.00  0.00     0.019 A 
ATOM      4  C   UNL     1       3.036   5.384 -24.519  1.00  0.00     0.059 A 
ATOM      5  C   UNL     1       3.218   6.724 -24.099  1.00  0.00     0.126 A 
ATOM      6  C   UNL     1       3.719   7.672 -24.999  1.00  0.00     0.047 A 
ATOM      7  C   UNL     1       4.006   7.319 -26.317  1.00  0.00     0.007 A 
ENDROOT
BRANCH   4   8
ATOM      8  C   UNL     1       2.597   4.321 -23.584  1.00  0.00     0.163 C 
ATOM      9  O   UNL     1       2.645   4.519 -22.341  1.00  0.00    -0.294 OA
ATOM     10  C   UNL     1       2.185   2.970 -24.085  1.00  0.00     0.093 C 
ENDBRANCH   4   8
BRANCH   5  11
ATOM     11  O   UNL     1       2.890   7.156 -22.812  1.00  0.00    -0.507 OA
ATOM     12  H   UNL     1       2.040   7.658 -22.595  1.00  0.00     0.293 HD
ENDBRANCH   5  11
TORSDOF 2
ENDMDL
