MODEL 1
REMARK VINA RESULT:    -1.875      0.000      0.000
REMARK INTER + INTRA:          -2.288
REMARK INTER:                  -2.258
REMARK INTRA:                  -0.029
REMARK UNBOUND:                -0.029
REMARK SMILES OCC(O)CO
REMARK SMILES IDX 3 1 5 2 6 3 2 5 1 6 4 8
REMARK H PARENT 6 4 1 7 4 9
REMARK Flexibility Score: inf
ROOT
ATOM      1  C   UNL     1       1.779  -0.103  -7.282  1.00  0.00     0.165 C 
ENDROOT
BRANCH   1   2
ATOM      2  C   UNL     1       2.096  -0.016  -8.787  1.00  0.00     0.190 C 
BRANCH   2   3
ATOM      3  O   UNL     1       1.552  -1.102  -9.491  1.00  0.00    -0.394 OA
ATOM      4  H   UNL     1       2.069  -1.189 -10.334  1.00  0.00     0.210 HD
ENDBRANCH   2   3
ENDBRANCH   1   2
BRANCH   1   5
ATOM      5  C   UNL     1       3.033  -0.299  -6.410  1.00  0.00     0.190 C 
BRANCH   5   6
ATOM      6  O   UNL     1       4.201  -0.190  -7.177  1.00  0.00    -0.394 OA
ATOM      7  H   UNL     1       4.552  -1.112  -7.277  1.00  0.00     0.210 HD
ENDBRANCH   5   6
ENDBRANCH   1   5
BRANCH   1   8
ATOM      8  O   UNL     1       1.025   1.004  -6.852  1.00  0.00    -0.388 OA
ATOM      9  H   UNL     1       0.818   0.878  -5.890  1.00  0.00     0.211 HD
ENDBRANCH   1   8
TORSDOF 5
ENDMDL
MODEL 2
REMARK VINA RESULT:    -1.778      6.089      7.441
REMARK INTER + INTRA:          -2.171
REMARK INTER:                  -2.159
REMARK INTRA:                  -0.012
REMARK UNBOUND:                -0.029
REMARK SMILES OCC(O)CO
REMARK SMILES IDX 3 1 5 2 6 3 2 5 1 6 4 8
REMARK H PARENT 6 4 1 7 4 9
REMARK Flexibility Score: inf
ROOT
ATOM      1  C   UNL     1      -1.825  -4.270 -12.099  1.00  0.00     0.165 C 
ENDROOT
BRANCH   1   2
ATOM      2  C   UNL     1      -2.214  -5.522 -11.290  1.00  0.00     0.190 C 
BRANCH   2   3
ATOM      3  O   UNL     1      -1.861  -6.702 -11.963  1.00  0.00    -0.394 OA
ATOM      4  H   UNL     1      -2.630  -7.325 -11.880  1.00  0.00     0.210 HD
ENDBRANCH   2   3
ENDBRANCH   1   2
BRANCH   1   5
ATOM      5  C   UNL     1      -1.068  -3.222 -11.265  1.00  0.00     0.190 C 
BRANCH   5   6
ATOM      6  O   UNL     1      -1.335  -3.377  -9.898  1.00  0.00    -0.394 OA
ATOM      7  H   UNL     1      -0.605  -2.906  -9.420  1.00  0.00     0.210 HD
ENDBRANCH   5   6
ENDBRANCH   1   5
BRANCH   1   8
ATOM      8  O   UNL     1      -1.109  -4.614 -13.261  1.00  0.00    -0.388 OA
ATOM      9  H   UNL     1      -1.753  -4.660 -14.014  1.00  0.00     0.211 HD
ENDBRANCH   1   8
TORSDOF 5
ENDMDL
MODEL 3
REMARK VINA RESULT:    -1.711      1.398      1.545
REMARK INTER + INTRA:          -2.090
REMARK INTER:                  -2.085
REMARK INTRA:                  -0.005
REMARK UNBOUND:                -0.029
REMARK SMILES OCC(O)CO
REMARK SMILES IDX 3 1 5 2 6 3 2 5 1 6 4 8
REMARK H PARENT 6 4 1 7 4 9
REMARK Flexibility Score: inf
ROOT
ATOM      1  C   UNL     1       2.042   0.218  -8.238  1.00  0.00     0.165 C 
ENDROOT
BRANCH   1   2
ATOM      2  C   UNL     1       1.096  -0.681  -9.056  1.00  0.00     0.190 C 
BRANCH   2   3
ATOM      3  O   UNL     1       1.773  -1.316 -10.110  1.00  0.00    -0.394 OA
ATOM      4  H   UNL     1       2.695  -1.501  -9.793  1.00  0.00     0.210 HD
ENDBRANCH   2   3
ENDBRANCH   1   2
BRANCH   1   5
ATOM      5  C   UNL     1       2.243  -0.271  -6.793  1.00  0.00     0.190 C 
BRANCH   5   6
ATOM      6  O   UNL     1       3.605  -0.406  -6.491  1.00  0.00    -0.394 OA
ATOM      7  H   UNL     1       4.013  -0.871  -7.266  1.00  0.00     0.210 HD
ENDBRANCH   5   6
ENDBRANCH   1   5
BRANCH   1   8
ATOM      8  O   UNL     1       3.275   0.397  -8.893  1.00  0.00    -0.388 OA
ATOM      9  H   UNL     1       3.101   0.421  -9.870  1.00  0.00     0.211 HD
ENDBRANCH   1   8
TORSDOF 5
ENDMDL
MODEL 4
REMARK VINA RESULT:    -1.499      6.123      7.558
REMARK INTER + INTRA:          -1.835
REMARK INTER:                  -1.833
REMARK INTRA:                  -0.002
REMARK UNBOUND:                -0.029
REMARK SMILES OCC(O)CO
REMARK SMILES IDX 3 1 5 2 6 3 2 5 1 6 4 8
REMARK H PARENT 6 4 1 7 4 9
REMARK Flexibility Score: inf
ROOT
ATOM      1  C   UNL     1      -2.072  -4.561 -11.467  1.00  0.00     0.165 C 
ENDROOT
BRANCH   1   2
ATOM      2  C   UNL     1      -1.190  -3.313 -11.280  1.00  0.00     0.190 C 
BRANCH   2   3
ATOM      3  O   UNL     1      -1.122  -2.928  -9.931  1.00  0.00    -0.394 OA
ATOM      4  H   UNL     1      -0.187  -3.078  -9.633  1.00  0.00     0.210 HD
ENDBRANCH   2   3
ENDBRANCH   1   2
BRANCH   1   5
ATOM      5  C   UNL     1      -1.540  -5.522 -12.546  1.00  0.00     0.190 C 
BRANCH   5   6
ATOM      6  O   UNL     1      -1.744  -6.858 -12.175  1.00  0.00    -0.394 OA
ATOM      7  H   UNL     1      -1.275  -7.407 -12.856  1.00  0.00     0.210 HD
ENDBRANCH   5   6
ENDBRANCH   1   5
BRANCH   1   8
ATOM      8  O   UNL     1      -2.282  -5.229 -10.246  1.00  0.00    -0.388 OA
ATOM      9  H   UNL     1      -2.992  -4.745  -9.751  1.00  0.00     0.211 HD
ENDBRANCH   1   8
TORSDOF 5
ENDMDL
MODEL 5
REMARK VINA RESULT:    -1.173      0.451      2.674
REMARK INTER + INTRA:          -1.443
REMARK INTER:                  -1.430
REMARK INTRA:                  -0.012
REMARK UNBOUND:                -0.029
REMARK SMILES OCC(O)CO
REMARK SMILES IDX 3 1 5 2 6 3 2 5 1 6 4 8
REMARK H PARENT 6 4 1 7 4 9
REMARK Flexibility Score: inf
ROOT
ATOM      1  C   UNL     1       2.072   0.431  -7.553  1.00  0.00     0.165 C 
ENDROOT
BRANCH   1   2
ATOM      2  C   UNL     1       2.891  -0.443  -6.584  1.00  0.00     0.190 C 
BRANCH   2   3
ATOM      3  O   UNL     1       4.267  -0.355  -6.848  1.00  0.00    -0.394 OA
ATOM      4  H   UNL     1       4.551   0.564  -6.603  1.00  0.00     0.210 HD
ENDBRANCH   2   3
ENDBRANCH   1   2
BRANCH   1   5
ATOM      5  C   UNL     1       2.113  -0.074  -9.006  1.00  0.00     0.190 C 
BRANCH   5   6
ATOM      6  O   UNL     1       1.209  -1.127  -9.198  1.00  0.00    -0.394 OA
ATOM      7  H   UNL     1       0.358  -0.839  -8.778  1.00  0.00     0.210 HD
ENDBRANCH   5   6
ENDBRANCH   1   5
BRANCH   1   8
ATOM      8  O   UNL     1       0.748   0.592  -7.104  1.00  0.00    -0.388 OA
ATOM      9  H   UNL     1       0.693   1.454  -6.618  1.00  0.00     0.211 HD
ENDBRANCH   1   8
TORSDOF 5
ENDMDL
MODEL 6
REMARK VINA RESULT:    -0.875      1.575      3.252
REMARK INTER + INTRA:          -1.083
REMARK INTER:                  -1.080
REMARK INTRA:                  -0.003
REMARK UNBOUND:                -0.029
REMARK SMILES OCC(O)CO
REMARK SMILES IDX 3 1 5 2 6 3 2 5 1 6 4 8
REMARK H PARENT 6 4 1 7 4 9
REMARK Flexibility Score: inf
ROOT
ATOM      1  C   UNL     1       2.686  -0.343  -6.655  1.00  0.00     0.165 C 
ENDROOT
BRANCH   1   2
ATOM      2  C   UNL     1       2.305   0.553  -5.461  1.00  0.00     0.190 C 
BRANCH   2   3
ATOM      3  O   UNL     1       3.440   0.985  -4.757  1.00  0.00    -0.394 OA
ATOM      4  H   UNL     1       4.004   1.491  -5.397  1.00  0.00     0.210 HD
ENDBRANCH   2   3
ENDBRANCH   1   2
BRANCH   1   5
ATOM      5  C   UNL     1       1.891  -0.020  -7.932  1.00  0.00     0.190 C 
BRANCH   5   6
ATOM      6  O   UNL     1       2.732   0.474  -8.938  1.00  0.00    -0.394 OA
ATOM      7  H   UNL     1       2.197   0.465  -9.773  1.00  0.00     0.210 HD
ENDBRANCH   5   6
ENDBRANCH   1   5
BRANCH   1   8
ATOM      8  O   UNL     1       4.073  -0.314  -6.895  1.00  0.00    -0.388 OA
ATOM      9  H   UNL     1       4.506  -0.941  -6.260  1.00  0.00     0.211 HD
ENDBRANCH   1   8
TORSDOF 5
ENDMDL
MODEL 7
REMARK VINA RESULT:    -0.723      6.720      7.641
REMARK INTER + INTRA:          -0.901
REMARK INTER:                  -0.720
REMARK INTRA:                  -0.181
REMARK UNBOUND:                -0.029
REMARK SMILES OCC(O)CO
REMARK SMILES IDX 3 1 5 2 6 3 2 5 1 6 4 8
REMARK H PARENT 6 4 1 7 4 9
REMARK Flexibility Score: inf
ROOT
ATOM      1  C   UNL     1      -2.131  -4.591 -11.108  1.00  0.00     0.165 C 
ENDROOT
BRANCH   1   2
ATOM      2  C   UNL     1      -1.996  -4.170 -12.583  1.00  0.00     0.190 C 
BRANCH   2   3
ATOM      3  O   UNL     1      -0.753  -4.549 -13.115  1.00  0.00    -0.394 OA
ATOM      4  H   UNL     1      -0.499  -5.404 -12.679  1.00  0.00     0.210 HD
ENDBRANCH   2   3
ENDBRANCH   1   2
BRANCH   1   5
ATOM      5  C   UNL     1      -1.839  -6.084 -10.875  1.00  0.00     0.190 C 
BRANCH   5   6
ATOM      6  O   UNL     1      -1.843  -6.792 -12.084  1.00  0.00    -0.394 OA
ATOM      7  H   UNL     1      -1.096  -6.424 -12.622  1.00  0.00     0.210 HD
ENDBRANCH   5   6
ENDBRANCH   1   5
BRANCH   1   8
ATOM      8  O   UNL     1      -1.346  -3.779 -10.269  1.00  0.00    -0.388 OA
ATOM      9  H   UNL     1      -1.480  -4.084  -9.334  1.00  0.00     0.211 HD
ENDBRANCH   1   8
TORSDOF 5
ENDMDL
MODEL 8
REMARK VINA RESULT:    -0.588      1.321      2.407
REMARK INTER + INTRA:          -0.738
REMARK INTER:                  -1.010
REMARK INTRA:                   0.272
REMARK UNBOUND:                -0.029
REMARK SMILES OCC(O)CO
REMARK SMILES IDX 3 1 5 2 6 3 2 5 1 6 4 8
REMARK H PARENT 6 4 1 7 4 9
REMARK Flexibility Score: inf
ROOT
ATOM      1  C   UNL     1       1.514   0.066  -8.587  1.00  0.00     0.165 C 
ENDROOT
BRANCH   1   2
ATOM      2  C   UNL     1       1.461   0.047  -7.047  1.00  0.00     0.190 C 
BRANCH   2   3
ATOM      3  O   UNL     1       2.535  -0.675  -6.503  1.00  0.00    -0.394 OA
ATOM      4  H   UNL     1       3.362  -0.328  -6.927  1.00  0.00     0.210 HD
ENDBRANCH   2   3
ENDBRANCH   1   2
BRANCH   1   5
ATOM      5  C   UNL     1       2.879   0.516  -9.139  1.00  0.00     0.190 C 
BRANCH   5   6
ATOM      6  O   UNL     1       3.899   0.290  -8.205  1.00  0.00    -0.394 OA
ATOM      7  H   UNL     1       4.691   0.001  -8.727  1.00  0.00     0.210 HD
ENDBRANCH   5   6
ENDBRANCH   1   5
BRANCH   1   8
ATOM      8  O   UNL     1       1.127  -1.174  -9.128  1.00  0.00    -0.388 OA
ATOM      9  H   UNL     1       1.566  -1.890  -8.600  1.00  0.00     0.211 HD
ENDBRANCH   1   8
TORSDOF 5
ENDMDL
MODEL 9
REMARK VINA RESULT:    -0.407      6.496      7.658
REMARK INTER + INTRA:          -0.520
REMARK INTER:                  -0.298
REMARK INTRA:                  -0.222
REMARK UNBOUND:                -0.029
REMARK SMILES OCC(O)CO
REMARK SMILES IDX 3 1 5 2 6 3 2 5 1 6 4 8
REMARK H PARENT 6 4 1 7 4 9
REMARK Flexibility Score: inf
ROOT
ATOM      1  C   UNL     1      -1.449  -4.500 -11.183  1.00  0.00     0.165 C 
ENDROOT
BRANCH   1   2
ATOM      2  C   UNL     1      -2.244  -5.790 -10.902  1.00  0.00     0.190 C 
BRANCH   2   3
ATOM      3  O   UNL     1      -1.926  -6.802 -11.821  1.00  0.00    -0.394 OA
ATOM      4  H   UNL     1      -1.754  -7.627 -11.297  1.00  0.00     0.210 HD
ENDBRANCH   2   3
ENDBRANCH   1   2
BRANCH   1   5
ATOM      5  C   UNL     1      -1.762  -3.884 -12.559  1.00  0.00     0.190 C 
BRANCH   5   6
ATOM      6  O   UNL     1      -1.074  -4.554 -13.579  1.00  0.00    -0.394 OA
ATOM      7  H   UNL     1      -0.613  -5.318 -13.145  1.00  0.00     0.210 HD
ENDBRANCH   5   6
ENDBRANCH   1   5
BRANCH   1   8
ATOM      8  O   UNL     1      -1.618  -3.559 -10.151  1.00  0.00    -0.388 OA
ATOM      9  H   UNL     1      -1.484  -2.655 -10.537  1.00  0.00     0.211 HD
ENDBRANCH   1   8
TORSDOF 5
ENDMDL
