MODEL 1
REMARK VINA RESULT:    -1.680      0.000      0.000
REMARK INTER + INTRA:          -2.646
REMARK INTER:                  -2.269
REMARK INTRA:                  -0.377
REMARK UNBOUND:                -0.377
REMARK SMILES CCCCCCCC(=O)[O-]
REMARK SMILES IDX 5 1 6 2 7 3 8 4 9 5 10 6 4 7 3 8 2 9 1 10
REMARK H PARENT
REMARK Flexibility Score: inf
ROOT
ATOM      1  C   UNL     1     139.473  55.664 -11.040  1.00  0.00     0.000 C 
ENDROOT
BRANCH   1   2
ATOM      2  C   UNL     1     139.091  57.070 -10.541  1.00  0.00     0.006 C 
BRANCH   2   3
ATOM      3  C   UNL     1     137.994  57.081  -9.464  1.00  0.00     0.053 C 
BRANCH   3   4
ATOM      4  C   UNL     1     138.460  56.459  -8.184  1.00  0.00     0.041 C 
ATOM      5  O   UNL     1     139.328  57.035  -7.477  1.00  0.00    -0.550 OA
ATOM      6  O   UNL     1     137.909  55.258  -7.753  1.00  0.00    -0.550 OA
ENDBRANCH   3   4
ENDBRANCH   2   3
ENDBRANCH   1   2
BRANCH   1   7
ATOM      7  C   UNL     1     139.829  55.642 -12.536  1.00  0.00     0.000 C 
BRANCH   7   8
ATOM      8  C   UNL     1     140.179  57.036 -13.080  1.00  0.00    -0.000 C 
BRANCH   8   9
ATOM      9  C   UNL     1     141.615  57.113 -13.622  1.00  0.00    -0.003 C 
ATOM     10  C   UNL     1     142.632  57.117 -12.484  1.00  0.00     0.004 C 
ENDBRANCH   8   9
ENDBRANCH   7   8
ENDBRANCH   1   7
TORSDOF 6
ENDMDL
MODEL 2
REMARK VINA RESULT:    -1.630      3.395      4.384
REMARK INTER + INTRA:          -2.579
REMARK INTER:                  -1.908
REMARK INTRA:                  -0.672
REMARK UNBOUND:                -0.377
REMARK SMILES CCCCCCCC(=O)[O-]
REMARK SMILES IDX 5 1 6 2 7 3 8 4 9 5 10 6 4 7 3 8 2 9 1 10
REMARK H PARENT
REMARK Flexibility Score: inf
ROOT
ATOM      1  C   UNL     1     141.160  55.140 -10.122  1.00  0.00     0.000 C 
ENDROOT
BRANCH   1   2
ATOM      2  C   UNL     1     141.720  54.120 -11.129  1.00  0.00     0.006 C 
BRANCH   2   3
ATOM      3  C   UNL     1     140.682  53.113 -11.650  1.00  0.00     0.053 C 
BRANCH   3   4
ATOM      4  C   UNL     1     140.223  53.447 -13.035  1.00  0.00     0.041 C 
ATOM      5  O   UNL     1     141.050  53.500 -13.983  1.00  0.00    -0.550 OA
ATOM      6  O   UNL     1     138.874  53.667 -13.287  1.00  0.00    -0.550 OA
ENDBRANCH   3   4
ENDBRANCH   2   3
ENDBRANCH   1   2
BRANCH   1   7
ATOM      7  C   UNL     1     140.946  56.532 -10.743  1.00  0.00     0.000 C 
BRANCH   7   8
ATOM      8  C   UNL     1     139.543  56.699 -11.347  1.00  0.00    -0.000 C 
BRANCH   8   9
ATOM      9  C   UNL     1     139.584  57.125 -12.822  1.00  0.00    -0.003 C 
ATOM     10  C   UNL     1     141.012  57.104 -13.361  1.00  0.00     0.004 C 
ENDBRANCH   8   9
ENDBRANCH   7   8
ENDBRANCH   1   7
TORSDOF 6
ENDMDL
MODEL 3
REMARK VINA RESULT:    -1.610      2.573      4.469
REMARK INTER + INTRA:          -2.552
REMARK INTER:                  -2.033
REMARK INTRA:                  -0.518
REMARK UNBOUND:                -0.377
REMARK SMILES CCCCCCCC(=O)[O-]
REMARK SMILES IDX 5 1 6 2 7 3 8 4 9 5 10 6 4 7 3 8 2 9 1 10
REMARK H PARENT
REMARK Flexibility Score: inf
ROOT
ATOM      1  C   UNL     1     139.901  56.840 -12.722  1.00  0.00     0.000 C 
ENDROOT
BRANCH   1   2
ATOM      2  C   UNL     1     140.416  55.406 -12.940  1.00  0.00     0.006 C 
BRANCH   2   3
ATOM      3  C   UNL     1     139.313  54.336 -12.961  1.00  0.00     0.053 C 
BRANCH   3   4
ATOM      4  C   UNL     1     139.600  53.216 -12.009  1.00  0.00     0.041 C 
ATOM      5  O   UNL     1     139.292  53.322 -10.792  1.00  0.00    -0.550 OA
ATOM      6  O   UNL     1     140.177  52.040 -12.472  1.00  0.00    -0.550 OA
ENDBRANCH   3   4
ENDBRANCH   2   3
ENDBRANCH   1   2
BRANCH   1   7
ATOM      7  C   UNL     1     139.197  57.018 -11.365  1.00  0.00     0.000 C 
BRANCH   7   8
ATOM      8  C   UNL     1     140.134  56.754 -10.176  1.00  0.00    -0.000 C 
BRANCH   8   9
ATOM      9  C   UNL     1     139.368  56.486  -8.871  1.00  0.00    -0.003 C 
ATOM     10  C   UNL     1     137.914  56.118  -9.154  1.00  0.00     0.004 C 
ENDBRANCH   8   9
ENDBRANCH   7   8
ENDBRANCH   1   7
TORSDOF 6
ENDMDL
MODEL 4
REMARK VINA RESULT:    -1.606      2.927      4.930
REMARK INTER + INTRA:          -2.547
REMARK INTER:                  -2.046
REMARK INTRA:                  -0.501
REMARK UNBOUND:                -0.377
REMARK SMILES CCCCCCCC(=O)[O-]
REMARK SMILES IDX 5 1 6 2 7 3 8 4 9 5 10 6 4 7 3 8 2 9 1 10
REMARK H PARENT
REMARK Flexibility Score: inf
ROOT
ATOM      1  C   UNL     1     140.207  57.016 -10.094  1.00  0.00     0.000 C 
ENDROOT
BRANCH   1   2
ATOM      2  C   UNL     1     139.209  56.990 -11.267  1.00  0.00     0.006 C 
BRANCH   2   3
ATOM      3  C   UNL     1     139.866  56.866 -12.651  1.00  0.00     0.053 C 
BRANCH   3   4
ATOM      4  C   UNL     1     140.281  55.458 -12.950  1.00  0.00     0.041 C 
ATOM      5  O   UNL     1     141.484  55.192 -13.208  1.00  0.00    -0.550 OA
ATOM      6  O   UNL     1     139.343  54.433 -12.910  1.00  0.00    -0.550 OA
ENDBRANCH   3   4
ENDBRANCH   2   3
ENDBRANCH   1   2
BRANCH   1   7
ATOM      7  C   UNL     1     140.084  55.782  -9.183  1.00  0.00     0.000 C 
BRANCH   7   8
ATOM      8  C   UNL     1     138.783  55.000  -9.422  1.00  0.00    -0.000 C 
BRANCH   8   9
ATOM      9  C   UNL     1     137.778  55.165  -8.272  1.00  0.00    -0.003 C 
ATOM     10  C   UNL     1     136.770  56.270  -8.578  1.00  0.00     0.004 C 
ENDBRANCH   8   9
ENDBRANCH   7   8
ENDBRANCH   1   7
TORSDOF 6
ENDMDL
MODEL 5
REMARK VINA RESULT:    -1.571      2.350      3.009
REMARK INTER + INTRA:          -2.500
REMARK INTER:                  -1.879
REMARK INTRA:                  -0.620
REMARK UNBOUND:                -0.377
REMARK SMILES CCCCCCCC(=O)[O-]
REMARK SMILES IDX 5 1 6 2 7 3 8 4 9 5 10 6 4 7 3 8 2 9 1 10
REMARK H PARENT
REMARK Flexibility Score: inf
ROOT
ATOM      1  C   UNL     1     140.367  56.836 -10.201  1.00  0.00     0.000 C 
ENDROOT
BRANCH   1   2
ATOM      2  C   UNL     1     139.982  55.912  -9.031  1.00  0.00     0.006 C 
BRANCH   2   3
ATOM      3  C   UNL     1     138.847  54.927  -9.354  1.00  0.00     0.053 C 
BRANCH   3   4
ATOM      4  C   UNL     1     139.336  53.513  -9.427  1.00  0.00     0.041 C 
ATOM      5  O   UNL     1     138.580  52.562  -9.099  1.00  0.00    -0.550 OA
ATOM      6  O   UNL     1     140.617  53.243  -9.893  1.00  0.00    -0.550 OA
ENDBRANCH   3   4
ENDBRANCH   2   3
ENDBRANCH   1   2
BRANCH   1   7
ATOM      7  C   UNL     1     139.227  57.009 -11.220  1.00  0.00     0.000 C 
BRANCH   7   8
ATOM      8  C   UNL     1     139.696  56.809 -12.670  1.00  0.00    -0.000 C 
BRANCH   8   9
ATOM      9  C   UNL     1     140.404  55.462 -12.879  1.00  0.00    -0.003 C 
ATOM     10  C   UNL     1     139.394  54.334 -13.067  1.00  0.00     0.004 C 
ENDBRANCH   8   9
ENDBRANCH   7   8
ENDBRANCH   1   7
TORSDOF 6
ENDMDL
MODEL 6
REMARK VINA RESULT:    -1.562      3.414      5.781
REMARK INTER + INTRA:          -2.487
REMARK INTER:                  -2.362
REMARK INTRA:                  -0.125
REMARK UNBOUND:                -0.377
REMARK SMILES CCCCCCCC(=O)[O-]
REMARK SMILES IDX 5 1 6 2 7 3 8 4 9 5 10 6 4 7 3 8 2 9 1 10
REMARK H PARENT
REMARK Flexibility Score: inf
ROOT
ATOM      1  C   UNL     1     138.522  56.052  -9.641  1.00  0.00     0.000 C 
ENDROOT
BRANCH   1   2
ATOM      2  C   UNL     1     139.288  56.540 -10.885  1.00  0.00     0.006 C 
BRANCH   2   3
ATOM      3  C   UNL     1     140.410  55.596 -11.344  1.00  0.00     0.053 C 
BRANCH   3   4
ATOM      4  C   UNL     1     140.839  55.878 -12.751  1.00  0.00     0.041 C 
ATOM      5  O   UNL     1     141.390  54.979 -13.439  1.00  0.00    -0.550 OA
ATOM      6  O   UNL     1     140.597  57.125 -13.315  1.00  0.00    -0.550 OA
ENDBRANCH   3   4
ENDBRANCH   2   3
ENDBRANCH   1   2
BRANCH   1   7
ATOM      7  C   UNL     1     137.490  57.078  -9.139  1.00  0.00     0.000 C 
BRANCH   7   8
ATOM      8  C   UNL     1     136.160  56.425  -8.730  1.00  0.00    -0.000 C 
BRANCH   8   9
ATOM      9  C   UNL     1     134.945  57.123  -9.359  1.00  0.00    -0.003 C 
ATOM     10  C   UNL     1     133.737  56.192  -9.400  1.00  0.00     0.004 C 
ENDBRANCH   8   9
ENDBRANCH   7   8
ENDBRANCH   1   7
TORSDOF 6
ENDMDL
MODEL 7
REMARK VINA RESULT:    -1.509      2.985      4.933
REMARK INTER + INTRA:          -2.416
REMARK INTER:                  -1.916
REMARK INTRA:                  -0.501
REMARK UNBOUND:                -0.377
REMARK SMILES CCCCCCCC(=O)[O-]
REMARK SMILES IDX 5 1 6 2 7 3 8 4 9 5 10 6 4 7 3 8 2 9 1 10
REMARK H PARENT
REMARK Flexibility Score: inf
ROOT
ATOM      1  C   UNL     1     140.042  55.271 -12.840  1.00  0.00     0.000 C 
ENDROOT
BRANCH   1   2
ATOM      2  C   UNL     1     141.477  55.154 -13.386  1.00  0.00     0.006 C 
BRANCH   2   3
ATOM      3  C   UNL     1     142.255  56.479 -13.404  1.00  0.00     0.053 C 
BRANCH   3   4
ATOM      4  C   UNL     1     143.253  56.558 -12.290  1.00  0.00     0.041 C 
ATOM      5  O   UNL     1     142.872  56.778 -11.111  1.00  0.00    -0.550 OA
ATOM      6  O   UNL     1     144.603  56.355 -12.551  1.00  0.00    -0.550 OA
ENDBRANCH   3   4
ENDBRANCH   2   3
ENDBRANCH   1   2
BRANCH   1   7
ATOM      7  C   UNL     1     139.587  56.731 -12.676  1.00  0.00     0.000 C 
BRANCH   7   8
ATOM      8  C   UNL     1     139.266  57.089 -11.216  1.00  0.00    -0.000 C 
BRANCH   8   9
ATOM      9  C   UNL     1     139.506  55.914 -10.256  1.00  0.00    -0.003 C 
ATOM     10  C   UNL     1     138.308  55.704  -9.334  1.00  0.00     0.004 C 
ENDBRANCH   8   9
ENDBRANCH   7   8
ENDBRANCH   1   7
TORSDOF 6
ENDMDL
MODEL 8
REMARK VINA RESULT:    -1.457      3.241      4.973
REMARK INTER + INTRA:          -2.346
REMARK INTER:                  -1.918
REMARK INTRA:                  -0.428
REMARK UNBOUND:                -0.377
REMARK SMILES CCCCCCCC(=O)[O-]
REMARK SMILES IDX 5 1 6 2 7 3 8 4 9 5 10 6 4 7 3 8 2 9 1 10
REMARK H PARENT
REMARK Flexibility Score: inf
ROOT
ATOM      1  C   UNL     1     138.929  57.125 -10.325  1.00  0.00     0.000 C 
ENDROOT
BRANCH   1   2
ATOM      2  C   UNL     1     140.165  56.738 -11.158  1.00  0.00     0.006 C 
BRANCH   2   3
ATOM      3  C   UNL     1     139.858  56.422 -12.631  1.00  0.00     0.053 C 
BRANCH   3   4
ATOM      4  C   UNL     1     140.101  54.980 -12.957  1.00  0.00     0.041 C 
ATOM      5  O   UNL     1     139.180  54.134 -12.815  1.00  0.00    -0.550 OA
ATOM      6  O   UNL     1     141.335  54.577 -13.451  1.00  0.00    -0.550 OA
ENDBRANCH   3   4
ENDBRANCH   2   3
ENDBRANCH   1   2
BRANCH   1   7
ATOM      7  C   UNL     1     138.399  55.958  -9.473  1.00  0.00     0.000 C 
BRANCH   7   8
ATOM      8  C   UNL     1     139.509  54.981  -9.056  1.00  0.00    -0.000 C 
BRANCH   8   9
ATOM      9  C   UNL     1     139.122  53.514  -9.297  1.00  0.00    -0.003 C 
ATOM     10  C   UNL     1     139.469  52.648  -8.089  1.00  0.00     0.004 C 
ENDBRANCH   8   9
ENDBRANCH   7   8
ENDBRANCH   1   7
TORSDOF 6
ENDMDL
