MODEL 1
REMARK VINA RESULT:    -3.725      0.000      0.000
REMARK INTER + INTRA:          -5.479
REMARK INTER:                  -5.032
REMARK INTRA:                  -0.447
REMARK UNBOUND:                -0.447
REMARK SMILES CCCCCCCC(=O)[O-]
REMARK SMILES IDX 5 1 6 2 7 3 8 4 9 5 10 6 4 7 3 8 2 9 1 10
REMARK H PARENT
REMARK Flexibility Score: inf
ROOT
ATOM      1  C   UNL     1      14.127  -5.625 -23.585  1.00  0.00     0.000 C 
ENDROOT
BRANCH   1   2
ATOM      2  C   UNL     1      15.568  -6.039 -23.907  1.00  0.00     0.006 C 
BRANCH   2   3
ATOM      3  C   UNL     1      16.358  -6.318 -22.626  1.00  0.00     0.053 C 
BRANCH   3   4
ATOM      4  C   UNL     1      16.663  -7.778 -22.506  1.00  0.00     0.041 C 
ATOM      5  O   UNL     1      17.154  -8.237 -21.441  1.00  0.00    -0.550 OA
ATOM      6  O   UNL     1      16.359  -8.640 -23.552  1.00  0.00    -0.550 OA
ENDBRANCH   3   4
ENDBRANCH   2   3
ENDBRANCH   1   2
BRANCH   1   7
ATOM      7  C   UNL     1      14.053  -4.884 -22.244  1.00  0.00     0.000 C 
BRANCH   7   8
ATOM      8  C   UNL     1      13.943  -3.368 -22.459  1.00  0.00    -0.000 C 
BRANCH   8   9
ATOM      9  C   UNL     1      14.719  -2.565 -21.404  1.00  0.00    -0.003 C 
ATOM     10  C   UNL     1      15.321  -3.449 -20.311  1.00  0.00     0.004 C 
ENDBRANCH   8   9
ENDBRANCH   7   8
ENDBRANCH   1   7
TORSDOF 6
ENDMDL
MODEL 2
REMARK VINA RESULT:    -3.725      4.138      5.711
REMARK INTER + INTRA:          -5.479
REMARK INTER:                  -5.073
REMARK INTRA:                  -0.406
REMARK UNBOUND:                -0.447
REMARK SMILES CCCCCCCC(=O)[O-]
REMARK SMILES IDX 5 1 6 2 7 3 8 4 9 5 10 6 4 7 3 8 2 9 1 10
REMARK H PARENT
REMARK Flexibility Score: inf
ROOT
ATOM      1  C   UNL     1      15.222  -3.513 -20.849  1.00  0.00     0.000 C 
ENDROOT
BRANCH   1   2
ATOM      2  C   UNL     1      14.277  -2.400 -21.317  1.00  0.00     0.006 C 
BRANCH   2   3
ATOM      3  C   UNL     1      12.827  -2.890 -21.354  1.00  0.00     0.053 C 
BRANCH   3   4
ATOM      4  C   UNL     1      11.962  -2.032 -20.486  1.00  0.00     0.041 C 
ATOM      5  O   UNL     1      12.146  -2.002 -19.240  1.00  0.00    -0.550 OA
ATOM      6  O   UNL     1      10.983  -1.229 -21.057  1.00  0.00    -0.550 OA
ENDBRANCH   3   4
ENDBRANCH   2   3
ENDBRANCH   1   2
BRANCH   1   7
ATOM      7  C   UNL     1      14.731  -4.887 -21.323  1.00  0.00     0.000 C 
BRANCH   7   8
ATOM      8  C   UNL     1      15.903  -5.749 -21.815  1.00  0.00    -0.000 C 
BRANCH   8   9
ATOM      9  C   UNL     1      15.762  -6.147 -23.292  1.00  0.00    -0.003 C 
ATOM     10  C   UNL     1      14.438  -5.690 -23.905  1.00  0.00     0.004 C 
ENDBRANCH   8   9
ENDBRANCH   7   8
ENDBRANCH   1   7
TORSDOF 6
ENDMDL
MODEL 3
REMARK VINA RESULT:    -3.704     13.588     15.009
REMARK INTER + INTRA:          -5.450
REMARK INTER:                  -4.912
REMARK INTRA:                  -0.538
REMARK UNBOUND:                -0.447
REMARK SMILES CCCCCCCC(=O)[O-]
REMARK SMILES IDX 5 1 6 2 7 3 8 4 9 5 10 6 4 7 3 8 2 9 1 10
REMARK H PARENT
REMARK Flexibility Score: inf
ROOT
ATOM      1  C   UNL     1       8.268  -4.446 -33.686  1.00  0.00     0.000 C 
ENDROOT
BRANCH   1   2
ATOM      2  C   UNL     1       7.136  -3.446 -33.420  1.00  0.00     0.006 C 
BRANCH   2   3
ATOM      3  C   UNL     1       6.003  -3.617 -34.436  1.00  0.00     0.053 C 
BRANCH   3   4
ATOM      4  C   UNL     1       6.521  -3.453 -35.830  1.00  0.00     0.041 C 
ATOM      5  O   UNL     1       6.350  -4.366 -36.681  1.00  0.00    -0.550 OA
ATOM      6  O   UNL     1       7.150  -2.273 -36.205  1.00  0.00    -0.550 OA
ENDBRANCH   3   4
ENDBRANCH   2   3
ENDBRANCH   1   2
BRANCH   1   7
ATOM      7  C   UNL     1       7.908  -5.840 -33.156  1.00  0.00     0.000 C 
BRANCH   7   8
ATOM      8  C   UNL     1       7.435  -5.768 -31.697  1.00  0.00    -0.000 C 
BRANCH   8   9
ATOM      9  C   UNL     1       6.234  -6.686 -31.420  1.00  0.00    -0.003 C 
ATOM     10  C   UNL     1       5.433  -7.009 -32.682  1.00  0.00     0.004 C 
ENDBRANCH   8   9
ENDBRANCH   7   8
ENDBRANCH   1   7
TORSDOF 6
ENDMDL
MODEL 4
REMARK VINA RESULT:    -3.677     13.011     14.166
REMARK INTER + INTRA:          -5.414
REMARK INTER:                  -5.230
REMARK INTRA:                  -0.184
REMARK UNBOUND:                -0.447
REMARK SMILES CCCCCCCC(=O)[O-]
REMARK SMILES IDX 5 1 6 2 7 3 8 4 9 5 10 6 4 7 3 8 2 9 1 10
REMARK H PARENT
REMARK Flexibility Score: inf
ROOT
ATOM      1  C   UNL     1       7.987  -2.508 -35.161  1.00  0.00     0.000 C 
ENDROOT
BRANCH   1   2
ATOM      2  C   UNL     1       9.380  -2.221 -34.590  1.00  0.00     0.006 C 
BRANCH   2   3
ATOM      3  C   UNL     1      10.323  -1.701 -35.678  1.00  0.00     0.053 C 
BRANCH   3   4
ATOM      4  C   UNL     1      11.749  -1.950 -35.299  1.00  0.00     0.041 C 
ATOM      5  O   UNL     1      12.556  -2.423 -36.142  1.00  0.00    -0.550 OA
ATOM      6  O   UNL     1      12.199  -1.615 -34.028  1.00  0.00    -0.550 OA
ENDBRANCH   3   4
ENDBRANCH   2   3
ENDBRANCH   1   2
BRANCH   1   7
ATOM      7  C   UNL     1       6.960  -2.706 -34.039  1.00  0.00     0.000 C 
BRANCH   7   8
ATOM      8  C   UNL     1       6.778  -4.196 -33.716  1.00  0.00    -0.000 C 
BRANCH   8   9
ATOM      9  C   UNL     1       7.419  -4.593 -32.378  1.00  0.00    -0.003 C 
ATOM     10  C   UNL     1       7.039  -6.006 -31.935  1.00  0.00     0.004 C 
ENDBRANCH   8   9
ENDBRANCH   7   8
ENDBRANCH   1   7
TORSDOF 6
ENDMDL
MODEL 5
REMARK VINA RESULT:    -3.673     11.741     12.732
REMARK INTER + INTRA:          -5.408
REMARK INTER:                  -4.914
REMARK INTRA:                  -0.494
REMARK UNBOUND:                -0.447
REMARK SMILES CCCCCCCC(=O)[O-]
REMARK SMILES IDX 5 1 6 2 7 3 8 4 9 5 10 6 4 7 3 8 2 9 1 10
REMARK H PARENT
REMARK Flexibility Score: inf
ROOT
ATOM      1  C   UNL     1       5.293 -13.141 -20.261  1.00  0.00     0.000 C 
ENDROOT
BRANCH   1   2
ATOM      2  C   UNL     1       5.659 -13.953 -21.508  1.00  0.00     0.006 C 
BRANCH   2   3
ATOM      3  C   UNL     1       6.145 -13.039 -22.636  1.00  0.00     0.053 C 
BRANCH   3   4
ATOM      4  C   UNL     1       7.569 -13.342 -22.981  1.00  0.00     0.041 C 
ATOM      5  O   UNL     1       8.310 -12.444 -23.459  1.00  0.00    -0.550 OA
ATOM      6  O   UNL     1       8.091 -14.604 -22.728  1.00  0.00    -0.550 OA
ENDBRANCH   3   4
ENDBRANCH   2   3
ENDBRANCH   1   2
BRANCH   1   7
ATOM      7  C   UNL     1       4.531 -11.865 -20.638  1.00  0.00     0.000 C 
BRANCH   7   8
ATOM      8  C   UNL     1       3.023 -12.137 -20.746  1.00  0.00    -0.000 C 
BRANCH   8   9
ATOM      9  C   UNL     1       2.438 -11.688 -22.094  1.00  0.00    -0.003 C 
ATOM     10  C   UNL     1       2.307 -12.837 -23.095  1.00  0.00     0.004 C 
ENDBRANCH   8   9
ENDBRANCH   7   8
ENDBRANCH   1   7
TORSDOF 6
ENDMDL
MODEL 6
REMARK VINA RESULT:    -3.671      3.489      5.073
REMARK INTER + INTRA:          -5.406
REMARK INTER:                  -5.058
REMARK INTRA:                  -0.348
REMARK UNBOUND:                -0.447
REMARK SMILES CCCCCCCC(=O)[O-]
REMARK SMILES IDX 5 1 6 2 7 3 8 4 9 5 10 6 4 7 3 8 2 9 1 10
REMARK H PARENT
REMARK Flexibility Score: inf
ROOT
ATOM      1  C   UNL     1      13.928  -5.004 -22.392  1.00  0.00     0.000 C 
ENDROOT
BRANCH   1   2
ATOM      2  C   UNL     1      13.801  -3.481 -22.272  1.00  0.00     0.006 C 
BRANCH   2   3
ATOM      3  C   UNL     1      14.726  -2.938 -21.180  1.00  0.00     0.053 C 
BRANCH   3   4
ATOM      4  C   UNL     1      13.927  -2.326 -20.073  1.00  0.00     0.041 C 
ATOM      5  O   UNL     1      12.678  -2.212 -20.181  1.00  0.00    -0.550 OA
ATOM      6  O   UNL     1      14.556  -1.924 -18.901  1.00  0.00    -0.550 OA
ENDBRANCH   3   4
ENDBRANCH   2   3
ENDBRANCH   1   2
BRANCH   1   7
ATOM      7  C   UNL     1      14.360  -5.411 -23.807  1.00  0.00     0.000 C 
BRANCH   7   8
ATOM      8  C   UNL     1      15.544  -6.389 -23.760  1.00  0.00    -0.000 C 
BRANCH   8   9
ATOM      9  C   UNL     1      16.398  -6.220 -22.494  1.00  0.00    -0.003 C 
ATOM     10  C   UNL     1      16.997  -7.539 -22.004  1.00  0.00     0.004 C 
ENDBRANCH   8   9
ENDBRANCH   7   8
ENDBRANCH   1   7
TORSDOF 6
ENDMDL
MODEL 7
REMARK VINA RESULT:    -3.631     13.440     14.961
REMARK INTER + INTRA:          -5.352
REMARK INTER:                  -4.919
REMARK INTRA:                  -0.433
REMARK UNBOUND:                -0.447
REMARK SMILES CCCCCCCC(=O)[O-]
REMARK SMILES IDX 5 1 6 2 7 3 8 4 9 5 10 6 4 7 3 8 2 9 1 10
REMARK H PARENT
REMARK Flexibility Score: inf
ROOT
ATOM      1  C   UNL     1       5.745  -4.759 -35.121  1.00  0.00     0.000 C 
ENDROOT
BRANCH   1   2
ATOM      2  C   UNL     1       5.820  -3.275 -34.742  1.00  0.00     0.006 C 
BRANCH   2   3
ATOM      3  C   UNL     1       7.092  -2.976 -33.943  1.00  0.00     0.053 C 
BRANCH   3   4
ATOM      4  C   UNL     1       8.124  -2.340 -34.820  1.00  0.00     0.041 C 
ATOM      5  O   UNL     1       9.219  -1.955 -34.332  1.00  0.00    -0.550 OA
ATOM      6  O   UNL     1       7.896  -2.216 -36.184  1.00  0.00    -0.550 OA
ENDBRANCH   3   4
ENDBRANCH   2   3
ENDBRANCH   1   2
BRANCH   1   7
ATOM      7  C   UNL     1       6.591  -5.615 -34.169  1.00  0.00     0.000 C 
BRANCH   7   8
ATOM      8  C   UNL     1       5.710  -6.601 -33.388  1.00  0.00    -0.000 C 
BRANCH   8   9
ATOM      9  C   UNL     1       6.011  -6.594 -31.881  1.00  0.00    -0.003 C 
ATOM     10  C   UNL     1       7.319  -5.879 -31.541  1.00  0.00     0.004 C 
ENDBRANCH   8   9
ENDBRANCH   7   8
ENDBRANCH   1   7
TORSDOF 6
ENDMDL
MODEL 8
REMARK VINA RESULT:    -3.624     13.357     14.616
REMARK INTER + INTRA:          -5.343
REMARK INTER:                  -4.788
REMARK INTRA:                  -0.555
REMARK UNBOUND:                -0.447
REMARK SMILES CCCCCCCC(=O)[O-]
REMARK SMILES IDX 5 1 6 2 7 3 8 4 9 5 10 6 4 7 3 8 2 9 1 10
REMARK H PARENT
REMARK Flexibility Score: inf
ROOT
ATOM      1  C   UNL     1       6.435  -6.926 -31.473  1.00  0.00     0.000 C 
ENDROOT
BRANCH   1   2
ATOM      2  C   UNL     1       5.305  -6.836 -32.505  1.00  0.00     0.006 C 
BRANCH   2   3
ATOM      3  C   UNL     1       5.306  -8.056 -33.430  1.00  0.00     0.053 C 
BRANCH   3   4
ATOM      4  C   UNL     1       5.377  -7.628 -34.862  1.00  0.00     0.041 C 
ATOM      5  O   UNL     1       5.434  -6.405 -35.156  1.00  0.00    -0.550 OA
ATOM      6  O   UNL     1       5.430  -8.581 -35.870  1.00  0.00    -0.550 OA
ENDBRANCH   3   4
ENDBRANCH   2   3
ENDBRANCH   1   2
BRANCH   1   7
ATOM      7  C   UNL     1       7.375  -5.719 -31.577  1.00  0.00     0.000 C 
BRANCH   7   8
ATOM      8  C   UNL     1       8.265  -5.820 -32.825  1.00  0.00    -0.000 C 
BRANCH   8   9
ATOM      9  C   UNL     1       8.120  -4.604 -33.753  1.00  0.00    -0.003 C 
ATOM     10  C   UNL     1       7.153  -3.554 -33.206  1.00  0.00     0.004 C 
ENDBRANCH   8   9
ENDBRANCH   7   8
ENDBRANCH   1   7
TORSDOF 6
ENDMDL
MODEL 9
REMARK VINA RESULT:    -3.574     13.374     14.827
REMARK INTER + INTRA:          -5.276
REMARK INTER:                  -4.910
REMARK INTRA:                  -0.365
REMARK UNBOUND:                -0.447
REMARK SMILES CCCCCCCC(=O)[O-]
REMARK SMILES IDX 5 1 6 2 7 3 8 4 9 5 10 6 4 7 3 8 2 9 1 10
REMARK H PARENT
REMARK Flexibility Score: inf
ROOT
ATOM      1  C   UNL     1       7.639  -3.443 -33.195  1.00  0.00     0.000 C 
ENDROOT
BRANCH   1   2
ATOM      2  C   UNL     1       7.932  -4.835 -33.765  1.00  0.00     0.006 C 
BRANCH   2   3
ATOM      3  C   UNL     1       8.045  -5.874 -32.647  1.00  0.00     0.053 C 
BRANCH   3   4
ATOM      4  C   UNL     1       6.688  -6.337 -32.222  1.00  0.00     0.041 C 
ATOM      5  O   UNL     1       5.779  -6.506 -33.077  1.00  0.00    -0.550 OA
ATOM      6  O   UNL     1       6.439  -6.628 -30.887  1.00  0.00    -0.550 OA
ENDBRANCH   3   4
ENDBRANCH   2   3
ENDBRANCH   1   2
BRANCH   1   7
ATOM      7  C   UNL     1       6.474  -2.776 -33.938  1.00  0.00     0.000 C 
BRANCH   7   8
ATOM      8  C   UNL     1       6.026  -3.629 -35.134  1.00  0.00    -0.000 C 
BRANCH   8   9
ATOM      9  C   UNL     1       5.443  -2.782 -36.276  1.00  0.00    -0.003 C 
ATOM     10  C   UNL     1       3.921  -2.658 -36.204  1.00  0.00     0.004 C 
ENDBRANCH   8   9
ENDBRANCH   7   8
ENDBRANCH   1   7
TORSDOF 6
ENDMDL
