MODEL 1
REMARK VINA RESULT:    -5.483      0.000      0.000
REMARK INTER + INTRA:          -6.577
REMARK INTER:                  -6.445
REMARK INTRA:                  -0.132
REMARK UNBOUND:                -0.132
REMARK SMILES O=C([O-])C=Cc1ccc(O)c(O)c1
REMARK SMILES IDX 6 1 13 2 7 3 11 4 8 5 9 6 5 7 4 8 2 9 1 10 3 11 12 12 10 14
REMARK H PARENT 12 13 10 15
REMARK Flexibility Score: inf
ROOT
ATOM      1  C   UNL     1       8.645  15.521 -21.643  1.00  0.00    -0.022 A 
ATOM      2  C   UNL     1       9.395  16.500 -20.970  1.00  0.00     0.058 A 
ATOM      3  C   UNL     1       7.809  14.670 -20.893  1.00  0.00     0.012 A 
ATOM      4  C   UNL     1       9.297  16.646 -19.579  1.00  0.00     0.157 A 
ATOM      5  C   UNL     1       7.712  14.817 -19.507  1.00  0.00     0.051 A 
ATOM      6  C   UNL     1       8.451  15.805 -18.846  1.00  0.00     0.157 A 
ENDROOT
BRANCH   1   7
ATOM      7  C   UNL     1       8.794  15.401 -23.115  1.00  0.00     0.010 C 
ATOM      8  C   UNL     1       9.857  15.851 -23.795  1.00  0.00     0.025 C 
BRANCH   8   9
ATOM      9  C   UNL     1       9.969  15.700 -25.254  1.00  0.00     0.064 C 
ATOM     10  O   UNL     1      11.091  15.461 -25.770  1.00  0.00    -0.545 OA
ATOM     11  O   UNL     1       8.852  15.819 -26.075  1.00  0.00    -0.545 OA
ENDBRANCH   8   9
ENDBRANCH   1   7
BRANCH   4  12
ATOM     12  O   UNL     1      10.037  17.626 -18.918  1.00  0.00    -0.504 OA
ATOM     13  H   UNL     1      10.963  17.434 -18.553  1.00  0.00     0.293 HD
ENDBRANCH   4  12
BRANCH   6  14
ATOM     14  O   UNL     1       8.355  15.954 -17.464  1.00  0.00    -0.504 OA
ATOM     15  H   UNL     1       7.456  16.028 -17.000  1.00  0.00     0.293 HD
ENDBRANCH   6  14
TORSDOF 4
ENDMDL
MODEL 2
REMARK VINA RESULT:    -5.299      0.950      1.914
REMARK INTER + INTRA:          -6.361
REMARK INTER:                  -6.227
REMARK INTRA:                  -0.133
REMARK UNBOUND:                -0.132
REMARK SMILES O=C([O-])C=Cc1ccc(O)c(O)c1
REMARK SMILES IDX 6 1 13 2 7 3 11 4 8 5 9 6 5 7 4 8 2 9 1 10 3 11 12 12 10 14
REMARK H PARENT 12 13 10 15
REMARK Flexibility Score: inf
ROOT
ATOM      1  C   UNL     1       8.720  15.679 -21.656  1.00  0.00    -0.022 A 
ATOM      2  C   UNL     1       8.781  14.602 -20.756  1.00  0.00     0.058 A 
ATOM      3  C   UNL     1       8.458  16.970 -21.154  1.00  0.00     0.012 A 
ATOM      4  C   UNL     1       8.610  14.808 -19.379  1.00  0.00     0.157 A 
ATOM      5  C   UNL     1       8.286  17.174 -19.783  1.00  0.00     0.051 A 
ATOM      6  C   UNL     1       8.364  16.096 -18.891  1.00  0.00     0.157 A 
ENDROOT
BRANCH   1   7
ATOM      7  C   UNL     1       8.898  15.405 -23.104  1.00  0.00     0.010 C 
ATOM      8  C   UNL     1       9.759  16.069 -23.887  1.00  0.00     0.025 C 
BRANCH   8   9
ATOM      9  C   UNL     1       9.912  15.756 -25.316  1.00  0.00     0.064 C 
ATOM     10  O   UNL     1       8.908  15.801 -26.073  1.00  0.00    -0.545 OA
ATOM     11  O   UNL     1      11.151  15.409 -25.846  1.00  0.00    -0.545 OA
ENDBRANCH   8   9
ENDBRANCH   1   7
BRANCH   4  12
ATOM     12  O   UNL     1       8.680  13.736 -18.491  1.00  0.00    -0.504 OA
ATOM     13  H   UNL     1       8.603  12.776 -18.809  1.00  0.00     0.293 HD
ENDBRANCH   4  12
BRANCH   6  14
ATOM     14  O   UNL     1       8.195  16.298 -17.523  1.00  0.00    -0.504 OA
ATOM     15  H   UNL     1       7.360  15.987 -17.040  1.00  0.00     0.293 HD
ENDBRANCH   6  14
TORSDOF 4
ENDMDL
MODEL 3
REMARK VINA RESULT:    -5.228     10.334     13.838
REMARK INTER + INTRA:          -6.277
REMARK INTER:                  -6.146
REMARK INTRA:                  -0.131
REMARK UNBOUND:                -0.132
REMARK SMILES O=C([O-])C=Cc1ccc(O)c(O)c1
REMARK SMILES IDX 6 1 13 2 7 3 11 4 8 5 9 6 5 7 4 8 2 9 1 10 3 11 12 12 10 14
REMARK H PARENT 12 13 10 15
REMARK Flexibility Score: inf
ROOT
ATOM      1  C   UNL     1       7.042   8.649 -12.225  1.00  0.00    -0.022 A 
ATOM      2  C   UNL     1       6.672   7.385 -12.713  1.00  0.00     0.058 A 
ATOM      3  C   UNL     1       7.457   9.637 -13.140  1.00  0.00     0.012 A 
ATOM      4  C   UNL     1       6.688   7.116 -14.089  1.00  0.00     0.157 A 
ATOM      5  C   UNL     1       7.474   9.367 -14.511  1.00  0.00     0.051 A 
ATOM      6  C   UNL     1       7.087   8.109 -14.990  1.00  0.00     0.157 A 
ENDROOT
BRANCH   1   7
ATOM      7  C   UNL     1       7.017   8.879 -10.758  1.00  0.00     0.010 C 
ATOM      8  C   UNL     1       7.061   7.895  -9.850  1.00  0.00     0.025 C 
BRANCH   8   9
ATOM      9  C   UNL     1       7.046   8.169  -8.404  1.00  0.00     0.064 C 
ATOM     10  O   UNL     1       5.964   8.088  -7.768  1.00  0.00    -0.545 OA
ATOM     11  O   UNL     1       8.211   8.519  -7.729  1.00  0.00    -0.545 OA
ENDBRANCH   8   9
ENDBRANCH   1   7
BRANCH   4  12
ATOM     12  O   UNL     1       6.310   5.862 -14.568  1.00  0.00    -0.504 OA
ATOM     13  H   UNL     1       5.748   5.229 -14.011  1.00  0.00     0.293 HD
ENDBRANCH   4  12
BRANCH   6  14
ATOM     14  O   UNL     1       7.102   7.839 -16.357  1.00  0.00    -0.504 OA
ATOM     15  H   UNL     1       7.596   8.436 -17.011  1.00  0.00     0.293 HD
ENDBRANCH   6  14
TORSDOF 4
ENDMDL
MODEL 4
REMARK VINA RESULT:    -5.072      8.840     12.005
REMARK INTER + INTRA:          -6.094
REMARK INTER:                  -5.966
REMARK INTRA:                  -0.128
REMARK UNBOUND:                -0.132
REMARK SMILES O=C([O-])C=Cc1ccc(O)c(O)c1
REMARK SMILES IDX 6 1 13 2 7 3 11 4 8 5 9 6 5 7 4 8 2 9 1 10 3 11 12 12 10 14
REMARK H PARENT 12 13 10 15
REMARK Flexibility Score: inf
ROOT
ATOM      1  C   UNL     1       8.469   7.880 -14.644  1.00  0.00    -0.022 A 
ATOM      2  C   UNL     1       7.696   8.168 -15.781  1.00  0.00     0.058 A 
ATOM      3  C   UNL     1       9.874   7.916 -14.751  1.00  0.00     0.012 A 
ATOM      4  C   UNL     1       8.308   8.511 -16.996  1.00  0.00     0.157 A 
ATOM      5  C   UNL     1      10.483   8.256 -15.961  1.00  0.00     0.051 A 
ATOM      6  C   UNL     1       9.704   8.557 -17.085  1.00  0.00     0.157 A 
ENDROOT
BRANCH   1   7
ATOM      7  C   UNL     1       7.772   7.512 -13.386  1.00  0.00     0.010 C 
ATOM      8  C   UNL     1       7.599   8.354 -12.358  1.00  0.00     0.025 C 
BRANCH   8   9
ATOM      9  C   UNL     1       6.891   7.951 -11.133  1.00  0.00     0.064 C 
ATOM     10  O   UNL     1       5.906   7.173 -11.212  1.00  0.00    -0.545 OA
ATOM     11  O   UNL     1       7.293   8.419  -9.886  1.00  0.00    -0.545 OA
ENDBRANCH   8   9
ENDBRANCH   1   7
BRANCH   4  12
ATOM     12  O   UNL     1       7.534   8.804 -18.118  1.00  0.00    -0.504 OA
ATOM     13  H   UNL     1       6.850   8.148 -18.477  1.00  0.00     0.293 HD
ENDBRANCH   4  12
BRANCH   6  14
ATOM     14  O   UNL     1      10.309   8.899 -18.294  1.00  0.00    -0.504 OA
ATOM     15  H   UNL     1       9.769   9.004 -19.146  1.00  0.00     0.293 HD
ENDBRANCH   6  14
TORSDOF 4
ENDMDL
MODEL 5
REMARK VINA RESULT:    -5.039      8.771     11.989
REMARK INTER + INTRA:          -6.055
REMARK INTER:                  -5.916
REMARK INTRA:                  -0.139
REMARK UNBOUND:                -0.132
REMARK SMILES O=C([O-])C=Cc1ccc(O)c(O)c1
REMARK SMILES IDX 6 1 13 2 7 3 11 4 8 5 9 6 5 7 4 8 2 9 1 10 3 11 12 12 10 14
REMARK H PARENT 12 13 10 15
REMARK Flexibility Score: inf
ROOT
ATOM      1  C   UNL     1       8.644   8.759 -13.991  1.00  0.00    -0.022 A 
ATOM      2  C   UNL     1       9.694   8.043 -14.590  1.00  0.00     0.058 A 
ATOM      3  C   UNL     1       8.406  10.086 -14.401  1.00  0.00     0.012 A 
ATOM      4  C   UNL     1      10.477   8.627 -15.596  1.00  0.00     0.157 A 
ATOM      5  C   UNL     1       9.187  10.668 -15.403  1.00  0.00     0.051 A 
ATOM      6  C   UNL     1      10.221   9.941 -16.005  1.00  0.00     0.157 A 
ENDROOT
BRANCH   1   7
ATOM      7  C   UNL     1       7.853   8.098 -12.923  1.00  0.00     0.010 C 
ATOM      8  C   UNL     1       7.409   8.728 -11.827  1.00  0.00     0.025 C 
BRANCH   8   9
ATOM      9  C   UNL     1       6.617   8.037 -10.798  1.00  0.00     0.064 C 
ATOM     10  O   UNL     1       5.875   7.076 -11.127  1.00  0.00    -0.545 OA
ATOM     11  O   UNL     1       6.674   8.431  -9.465  1.00  0.00    -0.545 OA
ENDBRANCH   8   9
ENDBRANCH   1   7
BRANCH   4  12
ATOM     12  O   UNL     1      11.511   7.908 -16.193  1.00  0.00    -0.504 OA
ATOM     13  H   UNL     1      11.512   6.895 -16.209  1.00  0.00     0.293 HD
ENDBRANCH   4  12
BRANCH   6  14
ATOM     14  O   UNL     1      11.000  10.519 -17.007  1.00  0.00    -0.504 OA
ATOM     15  H   UNL     1      10.877  10.273 -17.983  1.00  0.00     0.293 HD
ENDBRANCH   6  14
TORSDOF 4
ENDMDL
MODEL 6
REMARK VINA RESULT:    -4.965      2.922      3.703
REMARK INTER + INTRA:          -5.968
REMARK INTER:                  -5.832
REMARK INTRA:                  -0.136
REMARK UNBOUND:                -0.132
REMARK SMILES O=C([O-])C=Cc1ccc(O)c(O)c1
REMARK SMILES IDX 6 1 13 2 7 3 11 4 8 5 9 6 5 7 4 8 2 9 1 10 3 11 12 12 10 14
REMARK H PARENT 12 13 10 15
REMARK Flexibility Score: inf
ROOT
ATOM      1  C   UNL     1       9.012  13.917 -20.254  1.00  0.00    -0.022 A 
ATOM      2  C   UNL     1       9.125  12.518 -20.207  1.00  0.00     0.058 A 
ATOM      3  C   UNL     1       9.232  14.657 -19.075  1.00  0.00     0.012 A 
ATOM      4  C   UNL     1       9.476  11.867 -19.015  1.00  0.00     0.157 A 
ATOM      5  C   UNL     1       9.580  14.008 -17.888  1.00  0.00     0.051 A 
ATOM      6  C   UNL     1       9.706  12.614 -17.854  1.00  0.00     0.157 A 
ENDROOT
BRANCH   1   7
ATOM      7  C   UNL     1       8.628  14.555 -21.538  1.00  0.00     0.010 C 
ATOM      8  C   UNL     1       8.914  15.826 -21.853  1.00  0.00     0.025 C 
BRANCH   8   9
ATOM      9  C   UNL     1       8.523  16.415 -23.143  1.00  0.00     0.064 C 
ATOM     10  O   UNL     1       8.097  17.598 -23.183  1.00  0.00    -0.545 OA
ATOM     11  O   UNL     1       8.616  15.683 -24.322  1.00  0.00    -0.545 OA
ENDBRANCH   8   9
ENDBRANCH   1   7
BRANCH   4  12
ATOM     12  O   UNL     1       9.596  10.479 -18.977  1.00  0.00    -0.504 OA
ATOM     13  H   UNL     1       9.896   9.950 -19.789  1.00  0.00     0.293 HD
ENDBRANCH   4  12
BRANCH   6  14
ATOM     14  O   UNL     1      10.056  11.965 -16.671  1.00  0.00    -0.504 OA
ATOM     15  H   UNL     1      10.977  12.069 -16.261  1.00  0.00     0.293 HD
ENDBRANCH   6  14
TORSDOF 4
ENDMDL
MODEL 7
REMARK VINA RESULT:    -4.817      2.852      5.748
REMARK INTER + INTRA:          -5.794
REMARK INTER:                  -5.665
REMARK INTRA:                  -0.128
REMARK UNBOUND:                -0.132
REMARK SMILES O=C([O-])C=Cc1ccc(O)c(O)c1
REMARK SMILES IDX 6 1 13 2 7 3 11 4 8 5 9 6 5 7 4 8 2 9 1 10 3 11 12 12 10 14
REMARK H PARENT 12 13 10 15
REMARK Flexibility Score: inf
ROOT
ATOM      1  C   UNL     1       9.131  16.726 -19.283  1.00  0.00    -0.022 A 
ATOM      2  C   UNL     1       8.644  16.586 -20.593  1.00  0.00     0.058 A 
ATOM      3  C   UNL     1       9.507  15.569 -18.570  1.00  0.00     0.012 A 
ATOM      4  C   UNL     1       8.555  15.322 -21.193  1.00  0.00     0.157 A 
ATOM      5  C   UNL     1       9.417  14.310 -19.169  1.00  0.00     0.051 A 
ATOM      6  C   UNL     1       8.945  14.182 -20.481  1.00  0.00     0.157 A 
ENDROOT
BRANCH   1   7
ATOM      7  C   UNL     1       9.195  18.086 -18.690  1.00  0.00     0.010 C 
ATOM      8  C   UNL     1       8.119  18.770 -18.280  1.00  0.00     0.025 C 
BRANCH   8   9
ATOM      9  C   UNL     1       8.230  20.112 -17.687  1.00  0.00     0.064 C 
ATOM     10  O   UNL     1       9.137  20.891 -18.076  1.00  0.00    -0.545 OA
ATOM     11  O   UNL     1       7.347  20.533 -16.697  1.00  0.00    -0.545 OA
ENDBRANCH   8   9
ENDBRANCH   1   7
BRANCH   4  12
ATOM     12  O   UNL     1       8.079  15.192 -22.497  1.00  0.00    -0.504 OA
ATOM     13  H   UNL     1       7.297  15.741 -22.834  1.00  0.00     0.293 HD
ENDBRANCH   4  12
BRANCH   6  14
ATOM     14  O   UNL     1       8.856  12.927 -21.081  1.00  0.00    -0.504 OA
ATOM     15  H   UNL     1       8.041  12.337 -20.957  1.00  0.00     0.293 HD
ENDBRANCH   6  14
TORSDOF 4
ENDMDL
MODEL 8
REMARK VINA RESULT:    -4.811      2.443      2.979
REMARK INTER + INTRA:          -5.787
REMARK INTER:                  -5.659
REMARK INTRA:                  -0.127
REMARK UNBOUND:                -0.132
REMARK SMILES O=C([O-])C=Cc1ccc(O)c(O)c1
REMARK SMILES IDX 6 1 13 2 7 3 11 4 8 5 9 6 5 7 4 8 2 9 1 10 3 11 12 12 10 14
REMARK H PARENT 12 13 10 15
REMARK Flexibility Score: inf
ROOT
ATOM      1  C   UNL     1       8.841  14.233 -20.475  1.00  0.00    -0.022 A 
ATOM      2  C   UNL     1       9.188  14.729 -19.208  1.00  0.00     0.058 A 
ATOM      3  C   UNL     1       8.904  12.843 -20.702  1.00  0.00     0.012 A 
ATOM      4  C   UNL     1       9.567  13.857 -18.176  1.00  0.00     0.157 A 
ATOM      5  C   UNL     1       9.283  11.976 -19.674  1.00  0.00     0.051 A 
ATOM      6  C   UNL     1       9.612  12.478 -18.409  1.00  0.00     0.157 A 
ENDROOT
BRANCH   1   7
ATOM      7  C   UNL     1       8.457  15.199 -21.535  1.00  0.00     0.010 C 
ATOM      8  C   UNL     1       9.308  15.669 -22.457  1.00  0.00     0.025 C 
BRANCH   8   9
ATOM      9  C   UNL     1       8.882  16.617 -23.498  1.00  0.00     0.064 C 
ATOM     10  O   UNL     1       8.069  17.532 -23.210  1.00  0.00    -0.545 OA
ATOM     11  O   UNL     1       9.363  16.516 -24.800  1.00  0.00    -0.545 OA
ENDBRANCH   8   9
ENDBRANCH   1   7
BRANCH   4  12
ATOM     12  O   UNL     1       9.901  14.356 -16.918  1.00  0.00    -0.504 OA
ATOM     13  H   UNL     1      10.012  13.745 -16.117  1.00  0.00     0.293 HD
ENDBRANCH   4  12
BRANCH   6  14
ATOM     14  O   UNL     1       9.988  11.615 -17.381  1.00  0.00    -0.504 OA
ATOM     15  H   UNL     1       9.587  11.688 -16.453  1.00  0.00     0.293 HD
ENDBRANCH   6  14
TORSDOF 4
ENDMDL
MODEL 9
REMARK VINA RESULT:    -4.780      3.491      5.415
REMARK INTER + INTRA:          -5.751
REMARK INTER:                  -5.617
REMARK INTRA:                  -0.134
REMARK UNBOUND:                -0.132
REMARK SMILES O=C([O-])C=Cc1ccc(O)c(O)c1
REMARK SMILES IDX 6 1 13 2 7 3 11 4 8 5 9 6 5 7 4 8 2 9 1 10 3 11 12 12 10 14
REMARK H PARENT 12 13 10 15
REMARK Flexibility Score: inf
ROOT
ATOM      1  C   UNL     1       8.288  15.330 -19.398  1.00  0.00    -0.022 A 
ATOM      2  C   UNL     1       8.905  14.391 -18.555  1.00  0.00     0.058 A 
ATOM      3  C   UNL     1       8.128  15.017 -20.763  1.00  0.00     0.012 A 
ATOM      4  C   UNL     1       9.332  13.152 -19.053  1.00  0.00     0.157 A 
ATOM      5  C   UNL     1       8.555  13.783 -21.259  1.00  0.00     0.051 A 
ATOM      6  C   UNL     1       9.155  12.846 -20.407  1.00  0.00     0.157 A 
ENDROOT
BRANCH   1   7
ATOM      7  C   UNL     1       7.864  16.631 -18.821  1.00  0.00     0.010 C 
ATOM      8  C   UNL     1       8.335  17.816 -19.232  1.00  0.00     0.025 C 
BRANCH   8   9
ATOM      9  C   UNL     1       7.878  19.083 -18.640  1.00  0.00     0.064 C 
ATOM     10  O   UNL     1       6.647  19.334 -18.584  1.00  0.00    -0.545 OA
ATOM     11  O   UNL     1       8.787  20.011 -18.143  1.00  0.00    -0.545 OA
ENDBRANCH   8   9
ENDBRANCH   1   7
BRANCH   4  12
ATOM     12  O   UNL     1       9.935  12.221 -18.209  1.00  0.00    -0.504 OA
ATOM     13  H   UNL     1      10.924  12.266 -17.990  1.00  0.00     0.293 HD
ENDBRANCH   4  12
BRANCH   6  14
ATOM     14  O   UNL     1       9.580  11.613 -20.900  1.00  0.00    -0.504 OA
ATOM     15  H   UNL     1       8.973  10.802 -20.893  1.00  0.00     0.293 HD
ENDBRANCH   6  14
TORSDOF 4
ENDMDL
