MODEL 1
REMARK VINA RESULT:    -4.085      0.000      0.000
REMARK INTER + INTRA:          -6.360
REMARK INTER:                  -5.041
REMARK INTRA:                  -1.319
REMARK UNBOUND:                -1.319
REMARK SMILES CC(C)=CCC[C@H](C)c1ccc(C)cc1
REMARK SMILES IDX 6 1 7 2 8 3 9 4 13 5 12 6 11 7 14 8 10 9 15 10 5 11 4 12
REMARK SMILES IDX 2 13 1 14 3 15
REMARK H PARENT
REMARK Flexibility Score: inf
ROOT
ATOM      1  C   UNL     1      -5.622  -6.536  12.635  1.00  0.00     0.012 C 
ENDROOT
BRANCH   1   2
ATOM      2  C   UNL     1      -6.444  -6.398  11.335  1.00  0.00     0.016 C 
ATOM      3  C   UNL     1      -7.927  -6.691  11.595  1.00  0.00     0.013 C 
BRANCH   2   4
ATOM      4  C   UNL     1      -5.910  -7.289  10.225  1.00  0.00    -0.045 A 
ATOM      5  C   UNL     1      -4.350  -9.803   7.080  1.00  0.00     0.044 C 
ATOM      6  C   UNL     1      -4.880  -8.950   8.192  1.00  0.00    -0.051 A 
ATOM      7  C   UNL     1      -4.108  -7.900   8.707  1.00  0.00     0.004 A 
ATOM      8  C   UNL     1      -6.179  -9.151   8.679  1.00  0.00     0.004 A 
ATOM      9  C   UNL     1      -4.615  -7.081   9.720  1.00  0.00     0.004 A 
ATOM     10  C   UNL     1      -6.688  -8.333   9.692  1.00  0.00     0.004 A 
ENDBRANCH   2   4
ENDBRANCH   1   2
BRANCH   1  11
ATOM     11  C   UNL     1      -5.905  -7.860  13.361  1.00  0.00     0.028 C 
BRANCH  11  12
ATOM     12  C   UNL     1      -4.637  -8.430  13.944  1.00  0.00    -0.028 C 
ATOM     13  C   UNL     1      -3.879  -9.376  13.347  1.00  0.00    -0.080 C 
ATOM     14  C   UNL     1      -4.272 -10.004  12.031  1.00  0.00     0.039 C 
ATOM     15  C   UNL     1      -2.613  -9.821  14.033  1.00  0.00     0.039 C 
ENDBRANCH  11  12
ENDBRANCH   1  11
TORSDOF 4
ENDMDL
MODEL 2
REMARK VINA RESULT:    -3.987     15.012     16.464
REMARK INTER + INTRA:          -6.238
REMARK INTER:                  -5.232
REMARK INTRA:                  -1.006
REMARK UNBOUND:                -1.319
REMARK SMILES CC(C)=CCC[C@H](C)c1ccc(C)cc1
REMARK SMILES IDX 6 1 7 2 8 3 9 4 13 5 12 6 11 7 14 8 10 9 15 10 5 11 4 12
REMARK SMILES IDX 2 13 1 14 3 15
REMARK H PARENT
REMARK Flexibility Score: inf
ROOT
ATOM      1  C   UNL     1       4.228   5.377   7.003  1.00  0.00     0.012 C 
ENDROOT
BRANCH   1   2
ATOM      2  C   UNL     1       3.912   6.676   7.777  1.00  0.00     0.016 C 
ATOM      3  C   UNL     1       4.895   6.869   8.939  1.00  0.00     0.013 C 
BRANCH   2   4
ATOM      4  C   UNL     1       2.478   6.705   8.280  1.00  0.00    -0.045 A 
ATOM      5  C   UNL     1      -1.582   6.800   9.750  1.00  0.00     0.044 C 
ATOM      6  C   UNL     1      -0.173   6.797   9.237  1.00  0.00    -0.051 A 
ATOM      7  C   UNL     1       0.905   6.833  10.133  1.00  0.00     0.004 A 
ATOM      8  C   UNL     1       0.079   6.690   7.862  1.00  0.00     0.004 A 
ATOM      9  C   UNL     1       2.219   6.795   9.658  1.00  0.00     0.004 A 
ATOM     10  C   UNL     1       1.393   6.651   7.386  1.00  0.00     0.004 A 
ENDBRANCH   2   4
ENDBRANCH   1   2
BRANCH   1  11
ATOM     11  C   UNL     1       3.644   4.136   7.693  1.00  0.00     0.028 C 
BRANCH  11  12
ATOM     12  C   UNL     1       4.734   3.329   8.351  1.00  0.00    -0.028 C 
ATOM     13  C   UNL     1       4.776   3.032   9.668  1.00  0.00    -0.080 C 
ATOM     14  C   UNL     1       3.735   3.540  10.637  1.00  0.00     0.039 C 
ATOM     15  C   UNL     1       5.910   2.179  10.177  1.00  0.00     0.039 C 
ENDBRANCH  11  12
ENDBRANCH   1  11
TORSDOF 4
ENDMDL
MODEL 3
REMARK VINA RESULT:    -3.974      1.179      2.043
REMARK INTER + INTRA:          -6.222
REMARK INTER:                  -4.659
REMARK INTRA:                  -1.564
REMARK UNBOUND:                -1.319
REMARK SMILES CC(C)=CCC[C@H](C)c1ccc(C)cc1
REMARK SMILES IDX 6 1 7 2 8 3 9 4 13 5 12 6 11 7 14 8 10 9 15 10 5 11 4 12
REMARK SMILES IDX 2 13 1 14 3 15
REMARK H PARENT
REMARK Flexibility Score: inf
ROOT
ATOM      1  C   UNL     1      -7.523  -6.002  11.379  1.00  0.00     0.012 C 
ENDROOT
BRANCH   1   2
ATOM      2  C   UNL     1      -7.542  -6.225   9.851  1.00  0.00     0.016 C 
ATOM      3  C   UNL     1      -8.901  -6.776   9.398  1.00  0.00     0.013 C 
BRANCH   2   4
ATOM      4  C   UNL     1      -6.417  -7.138   9.394  1.00  0.00    -0.045 A 
ATOM      5  C   UNL     1      -3.248  -9.757   8.070  1.00  0.00     0.044 C 
ATOM      6  C   UNL     1      -4.346  -8.833   8.503  1.00  0.00    -0.051 A 
ATOM      7  C   UNL     1      -5.686  -9.165   8.261  1.00  0.00     0.004 A 
ATOM      8  C   UNL     1      -4.045  -7.662   9.214  1.00  0.00     0.004 A 
ATOM      9  C   UNL     1      -6.712  -8.322   8.696  1.00  0.00     0.004 A 
ATOM     10  C   UNL     1      -5.071  -6.818   9.650  1.00  0.00     0.004 A 
ENDBRANCH   2   4
ENDBRANCH   1   2
BRANCH   1  11
ATOM     11  C   UNL     1      -7.661  -7.318  12.158  1.00  0.00     0.028 C 
BRANCH  11  12
ATOM     12  C   UNL     1      -6.435  -7.572  12.997  1.00  0.00    -0.028 C 
ATOM     13  C   UNL     1      -5.666  -8.680  12.911  1.00  0.00    -0.080 C 
ATOM     14  C   UNL     1      -6.004  -9.819  11.979  1.00  0.00     0.039 C 
ATOM     15  C   UNL     1      -4.444  -8.777  13.789  1.00  0.00     0.039 C 
ENDBRANCH  11  12
ENDBRANCH   1  11
TORSDOF 4
ENDMDL
MODEL 4
REMARK VINA RESULT:    -3.961      1.118      4.448
REMARK INTER + INTRA:          -6.206
REMARK INTER:                  -4.648
REMARK INTRA:                  -1.559
REMARK UNBOUND:                -1.319
REMARK SMILES CC(C)=CCC[C@H](C)c1ccc(C)cc1
REMARK SMILES IDX 6 1 7 2 8 3 9 4 13 5 12 6 11 7 14 8 10 9 15 10 5 11 4 12
REMARK SMILES IDX 2 13 1 14 3 15
REMARK H PARENT
REMARK Flexibility Score: inf
ROOT
ATOM      1  C   UNL     1      -8.289  -8.187  10.052  1.00  0.00     0.012 C 
ENDROOT
BRANCH   1   2
ATOM      2  C   UNL     1      -7.962  -7.496  11.394  1.00  0.00     0.016 C 
ATOM      3  C   UNL     1      -7.776  -5.986  11.198  1.00  0.00     0.013 C 
BRANCH   2   4
ATOM      4  C   UNL     1      -6.739  -8.102  12.064  1.00  0.00    -0.045 A 
ATOM      5  C   UNL     1      -3.261  -9.786  13.993  1.00  0.00     0.044 C 
ATOM      6  C   UNL     1      -4.485  -9.209  13.347  1.00  0.00    -0.051 A 
ATOM      7  C   UNL     1      -4.802  -7.854  13.517  1.00  0.00     0.004 A 
ATOM      8  C   UNL     1      -5.285 -10.003  12.513  1.00  0.00     0.004 A 
ATOM      9  C   UNL     1      -5.923  -7.307  12.887  1.00  0.00     0.004 A 
ATOM     10  C   UNL     1      -6.406  -9.457  11.882  1.00  0.00     0.004 A 
ENDBRANCH   2   4
ENDBRANCH   1   2
BRANCH   1  11
ATOM     11  C   UNL     1      -7.556  -7.534   8.871  1.00  0.00     0.028 C 
BRANCH  11  12
ATOM     12  C   UNL     1      -6.468  -8.440   8.352  1.00  0.00    -0.028 C 
ATOM     13  C   UNL     1      -5.149  -8.260   8.582  1.00  0.00    -0.080 C 
ATOM     14  C   UNL     1      -4.626  -7.072   9.354  1.00  0.00     0.039 C 
ATOM     15  C   UNL     1      -4.178  -9.273   8.031  1.00  0.00     0.039 C 
ENDBRANCH  11  12
ENDBRANCH   1  11
TORSDOF 4
ENDMDL
MODEL 5
REMARK VINA RESULT:    -3.865      1.672      4.479
REMARK INTER + INTRA:          -6.088
REMARK INTER:                  -4.645
REMARK INTRA:                  -1.443
REMARK UNBOUND:                -1.319
REMARK SMILES CC(C)=CCC[C@H](C)c1ccc(C)cc1
REMARK SMILES IDX 6 1 7 2 8 3 9 4 13 5 12 6 11 7 14 8 10 9 15 10 5 11 4 12
REMARK SMILES IDX 2 13 1 14 3 15
REMARK H PARENT
REMARK Flexibility Score: inf
ROOT
ATOM      1  C   UNL     1      -7.621  -5.823  10.414  1.00  0.00     0.012 C 
ENDROOT
BRANCH   1   2
ATOM      2  C   UNL     1      -6.517  -6.734   9.834  1.00  0.00     0.016 C 
ATOM      3  C   UNL     1      -7.109  -7.744   8.843  1.00  0.00     0.013 C 
BRANCH   2   4
ATOM      4  C   UNL     1      -5.736  -7.449  10.925  1.00  0.00    -0.045 A 
ATOM      5  C   UNL     1      -3.540  -9.454  14.056  1.00  0.00     0.044 C 
ATOM      6  C   UNL     1      -4.327  -8.775  12.976  1.00  0.00    -0.051 A 
ATOM      7  C   UNL     1      -5.019  -7.586  13.246  1.00  0.00     0.004 A 
ATOM      8  C   UNL     1      -4.321  -9.285  11.670  1.00  0.00     0.004 A 
ATOM      9  C   UNL     1      -5.723  -6.932  12.232  1.00  0.00     0.004 A 
ATOM     10  C   UNL     1      -5.025  -8.632  10.654  1.00  0.00     0.004 A 
ENDBRANCH   2   4
ENDBRANCH   1   2
BRANCH   1  11
ATOM     11  C   UNL     1      -8.970  -6.550  10.528  1.00  0.00     0.028 C 
BRANCH  11  12
ATOM     12  C   UNL     1      -9.436  -6.588  11.961  1.00  0.00    -0.028 C 
ATOM     13  C   UNL     1      -9.342  -7.670  12.766  1.00  0.00    -0.080 C 
ATOM     14  C   UNL     1      -8.798  -8.990  12.274  1.00  0.00     0.039 C 
ATOM     15  C   UNL     1      -9.814  -7.547  14.193  1.00  0.00     0.039 C 
ENDBRANCH  11  12
ENDBRANCH   1  11
TORSDOF 4
ENDMDL
MODEL 6
REMARK VINA RESULT:    -3.852     15.229     16.758
REMARK INTER + INTRA:          -6.072
REMARK INTER:                  -5.001
REMARK INTRA:                  -1.071
REMARK UNBOUND:                -1.319
REMARK SMILES CC(C)=CCC[C@H](C)c1ccc(C)cc1
REMARK SMILES IDX 6 1 7 2 8 3 9 4 13 5 12 6 11 7 14 8 10 9 15 10 5 11 4 12
REMARK SMILES IDX 2 13 1 14 3 15
REMARK H PARENT
REMARK Flexibility Score: inf
ROOT
ATOM      1  C   UNL     1       0.463   6.352   8.957  1.00  0.00     0.012 C 
ENDROOT
BRANCH   1   2
ATOM      2  C   UNL     1       1.879   6.512   8.362  1.00  0.00     0.016 C 
ATOM      3  C   UNL     1       1.819   6.605   6.832  1.00  0.00     0.013 C 
BRANCH   2   4
ATOM      4  C   UNL     1       2.809   5.390   8.793  1.00  0.00    -0.045 A 
ATOM      5  C   UNL     1       5.439   2.208  10.062  1.00  0.00     0.044 C 
ATOM      6  C   UNL     1       4.502   3.294   9.625  1.00  0.00    -0.051 A 
ATOM      7  C   UNL     1       3.988   4.203  10.561  1.00  0.00     0.004 A 
ATOM      8  C   UNL     1       4.186   3.451   8.269  1.00  0.00     0.004 A 
ATOM      9  C   UNL     1       3.143   5.237  10.150  1.00  0.00     0.004 A 
ATOM     10  C   UNL     1       3.342   4.486   7.856  1.00  0.00     0.004 A 
ENDBRANCH   2   4
ENDBRANCH   1   2
BRANCH   1  11
ATOM     11  C   UNL     1       0.155   7.424  10.013  1.00  0.00     0.028 C 
BRANCH  11  12
ATOM     12  C   UNL     1       1.251   8.458  10.059  1.00  0.00    -0.028 C 
ATOM     13  C   UNL     1       2.046   8.682  11.129  1.00  0.00    -0.080 C 
ATOM     14  C   UNL     1       1.867   7.936  12.430  1.00  0.00     0.039 C 
ATOM     15  C   UNL     1       3.130   9.723  11.014  1.00  0.00     0.039 C 
ENDBRANCH  11  12
ENDBRANCH   1  11
TORSDOF 4
ENDMDL
MODEL 7
REMARK VINA RESULT:    -3.831      1.517      2.851
REMARK INTER + INTRA:          -6.045
REMARK INTER:                  -4.722
REMARK INTRA:                  -1.323
REMARK UNBOUND:                -1.319
REMARK SMILES CC(C)=CCC[C@H](C)c1ccc(C)cc1
REMARK SMILES IDX 6 1 7 2 8 3 9 4 13 5 12 6 11 7 14 8 10 9 15 10 5 11 4 12
REMARK SMILES IDX 2 13 1 14 3 15
REMARK H PARENT
REMARK Flexibility Score: inf
ROOT
ATOM      1  C   UNL     1      -4.423  -8.573  14.169  1.00  0.00     0.012 C 
ENDROOT
BRANCH   1   2
ATOM      2  C   UNL     1      -5.868  -8.215  13.756  1.00  0.00     0.016 C 
ATOM      3  C   UNL     1      -6.868  -9.216  14.349  1.00  0.00     0.013 C 
BRANCH   2   4
ATOM      4  C   UNL     1      -6.025  -8.133  12.246  1.00  0.00    -0.045 A 
ATOM      5  C   UNL     1      -6.505  -7.930   7.959  1.00  0.00     0.044 C 
ATOM      6  C   UNL     1      -6.362  -7.982   9.450  1.00  0.00    -0.051 A 
ATOM      7  C   UNL     1      -6.982  -9.004  10.185  1.00  0.00     0.004 A 
ATOM      8  C   UNL     1      -5.553  -7.051  10.116  1.00  0.00     0.004 A 
ATOM      9  C   UNL     1      -6.821  -9.074  11.571  1.00  0.00     0.004 A 
ATOM     10  C   UNL     1      -5.390  -7.121  11.503  1.00  0.00     0.004 A 
ENDBRANCH   2   4
ENDBRANCH   1   2
BRANCH   1  11
ATOM     11  C   UNL     1      -3.972  -9.921  13.586  1.00  0.00     0.028 C 
BRANCH  11  12
ATOM     12  C   UNL     1      -2.539  -9.849  13.124  1.00  0.00    -0.028 C 
ATOM     13  C   UNL     1      -2.154  -9.831  11.829  1.00  0.00    -0.080 C 
ATOM     14  C   UNL     1      -3.147  -9.938  10.696  1.00  0.00     0.039 C 
ATOM     15  C   UNL     1      -0.683  -9.715  11.518  1.00  0.00     0.039 C 
ENDBRANCH  11  12
ENDBRANCH   1  11
TORSDOF 4
ENDMDL
MODEL 8
REMARK VINA RESULT:    -3.806     15.946     17.583
REMARK INTER + INTRA:          -6.015
REMARK INTER:                  -4.873
REMARK INTRA:                  -1.142
REMARK UNBOUND:                -1.319
REMARK SMILES CC(C)=CCC[C@H](C)c1ccc(C)cc1
REMARK SMILES IDX 6 1 7 2 8 3 9 4 13 5 12 6 11 7 14 8 10 9 15 10 5 11 4 12
REMARK SMILES IDX 2 13 1 14 3 15
REMARK H PARENT
REMARK Flexibility Score: inf
ROOT
ATOM      1  C   UNL     1       0.915   8.666   9.764  1.00  0.00     0.012 C 
ENDROOT
BRANCH   1   2
ATOM      2  C   UNL     1       0.458   7.355   9.087  1.00  0.00     0.016 C 
ATOM      3  C   UNL     1      -0.773   6.776   9.796  1.00  0.00     0.013 C 
BRANCH   2   4
ATOM      4  C   UNL     1       1.575   6.325   9.029  1.00  0.00    -0.045 A 
ATOM      5  C   UNL     1       4.750   3.400   8.908  1.00  0.00     0.044 C 
ATOM      6  C   UNL     1       3.628   4.393   8.957  1.00  0.00    -0.051 A 
ATOM      7  C   UNL     1       3.348   5.086  10.144  1.00  0.00     0.004 A 
ATOM      8  C   UNL     1       2.894   4.688   7.800  1.00  0.00     0.004 A 
ATOM      9  C   UNL     1       2.326   6.038  10.181  1.00  0.00     0.004 A 
ATOM     10  C   UNL     1       1.871   5.640   7.835  1.00  0.00     0.004 A 
ENDBRANCH   2   4
ENDBRANCH   1   2
BRANCH   1  11
ATOM     11  C   UNL     1       1.030   9.824   8.762  1.00  0.00     0.028 C 
BRANCH  11  12
ATOM     12  C   UNL     1       2.305   9.714   7.964  1.00  0.00    -0.028 C 
ATOM     13  C   UNL     1       2.362   9.367   6.660  1.00  0.00    -0.080 C 
ATOM     14  C   UNL     1       1.126   8.996   5.875  1.00  0.00     0.039 C 
ATOM     15  C   UNL     1       3.708   9.339   5.981  1.00  0.00     0.039 C 
ENDBRANCH  11  12
ENDBRANCH   1  11
TORSDOF 4
ENDMDL
MODEL 9
REMARK VINA RESULT:    -3.705     15.096     16.560
REMARK INTER + INTRA:          -5.890
REMARK INTER:                  -5.219
REMARK INTRA:                  -0.671
REMARK UNBOUND:                -1.319
REMARK SMILES CC(C)=CCC[C@H](C)c1ccc(C)cc1
REMARK SMILES IDX 6 1 7 2 8 3 9 4 13 5 12 6 11 7 14 8 10 9 15 10 5 11 4 12
REMARK SMILES IDX 2 13 1 14 3 15
REMARK H PARENT
REMARK Flexibility Score: inf
ROOT
ATOM      1  C   UNL     1       2.490   5.169   8.125  1.00  0.00     0.012 C 
ENDROOT
BRANCH   1   2
ATOM      2  C   UNL     1       3.719   5.517   8.993  1.00  0.00     0.016 C 
ATOM      3  C   UNL     1       4.402   6.792   8.484  1.00  0.00     0.013 C 
BRANCH   2   4
ATOM      4  C   UNL     1       4.712   4.368   9.060  1.00  0.00    -0.045 A 
ATOM      5  C   UNL     1       7.505   1.082   9.278  1.00  0.00     0.044 C 
ATOM      6  C   UNL     1       6.520   2.207   9.181  1.00  0.00    -0.051 A 
ATOM      7  C   UNL     1       5.414   2.254  10.041  1.00  0.00     0.004 A 
ATOM      8  C   UNL     1       6.733   3.258   8.278  1.00  0.00     0.004 A 
ATOM      9  C   UNL     1       4.514   3.321   9.977  1.00  0.00     0.004 A 
ATOM     10  C   UNL     1       5.834   4.326   8.212  1.00  0.00     0.004 A 
ENDBRANCH   2   4
ENDBRANCH   1   2
BRANCH   1  11
ATOM     11  C   UNL     1       1.724   6.423   7.678  1.00  0.00     0.028 C 
BRANCH  11  12
ATOM     12  C   UNL     1       0.303   6.387   8.182  1.00  0.00    -0.028 C 
ATOM     13  C   UNL     1      -0.101   6.896   9.367  1.00  0.00    -0.080 C 
ATOM     14  C   UNL     1       0.870   7.514  10.345  1.00  0.00     0.039 C 
ATOM     15  C   UNL     1      -1.564   6.823   9.719  1.00  0.00     0.039 C 
ENDBRANCH  11  12
ENDBRANCH   1  11
TORSDOF 4
ENDMDL
