MODEL 1
REMARK VINA RESULT:    -4.234      0.000      0.000
REMARK INTER + INTRA:         -11.921
REMARK INTER:                  -9.184
REMARK INTRA:                  -2.737
REMARK UNBOUND:                -2.737
REMARK SMILES CCCCCCCCCCCCCCCCCCCCCC(=O)[O-]
REMARK SMILES IDX 12 1 11 2 10 3 9 4 8 5 7 6 6 7 5 8 4 9 3 10 2 11 1 12 13 13
REMARK SMILES IDX 14 14 15 15 16 16 17 17 18 18 19 19 20 20 21 21 22 22 23 23
REMARK SMILES IDX 24 24
REMARK H PARENT
REMARK Flexibility Score: inf
ROOT
ATOM      1  C   UNL     1      11.109 -30.175 -28.000  1.00  0.00     0.000 C 
ENDROOT
BRANCH   1   2
ATOM      2  C   UNL     1       9.635 -30.423 -27.640  1.00  0.00     0.000 C 
BRANCH   2   3
ATOM      3  C   UNL     1       8.751 -30.661 -28.878  1.00  0.00     0.000 C 
BRANCH   3   4
ATOM      4  C   UNL     1       8.403 -29.397 -29.692  1.00  0.00    -0.000 C 
BRANCH   4   5
ATOM      5  C   UNL     1       8.374 -28.083 -28.891  1.00  0.00    -0.000 C 
BRANCH   5   6
ATOM      6  C   UNL     1       9.302 -27.006 -29.475  1.00  0.00    -0.000 C 
BRANCH   6   7
ATOM      7  C   UNL     1      10.211 -27.548 -30.593  1.00  0.00    -0.000 C 
BRANCH   7   8
ATOM      8  C   UNL     1      10.917 -26.442 -31.408  1.00  0.00    -0.000 C 
BRANCH   8   9
ATOM      9  C   UNL     1      10.599 -25.035 -30.870  1.00  0.00    -0.000 C 
BRANCH   9  10
ATOM     10  C   UNL     1      11.610 -23.977 -31.361  1.00  0.00    -0.000 C 
BRANCH  10  11
ATOM     11  C   UNL     1      11.690 -22.734 -30.460  1.00  0.00    -0.003 C 
ATOM     12  C   UNL     1      11.208 -21.461 -31.153  1.00  0.00     0.004 C 
ENDBRANCH  10  11
ENDBRANCH   9  10
ENDBRANCH   8   9
ENDBRANCH   7   8
ENDBRANCH   6   7
ENDBRANCH   5   6
ENDBRANCH   4   5
ENDBRANCH   3   4
ENDBRANCH   2   3
ENDBRANCH   1   2
BRANCH   1  13
ATOM     13  C   UNL     1      11.740 -29.034 -27.182  1.00  0.00     0.000 C 
BRANCH  13  14
ATOM     14  C   UNL     1      12.539 -28.001 -28.002  1.00  0.00     0.000 C 
BRANCH  14  15
ATOM     15  C   UNL     1      12.904 -26.706 -27.249  1.00  0.00     0.000 C 
BRANCH  15  16
ATOM     16  C   UNL     1      11.929 -25.534 -27.462  1.00  0.00     0.000 C 
BRANCH  16  17
ATOM     17  C   UNL     1      11.199 -25.125 -26.174  1.00  0.00     0.000 C 
BRANCH  17  18
ATOM     18  C   UNL     1      10.012 -26.059 -25.896  1.00  0.00     0.000 C 
BRANCH  18  19
ATOM     19  C   UNL     1       9.073 -25.519 -24.804  1.00  0.00     0.000 C 
BRANCH  19  20
ATOM     20  C   UNL     1       9.837 -24.905 -23.617  1.00  0.00     0.006 C 
BRANCH  20  21
ATOM     21  C   UNL     1       9.256 -23.548 -23.197  1.00  0.00     0.053 C 
BRANCH  21  22
ATOM     22  C   UNL     1       9.367 -23.329 -21.719  1.00  0.00     0.041 C 
ATOM     23  O   UNL     1       9.139 -24.274 -20.918  1.00  0.00    -0.550 OA
ATOM     24  O   UNL     1       9.751 -22.088 -21.228  1.00  0.00    -0.550 OA
ENDBRANCH  21  22
ENDBRANCH  20  21
ENDBRANCH  19  20
ENDBRANCH  18  19
ENDBRANCH  17  18
ENDBRANCH  16  17
ENDBRANCH  15  16
ENDBRANCH  14  15
ENDBRANCH  13  14
ENDBRANCH   1  13
TORSDOF 20
ENDMDL
MODEL 2
REMARK VINA RESULT:    -4.187      3.106      6.828
REMARK INTER + INTRA:         -11.820
REMARK INTER:                  -8.176
REMARK INTRA:                  -3.644
REMARK UNBOUND:                -2.737
REMARK SMILES CCCCCCCCCCCCCCCCCCCCCC(=O)[O-]
REMARK SMILES IDX 12 1 11 2 10 3 9 4 8 5 7 6 6 7 5 8 4 9 3 10 2 11 1 12 13 13
REMARK SMILES IDX 14 14 15 15 16 16 17 17 18 18 19 19 20 20 21 21 22 22 23 23
REMARK SMILES IDX 24 24
REMARK H PARENT
REMARK Flexibility Score: inf
ROOT
ATOM      1  C   UNL     1      10.793 -29.376 -28.114  1.00  0.00     0.000 C 
ENDROOT
BRANCH   1   2
ATOM      2  C   UNL     1      11.439 -29.340 -26.719  1.00  0.00     0.000 C 
BRANCH   2   3
ATOM      3  C   UNL     1      12.695 -28.452 -26.667  1.00  0.00     0.000 C 
BRANCH   3   4
ATOM      4  C   UNL     1      12.562 -27.078 -27.357  1.00  0.00    -0.000 C 
BRANCH   4   5
ATOM      5  C   UNL     1      12.127 -25.919 -26.442  1.00  0.00    -0.000 C 
BRANCH   5   6
ATOM      6  C   UNL     1      10.676 -25.477 -26.686  1.00  0.00    -0.000 C 
BRANCH   6   7
ATOM      7  C   UNL     1       9.698 -26.045 -25.642  1.00  0.00    -0.000 C 
BRANCH   7   8
ATOM      8  C   UNL     1       9.533 -25.147 -24.395  1.00  0.00    -0.000 C 
BRANCH   8   9
ATOM      9  C   UNL     1      10.008 -25.849 -23.111  1.00  0.00    -0.000 C 
BRANCH   9  10
ATOM     10  C   UNL     1      11.471 -25.503 -22.761  1.00  0.00    -0.000 C 
BRANCH  10  11
ATOM     11  C   UNL     1      12.438 -26.692 -22.899  1.00  0.00    -0.003 C 
ATOM     12  C   UNL     1      11.722 -28.021 -23.129  1.00  0.00     0.004 C 
ENDBRANCH  10  11
ENDBRANCH   9  10
ENDBRANCH   8   9
ENDBRANCH   7   8
ENDBRANCH   6   7
ENDBRANCH   5   6
ENDBRANCH   4   5
ENDBRANCH   3   4
ENDBRANCH   2   3
ENDBRANCH   1   2
BRANCH   1  13
ATOM     13  C   UNL     1       9.356 -28.824 -28.122  1.00  0.00     0.000 C 
BRANCH  13  14
ATOM     14  C   UNL     1       9.073 -27.746 -29.189  1.00  0.00     0.000 C 
BRANCH  14  15
ATOM     15  C   UNL     1      10.141 -27.620 -30.293  1.00  0.00     0.000 C 
BRANCH  15  16
ATOM     16  C   UNL     1      10.810 -26.237 -30.395  1.00  0.00     0.000 C 
BRANCH  16  17
ATOM     17  C   UNL     1       9.854 -25.086 -30.050  1.00  0.00     0.000 C 
BRANCH  17  18
ATOM     18  C   UNL     1       9.356 -24.386 -31.324  1.00  0.00     0.000 C 
BRANCH  18  19
ATOM     19  C   UNL     1      10.340 -24.518 -32.498  1.00  0.00     0.000 C 
BRANCH  19  20
ATOM     20  C   UNL     1      11.076 -23.202 -32.804  1.00  0.00     0.006 C 
BRANCH  20  21
ATOM     21  C   UNL     1      12.496 -23.186 -32.222  1.00  0.00     0.053 C 
BRANCH  21  22
ATOM     22  C   UNL     1      12.524 -22.609 -30.839  1.00  0.00     0.041 C 
ATOM     23  O   UNL     1      12.997 -23.276 -29.882  1.00  0.00    -0.550 OA
ATOM     24  O   UNL     1      12.052 -21.322 -30.615  1.00  0.00    -0.550 OA
ENDBRANCH  21  22
ENDBRANCH  20  21
ENDBRANCH  19  20
ENDBRANCH  18  19
ENDBRANCH  17  18
ENDBRANCH  16  17
ENDBRANCH  15  16
ENDBRANCH  14  15
ENDBRANCH  13  14
ENDBRANCH   1  13
TORSDOF 20
ENDMDL
MODEL 3
REMARK VINA RESULT:    -4.011      4.862      6.592
REMARK INTER + INTRA:         -11.438
REMARK INTER:                  -8.733
REMARK INTRA:                  -2.704
REMARK UNBOUND:                -2.737
REMARK SMILES CCCCCCCCCCCCCCCCCCCCCC(=O)[O-]
REMARK SMILES IDX 12 1 11 2 10 3 9 4 8 5 7 6 6 7 5 8 4 9 3 10 2 11 1 12 13 13
REMARK SMILES IDX 14 14 15 15 16 16 17 17 18 18 19 19 20 20 21 21 22 22 23 23
REMARK SMILES IDX 24 24
REMARK H PARENT
REMARK Flexibility Score: inf
ROOT
ATOM      1  C   UNL     1      11.672 -26.128 -26.051  1.00  0.00     0.000 C 
ENDROOT
BRANCH   1   2
ATOM      2  C   UNL     1      10.302 -25.491 -26.336  1.00  0.00     0.000 C 
BRANCH   2   3
ATOM      3  C   UNL     1       9.136 -26.481 -26.162  1.00  0.00     0.000 C 
BRANCH   3   4
ATOM      4  C   UNL     1       9.168 -27.709 -27.096  1.00  0.00    -0.000 C 
BRANCH   4   5
ATOM      5  C   UNL     1       8.501 -27.511 -28.469  1.00  0.00    -0.000 C 
BRANCH   5   6
ATOM      6  C   UNL     1       9.371 -28.011 -29.633  1.00  0.00    -0.000 C 
BRANCH   6   7
ATOM      7  C   UNL     1      10.256 -26.904 -30.232  1.00  0.00    -0.000 C 
BRANCH   7   8
ATOM      8  C   UNL     1       9.657 -25.487 -30.088  1.00  0.00    -0.000 C 
BRANCH   8   9
ATOM      9  C   UNL     1      10.746 -24.413 -29.916  1.00  0.00    -0.000 C 
BRANCH   9  10
ATOM     10  C   UNL     1      10.762 -23.403 -31.083  1.00  0.00    -0.000 C 
BRANCH  10  11
ATOM     11  C   UNL     1      11.679 -23.817 -32.247  1.00  0.00    -0.003 C 
ATOM     12  C   UNL     1      11.292 -23.168 -33.574  1.00  0.00     0.004 C 
ENDBRANCH  10  11
ENDBRANCH   9  10
ENDBRANCH   8   9
ENDBRANCH   7   8
ENDBRANCH   6   7
ENDBRANCH   5   6
ENDBRANCH   4   5
ENDBRANCH   3   4
ENDBRANCH   2   3
ENDBRANCH   1   2
BRANCH   1  13
ATOM     13  C   UNL     1      12.525 -26.305 -27.320  1.00  0.00     0.000 C 
BRANCH  13  14
ATOM     14  C   UNL     1      12.900 -27.762 -27.661  1.00  0.00     0.000 C 
BRANCH  14  15
ATOM     15  C   UNL     1      13.311 -28.632 -26.456  1.00  0.00     0.000 C 
BRANCH  15  16
ATOM     16  C   UNL     1      14.829 -28.769 -26.242  1.00  0.00     0.000 C 
BRANCH  16  17
ATOM     17  C   UNL     1      15.396 -27.698 -25.298  1.00  0.00     0.000 C 
BRANCH  17  18
ATOM     18  C   UNL     1      16.389 -26.786 -26.037  1.00  0.00     0.000 C 
BRANCH  18  19
ATOM     19  C   UNL     1      16.889 -27.398 -27.356  1.00  0.00     0.000 C 
BRANCH  19  20
ATOM     20  C   UNL     1      18.423 -27.499 -27.417  1.00  0.00     0.006 C 
BRANCH  20  21
ATOM     21  C   UNL     1      19.072 -26.179 -27.852  1.00  0.00     0.053 C 
BRANCH  21  22
ATOM     22  C   UNL     1      19.326 -26.144 -29.329  1.00  0.00     0.041 C 
ATOM     23  O   UNL     1      18.405 -25.819 -30.125  1.00  0.00    -0.550 OA
ATOM     24  O   UNL     1      20.589 -26.443 -29.824  1.00  0.00    -0.550 OA
ENDBRANCH  21  22
ENDBRANCH  20  21
ENDBRANCH  19  20
ENDBRANCH  18  19
ENDBRANCH  17  18
ENDBRANCH  16  17
ENDBRANCH  15  16
ENDBRANCH  14  15
ENDBRANCH  13  14
ENDBRANCH   1  13
TORSDOF 20
ENDMDL
MODEL 4
REMARK VINA RESULT:    -3.991      3.129      4.620
REMARK INTER + INTRA:         -11.395
REMARK INTER:                  -8.190
REMARK INTRA:                  -3.204
REMARK UNBOUND:                -2.737
REMARK SMILES CCCCCCCCCCCCCCCCCCCCCC(=O)[O-]
REMARK SMILES IDX 12 1 11 2 10 3 9 4 8 5 7 6 6 7 5 8 4 9 3 10 2 11 1 12 13 13
REMARK SMILES IDX 14 14 15 15 16 16 17 17 18 18 19 19 20 20 21 21 22 22 23 23
REMARK SMILES IDX 24 24
REMARK H PARENT
REMARK Flexibility Score: inf
ROOT
ATOM      1  C   UNL     1       8.383 -27.998 -28.747  1.00  0.00     0.000 C 
ENDROOT
BRANCH   1   2
ATOM      2  C   UNL     1       9.862 -28.158 -29.134  1.00  0.00     0.000 C 
BRANCH   2   3
ATOM      3  C   UNL     1      10.182 -27.579 -30.524  1.00  0.00     0.000 C 
BRANCH   3   4
ATOM      4  C   UNL     1      10.984 -26.261 -30.521  1.00  0.00    -0.000 C 
BRANCH   4   5
ATOM      5  C   UNL     1      10.209 -25.018 -30.045  1.00  0.00    -0.000 C 
BRANCH   5   6
ATOM      6  C   UNL     1       9.454 -24.313 -31.184  1.00  0.00    -0.000 C 
BRANCH   6   7
ATOM      7  C   UNL     1      10.047 -24.623 -32.570  1.00  0.00    -0.000 C 
BRANCH   7   8
ATOM      8  C   UNL     1      11.405 -23.933 -32.831  1.00  0.00    -0.000 C 
BRANCH   8   9
ATOM      9  C   UNL     1      11.272 -22.400 -32.891  1.00  0.00    -0.000 C 
BRANCH   9  10
ATOM     10  C   UNL     1      12.387 -21.685 -32.099  1.00  0.00    -0.000 C 
BRANCH  10  11
ATOM     11  C   UNL     1      12.290 -21.885 -30.577  1.00  0.00    -0.003 C 
ATOM     12  C   UNL     1      13.333 -22.860 -30.034  1.00  0.00     0.004 C 
ENDBRANCH  10  11
ENDBRANCH   9  10
ENDBRANCH   8   9
ENDBRANCH   7   8
ENDBRANCH   6   7
ENDBRANCH   5   6
ENDBRANCH   4   5
ENDBRANCH   3   4
ENDBRANCH   2   3
ENDBRANCH   1   2
BRANCH   1  13
ATOM     13  C   UNL     1       8.193 -27.352 -27.363  1.00  0.00     0.000 C 
BRANCH  13  14
ATOM     14  C   UNL     1       9.482 -27.187 -26.533  1.00  0.00     0.000 C 
BRANCH  14  15
ATOM     15  C   UNL     1       9.564 -25.892 -25.699  1.00  0.00     0.000 C 
BRANCH  15  16
ATOM     16  C   UNL     1      10.957 -25.238 -25.649  1.00  0.00     0.000 C 
BRANCH  16  17
ATOM     17  C   UNL     1      11.751 -25.427 -26.950  1.00  0.00     0.000 C 
BRANCH  17  18
ATOM     18  C   UNL     1      13.023 -26.253 -26.701  1.00  0.00     0.000 C 
BRANCH  18  19
ATOM     19  C   UNL     1      13.091 -27.517 -27.574  1.00  0.00     0.000 C 
BRANCH  19  20
ATOM     20  C   UNL     1      12.762 -28.798 -26.788  1.00  0.00     0.006 C 
BRANCH  20  21
ATOM     21  C   UNL     1      12.908 -28.600 -25.274  1.00  0.00     0.053 C 
BRANCH  21  22
ATOM     22  C   UNL     1      14.158 -29.239 -24.748  1.00  0.00     0.041 C 
ATOM     23  O   UNL     1      14.117 -30.390 -24.237  1.00  0.00    -0.550 OA
ATOM     24  O   UNL     1      15.373 -28.573 -24.847  1.00  0.00    -0.550 OA
ENDBRANCH  21  22
ENDBRANCH  20  21
ENDBRANCH  19  20
ENDBRANCH  18  19
ENDBRANCH  17  18
ENDBRANCH  16  17
ENDBRANCH  15  16
ENDBRANCH  14  15
ENDBRANCH  13  14
ENDBRANCH   1  13
TORSDOF 20
ENDMDL
MODEL 5
REMARK VINA RESULT:    -3.988      3.055      6.389
REMARK INTER + INTRA:         -11.388
REMARK INTER:                  -8.222
REMARK INTRA:                  -3.166
REMARK UNBOUND:                -2.737
REMARK SMILES CCCCCCCCCCCCCCCCCCCCCC(=O)[O-]
REMARK SMILES IDX 12 1 11 2 10 3 9 4 8 5 7 6 6 7 5 8 4 9 3 10 2 11 1 12 13 13
REMARK SMILES IDX 14 14 15 15 16 16 17 17 18 18 19 19 20 20 21 21 22 22 23 23
REMARK SMILES IDX 24 24
REMARK H PARENT
REMARK Flexibility Score: inf
ROOT
ATOM      1  C   UNL     1      11.885 -29.574 -27.066  1.00  0.00     0.000 C 
ENDROOT
BRANCH   1   2
ATOM      2  C   UNL     1      12.178 -28.208 -27.707  1.00  0.00     0.000 C 
BRANCH   2   3
ATOM      3  C   UNL     1      11.840 -27.028 -26.777  1.00  0.00     0.000 C 
BRANCH   3   4
ATOM      4  C   UNL     1      10.805 -27.334 -25.673  1.00  0.00    -0.000 C 
BRANCH   4   5
ATOM      5  C   UNL     1       9.502 -26.517 -25.747  1.00  0.00    -0.000 C 
BRANCH   5   6
ATOM      6  C   UNL     1       9.474 -25.346 -24.752  1.00  0.00    -0.000 C 
BRANCH   6   7
ATOM      7  C   UNL     1       9.940 -25.753 -23.343  1.00  0.00    -0.000 C 
BRANCH   7   8
ATOM      8  C   UNL     1      11.011 -24.811 -22.749  1.00  0.00    -0.000 C 
BRANCH   8   9
ATOM      9  C   UNL     1      11.745 -24.010 -23.840  1.00  0.00    -0.000 C 
BRANCH   9  10
ATOM     10  C   UNL     1      13.097 -24.648 -24.224  1.00  0.00    -0.000 C 
BRANCH  10  11
ATOM     11  C   UNL     1      13.906 -23.819 -25.236  1.00  0.00    -0.003 C 
ATOM     12  C   UNL     1      14.695 -22.685 -24.585  1.00  0.00     0.004 C 
ENDBRANCH  10  11
ENDBRANCH   9  10
ENDBRANCH   8   9
ENDBRANCH   7   8
ENDBRANCH   6   7
ENDBRANCH   5   6
ENDBRANCH   4   5
ENDBRANCH   3   4
ENDBRANCH   2   3
ENDBRANCH   1   2
BRANCH   1  13
ATOM     13  C   UNL     1      11.110 -30.520 -28.001  1.00  0.00     0.000 C 
BRANCH  13  14
ATOM     14  C   UNL     1       9.580 -30.527 -27.808  1.00  0.00     0.000 C 
BRANCH  14  15
ATOM     15  C   UNL     1       8.756 -30.664 -29.104  1.00  0.00     0.000 C 
BRANCH  15  16
ATOM     16  C   UNL     1       8.308 -29.332 -29.733  1.00  0.00     0.000 C 
BRANCH  16  17
ATOM     17  C   UNL     1       8.409 -28.149 -28.758  1.00  0.00     0.000 C 
BRANCH  17  18
ATOM     18  C   UNL     1       9.156 -26.971 -29.402  1.00  0.00     0.000 C 
BRANCH  18  19
ATOM     19  C   UNL     1      10.174 -27.421 -30.463  1.00  0.00     0.000 C 
BRANCH  19  20
ATOM     20  C   UNL     1      10.698 -26.251 -31.315  1.00  0.00     0.006 C 
BRANCH  20  21
ATOM     21  C   UNL     1      10.062 -24.914 -30.913  1.00  0.00     0.053 C 
BRANCH  21  22
ATOM     22  C   UNL     1      11.081 -23.948 -30.389  1.00  0.00     0.041 C 
ATOM     23  O   UNL     1      11.090 -22.754 -30.790  1.00  0.00    -0.550 OA
ATOM     24  O   UNL     1      12.003 -24.361 -29.436  1.00  0.00    -0.550 OA
ENDBRANCH  21  22
ENDBRANCH  20  21
ENDBRANCH  19  20
ENDBRANCH  18  19
ENDBRANCH  17  18
ENDBRANCH  16  17
ENDBRANCH  15  16
ENDBRANCH  14  15
ENDBRANCH  13  14
ENDBRANCH   1  13
TORSDOF 20
ENDMDL
MODEL 6
REMARK VINA RESULT:    -3.963      4.672      7.473
REMARK INTER + INTRA:         -11.334
REMARK INTER:                  -8.926
REMARK INTRA:                  -2.408
REMARK UNBOUND:                -2.737
REMARK SMILES CCCCCCCCCCCCCCCCCCCCCC(=O)[O-]
REMARK SMILES IDX 12 1 11 2 10 3 9 4 8 5 7 6 6 7 5 8 4 9 3 10 2 11 1 12 13 13
REMARK SMILES IDX 14 14 15 15 16 16 17 17 18 18 19 19 20 20 21 21 22 22 23 23
REMARK SMILES IDX 24 24
REMARK H PARENT
REMARK Flexibility Score: inf
ROOT
ATOM      1  C   UNL     1      10.611 -25.449 -26.813  1.00  0.00     0.000 C 
ENDROOT
BRANCH   1   2
ATOM      2  C   UNL     1      12.073 -25.777 -27.161  1.00  0.00     0.000 C 
BRANCH   2   3
ATOM      3  C   UNL     1      12.536 -27.126 -26.583  1.00  0.00     0.000 C 
BRANCH   3   4
ATOM      4  C   UNL     1      13.769 -27.750 -27.269  1.00  0.00    -0.000 C 
BRANCH   4   5
ATOM      5  C   UNL     1      15.072 -27.705 -26.450  1.00  0.00    -0.000 C 
BRANCH   5   6
ATOM      6  C   UNL     1      16.321 -27.997 -27.298  1.00  0.00    -0.000 C 
BRANCH   6   7
ATOM      7  C   UNL     1      17.588 -28.182 -26.445  1.00  0.00    -0.000 C 
BRANCH   7   8
ATOM      8  C   UNL     1      18.836 -27.483 -27.029  1.00  0.00    -0.000 C 
BRANCH   8   9
ATOM      9  C   UNL     1      18.489 -26.133 -27.682  1.00  0.00    -0.000 C 
BRANCH   9  10
ATOM     10  C   UNL     1      19.032 -26.023 -29.123  1.00  0.00    -0.000 C 
BRANCH  10  11
ATOM     11  C   UNL     1      20.393 -26.710 -29.325  1.00  0.00    -0.003 C 
ATOM     12  C   UNL     1      21.565 -25.881 -28.804  1.00  0.00     0.004 C 
ENDBRANCH  10  11
ENDBRANCH   9  10
ENDBRANCH   8   9
ENDBRANCH   7   8
ENDBRANCH   6   7
ENDBRANCH   5   6
ENDBRANCH   4   5
ENDBRANCH   3   4
ENDBRANCH   2   3
ENDBRANCH   1   2
BRANCH   1  13
ATOM     13  C   UNL     1       9.920 -26.572 -26.020  1.00  0.00     0.000 C 
BRANCH  13  14
ATOM     14  C   UNL     1       8.502 -26.941 -26.503  1.00  0.00     0.000 C 
BRANCH  14  15
ATOM     15  C   UNL     1       8.410 -27.408 -27.970  1.00  0.00     0.000 C 
BRANCH  15  16
ATOM     16  C   UNL     1       9.250 -28.652 -28.309  1.00  0.00     0.000 C 
BRANCH  16  17
ATOM     17  C   UNL     1      10.392 -28.351 -29.292  1.00  0.00     0.000 C 
BRANCH  17  18
ATOM     18  C   UNL     1       9.933 -27.369 -30.380  1.00  0.00     0.000 C 
BRANCH  18  19
ATOM     19  C   UNL     1      10.943 -26.235 -30.621  1.00  0.00     0.000 C 
BRANCH  19  20
ATOM     20  C   UNL     1      10.321 -24.839 -30.437  1.00  0.00     0.006 C 
BRANCH  20  21
ATOM     21  C   UNL     1      10.815 -23.843 -31.494  1.00  0.00     0.053 C 
BRANCH  21  22
ATOM     22  C   UNL     1      12.221 -23.398 -31.225  1.00  0.00     0.041 C 
ATOM     23  O   UNL     1      12.948 -22.987 -32.168  1.00  0.00    -0.550 OA
ATOM     24  O   UNL     1      12.717 -23.412 -29.928  1.00  0.00    -0.550 OA
ENDBRANCH  21  22
ENDBRANCH  20  21
ENDBRANCH  19  20
ENDBRANCH  18  19
ENDBRANCH  17  18
ENDBRANCH  16  17
ENDBRANCH  15  16
ENDBRANCH  14  15
ENDBRANCH  13  14
ENDBRANCH   1  13
TORSDOF 20
ENDMDL
MODEL 7
REMARK VINA RESULT:    -3.955      4.301      7.286
REMARK INTER + INTRA:         -11.316
REMARK INTER:                  -8.163
REMARK INTRA:                  -3.153
REMARK UNBOUND:                -2.737
REMARK SMILES CCCCCCCCCCCCCCCCCCCCCC(=O)[O-]
REMARK SMILES IDX 12 1 11 2 10 3 9 4 8 5 7 6 6 7 5 8 4 9 3 10 2 11 1 12 13 13
REMARK SMILES IDX 14 14 15 15 16 16 17 17 18 18 19 19 20 20 21 21 22 22 23 23
REMARK SMILES IDX 24 24
REMARK H PARENT
REMARK Flexibility Score: inf
ROOT
ATOM      1  C   UNL     1       8.750 -26.859 -28.704  1.00  0.00     0.000 C 
ENDROOT
BRANCH   1   2
ATOM      2  C   UNL     1       8.375 -27.389 -27.310  1.00  0.00     0.000 C 
BRANCH   2   3
ATOM      3  C   UNL     1       9.077 -26.624 -26.173  1.00  0.00     0.000 C 
BRANCH   3   4
ATOM      4  C   UNL     1      10.617 -26.730 -26.159  1.00  0.00    -0.000 C 
BRANCH   4   5
ATOM      5  C   UNL     1      11.369 -25.467 -26.615  1.00  0.00    -0.000 C 
BRANCH   5   6
ATOM      6  C   UNL     1      12.663 -25.785 -27.381  1.00  0.00    -0.000 C 
BRANCH   6   7
ATOM      7  C   UNL     1      12.917 -27.297 -27.514  1.00  0.00    -0.000 C 
BRANCH   7   8
ATOM      8  C   UNL     1      14.277 -27.750 -26.938  1.00  0.00    -0.000 C 
BRANCH   8   9
ATOM      9  C   UNL     1      14.157 -29.052 -26.126  1.00  0.00    -0.000 C 
BRANCH   9  10
ATOM     10  C   UNL     1      13.317 -28.867 -24.844  1.00  0.00    -0.000 C 
BRANCH  10  11
ATOM     11  C   UNL     1      12.123 -29.832 -24.742  1.00  0.00    -0.003 C 
ATOM     12  C   UNL     1      11.757 -30.472 -26.079  1.00  0.00     0.004 C 
ENDBRANCH  10  11
ENDBRANCH   9  10
ENDBRANCH   8   9
ENDBRANCH   7   8
ENDBRANCH   6   7
ENDBRANCH   5   6
ENDBRANCH   4   5
ENDBRANCH   3   4
ENDBRANCH   2   3
ENDBRANCH   1   2
BRANCH   1  13
ATOM     13  C   UNL     1       9.513 -27.894 -29.551  1.00  0.00     0.000 C 
BRANCH  13  14
ATOM     14  C   UNL     1      10.787 -27.366 -30.242  1.00  0.00     0.000 C 
BRANCH  14  15
ATOM     15  C   UNL     1      10.625 -27.012 -31.734  1.00  0.00     0.000 C 
BRANCH  15  16
ATOM     16  C   UNL     1      10.837 -25.527 -32.076  1.00  0.00     0.000 C 
BRANCH  16  17
ATOM     17  C   UNL     1       9.800 -24.608 -31.413  1.00  0.00     0.000 C 
BRANCH  17  18
ATOM     18  C   UNL     1      10.427 -23.823 -30.251  1.00  0.00     0.000 C 
BRANCH  18  19
ATOM     19  C   UNL     1      11.954 -23.693 -30.377  1.00  0.00     0.000 C 
BRANCH  19  20
ATOM     20  C   UNL     1      12.406 -22.243 -30.626  1.00  0.00     0.006 C 
BRANCH  20  21
ATOM     21  C   UNL     1      11.750 -21.640 -31.874  1.00  0.00     0.053 C 
BRANCH  21  22
ATOM     22  C   UNL     1      12.527 -21.952 -33.117  1.00  0.00     0.041 C 
ATOM     23  O   UNL     1      12.125 -22.844 -33.910  1.00  0.00    -0.550 OA
ATOM     24  O   UNL     1      13.680 -21.237 -33.413  1.00  0.00    -0.550 OA
ENDBRANCH  21  22
ENDBRANCH  20  21
ENDBRANCH  19  20
ENDBRANCH  18  19
ENDBRANCH  17  18
ENDBRANCH  16  17
ENDBRANCH  15  16
ENDBRANCH  14  15
ENDBRANCH  13  14
ENDBRANCH   1  13
TORSDOF 20
ENDMDL
MODEL 8
REMARK VINA RESULT:    -3.930      3.074      5.305
REMARK INTER + INTRA:         -11.263
REMARK INTER:                  -8.118
REMARK INTRA:                  -3.145
REMARK UNBOUND:                -2.737
REMARK SMILES CCCCCCCCCCCCCCCCCCCCCC(=O)[O-]
REMARK SMILES IDX 12 1 11 2 10 3 9 4 8 5 7 6 6 7 5 8 4 9 3 10 2 11 1 12 13 13
REMARK SMILES IDX 14 14 15 15 16 16 17 17 18 18 19 19 20 20 21 21 22 22 23 23
REMARK SMILES IDX 24 24
REMARK H PARENT
REMARK Flexibility Score: inf
ROOT
ATOM      1  C   UNL     1      11.098 -25.759 -30.320  1.00  0.00     0.000 C 
ENDROOT
BRANCH   1   2
ATOM      2  C   UNL     1       9.932 -24.756 -30.327  1.00  0.00     0.000 C 
BRANCH   2   3
ATOM      3  C   UNL     1       9.575 -24.267 -31.743  1.00  0.00     0.000 C 
BRANCH   3   4
ATOM      4  C   UNL     1      10.745 -24.249 -32.749  1.00  0.00    -0.000 C 
BRANCH   4   5
ATOM      5  C   UNL     1      10.603 -23.246 -33.908  1.00  0.00    -0.000 C 
BRANCH   5   6
ATOM      6  C   UNL     1      11.941 -22.611 -34.317  1.00  0.00    -0.000 C 
BRANCH   6   7
ATOM      7  C   UNL     1      13.145 -23.256 -33.609  1.00  0.00    -0.000 C 
BRANCH   7   8
ATOM      8  C   UNL     1      14.150 -22.230 -33.037  1.00  0.00    -0.000 C 
BRANCH   8   9
ATOM      9  C   UNL     1      14.273 -22.333 -31.506  1.00  0.00    -0.000 C 
BRANCH   9  10
ATOM     10  C   UNL     1      12.916 -22.143 -30.795  1.00  0.00    -0.000 C 
BRANCH  10  11
ATOM     11  C   UNL     1      12.352 -20.717 -30.909  1.00  0.00    -0.003 C 
ATOM     12  C   UNL     1      10.841 -20.688 -31.129  1.00  0.00     0.004 C 
ENDBRANCH  10  11
ENDBRANCH   9  10
ENDBRANCH   8   9
ENDBRANCH   7   8
ENDBRANCH   6   7
ENDBRANCH   5   6
ENDBRANCH   4   5
ENDBRANCH   3   4
ENDBRANCH   2   3
ENDBRANCH   1   2
BRANCH   1  13
ATOM     13  C   UNL     1      10.650 -27.199 -30.626  1.00  0.00     0.000 C 
BRANCH  13  14
ATOM     14  C   UNL     1      10.605 -28.146 -29.409  1.00  0.00     0.000 C 
BRANCH  14  15
ATOM     15  C   UNL     1       9.201 -28.649 -29.020  1.00  0.00     0.000 C 
BRANCH  15  16
ATOM     16  C   UNL     1       8.229 -27.556 -28.539  1.00  0.00     0.000 C 
BRANCH  16  17
ATOM     17  C   UNL     1       8.258 -27.361 -27.016  1.00  0.00     0.000 C 
BRANCH  17  18
ATOM     18  C   UNL     1       9.322 -26.328 -26.615  1.00  0.00     0.000 C 
BRANCH  18  19
ATOM     19  C   UNL     1      10.258 -26.839 -25.507  1.00  0.00     0.000 C 
BRANCH  19  20
ATOM     20  C   UNL     1      11.552 -26.014 -25.398  1.00  0.00     0.006 C 
BRANCH  20  21
ATOM     21  C   UNL     1      12.186 -25.751 -26.769  1.00  0.00     0.053 C 
BRANCH  21  22
ATOM     22  C   UNL     1      13.484 -26.482 -26.932  1.00  0.00     0.041 C 
ATOM     23  O   UNL     1      14.568 -25.936 -26.593  1.00  0.00    -0.550 OA
ATOM     24  O   UNL     1      13.493 -27.778 -27.432  1.00  0.00    -0.550 OA
ENDBRANCH  21  22
ENDBRANCH  20  21
ENDBRANCH  19  20
ENDBRANCH  18  19
ENDBRANCH  17  18
ENDBRANCH  16  17
ENDBRANCH  15  16
ENDBRANCH  14  15
ENDBRANCH  13  14
ENDBRANCH   1  13
TORSDOF 20
ENDMDL
MODEL 9
REMARK VINA RESULT:    -3.926      3.089      5.927
REMARK INTER + INTRA:         -11.254
REMARK INTER:                  -8.372
REMARK INTRA:                  -2.882
REMARK UNBOUND:                -2.737
REMARK SMILES CCCCCCCCCCCCCCCCCCCCCC(=O)[O-]
REMARK SMILES IDX 12 1 11 2 10 3 9 4 8 5 7 6 6 7 5 8 4 9 3 10 2 11 1 12 13 13
REMARK SMILES IDX 14 14 15 15 16 16 17 17 18 18 19 19 20 20 21 21 22 22 23 23
REMARK SMILES IDX 24 24
REMARK H PARENT
REMARK Flexibility Score: inf
ROOT
ATOM      1  C   UNL     1      10.698 -26.919 -31.283  1.00  0.00     0.000 C 
ENDROOT
BRANCH   1   2
ATOM      2  C   UNL     1      11.004 -25.491 -31.765  1.00  0.00     0.000 C 
BRANCH   2   3
ATOM      3  C   UNL     1      11.621 -24.610 -30.664  1.00  0.00     0.000 C 
BRANCH   3   4
ATOM      4  C   UNL     1      11.359 -23.096 -30.806  1.00  0.00    -0.000 C 
BRANCH   4   5
ATOM      5  C   UNL     1      12.565 -22.187 -30.506  1.00  0.00    -0.000 C 
BRANCH   5   6
ATOM      6  C   UNL     1      12.243 -20.693 -30.674  1.00  0.00    -0.000 C 
BRANCH   6   7
ATOM      7  C   UNL     1      10.910 -20.452 -31.405  1.00  0.00    -0.000 C 
BRANCH   7   8
ATOM      8  C   UNL     1      11.062 -19.664 -32.725  1.00  0.00    -0.000 C 
BRANCH   8   9
ATOM      9  C   UNL     1      10.871 -20.563 -33.960  1.00  0.00    -0.000 C 
BRANCH   9  10
ATOM     10  C   UNL     1      12.196 -21.200 -34.432  1.00  0.00    -0.000 C 
BRANCH  10  11
ATOM     11  C   UNL     1      12.190 -22.737 -34.396  1.00  0.00    -0.003 C 
ATOM     12  C   UNL     1      13.538 -23.331 -33.995  1.00  0.00     0.004 C 
ENDBRANCH  10  11
ENDBRANCH   9  10
ENDBRANCH   8   9
ENDBRANCH   7   8
ENDBRANCH   6   7
ENDBRANCH   5   6
ENDBRANCH   4   5
ENDBRANCH   3   4
ENDBRANCH   2   3
ENDBRANCH   1   2
BRANCH   1  13
ATOM     13  C   UNL     1       9.715 -26.954 -30.100  1.00  0.00     0.000 C 
BRANCH  13  14
ATOM     14  C   UNL     1       9.402 -28.359 -29.546  1.00  0.00     0.000 C 
BRANCH  14  15
ATOM     15  C   UNL     1       8.731 -28.383 -28.158  1.00  0.00     0.000 C 
BRANCH  15  16
ATOM     16  C   UNL     1       8.458 -26.998 -27.544  1.00  0.00     0.000 C 
BRANCH  16  17
ATOM     17  C   UNL     1       9.292 -26.730 -26.282  1.00  0.00     0.000 C 
BRANCH  17  18
ATOM     18  C   UNL     1      10.229 -25.531 -26.488  1.00  0.00     0.000 C 
BRANCH  18  19
ATOM     19  C   UNL     1      11.564 -25.925 -27.141  1.00  0.00     0.000 C 
BRANCH  19  20
ATOM     20  C   UNL     1      11.979 -27.371 -26.815  1.00  0.00     0.006 C 
BRANCH  20  21
ATOM     21  C   UNL     1      13.217 -27.808 -27.608  1.00  0.00     0.053 C 
BRANCH  21  22
ATOM     22  C   UNL     1      14.440 -27.866 -26.744  1.00  0.00     0.041 C 
ATOM     23  O   UNL     1      15.574 -27.611 -27.230  1.00  0.00    -0.550 OA
ATOM     24  O   UNL     1      14.323 -28.175 -25.395  1.00  0.00    -0.550 OA
ENDBRANCH  21  22
ENDBRANCH  20  21
ENDBRANCH  19  20
ENDBRANCH  18  19
ENDBRANCH  17  18
ENDBRANCH  16  17
ENDBRANCH  15  16
ENDBRANCH  14  15
ENDBRANCH  13  14
ENDBRANCH   1  13
TORSDOF 20
ENDMDL
