MODEL 1
REMARK VINA RESULT:    -4.476      0.000      0.000
REMARK INTER + INTRA:          -5.214
REMARK INTER:                  -5.131
REMARK INTRA:                  -0.083
REMARK UNBOUND:                -0.083
REMARK SMILES COc1cc(C(=O)[O-])ccc1O
REMARK SMILES IDX 5 1 9 2 4 3 10 4 3 5 11 6 6 7 7 8 8 9 2 10 1 11 12 12
REMARK H PARENT 12 13
REMARK Flexibility Score: inf
ROOT
ATOM      1  C   UNL     1      42.033   8.377  34.107  1.00  0.00     0.001 A 
ATOM      2  C   UNL     1      42.465   8.681  32.806  1.00  0.00     0.014 A 
ATOM      3  C   UNL     1      42.099   9.371  35.100  1.00  0.00     0.060 A 
ATOM      4  C   UNL     1      42.956   9.952  32.503  1.00  0.00     0.051 A 
ATOM      5  C   UNL     1      42.594  10.656  34.799  1.00  0.00     0.161 A 
ATOM      6  C   UNL     1      43.022  10.939  33.494  1.00  0.00     0.157 A 
ENDROOT
BRANCH   1   7
ATOM      7  C   UNL     1      41.511   7.030  34.432  1.00  0.00     0.072 C 
ATOM      8  O   UNL     1      40.894   6.826  35.512  1.00  0.00    -0.545 OA
ATOM      9  O   UNL     1      41.695   5.971  33.551  1.00  0.00    -0.545 OA
ENDBRANCH   1   7
BRANCH   5  10
ATOM     10  O   UNL     1      42.677  11.673  35.763  1.00  0.00    -0.493 OA
ATOM     11  C   UNL     1      41.897  11.720  36.954  1.00  0.00     0.278 C 
ENDBRANCH   5  10
BRANCH   6  12
ATOM     12  O   UNL     1      43.513  12.208  33.189  1.00  0.00    -0.504 OA
ATOM     13  H   UNL     1      43.009  13.048  33.446  1.00  0.00     0.293 HD
ENDBRANCH   6  12
TORSDOF 3
ENDMDL
MODEL 2
REMARK VINA RESULT:    -4.435      1.450      4.117
REMARK INTER + INTRA:          -5.166
REMARK INTER:                  -5.074
REMARK INTRA:                  -0.092
REMARK UNBOUND:                -0.083
REMARK SMILES COc1cc(C(=O)[O-])ccc1O
REMARK SMILES IDX 5 1 9 2 4 3 10 4 3 5 11 6 6 7 7 8 8 9 2 10 1 11 12 12
REMARK H PARENT 12 13
REMARK Flexibility Score: inf
ROOT
ATOM      1  C   UNL     1      42.812   9.782  33.862  1.00  0.00     0.001 A 
ATOM      2  C   UNL     1      42.654   8.694  32.988  1.00  0.00     0.014 A 
ATOM      3  C   UNL     1      42.353   9.668  35.186  1.00  0.00     0.060 A 
ATOM      4  C   UNL     1      42.049   7.515  33.428  1.00  0.00     0.051 A 
ATOM      5  C   UNL     1      41.741   8.480  35.635  1.00  0.00     0.161 A 
ATOM      6  C   UNL     1      41.592   7.405  34.747  1.00  0.00     0.157 A 
ENDROOT
BRANCH   1   7
ATOM      7  C   UNL     1      43.454  11.033  33.399  1.00  0.00     0.072 C 
ATOM      8  O   UNL     1      44.707  11.158  33.428  1.00  0.00    -0.545 OA
ATOM      9  O   UNL     1      42.682  12.087  32.924  1.00  0.00    -0.545 OA
ENDBRANCH   1   7
BRANCH   5  10
ATOM     10  O   UNL     1      41.270   8.329  36.949  1.00  0.00    -0.493 OA
ATOM     11  C   UNL     1      42.096   8.351  38.109  1.00  0.00     0.278 C 
ENDBRANCH   5  10
BRANCH   6  12
ATOM     12  O   UNL     1      40.988   6.228  35.185  1.00  0.00    -0.504 OA
ATOM     13  H   UNL     1      40.211   5.812  34.685  1.00  0.00     0.293 HD
ENDBRANCH   6  12
TORSDOF 3
ENDMDL
MODEL 3
REMARK VINA RESULT:    -4.288      1.751      2.622
REMARK INTER + INTRA:          -4.998
REMARK INTER:                  -4.896
REMARK INTRA:                  -0.102
REMARK UNBOUND:                -0.083
REMARK SMILES COc1cc(C(=O)[O-])ccc1O
REMARK SMILES IDX 5 1 9 2 4 3 10 4 3 5 11 6 6 7 7 8 8 9 2 10 1 11 12 12
REMARK H PARENT 12 13
REMARK Flexibility Score: inf
ROOT
ATOM      1  C   UNL     1      41.892   9.026  35.754  1.00  0.00     0.001 A 
ATOM      2  C   UNL     1      42.015   8.008  34.794  1.00  0.00     0.014 A 
ATOM      3  C   UNL     1      42.350  10.319  35.442  1.00  0.00     0.060 A 
ATOM      4  C   UNL     1      42.585   8.276  33.549  1.00  0.00     0.051 A 
ATOM      5  C   UNL     1      42.926  10.594  34.185  1.00  0.00     0.161 A 
ATOM      6  C   UNL     1      43.041   9.564  33.242  1.00  0.00     0.157 A 
ENDROOT
BRANCH   1   7
ATOM      7  C   UNL     1      41.287   8.746  37.076  1.00  0.00     0.072 C 
ATOM      8  O   UNL     1      41.122   9.673  37.913  1.00  0.00    -0.545 OA
ATOM      9  O   UNL     1      40.893   7.456  37.411  1.00  0.00    -0.545 OA
ENDBRANCH   1   7
BRANCH   5  10
ATOM     10  O   UNL     1      43.394  11.872  33.839  1.00  0.00    -0.493 OA
ATOM     11  C   UNL     1      44.551  12.486  34.400  1.00  0.00     0.278 C 
ENDBRANCH   5  10
BRANCH   6  12
ATOM     12  O   UNL     1      43.610   9.829  31.997  1.00  0.00    -0.504 OA
ATOM     13  H   UNL     1      43.091   9.700  31.137  1.00  0.00     0.293 HD
ENDBRANCH   6  12
TORSDOF 3
ENDMDL
MODEL 4
REMARK VINA RESULT:    -4.277      2.346      4.762
REMARK INTER + INTRA:          -4.986
REMARK INTER:                  -4.886
REMARK INTRA:                  -0.099
REMARK UNBOUND:                -0.083
REMARK SMILES COc1cc(C(=O)[O-])ccc1O
REMARK SMILES IDX 5 1 9 2 4 3 10 4 3 5 11 6 6 7 7 8 8 9 2 10 1 11 12 12
REMARK H PARENT 12 13
REMARK Flexibility Score: inf
ROOT
ATOM      1  C   UNL     1      42.510  12.669  35.374  1.00  0.00     0.001 A 
ATOM      2  C   UNL     1      43.657  13.417  35.065  1.00  0.00     0.014 A 
ATOM      3  C   UNL     1      42.383  11.367  34.858  1.00  0.00     0.060 A 
ATOM      4  C   UNL     1      44.657  12.876  34.254  1.00  0.00     0.051 A 
ATOM      5  C   UNL     1      43.390  10.816  34.039  1.00  0.00     0.161 A 
ATOM      6  C   UNL     1      44.527  11.580  33.741  1.00  0.00     0.157 A 
ENDROOT
BRANCH   1   7
ATOM      7  C   UNL     1      41.448  13.239  36.234  1.00  0.00     0.072 C 
ATOM      8  O   UNL     1      40.978  12.574  37.196  1.00  0.00    -0.545 OA
ATOM      9  O   UNL     1      40.954  14.515  35.991  1.00  0.00    -0.545 OA
ENDBRANCH   1   7
BRANCH   5  10
ATOM     10  O   UNL     1      43.297   9.521  33.505  1.00  0.00    -0.493 OA
ATOM     11  C   UNL     1      42.459   9.157  32.413  1.00  0.00     0.278 C 
ENDBRANCH   5  10
BRANCH   6  12
ATOM     12  O   UNL     1      45.526  11.042  32.932  1.00  0.00    -0.504 OA
ATOM     13  H   UNL     1      46.482  10.955  33.255  1.00  0.00     0.293 HD
ENDBRANCH   6  12
TORSDOF 3
ENDMDL
MODEL 5
REMARK VINA RESULT:    -4.256      1.344      4.220
REMARK INTER + INTRA:          -4.961
REMARK INTER:                  -4.875
REMARK INTRA:                  -0.086
REMARK UNBOUND:                -0.083
REMARK SMILES COc1cc(C(=O)[O-])ccc1O
REMARK SMILES IDX 5 1 9 2 4 3 10 4 3 5 11 6 6 7 7 8 8 9 2 10 1 11 12 12
REMARK H PARENT 12 13
REMARK Flexibility Score: inf
ROOT
ATOM      1  C   UNL     1      43.005  10.851  33.910  1.00  0.00     0.001 A 
ATOM      2  C   UNL     1      43.096  10.070  32.746  1.00  0.00     0.014 A 
ATOM      3  C   UNL     1      42.471  10.278  35.078  1.00  0.00     0.060 A 
ATOM      4  C   UNL     1      42.662   8.744  32.749  1.00  0.00     0.051 A 
ATOM      5  C   UNL     1      42.031   8.938  35.085  1.00  0.00     0.161 A 
ATOM      6  C   UNL     1      42.130   8.176  33.913  1.00  0.00     0.157 A 
ENDROOT
BRANCH   1   7
ATOM      7  C   UNL     1      43.465  12.258  33.911  1.00  0.00     0.072 C 
ATOM      8  O   UNL     1      42.698  13.182  33.529  1.00  0.00    -0.545 OA
ATOM      9  O   UNL     1      44.749  12.580  34.334  1.00  0.00    -0.545 OA
ENDBRANCH   1   7
BRANCH   5  10
ATOM     10  O   UNL     1      41.492   8.333  36.231  1.00  0.00    -0.493 OA
ATOM     11  C   UNL     1      42.115   8.332  37.512  1.00  0.00     0.278 C 
ENDBRANCH   5  10
BRANCH   6  12
ATOM     12  O   UNL     1      41.697   6.852  33.913  1.00  0.00    -0.504 OA
ATOM     13  H   UNL     1      40.715   6.614  33.834  1.00  0.00     0.293 HD
ENDBRANCH   6  12
TORSDOF 3
ENDMDL
MODEL 6
REMARK VINA RESULT:    -3.765      1.832      3.082
REMARK INTER + INTRA:          -4.398
REMARK INTER:                  -4.295
REMARK INTRA:                  -0.103
REMARK UNBOUND:                -0.083
REMARK SMILES COc1cc(C(=O)[O-])ccc1O
REMARK SMILES IDX 5 1 9 2 4 3 10 4 3 5 11 6 6 7 7 8 8 9 2 10 1 11 12 12
REMARK H PARENT 12 13
REMARK Flexibility Score: inf
ROOT
ATOM      1  C   UNL     1      42.491   9.880  34.247  1.00  0.00     0.001 A 
ATOM      2  C   UNL     1      42.023   9.650  35.551  1.00  0.00     0.014 A 
ATOM      3  C   UNL     1      42.957  11.162  33.903  1.00  0.00     0.060 A 
ATOM      4  C   UNL     1      42.019  10.681  36.492  1.00  0.00     0.051 A 
ATOM      5  C   UNL     1      42.954  12.206  34.850  1.00  0.00     0.161 A 
ATOM      6  C   UNL     1      42.482  11.956  36.147  1.00  0.00     0.157 A 
ENDROOT
BRANCH   1   7
ATOM      7  C   UNL     1      42.498   8.789  33.246  1.00  0.00     0.072 C 
ATOM      8  O   UNL     1      42.820   9.020  32.050  1.00  0.00    -0.545 OA
ATOM      9  O   UNL     1      42.149   7.494  33.612  1.00  0.00    -0.545 OA
ENDBRANCH   1   7
BRANCH   5  10
ATOM     10  O   UNL     1      43.410  13.498  34.543  1.00  0.00    -0.493 OA
ATOM     11  C   UNL     1      42.719  14.419  33.705  1.00  0.00     0.278 C 
ENDBRANCH   5  10
BRANCH   6  12
ATOM     12  O   UNL     1      42.477  12.984  37.088  1.00  0.00    -0.504 OA
ATOM     13  H   UNL     1      41.904  12.937  37.922  1.00  0.00     0.293 HD
ENDBRANCH   6  12
TORSDOF 3
ENDMDL
MODEL 7
REMARK VINA RESULT:    -3.758      1.653      2.343
REMARK INTER + INTRA:          -4.390
REMARK INTER:                  -4.290
REMARK INTRA:                  -0.100
REMARK UNBOUND:                -0.083
REMARK SMILES COc1cc(C(=O)[O-])ccc1O
REMARK SMILES IDX 5 1 9 2 4 3 10 4 3 5 11 6 6 7 7 8 8 9 2 10 1 11 12 12
REMARK H PARENT 12 13
REMARK Flexibility Score: inf
ROOT
ATOM      1  C   UNL     1      42.706  10.057  34.183  1.00  0.00     0.001 A 
ATOM      2  C   UNL     1      43.615  10.913  33.539  1.00  0.00     0.014 A 
ATOM      3  C   UNL     1      42.091  10.483  35.374  1.00  0.00     0.060 A 
ATOM      4  C   UNL     1      43.904  12.169  34.075  1.00  0.00     0.051 A 
ATOM      5  C   UNL     1      42.380  11.751  35.918  1.00  0.00     0.161 A 
ATOM      6  C   UNL     1      43.290  12.590  35.260  1.00  0.00     0.157 A 
ENDROOT
BRANCH   1   7
ATOM      7  C   UNL     1      42.397   8.724  33.618  1.00  0.00     0.072 C 
ATOM      8  O   UNL     1      42.436   8.532  32.374  1.00  0.00    -0.545 OA
ATOM      9  O   UNL     1      42.059   7.665  34.453  1.00  0.00    -0.545 OA
ENDBRANCH   1   7
BRANCH   5  10
ATOM     10  O   UNL     1      41.787  12.210  37.105  1.00  0.00    -0.493 OA
ATOM     11  C   UNL     1      42.055  11.680  38.399  1.00  0.00     0.278 C 
ENDBRANCH   5  10
BRANCH   6  12
ATOM     12  O   UNL     1      43.581  13.845  35.794  1.00  0.00    -0.504 OA
ATOM     13  H   UNL     1      43.456  14.045  36.779  1.00  0.00     0.293 HD
ENDBRANCH   6  12
TORSDOF 3
ENDMDL
MODEL 8
REMARK VINA RESULT:    -3.634      2.169      4.671
REMARK INTER + INTRA:          -4.248
REMARK INTER:                  -4.156
REMARK INTRA:                  -0.092
REMARK UNBOUND:                -0.083
REMARK SMILES COc1cc(C(=O)[O-])ccc1O
REMARK SMILES IDX 5 1 9 2 4 3 10 4 3 5 11 6 6 7 7 8 8 9 2 10 1 11 12 12
REMARK H PARENT 12 13
REMARK Flexibility Score: inf
ROOT
ATOM      1  C   UNL     1      42.268  12.573  35.283  1.00  0.00     0.001 A 
ATOM      2  C   UNL     1      42.942  12.616  34.052  1.00  0.00     0.014 A 
ATOM      3  C   UNL     1      42.013  11.325  35.880  1.00  0.00     0.060 A 
ATOM      4  C   UNL     1      43.353  11.436  33.429  1.00  0.00     0.051 A 
ATOM      5  C   UNL     1      42.425  10.131  35.254  1.00  0.00     0.161 A 
ATOM      6  C   UNL     1      43.096  10.196  34.025  1.00  0.00     0.157 A 
ENDROOT
BRANCH   1   7
ATOM      7  C   UNL     1      41.832  13.822  35.947  1.00  0.00     0.072 C 
ATOM      8  O   UNL     1      40.922  13.800  36.819  1.00  0.00    -0.545 OA
ATOM      9  O   UNL     1      42.419  15.038  35.617  1.00  0.00    -0.545 OA
ENDBRANCH   1   7
BRANCH   5  10
ATOM     10  O   UNL     1      42.188   8.868  35.819  1.00  0.00    -0.493 OA
ATOM     11  C   UNL     1      40.917   8.415  36.276  1.00  0.00     0.278 C 
ENDBRANCH   5  10
BRANCH   6  12
ATOM     12  O   UNL     1      43.507   9.019  33.401  1.00  0.00    -0.504 OA
ATOM     13  H   UNL     1      42.922   8.545  32.724  1.00  0.00     0.293 HD
ENDBRANCH   6  12
TORSDOF 3
ENDMDL
MODEL 9
REMARK VINA RESULT:    -3.622      1.881      2.891
REMARK INTER + INTRA:          -4.234
REMARK INTER:                  -4.140
REMARK INTRA:                  -0.094
REMARK UNBOUND:                -0.083
REMARK SMILES COc1cc(C(=O)[O-])ccc1O
REMARK SMILES IDX 5 1 9 2 4 3 10 4 3 5 11 6 6 7 7 8 8 9 2 10 1 11 12 12
REMARK H PARENT 12 13
REMARK Flexibility Score: inf
ROOT
ATOM      1  C   UNL     1      42.463   9.828  34.275  1.00  0.00     0.001 A 
ATOM      2  C   UNL     1      42.764  11.171  33.994  1.00  0.00     0.014 A 
ATOM      3  C   UNL     1      42.133   9.462  35.592  1.00  0.00     0.060 A 
ATOM      4  C   UNL     1      42.737  12.129  35.009  1.00  0.00     0.051 A 
ATOM      5  C   UNL     1      42.104  10.427  36.621  1.00  0.00     0.161 A 
ATOM      6  C   UNL     1      42.408  11.761  36.319  1.00  0.00     0.157 A 
ENDROOT
BRANCH   1   7
ATOM      7  C   UNL     1      42.491   8.809  33.201  1.00  0.00     0.072 C 
ATOM      8  O   UNL     1      42.749   9.139  32.013  1.00  0.00    -0.545 OA
ATOM      9  O   UNL     1      42.232   7.474  33.489  1.00  0.00    -0.545 OA
ENDBRANCH   1   7
BRANCH   5  10
ATOM     10  O   UNL     1      41.780  10.099  37.947  1.00  0.00    -0.493 OA
ATOM     11  C   UNL     1      42.405   9.063  38.697  1.00  0.00     0.278 C 
ENDBRANCH   5  10
BRANCH   6  12
ATOM     12  O   UNL     1      42.382  12.720  37.331  1.00  0.00    -0.504 OA
ATOM     13  H   UNL     1      42.804  12.548  38.236  1.00  0.00     0.293 HD
ENDBRANCH   6  12
TORSDOF 3
ENDMDL
