MODEL 1
REMARK VINA RESULT:    -6.207      0.000      0.000
REMARK INTER + INTRA:          -6.207
REMARK INTER:                  -6.207
REMARK INTRA:                   0.000
REMARK UNBOUND:                 0.000
REMARK SMILES C=C1CCC[C@@]2(C)CC(=O)C(=C(C)C)C[C@H]12
REMARK SMILES IDX 13 1 12 2 11 3 15 4 16 5 2 6 1 7 3 8 4 9 5 10 6 11 8 12 9 13
REMARK SMILES IDX 10 14 7 15 14 16
REMARK H PARENT
REMARK Flexibility Score: inf
ROOT
ATOM      1  C   UNL     1       6.724 -20.251  -7.835  1.00  0.00     0.039 C 
ATOM      2  C   UNL     1       6.237 -20.000  -6.425  1.00  0.00    -0.070 C 
ATOM      3  C   UNL     1       4.906 -20.035  -6.119  1.00  0.00    -0.006 C 
ATOM      4  C   UNL     1       3.864 -20.353  -7.183  1.00  0.00     0.047 C 
ATOM      5  C   UNL     1       2.581 -21.015  -6.614  1.00  0.00     0.025 C 
ATOM      6  C   UNL     1       1.467 -21.240  -7.642  1.00  0.00    -0.073 C 
ATOM      7  C   UNL     1       1.619 -21.044  -8.966  1.00  0.00     0.008 C 
ATOM      8  C   UNL     1       0.129 -21.734  -7.145  1.00  0.00     0.031 C 
ATOM      9  C   UNL     1       0.190 -22.129  -5.668  1.00  0.00     0.005 C 
ATOM     10  C   UNL     1       0.734 -20.990  -4.790  1.00  0.00     0.008 C 
ATOM     11  C   UNL     1       2.006 -20.259  -5.368  1.00  0.00    -0.018 C 
ATOM     12  C   UNL     1       3.100 -20.224  -4.273  1.00  0.00     0.088 C 
ATOM     13  C   UNL     1       4.389 -19.648  -4.776  1.00  0.00     0.159 C 
ATOM     14  O   UNL     1       5.007 -18.825  -4.049  1.00  0.00    -0.295 OA
ATOM     15  C   UNL     1       1.607 -18.803  -5.738  1.00  0.00     0.012 C 
ATOM     16  C   UNL     1       7.291 -19.746  -5.372  1.00  0.00     0.039 C 
ENDROOT
TORSDOF 0
ENDMDL
MODEL 2
REMARK VINA RESULT:    -6.149     11.548     13.908
REMARK INTER + INTRA:          -6.149
REMARK INTER:                  -6.149
REMARK INTRA:                   0.000
REMARK UNBOUND:                 0.000
REMARK SMILES C=C1CCC[C@@]2(C)CC(=O)C(=C(C)C)C[C@H]12
REMARK SMILES IDX 13 1 12 2 11 3 15 4 16 5 2 6 1 7 3 8 4 9 5 10 6 11 8 12 9 13
REMARK SMILES IDX 10 14 7 15 14 16
REMARK H PARENT
REMARK Flexibility Score: inf
ROOT
ATOM      1  C   UNL     1      -7.362 -22.246  -1.557  1.00  0.00     0.039 C 
ATOM      2  C   UNL     1      -8.542 -23.128  -1.212  1.00  0.00    -0.070 C 
ATOM      3  C   UNL     1      -8.539 -24.462  -1.508  1.00  0.00    -0.006 C 
ATOM      4  C   UNL     1      -7.337 -25.115  -2.177  1.00  0.00     0.047 C 
ATOM      5  C   UNL     1      -7.180 -26.620  -1.832  1.00  0.00     0.025 C 
ATOM      6  C   UNL     1      -6.049 -27.333  -2.581  1.00  0.00    -0.073 C 
ATOM      7  C   UNL     1      -5.145 -26.700  -3.353  1.00  0.00     0.008 C 
ATOM      8  C   UNL     1      -5.925 -28.831  -2.424  1.00  0.00     0.031 C 
ATOM      9  C   UNL     1      -6.868 -29.362  -1.342  1.00  0.00     0.005 C 
ATOM     10  C   UNL     1      -8.325 -28.938  -1.591  1.00  0.00     0.008 C 
ATOM     11  C   UNL     1      -8.514 -27.426  -1.997  1.00  0.00    -0.018 C 
ATOM     12  C   UNL     1      -9.582 -26.792  -1.073  1.00  0.00     0.088 C 
ATOM     13  C   UNL     1      -9.742 -25.321  -1.314  1.00  0.00     0.159 C 
ATOM     14  O   UNL     1     -10.905 -24.840  -1.366  1.00  0.00    -0.295 OA
ATOM     15  C   UNL     1      -9.015 -27.374  -3.468  1.00  0.00     0.012 C 
ATOM     16  C   UNL     1      -9.699 -22.473  -0.495  1.00  0.00     0.039 C 
ENDROOT
TORSDOF 0
ENDMDL
MODEL 3
REMARK VINA RESULT:    -5.940     12.246     14.346
REMARK INTER + INTRA:          -5.940
REMARK INTER:                  -5.940
REMARK INTRA:                   0.000
REMARK UNBOUND:                 0.000
REMARK SMILES C=C1CCC[C@@]2(C)CC(=O)C(=C(C)C)C[C@H]12
REMARK SMILES IDX 13 1 12 2 11 3 15 4 16 5 2 6 1 7 3 8 4 9 5 10 6 11 8 12 9 13
REMARK SMILES IDX 10 14 7 15 14 16
REMARK H PARENT
REMARK Flexibility Score: inf
ROOT
ATOM      1  C   UNL     1     -10.959 -26.054   0.038  1.00  0.00     0.039 C 
ATOM      2  C   UNL     1      -9.884 -25.338  -0.748  1.00  0.00    -0.070 C 
ATOM      3  C   UNL     1      -8.808 -26.011  -1.253  1.00  0.00    -0.006 C 
ATOM      4  C   UNL     1      -8.662 -27.515  -1.061  1.00  0.00     0.047 C 
ATOM      5  C   UNL     1      -7.855 -28.207  -2.191  1.00  0.00     0.025 C 
ATOM      6  C   UNL     1      -7.593 -29.700  -1.967  1.00  0.00    -0.073 C 
ATOM      7  C   UNL     1      -8.143 -30.417  -0.969  1.00  0.00     0.008 C 
ATOM      8  C   UNL     1      -6.682 -30.417  -2.938  1.00  0.00     0.031 C 
ATOM      9  C   UNL     1      -6.331 -29.531  -4.135  1.00  0.00     0.005 C 
ATOM     10  C   UNL     1      -5.741 -28.180  -3.698  1.00  0.00     0.008 C 
ATOM     11  C   UNL     1      -6.507 -27.476  -2.514  1.00  0.00    -0.018 C 
ATOM     12  C   UNL     1      -6.831 -26.019  -2.926  1.00  0.00     0.088 C 
ATOM     13  C   UNL     1      -7.663 -25.310  -1.901  1.00  0.00     0.159 C 
ATOM     14  O   UNL     1      -7.362 -24.126  -1.593  1.00  0.00    -0.295 OA
ATOM     15  C   UNL     1      -5.574 -27.459  -1.270  1.00  0.00     0.012 C 
ATOM     16  C   UNL     1     -10.077 -23.856  -0.978  1.00  0.00     0.039 C 
ENDROOT
TORSDOF 0
ENDMDL
MODEL 4
REMARK VINA RESULT:    -5.903      1.976      3.775
REMARK INTER + INTRA:          -5.903
REMARK INTER:                  -5.903
REMARK INTRA:                   0.000
REMARK UNBOUND:                 0.000
REMARK SMILES C=C1CCC[C@@]2(C)CC(=O)C(=C(C)C)C[C@H]12
REMARK SMILES IDX 13 1 12 2 11 3 15 4 16 5 2 6 1 7 3 8 4 9 5 10 6 11 8 12 9 13
REMARK SMILES IDX 10 14 7 15 14 16
REMARK H PARENT
REMARK Flexibility Score: inf
ROOT
ATOM      1  C   UNL     1       1.690 -16.841  -2.614  1.00  0.00     0.039 C 
ATOM      2  C   UNL     1       2.808 -16.881  -3.631  1.00  0.00    -0.070 C 
ATOM      3  C   UNL     1       2.940 -17.929  -4.498  1.00  0.00    -0.006 C 
ATOM      4  C   UNL     1       1.951 -19.087  -4.487  1.00  0.00     0.047 C 
ATOM      5  C   UNL     1       1.800 -19.785  -5.864  1.00  0.00     0.025 C 
ATOM      6  C   UNL     1       0.900 -21.025  -5.858  1.00  0.00    -0.073 C 
ATOM      7  C   UNL     1       0.157 -21.407  -4.801  1.00  0.00     0.008 C 
ATOM      8  C   UNL     1       0.823 -21.855  -7.119  1.00  0.00     0.031 C 
ATOM      9  C   UNL     1       1.530 -21.167  -8.288  1.00  0.00     0.005 C 
ATOM     10  C   UNL     1       2.982 -20.795  -7.943  1.00  0.00     0.008 C 
ATOM     11  C   UNL     1       3.177 -20.134  -6.526  1.00  0.00    -0.018 C 
ATOM     12  C   UNL     1       3.981 -18.821  -6.695  1.00  0.00     0.088 C 
ATOM     13  C   UNL     1       4.113 -18.065  -5.407  1.00  0.00     0.159 C 
ATOM     14  O   UNL     1       5.233 -17.570  -5.110  1.00  0.00    -0.295 OA
ATOM     15  C   UNL     1       3.986 -21.117  -5.634  1.00  0.00     0.012 C 
ATOM     16  C   UNL     1       3.744 -15.695  -3.666  1.00  0.00     0.039 C 
ENDROOT
TORSDOF 0
ENDMDL
MODEL 5
REMARK VINA RESULT:    -5.756      2.568      4.913
REMARK INTER + INTRA:          -5.756
REMARK INTER:                  -5.756
REMARK INTRA:                   0.000
REMARK UNBOUND:                 0.000
REMARK SMILES C=C1CCC[C@@]2(C)CC(=O)C(=C(C)C)C[C@H]12
REMARK SMILES IDX 13 1 12 2 11 3 15 4 16 5 2 6 1 7 3 8 4 9 5 10 6 11 8 12 9 13
REMARK SMILES IDX 10 14 7 15 14 16
REMARK H PARENT
REMARK Flexibility Score: inf
ROOT
ATOM      1  C   UNL     1       1.983 -21.305  -8.105  1.00  0.00     0.039 C 
ATOM      2  C   UNL     1       1.179 -21.323  -6.824  1.00  0.00    -0.070 C 
ATOM      3  C   UNL     1       1.398 -20.404  -5.838  1.00  0.00    -0.006 C 
ATOM      4  C   UNL     1       2.446 -19.311  -6.001  1.00  0.00     0.047 C 
ATOM      5  C   UNL     1       2.124 -18.022  -5.200  1.00  0.00     0.025 C 
ATOM      6  C   UNL     1       3.216 -16.948  -5.252  1.00  0.00    -0.073 C 
ATOM      7  C   UNL     1       4.299 -17.017  -6.049  1.00  0.00     0.008 C 
ATOM      8  C   UNL     1       3.055 -15.727  -4.376  1.00  0.00     0.031 C 
ATOM      9  C   UNL     1       1.675 -15.686  -3.716  1.00  0.00     0.005 C 
ATOM     10  C   UNL     1       1.368 -16.981  -2.945  1.00  0.00     0.008 C 
ATOM     11  C   UNL     1       1.735 -18.310  -3.710  1.00  0.00    -0.018 C 
ATOM     12  C   UNL     1       0.502 -19.246  -3.702  1.00  0.00     0.088 C 
ATOM     13  C   UNL     1       0.726 -20.489  -4.510  1.00  0.00     0.159 C 
ATOM     14  O   UNL     1       0.352 -21.594  -4.035  1.00  0.00    -0.295 OA
ATOM     15  C   UNL     1       2.906 -19.001  -2.956  1.00  0.00     0.012 C 
ATOM     16  C   UNL     1       0.104 -22.379  -6.707  1.00  0.00     0.039 C 
ENDROOT
TORSDOF 0
ENDMDL
MODEL 6
REMARK VINA RESULT:    -5.752      1.531      2.110
REMARK INTER + INTRA:          -5.752
REMARK INTER:                  -5.752
REMARK INTRA:                   0.000
REMARK UNBOUND:                 0.000
REMARK SMILES C=C1CCC[C@@]2(C)CC(=O)C(=C(C)C)C[C@H]12
REMARK SMILES IDX 13 1 12 2 11 3 15 4 16 5 2 6 1 7 3 8 4 9 5 10 6 11 8 12 9 13
REMARK SMILES IDX 10 14 7 15 14 16
REMARK H PARENT
REMARK Flexibility Score: inf
ROOT
ATOM      1  C   UNL     1       7.156 -19.677  -4.375  1.00  0.00     0.039 C 
ATOM      2  C   UNL     1       6.052 -19.457  -3.365  1.00  0.00    -0.070 C 
ATOM      3  C   UNL     1       4.736 -19.530  -3.726  1.00  0.00    -0.006 C 
ATOM      4  C   UNL     1       4.332 -19.861  -5.157  1.00  0.00     0.047 C 
ATOM      5  C   UNL     1       2.952 -20.563  -5.263  1.00  0.00     0.025 C 
ATOM      6  C   UNL     1       2.466 -20.803  -6.696  1.00  0.00    -0.073 C 
ATOM      7  C   UNL     1       3.220 -20.586  -7.790  1.00  0.00     0.008 C 
ATOM      8  C   UNL     1       1.066 -21.338  -6.892  1.00  0.00     0.031 C 
ATOM      9  C   UNL     1       0.431 -21.750  -5.562  1.00  0.00     0.005 C 
ATOM     10  C   UNL     1       0.462 -20.609  -4.532  1.00  0.00     0.008 C 
ATOM     11  C   UNL     1       1.834 -19.838  -4.439  1.00  0.00    -0.018 C 
ATOM     12  C   UNL     1       2.277 -19.789  -2.956  1.00  0.00     0.088 C 
ATOM     13  C   UNL     1       3.634 -19.173  -2.788  1.00  0.00     0.159 C 
ATOM     14  O   UNL     1       3.809 -18.344  -1.857  1.00  0.00    -0.295 OA
ATOM     15  C   UNL     1       1.616 -18.388  -4.955  1.00  0.00     0.012 C 
ATOM     16  C   UNL     1       6.473 -19.189  -1.938  1.00  0.00     0.039 C 
ENDROOT
TORSDOF 0
ENDMDL
MODEL 7
REMARK VINA RESULT:    -5.677      1.844      5.452
REMARK INTER + INTRA:          -5.677
REMARK INTER:                  -5.677
REMARK INTRA:                   0.000
REMARK UNBOUND:                 0.000
REMARK SMILES C=C1CCC[C@@]2(C)CC(=O)C(=C(C)C)C[C@H]12
REMARK SMILES IDX 13 1 12 2 11 3 15 4 16 5 2 6 1 7 3 8 4 9 5 10 6 11 8 12 9 13
REMARK SMILES IDX 10 14 7 15 14 16
REMARK H PARENT
REMARK Flexibility Score: inf
ROOT
ATOM      1  C   UNL     1       0.132 -20.998  -4.430  1.00  0.00     0.039 C 
ATOM      2  C   UNL     1       0.899 -21.337  -5.689  1.00  0.00    -0.070 C 
ATOM      3  C   UNL     1       2.213 -20.990  -5.833  1.00  0.00    -0.006 C 
ATOM      4  C   UNL     1       2.961 -20.268  -4.720  1.00  0.00     0.047 C 
ATOM      5  C   UNL     1       4.486 -20.551  -4.716  1.00  0.00     0.025 C 
ATOM      6  C   UNL     1       5.283 -19.749  -3.680  1.00  0.00    -0.073 C 
ATOM      7  C   UNL     1       4.717 -18.981  -2.730  1.00  0.00     0.008 C 
ATOM      8  C   UNL     1       6.791 -19.846  -3.712  1.00  0.00     0.031 C 
ATOM      9  C   UNL     1       7.263 -20.929  -4.684  1.00  0.00     0.005 C 
ATOM     10  C   UNL     1       6.679 -20.731  -6.093  1.00  0.00     0.008 C 
ATOM     11  C   UNL     1       5.141 -20.388  -6.130  1.00  0.00    -0.018 C 
ATOM     12  C   UNL     1       4.437 -21.360  -7.107  1.00  0.00     0.088 C 
ATOM     13  C   UNL     1       2.949 -21.179  -7.115  1.00  0.00     0.159 C 
ATOM     14  O   UNL     1       2.347 -21.173  -8.222  1.00  0.00    -0.295 OA
ATOM     15  C   UNL     1       4.978 -18.932  -6.651  1.00  0.00     0.012 C 
ATOM     16  C   UNL     1       0.156 -22.106  -6.757  1.00  0.00     0.039 C 
ENDROOT
TORSDOF 0
ENDMDL
MODEL 8
REMARK VINA RESULT:    -5.510     11.633     13.677
REMARK INTER + INTRA:          -5.510
REMARK INTER:                  -5.510
REMARK INTRA:                   0.000
REMARK UNBOUND:                 0.000
REMARK SMILES C=C1CCC[C@@]2(C)CC(=O)C(=C(C)C)C[C@H]12
REMARK SMILES IDX 13 1 12 2 11 3 15 4 16 5 2 6 1 7 3 8 4 9 5 10 6 11 8 12 9 13
REMARK SMILES IDX 10 14 7 15 14 16
REMARK H PARENT
REMARK Flexibility Score: inf
ROOT
ATOM      1  C   UNL     1       5.374 -23.882   9.589  1.00  0.00     0.039 C 
ATOM      2  C   UNL     1       4.995 -25.002   8.645  1.00  0.00    -0.070 C 
ATOM      3  C   UNL     1       5.221 -24.902   7.302  1.00  0.00    -0.006 C 
ATOM      4  C   UNL     1       5.884 -23.668   6.706  1.00  0.00     0.047 C 
ATOM      5  C   UNL     1       6.667 -23.957   5.398  1.00  0.00     0.025 C 
ATOM      6  C   UNL     1       7.249 -22.716   4.713  1.00  0.00    -0.073 C 
ATOM      7  C   UNL     1       7.240 -21.485   5.259  1.00  0.00     0.008 C 
ATOM      8  C   UNL     1       7.891 -22.888   3.355  1.00  0.00     0.031 C 
ATOM      9  C   UNL     1       8.030 -24.365   2.983  1.00  0.00     0.005 C 
ATOM     10  C   UNL     1       6.687 -25.109   3.072  1.00  0.00     0.008 C 
ATOM     11  C   UNL     1       5.840 -24.794   4.363  1.00  0.00    -0.018 C 
ATOM     12  C   UNL     1       5.437 -26.131   5.032  1.00  0.00     0.088 C 
ATOM     13  C   UNL     1       4.725 -25.923   6.335  1.00  0.00     0.159 C 
ATOM     14  O   UNL     1       3.700 -26.613   6.580  1.00  0.00    -0.295 OA
ATOM     15  C   UNL     1       4.557 -24.031   3.933  1.00  0.00     0.012 C 
ATOM     16  C   UNL     1       4.393 -26.243   9.263  1.00  0.00     0.039 C 
ENDROOT
TORSDOF 0
ENDMDL
MODEL 9
REMARK VINA RESULT:    -5.450     12.746     14.747
REMARK INTER + INTRA:          -5.450
REMARK INTER:                  -5.450
REMARK INTRA:                   0.000
REMARK UNBOUND:                 0.000
REMARK SMILES C=C1CCC[C@@]2(C)CC(=O)C(=C(C)C)C[C@H]12
REMARK SMILES IDX 13 1 12 2 11 3 15 4 16 5 2 6 1 7 3 8 4 9 5 10 6 11 8 12 9 13
REMARK SMILES IDX 10 14 7 15 14 16
REMARK H PARENT
REMARK Flexibility Score: inf
ROOT
ATOM      1  C   UNL     1       1.248 -27.853   6.224  1.00  0.00     0.039 C 
ATOM      2  C   UNL     1       1.958 -27.402   7.481  1.00  0.00    -0.070 C 
ATOM      3  C   UNL     1       3.061 -26.599   7.423  1.00  0.00    -0.006 C 
ATOM      4  C   UNL     1       3.604 -26.106   6.088  1.00  0.00     0.047 C 
ATOM      5  C   UNL     1       4.346 -24.747   6.186  1.00  0.00     0.025 C 
ATOM      6  C   UNL     1       5.003 -24.282   4.882  1.00  0.00    -0.073 C 
ATOM      7  C   UNL     1       4.831 -24.895   3.696  1.00  0.00     0.008 C 
ATOM      8  C   UNL     1       5.876 -23.049   4.926  1.00  0.00     0.031 C 
ATOM      9  C   UNL     1       5.782 -22.342   6.279  1.00  0.00     0.005 C 
ATOM     10  C   UNL     1       6.087 -23.293   7.448  1.00  0.00     0.008 C 
ATOM     11  C   UNL     1       5.393 -24.705   7.351  1.00  0.00    -0.018 C 
ATOM     12  C   UNL     1       4.651 -24.987   8.681  1.00  0.00     0.088 C 
ATOM     13  C   UNL     1       3.864 -26.262   8.633  1.00  0.00     0.159 C 
ATOM     14  O   UNL     1       3.913 -27.040   9.623  1.00  0.00    -0.295 OA
ATOM     15  C   UNL     1       6.496 -25.780   7.143  1.00  0.00     0.012 C 
ATOM     16  C   UNL     1       1.368 -27.853   8.798  1.00  0.00     0.039 C 
ENDROOT
TORSDOF 0
ENDMDL
