MODEL 1
REMARK VINA RESULT:     5.283      0.000      0.000
REMARK INTER + INTRA:           8.586
REMARK INTER:                   9.607
REMARK INTRA:                  -1.022
REMARK UNBOUND:                -1.022
REMARK SMILES CCCCCCCCCCCCCC[C@@H](C)C(=O)[O-]
REMARK SMILES IDX 9 1 10 2 11 3 12 4 13 5 14 6 15 7 16 8 17 9 18 10 19 11 8 12
REMARK SMILES IDX 7 13 6 14 5 15 4 16 3 17 2 18 1 19
REMARK H PARENT
REMARK Flexibility Score: inf
ROOT
ATOM      1  C   UNL     1      10.339  14.480  -2.033  1.00  0.00     0.000 C 
ENDROOT
BRANCH   1   2
ATOM      2  C   UNL     1      10.777  13.330  -1.107  1.00  0.00     0.000 C 
BRANCH   2   3
ATOM      3  C   UNL     1      12.291  13.310  -0.849  1.00  0.00     0.000 C 
BRANCH   3   4
ATOM      4  C   UNL     1      12.597  12.876   0.590  1.00  0.00     0.000 C 
BRANCH   4   5
ATOM      5  C   UNL     1      12.432  14.050   1.567  1.00  0.00     0.001 C 
BRANCH   5   6
ATOM      6  C   UNL     1      10.963  14.249   1.998  1.00  0.00     0.009 C 
BRANCH   6   7
ATOM      7  C   UNL     1      10.550  15.734   2.125  1.00  0.00     0.032 C 
ATOM      8  C   UNL     1      11.676  16.695   1.722  1.00  0.00     0.014 C 
BRANCH   7   9
ATOM      9  C   UNL     1       9.328  15.999   1.289  1.00  0.00     0.044 C 
ATOM     10  O   UNL     1       9.101  17.151   0.832  1.00  0.00    -0.550 OA
ATOM     11  O   UNL     1       8.441  14.966   1.011  1.00  0.00    -0.550 OA
ENDBRANCH   7   9
ENDBRANCH   6   7
ENDBRANCH   5   6
ENDBRANCH   4   5
ENDBRANCH   3   4
ENDBRANCH   2   3
ENDBRANCH   1   2
BRANCH   1  12
ATOM     12  C   UNL     1      10.742  14.321  -3.510  1.00  0.00     0.000 C 
BRANCH  12  13
ATOM     13  C   UNL     1      11.311  15.614  -4.119  1.00  0.00    -0.000 C 
BRANCH  13  14
ATOM     14  C   UNL     1      11.298  15.598  -5.656  1.00  0.00    -0.000 C 
BRANCH  14  15
ATOM     15  C   UNL     1      11.555  16.988  -6.266  1.00  0.00    -0.000 C 
BRANCH  15  16
ATOM     16  C   UNL     1      12.855  17.627  -5.750  1.00  0.00    -0.000 C 
BRANCH  16  17
ATOM     17  C   UNL     1      13.956  17.674  -6.820  1.00  0.00    -0.000 C 
BRANCH  17  18
ATOM     18  C   UNL     1      14.650  16.314  -6.951  1.00  0.00    -0.003 C 
ATOM     19  C   UNL     1      14.658  15.836  -8.400  1.00  0.00     0.004 C 
ENDBRANCH  17  18
ENDBRANCH  16  17
ENDBRANCH  15  16
ENDBRANCH  14  15
ENDBRANCH  13  14
ENDBRANCH  12  13
ENDBRANCH   1  12
TORSDOF 14
ENDMDL
MODEL 2
REMARK VINA RESULT:     6.238      1.229      2.168
REMARK INTER + INTRA:          10.322
REMARK INTER:                  11.242
REMARK INTRA:                  -0.920
REMARK UNBOUND:                -1.022
REMARK SMILES CCCCCCCCCCCCCC[C@@H](C)C(=O)[O-]
REMARK SMILES IDX 9 1 10 2 11 3 12 4 13 5 14 6 15 7 16 8 17 9 18 10 19 11 8 12
REMARK SMILES IDX 7 13 6 14 5 15 4 16 3 17 2 18 1 19
REMARK H PARENT
REMARK Flexibility Score: inf
ROOT
ATOM      1  C   UNL     1      10.933  14.389  -4.155  1.00  0.00     0.000 C 
ENDROOT
BRANCH   1   2
ATOM      2  C   UNL     1      11.144  14.925  -2.727  1.00  0.00     0.000 C 
BRANCH   2   3
ATOM      3  C   UNL     1      11.345  13.808  -1.690  1.00  0.00     0.000 C 
BRANCH   3   4
ATOM      4  C   UNL     1      10.034  13.494  -0.960  1.00  0.00     0.000 C 
BRANCH   4   5
ATOM      5  C   UNL     1       9.506  14.731  -0.218  1.00  0.00     0.001 C 
BRANCH   5   6
ATOM      6  C   UNL     1       9.394  14.495   1.304  1.00  0.00     0.009 C 
BRANCH   6   7
ATOM      7  C   UNL     1      10.495  15.206   2.125  1.00  0.00     0.032 C 
ATOM      8  C   UNL     1      11.902  14.693   1.791  1.00  0.00     0.014 C 
BRANCH   7   9
ATOM      9  C   UNL     1      10.426  16.691   1.897  1.00  0.00     0.044 C 
ATOM     10  O   UNL     1       9.318  17.291   1.914  1.00  0.00    -0.550 OA
ATOM     11  O   UNL     1      11.591  17.413   1.669  1.00  0.00    -0.550 OA
ENDBRANCH   7   9
ENDBRANCH   6   7
ENDBRANCH   5   6
ENDBRANCH   4   5
ENDBRANCH   3   4
ENDBRANCH   2   3
ENDBRANCH   1   2
BRANCH   1  12
ATOM     12  C   UNL     1      11.060  15.438  -5.274  1.00  0.00     0.000 C 
BRANCH  12  13
ATOM     13  C   UNL     1      12.079  16.544  -4.947  1.00  0.00    -0.000 C 
BRANCH  13  14
ATOM     14  C   UNL     1      12.069  17.680  -5.982  1.00  0.00    -0.000 C 
BRANCH  14  15
ATOM     15  C   UNL     1      13.454  18.327  -6.166  1.00  0.00    -0.000 C 
BRANCH  15  16
ATOM     16  C   UNL     1      14.487  17.350  -6.751  1.00  0.00    -0.000 C 
BRANCH  16  17
ATOM     17  C   UNL     1      13.937  16.553  -7.943  1.00  0.00    -0.000 C 
BRANCH  17  18
ATOM     18  C   UNL     1      14.626  15.188  -8.054  1.00  0.00    -0.003 C 
ATOM     19  C   UNL     1      16.086  15.270  -7.620  1.00  0.00     0.004 C 
ENDBRANCH  17  18
ENDBRANCH  16  17
ENDBRANCH  15  16
ENDBRANCH  14  15
ENDBRANCH  13  14
ENDBRANCH  12  13
ENDBRANCH   1  12
TORSDOF 14
ENDMDL
MODEL 3
REMARK VINA RESULT:     6.614      3.276      7.647
REMARK INTER + INTRA:          11.006
REMARK INTER:                  12.290
REMARK INTRA:                  -1.284
REMARK UNBOUND:                -1.022
REMARK SMILES CCCCCCCCCCCCCC[C@@H](C)C(=O)[O-]
REMARK SMILES IDX 9 1 10 2 11 3 12 4 13 5 14 6 15 7 16 8 17 9 18 10 19 11 8 12
REMARK SMILES IDX 7 13 6 14 5 15 4 16 3 17 2 18 1 19
REMARK H PARENT
REMARK Flexibility Score: inf
ROOT
ATOM      1  C   UNL     1      10.365  13.503  -0.425  1.00  0.00     0.000 C 
ENDROOT
BRANCH   1   2
ATOM      2  C   UNL     1      10.076  14.542  -1.523  1.00  0.00     0.000 C 
BRANCH   2   3
ATOM      3  C   UNL     1      11.129  14.541  -2.643  1.00  0.00     0.000 C 
BRANCH   3   4
ATOM      4  C   UNL     1      10.471  14.719  -4.016  1.00  0.00     0.000 C 
BRANCH   4   5
ATOM      5  C   UNL     1      11.525  14.983  -5.102  1.00  0.00     0.001 C 
BRANCH   5   6
ATOM      6  C   UNL     1      11.339  16.361  -5.774  1.00  0.00     0.009 C 
BRANCH   6   7
ATOM      7  C   UNL     1      12.421  17.393  -5.382  1.00  0.00     0.032 C 
ATOM      8  C   UNL     1      13.168  17.005  -4.100  1.00  0.00     0.014 C 
BRANCH   7   9
ATOM      9  C   UNL     1      13.399  17.565  -6.512  1.00  0.00     0.044 C 
ATOM     10  O   UNL     1      13.811  18.712  -6.834  1.00  0.00    -0.550 OA
ATOM     11  O   UNL     1      13.858  16.453  -7.206  1.00  0.00    -0.550 OA
ENDBRANCH   7   9
ENDBRANCH   6   7
ENDBRANCH   5   6
ENDBRANCH   4   5
ENDBRANCH   3   4
ENDBRANCH   2   3
ENDBRANCH   1   2
BRANCH   1  12
ATOM     12  C   UNL     1      11.854  13.188  -0.195  1.00  0.00     0.000 C 
BRANCH  12  13
ATOM     13  C   UNL     1      12.259  13.258   1.288  1.00  0.00    -0.000 C 
BRANCH  13  14
ATOM     14  C   UNL     1      11.556  14.401   2.038  1.00  0.00    -0.000 C 
BRANCH  14  15
ATOM     15  C   UNL     1      12.075  15.790   1.625  1.00  0.00    -0.000 C 
BRANCH  15  16
ATOM     16  C   UNL     1      11.021  16.894   1.815  1.00  0.00    -0.000 C 
BRANCH  16  17
ATOM     17  C   UNL     1       9.625  16.330   2.121  1.00  0.00    -0.000 C 
BRANCH  17  18
ATOM     18  C   UNL     1       8.573  16.935   1.185  1.00  0.00    -0.003 C 
ATOM     19  C   UNL     1       7.734  17.987   1.904  1.00  0.00     0.004 C 
ENDBRANCH  17  18
ENDBRANCH  16  17
ENDBRANCH  15  16
ENDBRANCH  14  15
ENDBRANCH  13  14
ENDBRANCH  12  13
ENDBRANCH   1  12
TORSDOF 14
ENDMDL
MODEL 4
REMARK VINA RESULT:     6.762      2.930      7.869
REMARK INTER + INTRA:          11.275
REMARK INTER:                  12.375
REMARK INTRA:                  -1.100
REMARK UNBOUND:                -1.022
REMARK SMILES CCCCCCCCCCCCCC[C@@H](C)C(=O)[O-]
REMARK SMILES IDX 9 1 10 2 11 3 12 4 13 5 14 6 15 7 16 8 17 9 18 10 19 11 8 12
REMARK SMILES IDX 7 13 6 14 5 15 4 16 3 17 2 18 1 19
REMARK H PARENT
REMARK Flexibility Score: inf
ROOT
ATOM      1  C   UNL     1      11.558  14.073  -1.399  1.00  0.00     0.000 C 
ENDROOT
BRANCH   1   2
ATOM      2  C   UNL     1      10.473  14.156  -2.488  1.00  0.00     0.000 C 
BRANCH   2   3
ATOM      3  C   UNL     1      10.922  13.559  -3.831  1.00  0.00     0.000 C 
BRANCH   3   4
ATOM      4  C   UNL     1      10.555  14.487  -4.995  1.00  0.00     0.000 C 
BRANCH   4   5
ATOM      5  C   UNL     1      11.322  15.816  -4.903  1.00  0.00     0.001 C 
BRANCH   5   6
ATOM      6  C   UNL     1      11.743  16.344  -6.291  1.00  0.00     0.009 C 
BRANCH   6   7
ATOM      7  C   UNL     1      13.212  16.822  -6.353  1.00  0.00     0.032 C 
ATOM      8  C   UNL     1      13.919  16.385  -7.644  1.00  0.00     0.014 C 
BRANCH   7   9
ATOM      9  C   UNL     1      13.271  18.318  -6.219  1.00  0.00     0.044 C 
ATOM     10  O   UNL     1      12.262  18.967  -5.831  1.00  0.00    -0.550 OA
ATOM     11  O   UNL     1      14.446  18.996  -6.520  1.00  0.00    -0.550 OA
ENDBRANCH   7   9
ENDBRANCH   6   7
ENDBRANCH   5   6
ENDBRANCH   4   5
ENDBRANCH   3   4
ENDBRANCH   2   3
ENDBRANCH   1   2
BRANCH   1  12
ATOM     12  C   UNL     1      11.411  12.899  -0.415  1.00  0.00     0.000 C 
BRANCH  12  13
ATOM     13  C   UNL     1      12.408  12.968   0.754  1.00  0.00    -0.000 C 
BRANCH  13  14
ATOM     14  C   UNL     1      11.716  13.197   2.107  1.00  0.00    -0.000 C 
BRANCH  14  15
ATOM     15  C   UNL     1      10.180  13.176   1.999  1.00  0.00    -0.000 C 
BRANCH  15  16
ATOM     16  C   UNL     1       9.561  14.578   2.124  1.00  0.00    -0.000 C 
BRANCH  16  17
ATOM     17  C   UNL     1      10.618  15.693   2.113  1.00  0.00    -0.000 C 
BRANCH  17  18
ATOM     18  C   UNL     1      10.299  16.740   1.040  1.00  0.00    -0.003 C 
ATOM     19  C   UNL     1       9.140  17.635   1.470  1.00  0.00     0.004 C 
ENDBRANCH  17  18
ENDBRANCH  16  17
ENDBRANCH  15  16
ENDBRANCH  14  15
ENDBRANCH  13  14
ENDBRANCH  12  13
ENDBRANCH   1  12
TORSDOF 14
ENDMDL
MODEL 5
REMARK VINA RESULT:     7.312      3.410      8.059
REMARK INTER + INTRA:          12.275
REMARK INTER:                  12.947
REMARK INTRA:                  -0.672
REMARK UNBOUND:                -1.022
REMARK SMILES CCCCCCCCCCCCCC[C@@H](C)C(=O)[O-]
REMARK SMILES IDX 9 1 10 2 11 3 12 4 13 5 14 6 15 7 16 8 17 9 18 10 19 11 8 12
REMARK SMILES IDX 7 13 6 14 5 15 4 16 3 17 2 18 1 19
REMARK H PARENT
REMARK Flexibility Score: inf
ROOT
ATOM      1  C   UNL     1      11.553  14.245  -1.400  1.00  0.00     0.000 C 
ENDROOT
BRANCH   1   2
ATOM      2  C   UNL     1      10.455  14.092  -2.468  1.00  0.00     0.000 C 
BRANCH   2   3
ATOM      3  C   UNL     1      10.969  13.464  -3.773  1.00  0.00     0.000 C 
BRANCH   3   4
ATOM      4  C   UNL     1      10.513  14.276  -4.991  1.00  0.00     0.000 C 
BRANCH   4   5
ATOM      5  C   UNL     1      11.076  15.705  -4.944  1.00  0.00     0.001 C 
BRANCH   5   6
ATOM      6  C   UNL     1      11.789  16.095  -6.256  1.00  0.00     0.009 C 
BRANCH   6   7
ATOM      7  C   UNL     1      12.502  17.466  -6.191  1.00  0.00     0.032 C 
ATOM      8  C   UNL     1      12.740  17.938  -4.750  1.00  0.00     0.014 C 
BRANCH   7   9
ATOM      9  C   UNL     1      13.810  17.399  -6.929  1.00  0.00     0.044 C 
ATOM     10  O   UNL     1      14.653  18.329  -6.825  1.00  0.00    -0.550 OA
ATOM     11  O   UNL     1      14.098  16.301  -7.732  1.00  0.00    -0.550 OA
ENDBRANCH   7   9
ENDBRANCH   6   7
ENDBRANCH   5   6
ENDBRANCH   4   5
ENDBRANCH   3   4
ENDBRANCH   2   3
ENDBRANCH   1   2
BRANCH   1  12
ATOM     12  C   UNL     1      11.578  13.145  -0.324  1.00  0.00     0.000 C 
BRANCH  12  13
ATOM     13  C   UNL     1      12.556  13.450   0.823  1.00  0.00    -0.000 C 
BRANCH  13  14
ATOM     14  C   UNL     1      11.909  14.278   1.945  1.00  0.00    -0.000 C 
BRANCH  14  15
ATOM     15  C   UNL     1      11.129  15.494   1.411  1.00  0.00    -0.000 C 
BRANCH  15  16
ATOM     16  C   UNL     1       9.782  15.690   2.124  1.00  0.00    -0.000 C 
BRANCH  16  17
ATOM     17  C   UNL     1       8.595  15.176   1.296  1.00  0.00    -0.000 C 
BRANCH  17  18
ATOM     18  C   UNL     1       7.742  14.196   2.109  1.00  0.00    -0.003 C 
ATOM     19  C   UNL     1       6.257  14.379   1.811  1.00  0.00     0.004 C 
ENDBRANCH  17  18
ENDBRANCH  16  17
ENDBRANCH  15  16
ENDBRANCH  14  15
ENDBRANCH  13  14
ENDBRANCH  12  13
ENDBRANCH   1  12
TORSDOF 14
ENDMDL
MODEL 6
REMARK VINA RESULT:     7.357      7.605     12.619
REMARK INTER + INTRA:          12.357
REMARK INTER:                  12.998
REMARK INTRA:                  -0.641
REMARK UNBOUND:                -1.022
REMARK SMILES CCCCCCCCCCCCCC[C@@H](C)C(=O)[O-]
REMARK SMILES IDX 9 1 10 2 11 3 12 4 13 5 14 6 15 7 16 8 17 9 18 10 19 11 8 12
REMARK SMILES IDX 7 13 6 14 5 15 4 16 3 17 2 18 1 19
REMARK H PARENT
REMARK Flexibility Score: inf
ROOT
ATOM      1  C   UNL     1      15.768  15.098 -13.309  1.00  0.00     0.000 C 
ENDROOT
BRANCH   1   2
ATOM      2  C   UNL     1      17.208  14.583 -13.483  1.00  0.00     0.000 C 
BRANCH   2   3
ATOM      3  C   UNL     1      18.267  15.670 -13.245  1.00  0.00     0.000 C 
BRANCH   3   4
ATOM      4  C   UNL     1      17.611  17.003 -12.864  1.00  0.00     0.000 C 
BRANCH   4   5
ATOM      5  C   UNL     1      18.208  17.560 -11.563  1.00  0.00     0.001 C 
BRANCH   5   6
ATOM      6  C   UNL     1      18.085  19.097 -11.475  1.00  0.00     0.009 C 
BRANCH   6   7
ATOM      7  C   UNL     1      18.494  19.828 -12.775  1.00  0.00     0.032 C 
ATOM      8  C   UNL     1      17.288  20.382 -13.543  1.00  0.00     0.014 C 
BRANCH   7   9
ATOM      9  C   UNL     1      19.453  20.942 -12.456  1.00  0.00     0.044 C 
ATOM     10  O   UNL     1      19.026  22.067 -12.081  1.00  0.00    -0.550 OA
ATOM     11  O   UNL     1      20.822  20.732 -12.569  1.00  0.00    -0.550 OA
ENDBRANCH   7   9
ENDBRANCH   6   7
ENDBRANCH   5   6
ENDBRANCH   4   5
ENDBRANCH   3   4
ENDBRANCH   2   3
ENDBRANCH   1   2
BRANCH   1  12
ATOM     12  C   UNL     1      15.077  14.683 -11.997  1.00  0.00     0.000 C 
BRANCH  12  13
ATOM     13  C   UNL     1      15.261  15.714 -10.871  1.00  0.00    -0.000 C 
BRANCH  13  14
ATOM     14  C   UNL     1      14.502  15.331  -9.590  1.00  0.00    -0.000 C 
BRANCH  14  15
ATOM     15  C   UNL     1      15.054  16.037  -8.339  1.00  0.00    -0.000 C 
BRANCH  15  16
ATOM     16  C   UNL     1      13.970  16.289  -7.277  1.00  0.00    -0.000 C 
BRANCH  16  17
ATOM     17  C   UNL     1      14.131  17.648  -6.580  1.00  0.00    -0.000 C 
BRANCH  17  18
ATOM     18  C   UNL     1      12.835  18.057  -5.870  1.00  0.00    -0.003 C 
ATOM     19  C   UNL     1      11.889  16.869  -5.722  1.00  0.00     0.004 C 
ENDBRANCH  17  18
ENDBRANCH  16  17
ENDBRANCH  15  16
ENDBRANCH  14  15
ENDBRANCH  13  14
ENDBRANCH  12  13
ENDBRANCH   1  12
TORSDOF 14
ENDMDL
