MODEL 1
REMARK VINA RESULT:    -4.426      0.000      0.000
REMARK INTER + INTRA:          -9.288
REMARK INTER:                  -8.308
REMARK INTRA:                  -0.980
REMARK UNBOUND:                -0.980
REMARK SMILES CCCCCCCCC=CCCCCCCCC(=O)[O-]
REMARK SMILES IDX 10 1 9 2 11 3 12 4 13 5 14 6 15 7 16 8 17 9 18 10 19 11
REMARK SMILES IDX 20 12 8 13 7 14 6 15 5 16 4 17 3 18 2 19 1 20
REMARK H PARENT
REMARK Flexibility Score: inf
ROOT
ATOM      1  C   UNL     1      22.147 -19.670 -17.041  1.00  0.00    -0.031 C 
ATOM      2  C   UNL     1      21.220 -20.387 -17.708  1.00  0.00    -0.031 C 
ENDROOT
BRANCH   1   3
ATOM      3  C   UNL     1      23.399 -19.095 -17.653  1.00  0.00     0.027 C 
BRANCH   3   4
ATOM      4  C   UNL     1      23.473 -17.573 -17.455  1.00  0.00     0.004 C 
BRANCH   4   5
ATOM      5  C   UNL     1      22.081 -16.924 -17.365  1.00  0.00     0.000 C 
BRANCH   5   6
ATOM      6  C   UNL     1      22.068 -15.609 -16.561  1.00  0.00     0.000 C 
BRANCH   6   7
ATOM      7  C   UNL     1      20.643 -15.140 -16.183  1.00  0.00     0.000 C 
BRANCH   7   8
ATOM      8  C   UNL     1      19.604 -16.277 -16.211  1.00  0.00     0.006 C 
BRANCH   8   9
ATOM      9  C   UNL     1      18.431 -16.056 -15.244  1.00  0.00     0.053 C 
BRANCH   9  10
ATOM     10  C   UNL     1      17.424 -15.097 -15.802  1.00  0.00     0.041 C 
ATOM     11  O   UNL     1      17.411 -13.896 -15.422  1.00  0.00    -0.550 OA
ATOM     12  O   UNL     1      16.514 -15.526 -16.760  1.00  0.00    -0.550 OA
ENDBRANCH   9  10
ENDBRANCH   8   9
ENDBRANCH   7   8
ENDBRANCH   6   7
ENDBRANCH   5   6
ENDBRANCH   4   5
ENDBRANCH   3   4
ENDBRANCH   1   3
BRANCH   2  13
ATOM     13  C   UNL     1      21.287 -20.760 -19.172  1.00  0.00     0.027 C 
BRANCH  13  14
ATOM     14  C   UNL     1      19.911 -21.169 -19.727  1.00  0.00     0.004 C 
BRANCH  14  15
ATOM     15  C   UNL     1      19.306 -22.432 -19.085  1.00  0.00     0.000 C 
BRANCH  15  16
ATOM     16  C   UNL     1      18.447 -23.249 -20.065  1.00  0.00     0.000 C 
BRANCH  16  17
ATOM     17  C   UNL     1      17.590 -24.303 -19.341  1.00  0.00    -0.000 C 
BRANCH  17  18
ATOM     18  C   UNL     1      17.023 -23.804 -17.992  1.00  0.00    -0.000 C 
BRANCH  18  19
ATOM     19  C   UNL     1      15.494 -23.928 -17.886  1.00  0.00    -0.003 C 
ATOM     20  C   UNL     1      14.866 -22.834 -17.023  1.00  0.00     0.004 C 
ENDBRANCH  18  19
ENDBRANCH  17  18
ENDBRANCH  16  17
ENDBRANCH  15  16
ENDBRANCH  14  15
ENDBRANCH  13  14
ENDBRANCH   2  13
TORSDOF 15
ENDMDL
MODEL 2
REMARK VINA RESULT:    -4.421      0.860      1.971
REMARK INTER + INTRA:          -9.279
REMARK INTER:                  -8.302
REMARK INTRA:                  -0.977
REMARK UNBOUND:                -0.980
REMARK SMILES CCCCCCCCC=CCCCCCCCC(=O)[O-]
REMARK SMILES IDX 10 1 9 2 11 3 12 4 13 5 14 6 15 7 16 8 17 9 18 10 19 11
REMARK SMILES IDX 20 12 8 13 7 14 6 15 5 16 4 17 3 18 2 19 1 20
REMARK H PARENT
REMARK Flexibility Score: inf
ROOT
ATOM      1  C   UNL     1      20.447 -20.000 -19.132  1.00  0.00    -0.031 C 
ATOM      2  C   UNL     1      19.836 -20.749 -20.073  1.00  0.00    -0.031 C 
ENDROOT
BRANCH   1   3
ATOM      3  C   UNL     1      21.404 -20.529 -18.094  1.00  0.00     0.027 C 
BRANCH   3   4
ATOM      4  C   UNL     1      21.514 -19.574 -16.895  1.00  0.00     0.004 C 
BRANCH   4   5
ATOM      5  C   UNL     1      22.426 -18.369 -17.185  1.00  0.00     0.000 C 
BRANCH   5   6
ATOM      6  C   UNL     1      21.694 -17.014 -17.114  1.00  0.00     0.000 C 
BRANCH   6   7
ATOM      7  C   UNL     1      20.201 -17.149 -16.727  1.00  0.00     0.000 C 
BRANCH   7   8
ATOM      8  C   UNL     1      19.619 -15.864 -16.107  1.00  0.00     0.006 C 
BRANCH   8   9
ATOM      9  C   UNL     1      18.257 -16.077 -15.429  1.00  0.00     0.053 C 
BRANCH   9  10
ATOM     10  C   UNL     1      17.272 -15.016 -15.817  1.00  0.00     0.041 C 
ATOM     11  O   UNL     1      16.515 -15.183 -16.810  1.00  0.00    -0.550 OA
ATOM     12  O   UNL     1      17.177 -13.850 -15.067  1.00  0.00    -0.550 OA
ENDBRANCH   9  10
ENDBRANCH   8   9
ENDBRANCH   7   8
ENDBRANCH   6   7
ENDBRANCH   5   6
ENDBRANCH   4   5
ENDBRANCH   3   4
ENDBRANCH   1   3
BRANCH   2  13
ATOM     13  C   UNL     1      19.981 -22.246 -20.232  1.00  0.00     0.027 C 
BRANCH  13  14
ATOM     14  C   UNL     1      18.707 -22.892 -20.803  1.00  0.00     0.004 C 
BRANCH  14  15
ATOM     15  C   UNL     1      18.543 -24.389 -20.479  1.00  0.00     0.000 C 
BRANCH  15  16
ATOM     16  C   UNL     1      17.387 -24.668 -19.502  1.00  0.00     0.000 C 
BRANCH  16  17
ATOM     17  C   UNL     1      17.092 -23.460 -18.596  1.00  0.00    -0.000 C 
BRANCH  17  18
ATOM     18  C   UNL     1      16.112 -23.787 -17.446  1.00  0.00    -0.000 C 
BRANCH  18  19
ATOM     19  C   UNL     1      14.865 -22.887 -17.431  1.00  0.00    -0.003 C 
ATOM     20  C   UNL     1      14.199 -22.769 -18.801  1.00  0.00     0.004 C 
ENDBRANCH  18  19
ENDBRANCH  17  18
ENDBRANCH  16  17
ENDBRANCH  15  16
ENDBRANCH  14  15
ENDBRANCH  13  14
ENDBRANCH   2  13
TORSDOF 15
ENDMDL
MODEL 3
REMARK VINA RESULT:    -4.334      2.830      7.720
REMARK INTER + INTRA:          -9.115
REMARK INTER:                  -8.472
REMARK INTRA:                  -0.643
REMARK UNBOUND:                -0.980
REMARK SMILES CCCCCCCCC=CCCCCCCCC(=O)[O-]
REMARK SMILES IDX 10 1 9 2 11 3 12 4 13 5 14 6 15 7 16 8 17 9 18 10 19 11
REMARK SMILES IDX 20 12 8 13 7 14 6 15 5 16 4 17 3 18 2 19 1 20
REMARK H PARENT
REMARK Flexibility Score: inf
ROOT
ATOM      1  C   UNL     1      20.539 -20.779 -19.421  1.00  0.00    -0.031 C 
ATOM      2  C   UNL     1      21.079 -19.757 -18.727  1.00  0.00    -0.031 C 
ENDROOT
BRANCH   1   3
ATOM      3  C   UNL     1      20.349 -22.178 -18.891  1.00  0.00     0.027 C 
BRANCH   3   4
ATOM      4  C   UNL     1      20.380 -23.216 -20.024  1.00  0.00     0.004 C 
BRANCH   4   5
ATOM      5  C   UNL     1      18.970 -23.611 -20.498  1.00  0.00     0.000 C 
BRANCH   5   6
ATOM      6  C   UNL     1      18.376 -24.805 -19.725  1.00  0.00     0.000 C 
BRANCH   6   7
ATOM      7  C   UNL     1      16.895 -24.596 -19.325  1.00  0.00     0.000 C 
BRANCH   7   8
ATOM      8  C   UNL     1      16.727 -23.734 -18.060  1.00  0.00     0.006 C 
BRANCH   8   9
ATOM      9  C   UNL     1      15.274 -23.649 -17.569  1.00  0.00     0.053 C 
BRANCH   9  10
ATOM     10  C   UNL     1      14.337 -23.260 -18.673  1.00  0.00     0.041 C 
ATOM     11  O   UNL     1      14.329 -22.081 -19.114  1.00  0.00    -0.550 OA
ATOM     12  O   UNL     1      13.486 -24.209 -19.227  1.00  0.00    -0.550 OA
ENDBRANCH   9  10
ENDBRANCH   8   9
ENDBRANCH   7   8
ENDBRANCH   6   7
ENDBRANCH   5   6
ENDBRANCH   4   5
ENDBRANCH   3   4
ENDBRANCH   1   3
BRANCH   2  13
ATOM     13  C   UNL     1      21.611 -19.842 -17.314  1.00  0.00     0.027 C 
BRANCH  13  14
ATOM     14  C   UNL     1      22.474 -18.621 -16.947  1.00  0.00     0.004 C 
BRANCH  14  15
ATOM     15  C   UNL     1      21.740 -17.269 -17.017  1.00  0.00     0.000 C 
BRANCH  15  16
ATOM     16  C   UNL     1      20.256 -17.371 -16.624  1.00  0.00     0.000 C 
BRANCH  16  17
ATOM     17  C   UNL     1      19.708 -16.039 -16.082  1.00  0.00    -0.000 C 
BRANCH  17  18
ATOM     18  C   UNL     1      18.321 -16.177 -15.414  1.00  0.00    -0.000 C 
BRANCH  18  19
ATOM     19  C   UNL     1      17.503 -14.875 -15.427  1.00  0.00    -0.003 C 
ATOM     20  C   UNL     1      16.538 -14.790 -16.608  1.00  0.00     0.004 C 
ENDBRANCH  18  19
ENDBRANCH  17  18
ENDBRANCH  16  17
ENDBRANCH  15  16
ENDBRANCH  14  15
ENDBRANCH  13  14
ENDBRANCH   2  13
TORSDOF 15
ENDMDL
MODEL 4
REMARK VINA RESULT:    -4.288      2.706      7.348
REMARK INTER + INTRA:          -9.029
REMARK INTER:                  -7.756
REMARK INTRA:                  -1.273
REMARK UNBOUND:                -0.980
REMARK SMILES CCCCCCCCC=CCCCCCCCC(=O)[O-]
REMARK SMILES IDX 10 1 9 2 11 3 12 4 13 5 14 6 15 7 16 8 17 9 18 10 19 11
REMARK SMILES IDX 20 12 8 13 7 14 6 15 5 16 4 17 3 18 2 19 1 20
REMARK H PARENT
REMARK Flexibility Score: inf
ROOT
ATOM      1  C   UNL     1      21.408 -19.670 -17.175  1.00  0.00    -0.031 C 
ATOM      2  C   UNL     1      22.700 -19.371 -16.930  1.00  0.00    -0.031 C 
ENDROOT
BRANCH   1   3
ATOM      3  C   UNL     1      20.740 -19.577 -18.523  1.00  0.00     0.027 C 
BRANCH   3   4
ATOM      4  C   UNL     1      20.940 -20.863 -19.339  1.00  0.00     0.004 C 
BRANCH   4   5
ATOM      5  C   UNL     1      20.015 -22.003 -18.877  1.00  0.00     0.000 C 
BRANCH   5   6
ATOM      6  C   UNL     1      18.783 -22.198 -19.782  1.00  0.00     0.000 C 
BRANCH   6   7
ATOM      7  C   UNL     1      18.075 -23.557 -19.562  1.00  0.00     0.000 C 
BRANCH   7   8
ATOM      8  C   UNL     1      17.343 -23.645 -18.210  1.00  0.00     0.006 C 
BRANCH   8   9
ATOM      9  C   UNL     1      15.863 -24.035 -18.342  1.00  0.00     0.053 C 
BRANCH   9  10
ATOM     10  C   UNL     1      14.955 -22.907 -17.956  1.00  0.00     0.041 C 
ATOM     11  O   UNL     1      14.309 -22.280 -18.838  1.00  0.00    -0.550 OA
ATOM     12  O   UNL     1      14.806 -22.561 -16.619  1.00  0.00    -0.550 OA
ENDBRANCH   9  10
ENDBRANCH   8   9
ENDBRANCH   7   8
ENDBRANCH   6   7
ENDBRANCH   5   6
ENDBRANCH   4   5
ENDBRANCH   3   4
ENDBRANCH   1   3
BRANCH   2  13
ATOM     13  C   UNL     1      23.692 -18.868 -17.955  1.00  0.00     0.027 C 
BRANCH  13  14
ATOM     14  C   UNL     1      24.168 -17.438 -17.643  1.00  0.00     0.004 C 
BRANCH  14  15
ATOM     15  C   UNL     1      23.347 -16.706 -16.564  1.00  0.00     0.000 C 
BRANCH  15  16
ATOM     16  C   UNL     1      22.447 -15.601 -17.143  1.00  0.00     0.000 C 
BRANCH  16  17
ATOM     17  C   UNL     1      21.214 -15.338 -16.258  1.00  0.00    -0.000 C 
BRANCH  17  18
ATOM     18  C   UNL     1      20.145 -16.449 -16.359  1.00  0.00    -0.000 C 
BRANCH  18  19
ATOM     19  C   UNL     1      18.900 -16.180 -15.496  1.00  0.00    -0.003 C 
ATOM     20  C   UNL     1      17.952 -15.159 -16.122  1.00  0.00     0.004 C 
ENDBRANCH  18  19
ENDBRANCH  17  18
ENDBRANCH  16  17
ENDBRANCH  15  16
ENDBRANCH  14  15
ENDBRANCH  13  14
ENDBRANCH   2  13
TORSDOF 15
ENDMDL
MODEL 5
REMARK VINA RESULT:    -4.261      2.880      7.824
REMARK INTER + INTRA:          -8.978
REMARK INTER:                  -7.632
REMARK INTRA:                  -1.346
REMARK UNBOUND:                -0.980
REMARK SMILES CCCCCCCCC=CCCCCCCCC(=O)[O-]
REMARK SMILES IDX 10 1 9 2 11 3 12 4 13 5 14 6 15 7 16 8 17 9 18 10 19 11
REMARK SMILES IDX 20 12 8 13 7 14 6 15 5 16 4 17 3 18 2 19 1 20
REMARK H PARENT
REMARK Flexibility Score: inf
ROOT
ATOM      1  C   UNL     1      20.582 -19.828 -19.006  1.00  0.00    -0.031 C 
ATOM      2  C   UNL     1      21.115 -19.174 -17.954  1.00  0.00    -0.031 C 
ENDROOT
BRANCH   1   3
ATOM      3  C   UNL     1      21.090 -21.137 -19.556  1.00  0.00     0.027 C 
BRANCH   3   4
ATOM      4  C   UNL     1      20.377 -22.334 -18.906  1.00  0.00     0.004 C 
BRANCH   4   5
ATOM      5  C   UNL     1      18.935 -22.505 -19.413  1.00  0.00     0.000 C 
BRANCH   5   6
ATOM      6  C   UNL     1      18.575 -23.964 -19.758  1.00  0.00     0.000 C 
BRANCH   6   7
ATOM      7  C   UNL     1      17.224 -24.417 -19.153  1.00  0.00     0.000 C 
BRANCH   7   8
ATOM      8  C   UNL     1      16.758 -23.531 -17.982  1.00  0.00     0.006 C 
BRANCH   8   9
ATOM      9  C   UNL     1      15.311 -23.809 -17.546  1.00  0.00     0.053 C 
BRANCH   9  10
ATOM     10  C   UNL     1      14.333 -23.499 -18.639  1.00  0.00     0.041 C 
ATOM     11  O   UNL     1      14.184 -22.316 -19.043  1.00  0.00    -0.550 OA
ATOM     12  O   UNL     1      13.601 -24.524 -19.226  1.00  0.00    -0.550 OA
ENDBRANCH   9  10
ENDBRANCH   8   9
ENDBRANCH   7   8
ENDBRANCH   6   7
ENDBRANCH   5   6
ENDBRANCH   4   5
ENDBRANCH   3   4
ENDBRANCH   1   3
BRANCH   2  13
ATOM     13  C   UNL     1      22.324 -19.623 -17.164  1.00  0.00     0.027 C 
BRANCH  13  14
ATOM     14  C   UNL     1      23.251 -18.446 -16.810  1.00  0.00     0.004 C 
BRANCH  14  15
ATOM     15  C   UNL     1      23.685 -17.585 -18.010  1.00  0.00     0.000 C 
BRANCH  15  16
ATOM     16  C   UNL     1      23.161 -16.140 -17.932  1.00  0.00     0.000 C 
BRANCH  16  17
ATOM     17  C   UNL     1      22.674 -15.778 -16.518  1.00  0.00    -0.000 C 
BRANCH  17  18
ATOM     18  C   UNL     1      21.249 -15.179 -16.500  1.00  0.00    -0.000 C 
BRANCH  18  19
ATOM     19  C   UNL     1      20.146 -16.231 -16.291  1.00  0.00    -0.003 C 
ATOM     20  C   UNL     1      18.789 -15.612 -15.960  1.00  0.00     0.004 C 
ENDBRANCH  18  19
ENDBRANCH  17  18
ENDBRANCH  16  17
ENDBRANCH  15  16
ENDBRANCH  14  15
ENDBRANCH  13  14
ENDBRANCH   2  13
TORSDOF 15
ENDMDL
MODEL 6
REMARK VINA RESULT:    -4.189      1.427      2.480
REMARK INTER + INTRA:          -8.842
REMARK INTER:                  -7.978
REMARK INTRA:                  -0.864
REMARK UNBOUND:                -0.980
REMARK SMILES CCCCCCCCC=CCCCCCCCC(=O)[O-]
REMARK SMILES IDX 10 1 9 2 11 3 12 4 13 5 14 6 15 7 16 8 17 9 18 10 19 11
REMARK SMILES IDX 20 12 8 13 7 14 6 15 5 16 4 17 3 18 2 19 1 20
REMARK H PARENT
REMARK Flexibility Score: inf
ROOT
ATOM      1  C   UNL     1      21.000 -21.749 -18.593  1.00  0.00    -0.031 C 
ATOM      2  C   UNL     1      20.123 -22.629 -19.119  1.00  0.00    -0.031 C 
ENDROOT
BRANCH   1   3
ATOM      3  C   UNL     1      21.062 -20.282 -18.936  1.00  0.00     0.027 C 
BRANCH   3   4
ATOM      4  C   UNL     1      22.382 -19.651 -18.465  1.00  0.00     0.004 C 
BRANCH   4   5
ATOM      5  C   UNL     1      22.230 -18.899 -17.131  1.00  0.00     0.000 C 
BRANCH   5   6
ATOM      6  C   UNL     1      21.435 -17.584 -17.254  1.00  0.00     0.000 C 
BRANCH   6   7
ATOM      7  C   UNL     1      20.234 -17.506 -16.282  1.00  0.00     0.000 C 
BRANCH   7   8
ATOM      8  C   UNL     1      19.611 -16.099 -16.203  1.00  0.00     0.006 C 
BRANCH   8   9
ATOM      9  C   UNL     1      18.314 -16.052 -15.380  1.00  0.00     0.053 C 
BRANCH   9  10
ATOM     10  C   UNL     1      17.375 -14.999 -15.884  1.00  0.00     0.041 C 
ATOM     11  O   UNL     1      17.445 -13.820 -15.444  1.00  0.00    -0.550 OA
ATOM     12  O   UNL     1      16.435 -15.315 -16.857  1.00  0.00    -0.550 OA
ENDBRANCH   9  10
ENDBRANCH   8   9
ENDBRANCH   7   8
ENDBRANCH   6   7
ENDBRANCH   5   6
ENDBRANCH   4   5
ENDBRANCH   3   4
ENDBRANCH   1   3
BRANCH   2  13
ATOM     13  C   UNL     1      19.074 -22.305 -20.158  1.00  0.00     0.027 C 
BRANCH  13  14
ATOM     14  C   UNL     1      17.647 -22.416 -19.591  1.00  0.00     0.004 C 
BRANCH  14  15
ATOM     15  C   UNL     1      17.346 -23.736 -18.857  1.00  0.00     0.000 C 
BRANCH  15  16
ATOM     16  C   UNL     1      16.345 -23.566 -17.702  1.00  0.00     0.000 C 
BRANCH  16  17
ATOM     17  C   UNL     1      14.926 -24.011 -18.097  1.00  0.00    -0.000 C 
BRANCH  17  18
ATOM     18  C   UNL     1      14.900 -24.927 -19.342  1.00  0.00    -0.000 C 
BRANCH  18  19
ATOM     19  C   UNL     1      13.858 -24.503 -20.391  1.00  0.00    -0.003 C 
ATOM     20  C   UNL     1      12.483 -25.125 -20.150  1.00  0.00     0.004 C 
ENDBRANCH  18  19
ENDBRANCH  17  18
ENDBRANCH  16  17
ENDBRANCH  15  16
ENDBRANCH  14  15
ENDBRANCH  13  14
ENDBRANCH   2  13
TORSDOF 15
ENDMDL
MODEL 7
REMARK VINA RESULT:    -4.173      3.050      8.104
REMARK INTER + INTRA:          -8.811
REMARK INTER:                  -7.369
REMARK INTRA:                  -1.442
REMARK UNBOUND:                -0.980
REMARK SMILES CCCCCCCCC=CCCCCCCCC(=O)[O-]
REMARK SMILES IDX 10 1 9 2 11 3 12 4 13 5 14 6 15 7 16 8 17 9 18 10 19 11
REMARK SMILES IDX 20 12 8 13 7 14 6 15 5 16 4 17 3 18 2 19 1 20
REMARK H PARENT
REMARK Flexibility Score: inf
ROOT
ATOM      1  C   UNL     1      20.616 -20.293 -19.174  1.00  0.00    -0.031 C 
ATOM      2  C   UNL     1      20.912 -19.153 -18.516  1.00  0.00    -0.031 C 
ENDROOT
BRANCH   1   3
ATOM      3  C   UNL     1      20.617 -21.670 -18.561  1.00  0.00     0.027 C 
BRANCH   3   4
ATOM      4  C   UNL     1      19.966 -22.701 -19.495  1.00  0.00     0.004 C 
BRANCH   4   5
ATOM      5  C   UNL     1      18.459 -22.864 -19.231  1.00  0.00     0.000 C 
BRANCH   5   6
ATOM      6  C   UNL     1      17.945 -24.298 -19.468  1.00  0.00     0.000 C 
BRANCH   6   7
ATOM      7  C   UNL     1      16.544 -24.551 -18.863  1.00  0.00     0.000 C 
BRANCH   7   8
ATOM      8  C   UNL     1      16.202 -23.593 -17.707  1.00  0.00     0.006 C 
BRANCH   8   9
ATOM      9  C   UNL     1      14.767 -23.046 -17.772  1.00  0.00     0.053 C 
BRANCH   9  10
ATOM     10  C   UNL     1      14.443 -22.497 -19.129  1.00  0.00     0.041 C 
ATOM     11  O   UNL     1      13.504 -22.993 -19.807  1.00  0.00    -0.550 OA
ATOM     12  O   UNL     1      15.166 -21.424 -19.634  1.00  0.00    -0.550 OA
ENDBRANCH   9  10
ENDBRANCH   8   9
ENDBRANCH   7   8
ENDBRANCH   6   7
ENDBRANCH   5   6
ENDBRANCH   4   5
ENDBRANCH   3   4
ENDBRANCH   1   3
BRANCH   2  13
ATOM     13  C   UNL     1      21.320 -19.062 -17.063  1.00  0.00     0.027 C 
BRANCH  13  14
ATOM     14  C   UNL     1      22.820 -19.344 -16.866  1.00  0.00     0.004 C 
BRANCH  14  15
ATOM     15  C   UNL     1      23.690 -19.106 -18.114  1.00  0.00     0.000 C 
BRANCH  15  16
ATOM     16  C   UNL     1      24.557 -17.840 -18.010  1.00  0.00     0.000 C 
BRANCH  16  17
ATOM     17  C   UNL     1      24.706 -17.360 -16.555  1.00  0.00    -0.000 C 
BRANCH  17  18
ATOM     18  C   UNL     1      24.603 -15.825 -16.406  1.00  0.00    -0.000 C 
BRANCH  18  19
ATOM     19  C   UNL     1      23.500 -15.199 -17.277  1.00  0.00    -0.003 C 
ATOM     20  C   UNL     1      22.098 -15.415 -16.708  1.00  0.00     0.004 C 
ENDBRANCH  18  19
ENDBRANCH  17  18
ENDBRANCH  16  17
ENDBRANCH  15  16
ENDBRANCH  14  15
ENDBRANCH  13  14
ENDBRANCH   2  13
TORSDOF 15
ENDMDL
MODEL 8
REMARK VINA RESULT:    -4.076      2.970      8.200
REMARK INTER + INTRA:          -8.631
REMARK INTER:                  -7.475
REMARK INTRA:                  -1.156
REMARK UNBOUND:                -0.980
REMARK SMILES CCCCCCCCC=CCCCCCCCC(=O)[O-]
REMARK SMILES IDX 10 1 9 2 11 3 12 4 13 5 14 6 15 7 16 8 17 9 18 10 19 11
REMARK SMILES IDX 20 12 8 13 7 14 6 15 5 16 4 17 3 18 2 19 1 20
REMARK H PARENT
REMARK Flexibility Score: inf
ROOT
ATOM      1  C   UNL     1      19.580 -23.090 -19.402  1.00  0.00    -0.031 C 
ATOM      2  C   UNL     1      20.622 -22.247 -19.253  1.00  0.00    -0.031 C 
ENDROOT
BRANCH   1   3
ATOM      3  C   UNL     1      18.128 -22.688 -19.337  1.00  0.00     0.027 C 
BRANCH   3   4
ATOM      4  C   UNL     1      17.330 -23.617 -18.408  1.00  0.00     0.004 C 
BRANCH   4   5
ATOM      5  C   UNL     1      15.941 -23.052 -18.065  1.00  0.00     0.000 C 
BRANCH   5   6
ATOM      6  C   UNL     1      14.830 -24.121 -18.050  1.00  0.00     0.000 C 
BRANCH   6   7
ATOM      7  C   UNL     1      13.868 -24.017 -19.257  1.00  0.00     0.000 C 
BRANCH   7   8
ATOM      8  C   UNL     1      14.446 -23.190 -20.421  1.00  0.00     0.006 C 
BRANCH   8   9
ATOM      9  C   UNL     1      13.473 -22.128 -20.957  1.00  0.00     0.053 C 
BRANCH   9  10
ATOM     10  C   UNL     1      13.843 -20.751 -20.492  1.00  0.00     0.041 C 
ATOM     11  O   UNL     1      12.951 -19.883 -20.302  1.00  0.00    -0.550 OA
ATOM     12  O   UNL     1      15.174 -20.436 -20.247  1.00  0.00    -0.550 OA
ENDBRANCH   9  10
ENDBRANCH   8   9
ENDBRANCH   7   8
ENDBRANCH   6   7
ENDBRANCH   5   6
ENDBRANCH   4   5
ENDBRANCH   3   4
ENDBRANCH   1   3
BRANCH   2  13
ATOM     13  C   UNL     1      20.517 -20.765 -18.970  1.00  0.00     0.027 C 
BRANCH  13  14
ATOM     14  C   UNL     1      21.784 -20.217 -18.287  1.00  0.00     0.004 C 
BRANCH  14  15
ATOM     15  C   UNL     1      21.528 -19.448 -16.978  1.00  0.00     0.000 C 
BRANCH  15  16
ATOM     16  C   UNL     1      21.024 -18.014 -17.213  1.00  0.00     0.000 C 
BRANCH  16  17
ATOM     17  C   UNL     1      22.159 -16.979 -17.116  1.00  0.00    -0.000 C 
BRANCH  17  18
ATOM     18  C   UNL     1      22.856 -16.711 -18.469  1.00  0.00    -0.000 C 
BRANCH  18  19
ATOM     19  C   UNL     1      24.391 -16.720 -18.379  1.00  0.00    -0.003 C 
ATOM     20  C   UNL     1      24.947 -18.029 -17.821  1.00  0.00     0.004 C 
ENDBRANCH  18  19
ENDBRANCH  17  18
ENDBRANCH  16  17
ENDBRANCH  15  16
ENDBRANCH  14  15
ENDBRANCH  13  14
ENDBRANCH   2  13
TORSDOF 15
ENDMDL
MODEL 9
REMARK VINA RESULT:    -4.073      2.915      4.715
REMARK INTER + INTRA:          -8.625
REMARK INTER:                  -7.306
REMARK INTRA:                  -1.318
REMARK UNBOUND:                -0.980
REMARK SMILES CCCCCCCCC=CCCCCCCCC(=O)[O-]
REMARK SMILES IDX 10 1 9 2 11 3 12 4 13 5 14 6 15 7 16 8 17 9 18 10 19 11
REMARK SMILES IDX 20 12 8 13 7 14 6 15 5 16 4 17 3 18 2 19 1 20
REMARK H PARENT
REMARK Flexibility Score: inf
ROOT
ATOM      1  C   UNL     1      19.032 -21.735 -19.937  1.00  0.00    -0.031 C 
ATOM      2  C   UNL     1      18.153 -22.707 -20.258  1.00  0.00    -0.031 C 
ENDROOT
BRANCH   1   3
ATOM      3  C   UNL     1      20.191 -21.898 -18.987  1.00  0.00     0.027 C 
BRANCH   3   4
ATOM      4  C   UNL     1      21.494 -21.352 -19.592  1.00  0.00     0.004 C 
BRANCH   4   5
ATOM      5  C   UNL     1      22.081 -20.190 -18.772  1.00  0.00     0.000 C 
BRANCH   5   6
ATOM      6  C   UNL     1      21.344 -19.946 -17.440  1.00  0.00     0.000 C 
BRANCH   6   7
ATOM      7  C   UNL     1      21.213 -18.445 -17.084  1.00  0.00     0.000 C 
BRANCH   7   8
ATOM      8  C   UNL     1      22.562 -17.701 -17.095  1.00  0.00     0.006 C 
BRANCH   8   9
ATOM      9  C   UNL     1      22.417 -16.178 -17.234  1.00  0.00     0.053 C 
BRANCH   9  10
ATOM     10  C   UNL     1      23.692 -15.466 -16.897  1.00  0.00     0.041 C 
ATOM     11  O   UNL     1      24.649 -16.092 -16.369  1.00  0.00    -0.550 OA
ATOM     12  O   UNL     1      23.830 -14.114 -17.188  1.00  0.00    -0.550 OA
ENDBRANCH   9  10
ENDBRANCH   8   9
ENDBRANCH   7   8
ENDBRANCH   6   7
ENDBRANCH   5   6
ENDBRANCH   4   5
ENDBRANCH   3   4
ENDBRANCH   1   3
BRANCH   2  13
ATOM     13  C   UNL     1      18.163 -24.114 -19.705  1.00  0.00     0.027 C 
BRANCH  13  14
ATOM     14  C   UNL     1      16.828 -24.478 -19.030  1.00  0.00     0.004 C 
BRANCH  14  15
ATOM     15  C   UNL     1      16.495 -23.654 -17.773  1.00  0.00     0.000 C 
BRANCH  15  16
ATOM     16  C   UNL     1      15.090 -23.029 -17.819  1.00  0.00     0.000 C 
BRANCH  16  17
ATOM     17  C   UNL     1      14.184 -23.721 -18.854  1.00  0.00    -0.000 C 
BRANCH  17  18
ATOM     18  C   UNL     1      13.918 -22.853 -20.105  1.00  0.00    -0.000 C 
BRANCH  18  19
ATOM     19  C   UNL     1      14.423 -21.407 -19.966  1.00  0.00    -0.003 C 
ATOM     20  C   UNL     1      13.339 -20.368 -20.250  1.00  0.00     0.004 C 
ENDBRANCH  18  19
ENDBRANCH  17  18
ENDBRANCH  16  17
ENDBRANCH  15  16
ENDBRANCH  14  15
ENDBRANCH  13  14
ENDBRANCH   2  13
TORSDOF 15
ENDMDL
