MODEL 1
REMARK VINA RESULT:    -4.808      0.000      0.000
REMARK INTER + INTRA:          -5.645
REMARK INTER:                  -5.511
REMARK INTRA:                  -0.134
REMARK UNBOUND:                -0.134
REMARK SMILES O=C([O-])C=Cc1ccc(O)cc1
REMARK SMILES IDX 6 1 7 2 12 3 8 4 11 5 9 6 5 7 4 8 2 9 1 10 3 11 10 12
REMARK H PARENT 10 13
REMARK Flexibility Score: inf
ROOT
ATOM      1  C   UNL     1      34.519  21.921  26.119  1.00  0.00    -0.025 A 
ATOM      2  C   UNL     1      34.963  23.084  25.466  1.00  0.00     0.012 A 
ATOM      3  C   UNL     1      33.193  21.488  25.912  1.00  0.00     0.012 A 
ATOM      4  C   UNL     1      34.097  23.813  24.645  1.00  0.00     0.047 A 
ATOM      5  C   UNL     1      32.331  22.220  25.089  1.00  0.00     0.047 A 
ATOM      6  C   UNL     1      32.779  23.386  24.456  1.00  0.00     0.115 A 
ENDROOT
BRANCH   1   7
ATOM      7  C   UNL     1      35.480  21.175  26.971  1.00  0.00     0.010 C 
ATOM      8  C   UNL     1      35.186  20.711  28.194  1.00  0.00     0.025 C 
BRANCH   8   9
ATOM      9  C   UNL     1      36.169  19.986  29.016  1.00  0.00     0.064 C 
ATOM     10  O   UNL     1      36.693  18.914  28.612  1.00  0.00    -0.545 OA
ATOM     11  O   UNL     1      36.522  20.491  30.260  1.00  0.00    -0.545 OA
ENDBRANCH   8   9
ENDBRANCH   1   7
BRANCH   6  12
ATOM     12  O   UNL     1      31.927  24.122  23.637  1.00  0.00    -0.508 OA
ATOM     13  H   UNL     1      32.072  24.175  22.635  1.00  0.00     0.293 HD
ENDBRANCH   6  12
TORSDOF 3
ENDMDL
MODEL 2
REMARK VINA RESULT:    -4.580     13.370     15.245
REMARK INTER + INTRA:          -5.383
REMARK INTER:                  -5.234
REMARK INTRA:                  -0.148
REMARK UNBOUND:                -0.134
REMARK SMILES O=C([O-])C=Cc1ccc(O)cc1
REMARK SMILES IDX 6 1 7 2 12 3 8 4 11 5 9 6 5 7 4 8 2 9 1 10 3 11 10 12
REMARK H PARENT 10 13
REMARK Flexibility Score: inf
ROOT
ATOM      1  C   UNL     1      21.060  24.232  22.717  1.00  0.00    -0.025 A 
ATOM      2  C   UNL     1      20.083  23.372  22.186  1.00  0.00     0.012 A 
ATOM      3  C   UNL     1      22.416  23.988  22.416  1.00  0.00     0.012 A 
ATOM      4  C   UNL     1      20.450  22.280  21.393  1.00  0.00     0.047 A 
ATOM      5  C   UNL     1      22.779  22.896  21.621  1.00  0.00     0.047 A 
ATOM      6  C   UNL     1      21.797  22.038  21.110  1.00  0.00     0.115 A 
ENDROOT
BRANCH   1   7
ATOM      7  C   UNL     1      20.619  25.383  23.544  1.00  0.00     0.010 C 
ATOM      8  C   UNL     1      19.464  25.413  24.223  1.00  0.00     0.025 C 
BRANCH   8   9
ATOM      9  C   UNL     1      19.053  26.578  25.024  1.00  0.00     0.064 C 
ATOM     10  O   UNL     1      19.751  26.983  25.992  1.00  0.00    -0.545 OA
ATOM     11  O   UNL     1      17.875  27.242  24.708  1.00  0.00    -0.545 OA
ENDBRANCH   8   9
ENDBRANCH   1   7
BRANCH   6  12
ATOM     12  O   UNL     1      22.149  20.946  20.319  1.00  0.00    -0.508 OA
ATOM     13  H   UNL     1      22.500  21.067  19.376  1.00  0.00     0.293 HD
ENDBRANCH   6  12
TORSDOF 3
ENDMDL
MODEL 3
REMARK VINA RESULT:    -4.492     13.970     16.709
REMARK INTER + INTRA:          -5.282
REMARK INTER:                  -5.144
REMARK INTRA:                  -0.138
REMARK UNBOUND:                -0.134
REMARK SMILES O=C([O-])C=Cc1ccc(O)cc1
REMARK SMILES IDX 6 1 7 2 12 3 8 4 11 5 9 6 5 7 4 8 2 9 1 10 3 11 10 12
REMARK H PARENT 10 13
REMARK Flexibility Score: inf
ROOT
ATOM      1  C   UNL     1      25.852  33.144  20.050  1.00  0.00    -0.025 A 
ATOM      2  C   UNL     1      26.145  34.395  20.620  1.00  0.00     0.012 A 
ATOM      3  C   UNL     1      26.799  32.105  20.169  1.00  0.00     0.012 A 
ATOM      4  C   UNL     1      27.363  34.614  21.270  1.00  0.00     0.047 A 
ATOM      5  C   UNL     1      28.016  32.328  20.821  1.00  0.00     0.047 A 
ATOM      6  C   UNL     1      28.302  33.584  21.371  1.00  0.00     0.115 A 
ENDROOT
BRANCH   1   7
ATOM      7  C   UNL     1      24.541  32.958  19.379  1.00  0.00     0.010 C 
ATOM      8  C   UNL     1      23.363  33.021  20.017  1.00  0.00     0.025 C 
BRANCH   8   9
ATOM      9  C   UNL     1      22.082  32.819  19.320  1.00  0.00     0.064 C 
ATOM     10  O   UNL     1      21.537  33.752  18.674  1.00  0.00    -0.545 OA
ATOM     11  O   UNL     1      21.462  31.578  19.379  1.00  0.00    -0.545 OA
ENDBRANCH   8   9
ENDBRANCH   1   7
BRANCH   6  12
ATOM     12  O   UNL     1      29.512  33.815  22.021  1.00  0.00    -0.508 OA
ATOM     13  H   UNL     1      29.580  34.466  22.795  1.00  0.00     0.293 HD
ENDBRANCH   6  12
TORSDOF 3
ENDMDL
MODEL 4
REMARK VINA RESULT:    -4.491      4.906      6.283
REMARK INTER + INTRA:          -5.281
REMARK INTER:                  -5.137
REMARK INTRA:                  -0.144
REMARK UNBOUND:                -0.134
REMARK SMILES O=C([O-])C=Cc1ccc(O)cc1
REMARK SMILES IDX 6 1 7 2 12 3 8 4 11 5 9 6 5 7 4 8 2 9 1 10 3 11 10 12
REMARK H PARENT 10 13
REMARK Flexibility Score: inf
ROOT
ATOM      1  C   UNL     1      36.303  25.437  28.502  1.00  0.00    -0.025 A 
ATOM      2  C   UNL     1      35.440  25.490  29.610  1.00  0.00     0.012 A 
ATOM      3  C   UNL     1      37.310  26.416  28.377  1.00  0.00     0.012 A 
ATOM      4  C   UNL     1      35.562  26.511  30.558  1.00  0.00     0.047 A 
ATOM      5  C   UNL     1      37.430  27.434  29.328  1.00  0.00     0.047 A 
ATOM      6  C   UNL     1      36.554  27.486  30.420  1.00  0.00     0.115 A 
ENDROOT
BRANCH   1   7
ATOM      7  C   UNL     1      36.140  24.328  27.528  1.00  0.00     0.010 C 
ATOM      8  C   UNL     1      34.966  23.985  26.980  1.00  0.00     0.025 C 
BRANCH   8   9
ATOM      9  C   UNL     1      34.841  22.870  26.026  1.00  0.00     0.064 C 
ATOM     10  O   UNL     1      35.625  21.885  26.067  1.00  0.00    -0.545 OA
ATOM     11  O   UNL     1      33.842  22.907  25.062  1.00  0.00    -0.545 OA
ENDBRANCH   8   9
ENDBRANCH   1   7
BRANCH   6  12
ATOM     12  O   UNL     1      36.664  28.496  31.372  1.00  0.00    -0.508 OA
ATOM     13  H   UNL     1      36.142  28.465  32.239  1.00  0.00     0.293 HD
ENDBRANCH   6  12
TORSDOF 3
ENDMDL
MODEL 5
REMARK VINA RESULT:    -4.392      4.523      5.450
REMARK INTER + INTRA:          -5.167
REMARK INTER:                  -5.031
REMARK INTRA:                  -0.136
REMARK UNBOUND:                -0.134
REMARK SMILES O=C([O-])C=Cc1ccc(O)cc1
REMARK SMILES IDX 6 1 7 2 12 3 8 4 11 5 9 6 5 7 4 8 2 9 1 10 3 11 10 12
REMARK H PARENT 10 13
REMARK Flexibility Score: inf
ROOT
ATOM      1  C   UNL     1      36.073  23.976  28.746  1.00  0.00    -0.025 A 
ATOM      2  C   UNL     1      36.165  22.622  29.116  1.00  0.00     0.012 A 
ATOM      3  C   UNL     1      35.462  24.304  27.518  1.00  0.00     0.012 A 
ATOM      4  C   UNL     1      35.684  21.619  28.269  1.00  0.00     0.047 A 
ATOM      5  C   UNL     1      34.981  23.298  26.675  1.00  0.00     0.047 A 
ATOM      6  C   UNL     1      35.093  21.952  27.047  1.00  0.00     0.115 A 
ENDROOT
BRANCH   1   7
ATOM      7  C   UNL     1      36.588  25.004  29.684  1.00  0.00     0.010 C 
ATOM      8  C   UNL     1      35.834  25.985  30.201  1.00  0.00     0.025 C 
BRANCH   8   9
ATOM      9  C   UNL     1      36.384  26.996  31.119  1.00  0.00     0.064 C 
ATOM     10  O   UNL     1      36.147  28.223  30.956  1.00  0.00    -0.545 OA
ATOM     11  O   UNL     1      37.179  26.591  32.183  1.00  0.00    -0.545 OA
ENDBRANCH   8   9
ENDBRANCH   1   7
BRANCH   6  12
ATOM     12  O   UNL     1      34.619  20.942  26.213  1.00  0.00    -0.508 OA
ATOM     13  H   UNL     1      34.815  19.966  26.400  1.00  0.00     0.293 HD
ENDBRANCH   6  12
TORSDOF 3
ENDMDL
MODEL 6
REMARK VINA RESULT:    -4.338     13.627     15.829
REMARK INTER + INTRA:          -5.105
REMARK INTER:                  -4.965
REMARK INTRA:                  -0.140
REMARK UNBOUND:                -0.134
REMARK SMILES O=C([O-])C=Cc1ccc(O)cc1
REMARK SMILES IDX 6 1 7 2 12 3 8 4 11 5 9 6 5 7 4 8 2 9 1 10 3 11 10 12
REMARK H PARENT 10 13
REMARK Flexibility Score: inf
ROOT
ATOM      1  C   UNL     1      27.908  34.061  20.994  1.00  0.00    -0.025 A 
ATOM      2  C   UNL     1      28.320  35.122  21.819  1.00  0.00     0.012 A 
ATOM      3  C   UNL     1      28.840  33.055  20.666  1.00  0.00     0.012 A 
ATOM      4  C   UNL     1      29.636  35.193  22.284  1.00  0.00     0.047 A 
ATOM      5  C   UNL     1      30.155  33.128  21.134  1.00  0.00     0.047 A 
ATOM      6  C   UNL     1      30.558  34.199  21.942  1.00  0.00     0.115 A 
ENDROOT
BRANCH   1   7
ATOM      7  C   UNL     1      26.497  34.025  20.535  1.00  0.00     0.010 C 
ATOM      8  C   UNL     1      25.945  32.977  19.906  1.00  0.00     0.025 C 
BRANCH   8   9
ATOM      9  C   UNL     1      24.544  32.982  19.454  1.00  0.00     0.064 C 
ATOM     10  O   UNL     1      23.661  33.633  20.072  1.00  0.00    -0.545 OA
ATOM     11  O   UNL     1      24.189  32.254  18.326  1.00  0.00    -0.545 OA
ENDBRANCH   8   9
ENDBRANCH   1   7
BRANCH   6  12
ATOM     12  O   UNL     1      31.866  34.282  22.412  1.00  0.00    -0.508 OA
ATOM     13  H   UNL     1      32.641  33.887  21.892  1.00  0.00     0.293 HD
ENDBRANCH   6  12
TORSDOF 3
ENDMDL
MODEL 7
REMARK VINA RESULT:    -4.329     14.060     16.356
REMARK INTER + INTRA:          -5.096
REMARK INTER:                  -4.960
REMARK INTRA:                  -0.136
REMARK UNBOUND:                -0.134
REMARK SMILES O=C([O-])C=Cc1ccc(O)cc1
REMARK SMILES IDX 6 1 7 2 12 3 8 4 11 5 9 6 5 7 4 8 2 9 1 10 3 11 10 12
REMARK H PARENT 10 13
REMARK Flexibility Score: inf
ROOT
ATOM      1  C   UNL     1      24.516  32.876  19.329  1.00  0.00    -0.025 A 
ATOM      2  C   UNL     1      23.461  33.292  20.161  1.00  0.00     0.012 A 
ATOM      3  C   UNL     1      24.214  32.128  18.173  1.00  0.00     0.012 A 
ATOM      4  C   UNL     1      22.140  32.949  19.860  1.00  0.00     0.047 A 
ATOM      5  C   UNL     1      22.891  31.787  17.875  1.00  0.00     0.047 A 
ATOM      6  C   UNL     1      21.850  32.194  18.719  1.00  0.00     0.115 A 
ENDROOT
BRANCH   1   7
ATOM      7  C   UNL     1      25.901  33.275  19.685  1.00  0.00     0.010 C 
ATOM      8  C   UNL     1      26.780  32.460  20.285  1.00  0.00     0.025 C 
BRANCH   8   9
ATOM      9  C   UNL     1      28.142  32.895  20.634  1.00  0.00     0.064 C 
ATOM     10  O   UNL     1      28.595  34.002  20.239  1.00  0.00    -0.545 OA
ATOM     11  O   UNL     1      28.944  32.069  21.411  1.00  0.00    -0.545 OA
ENDBRANCH   8   9
ENDBRANCH   1   7
BRANCH   6  12
ATOM     12  O   UNL     1      20.530  31.859  18.432  1.00  0.00    -0.508 OA
ATOM     13  H   UNL     1      20.104  32.098  17.544  1.00  0.00     0.293 HD
ENDBRANCH   6  12
TORSDOF 3
ENDMDL
MODEL 8
REMARK VINA RESULT:    -4.301      4.901      5.621
REMARK INTER + INTRA:          -5.063
REMARK INTER:                  -4.912
REMARK INTRA:                  -0.151
REMARK UNBOUND:                -0.134
REMARK SMILES O=C([O-])C=Cc1ccc(O)cc1
REMARK SMILES IDX 6 1 7 2 12 3 8 4 11 5 9 6 5 7 4 8 2 9 1 10 3 11 10 12
REMARK H PARENT 10 13
REMARK Flexibility Score: inf
ROOT
ATOM      1  C   UNL     1      36.407  24.938  27.938  1.00  0.00    -0.025 A 
ATOM      2  C   UNL     1      37.713  24.921  27.417  1.00  0.00     0.012 A 
ATOM      3  C   UNL     1      35.407  24.186  27.289  1.00  0.00     0.012 A 
ATOM      4  C   UNL     1      38.008  24.192  26.261  1.00  0.00     0.047 A 
ATOM      5  C   UNL     1      35.707  23.457  26.133  1.00  0.00     0.047 A 
ATOM      6  C   UNL     1      37.008  23.460  25.615  1.00  0.00     0.115 A 
ENDROOT
BRANCH   1   7
ATOM      7  C   UNL     1      36.145  25.718  29.174  1.00  0.00     0.010 C 
ATOM      8  C   UNL     1      37.108  26.285  29.914  1.00  0.00     0.025 C 
BRANCH   8   9
ATOM      9  C   UNL     1      36.812  27.042  31.141  1.00  0.00     0.064 C 
ATOM     10  O   UNL     1      36.211  28.148  31.097  1.00  0.00    -0.545 OA
ATOM     11  O   UNL     1      37.204  26.529  32.371  1.00  0.00    -0.545 OA
ENDBRANCH   8   9
ENDBRANCH   1   7
BRANCH   6  12
ATOM     12  O   UNL     1      37.316  22.740  24.464  1.00  0.00    -0.508 OA
ATOM     13  H   UNL     1      38.174  22.206  24.388  1.00  0.00     0.293 HD
ENDBRANCH   6  12
TORSDOF 3
ENDMDL
MODEL 9
REMARK VINA RESULT:    -2.520     12.987     14.432
REMARK INTER + INTRA:          -3.022
REMARK INTER:                  -2.881
REMARK INTRA:                  -0.141
REMARK UNBOUND:                -0.134
REMARK SMILES O=C([O-])C=Cc1ccc(O)cc1
REMARK SMILES IDX 6 1 7 2 12 3 8 4 11 5 9 6 5 7 4 8 2 9 1 10 3 11 10 12
REMARK H PARENT 10 13
REMARK Flexibility Score: inf
ROOT
ATOM      1  C   UNL     1      21.604  23.253  20.823  1.00  0.00    -0.025 A 
ATOM      2  C   UNL     1      22.053  21.924  20.914  1.00  0.00     0.012 A 
ATOM      3  C   UNL     1      20.785  23.621  19.736  1.00  0.00     0.012 A 
ATOM      4  C   UNL     1      21.714  20.990  19.930  1.00  0.00     0.047 A 
ATOM      5  C   UNL     1      20.447  22.684  18.755  1.00  0.00     0.047 A 
ATOM      6  C   UNL     1      20.913  21.366  18.848  1.00  0.00     0.115 A 
ENDROOT
BRANCH   1   7
ATOM      7  C   UNL     1      21.981  24.205  21.898  1.00  0.00     0.010 C 
ATOM      8  C   UNL     1      21.749  23.987  23.201  1.00  0.00     0.025 C 
BRANCH   8   9
ATOM      9  C   UNL     1      22.127  24.960  24.239  1.00  0.00     0.064 C 
ATOM     10  O   UNL     1      21.255  25.632  24.852  1.00  0.00    -0.545 OA
ATOM     11  O   UNL     1      23.469  25.143  24.546  1.00  0.00    -0.545 OA
ENDBRANCH   8   9
ENDBRANCH   1   7
BRANCH   6  12
ATOM     12  O   UNL     1      20.584  20.426  17.875  1.00  0.00    -0.508 OA
ATOM     13  H   UNL     1      20.543  19.436  18.088  1.00  0.00     0.293 HD
ENDBRANCH   6  12
TORSDOF 3
ENDMDL
