MODEL 1
REMARK VINA RESULT:    -3.399      0.000      0.000
REMARK INTER + INTRA:          -3.399
REMARK INTER:                  -3.399
REMARK INTRA:                   0.000
REMARK UNBOUND:                 0.000
REMARK SMILES c1cc[nH]c1
REMARK SMILES IDX 1 1 5 2 4 3 3 4 2 5
REMARK H PARENT 4 6
REMARK Flexibility Score: inf
ROOT
ATOM      1  C   UNL     1      10.647   4.173  31.119  1.00  0.00     0.019 A 
ATOM      2  C   UNL     1      12.014   4.364  31.125  1.00  0.00     0.082 A 
ATOM      3  N   UNL     1      12.424   4.777  29.913  1.00  0.00    -0.368 N 
ATOM      4  C   UNL     1      11.332   4.852  29.130  1.00  0.00     0.082 A 
ATOM      5  C   UNL     1      10.213   4.483  29.847  1.00  0.00     0.019 A 
ATOM      6  H   UNL     1      13.405   4.998  29.632  1.00  0.00     0.165 HD
ENDROOT
TORSDOF 0
ENDMDL
MODEL 2
REMARK VINA RESULT:    -3.250      2.236      2.731
REMARK INTER + INTRA:          -3.250
REMARK INTER:                  -3.250
REMARK INTRA:                   0.000
REMARK UNBOUND:                 0.000
REMARK SMILES c1cc[nH]c1
REMARK SMILES IDX 1 1 5 2 4 3 3 4 2 5
REMARK H PARENT 4 6
REMARK Flexibility Score: inf
ROOT
ATOM      1  C   UNL     1       9.318   5.428  29.092  1.00  0.00     0.019 A 
ATOM      2  C   UNL     1       9.792   4.222  29.568  1.00  0.00     0.082 A 
ATOM      3  N   UNL     1       9.984   3.370  28.546  1.00  0.00    -0.368 N 
ATOM      4  C   UNL     1       9.637   4.018  27.419  1.00  0.00     0.082 A 
ATOM      5  C   UNL     1       9.218   5.297  27.722  1.00  0.00     0.019 A 
ATOM      6  H   UNL     1      10.336   2.389  28.615  1.00  0.00     0.165 HD
ENDROOT
TORSDOF 0
ENDMDL
MODEL 3
REMARK VINA RESULT:    -3.248      2.234      3.142
REMARK INTER + INTRA:          -3.248
REMARK INTER:                  -3.248
REMARK INTRA:                   0.000
REMARK UNBOUND:                 0.000
REMARK SMILES c1cc[nH]c1
REMARK SMILES IDX 1 1 5 2 4 3 3 4 2 5
REMARK H PARENT 4 6
REMARK Flexibility Score: inf
ROOT
ATOM      1  C   UNL     1       9.211   5.321  27.723  1.00  0.00     0.019 A 
ATOM      2  C   UNL     1       9.643   4.043  27.431  1.00  0.00     0.082 A 
ATOM      3  N   UNL     1       9.977   3.402  28.564  1.00  0.00    -0.368 N 
ATOM      4  C   UNL     1       9.764   4.257  29.581  1.00  0.00     0.082 A 
ATOM      5  C   UNL     1       9.289   5.457  29.094  1.00  0.00     0.019 A 
ATOM      6  H   UNL     1      10.335   2.424  28.640  1.00  0.00     0.165 HD
ENDROOT
TORSDOF 0
ENDMDL
MODEL 4
REMARK VINA RESULT:    -3.159     17.056     17.954
REMARK INTER + INTRA:          -3.159
REMARK INTER:                  -3.159
REMARK INTRA:                   0.000
REMARK UNBOUND:                 0.000
REMARK SMILES c1cc[nH]c1
REMARK SMILES IDX 1 1 5 2 4 3 3 4 2 5
REMARK H PARENT 4 6
REMARK Flexibility Score: inf
ROOT
ATOM      1  C   UNL     1       8.197   6.793  13.284  1.00  0.00     0.019 A 
ATOM      2  C   UNL     1       7.814   5.598  13.858  1.00  0.00     0.082 A 
ATOM      3  N   UNL     1       7.115   4.867  12.972  1.00  0.00    -0.368 N 
ATOM      4  C   UNL     1       7.045   5.584  11.835  1.00  0.00     0.082 A 
ATOM      5  C   UNL     1       7.706   6.785  11.995  1.00  0.00     0.019 A 
ATOM      6  H   UNL     1       6.703   3.922  13.136  1.00  0.00     0.165 HD
ENDROOT
TORSDOF 0
ENDMDL
MODEL 5
REMARK VINA RESULT:    -3.154     17.045     18.013
REMARK INTER + INTRA:          -3.154
REMARK INTER:                  -3.154
REMARK INTRA:                   0.000
REMARK UNBOUND:                 0.000
REMARK SMILES c1cc[nH]c1
REMARK SMILES IDX 1 1 5 2 4 3 3 4 2 5
REMARK H PARENT 4 6
REMARK Flexibility Score: inf
ROOT
ATOM      1  C   UNL     1       7.627   6.793  12.027  1.00  0.00     0.019 A 
ATOM      2  C   UNL     1       6.981   5.584  11.865  1.00  0.00     0.082 A 
ATOM      3  N   UNL     1       7.093   4.851  12.987  1.00  0.00    -0.368 N 
ATOM      4  C   UNL     1       7.805   5.579  13.866  1.00  0.00     0.082 A 
ATOM      5  C   UNL     1       8.153   6.789  13.303  1.00  0.00     0.019 A 
ATOM      6  H   UNL     1       6.701   3.896  13.145  1.00  0.00     0.165 HD
ENDROOT
TORSDOF 0
ENDMDL
MODEL 6
REMARK VINA RESULT:    -3.152     18.378     19.175
REMARK INTER + INTRA:          -3.152
REMARK INTER:                  -3.152
REMARK INTRA:                   0.000
REMARK UNBOUND:                 0.000
REMARK SMILES c1cc[nH]c1
REMARK SMILES IDX 1 1 5 2 4 3 3 4 2 5
REMARK H PARENT 4 6
REMARK Flexibility Score: inf
ROOT
ATOM      1  C   UNL     1       6.832   5.689  12.486  1.00  0.00     0.019 A 
ATOM      2  C   UNL     1       5.776   6.328  13.103  1.00  0.00     0.082 A 
ATOM      3  N   UNL     1       4.838   6.646  12.194  1.00  0.00    -0.368 N 
ATOM      4  C   UNL     1       5.283   6.218  10.999  1.00  0.00     0.082 A 
ATOM      5  C   UNL     1       6.518   5.619  11.144  1.00  0.00     0.019 A 
ATOM      6  H   UNL     1       3.935   7.135  12.381  1.00  0.00     0.165 HD
ENDROOT
TORSDOF 0
ENDMDL
MODEL 7
REMARK VINA RESULT:    -3.031     16.847     17.755
REMARK INTER + INTRA:          -3.031
REMARK INTER:                  -3.031
REMARK INTRA:                   0.000
REMARK UNBOUND:                 0.000
REMARK SMILES c1cc[nH]c1
REMARK SMILES IDX 1 1 5 2 4 3 3 4 2 5
REMARK H PARENT 4 6
REMARK Flexibility Score: inf
ROOT
ATOM      1  C   UNL     1       8.016   6.527  13.273  1.00  0.00     0.019 A 
ATOM      2  C   UNL     1       8.432   7.492  14.167  1.00  0.00     0.082 A 
ATOM      3  N   UNL     1       8.591   8.667  13.533  1.00  0.00    -0.368 N 
ATOM      4  C   UNL     1       8.283   8.463  12.239  1.00  0.00     0.082 A 
ATOM      5  C   UNL     1       7.923   7.146  12.043  1.00  0.00     0.019 A 
ATOM      6  H   UNL     1       8.898   9.567  13.963  1.00  0.00     0.165 HD
ENDROOT
TORSDOF 0
ENDMDL
MODEL 8
REMARK VINA RESULT:    -2.959     18.594     19.072
REMARK INTER + INTRA:          -2.959
REMARK INTER:                  -2.959
REMARK INTRA:                   0.000
REMARK UNBOUND:                 0.000
REMARK SMILES c1cc[nH]c1
REMARK SMILES IDX 1 1 5 2 4 3 3 4 2 5
REMARK H PARENT 4 6
REMARK Flexibility Score: inf
ROOT
ATOM      1  C   UNL     1       7.840   6.506  12.463  1.00  0.00     0.019 A 
ATOM      2  C   UNL     1       7.379   7.652  11.846  1.00  0.00     0.082 A 
ATOM      3  N   UNL     1       6.170   7.426  11.304  1.00  0.00    -0.368 N 
ATOM      4  C   UNL     1       5.851   6.146  11.566  1.00  0.00     0.082 A 
ATOM      5  C   UNL     1       6.865   5.546  12.283  1.00  0.00     0.019 A 
ATOM      6  H   UNL     1       5.589   8.115  10.777  1.00  0.00     0.165 HD
ENDROOT
TORSDOF 0
ENDMDL
