MODEL 1
REMARK VINA RESULT:    -4.758      0.000      0.000
REMARK INTER + INTRA:          -6.552
REMARK INTER:                  -6.427
REMARK INTRA:                  -0.125
REMARK UNBOUND:                -0.125
REMARK SMILES [NH3+]CCCC[C@H]([NH3+])C(=O)[O-]
REMARK SMILES IDX 4 1 3 2 2 3 1 4 5 8 6 9 7 10 8 14 9 15 10 16
REMARK H PARENT 1 5 1 6 1 7 7 11 7 12 7 13
REMARK Flexibility Score: inf
ROOT
ATOM      1  C   UNL     1      53.610  39.119  29.123  1.00  0.00     0.012 C 
ENDROOT
BRANCH   1   2
ATOM      2  C   UNL     1      54.883  39.975  29.249  1.00  0.00     0.061 C 
BRANCH   2   3
ATOM      3  C   UNL     1      56.053  39.520  28.357  1.00  0.00     0.258 C 
BRANCH   3   4
ATOM      4  N   UNL     1      56.250  40.402  27.204  1.00  0.00    -0.358 N 
ATOM      5  H   UNL     1      55.372  40.420  26.637  1.00  0.00     0.344 HD
ATOM      6  H   UNL     1      57.022  40.041  26.601  1.00  0.00     0.344 HD
ATOM      7  H   UNL     1      56.464  41.375  27.521  1.00  0.00     0.344 HD
ENDBRANCH   3   4
ENDBRANCH   2   3
ENDBRANCH   1   2
BRANCH   1   8
ATOM      8  C   UNL     1      52.478  39.596  30.050  1.00  0.00     0.072 C 
BRANCH   8   9
ATOM      9  C   UNL     1      51.190  38.758  29.892  1.00  0.00     0.227 C 
BRANCH   9  10
ATOM     10  N   UNL     1      51.472  37.316  29.925  1.00  0.00    -0.350 N 
ATOM     11  H   UNL     1      52.005  37.022  29.074  1.00  0.00     0.345 HD
ATOM     12  H   UNL     1      52.025  37.078  30.779  1.00  0.00     0.345 HD
ATOM     13  H   UNL     1      50.576  36.779  29.970  1.00  0.00     0.345 HD
ENDBRANCH   9  10
BRANCH   9  14
ATOM     14  C   UNL     1      50.511  39.119  28.597  1.00  0.00     0.099 C 
ATOM     15  O   UNL     1      49.933  40.231  28.474  1.00  0.00    -0.544 OA
ATOM     16  O   UNL     1      50.538  38.238  27.522  1.00  0.00    -0.544 OA
ENDBRANCH   9  14
ENDBRANCH   8   9
ENDBRANCH   1   8
TORSDOF 7
ENDMDL
MODEL 2
REMARK VINA RESULT:    -4.620      2.639      3.098
REMARK INTER + INTRA:          -6.366
REMARK INTER:                  -5.886
REMARK INTRA:                  -0.481
REMARK UNBOUND:                -0.125
REMARK SMILES [NH3+]CCCC[C@H]([NH3+])C(=O)[O-]
REMARK SMILES IDX 4 1 3 2 2 3 1 4 5 8 6 9 7 10 8 14 9 15 10 16
REMARK H PARENT 1 5 1 6 1 7 7 11 7 12 7 13
REMARK Flexibility Score: inf
ROOT
ATOM      1  C   UNL     1      51.366  37.797  27.728  1.00  0.00     0.012 C 
ENDROOT
BRANCH   1   2
ATOM      2  C   UNL     1      52.688  37.323  27.099  1.00  0.00     0.061 C 
BRANCH   2   3
ATOM      3  C   UNL     1      53.863  37.202  28.088  1.00  0.00     0.258 C 
BRANCH   3   4
ATOM      4  N   UNL     1      54.736  38.377  28.060  1.00  0.00    -0.358 N 
ATOM      5  H   UNL     1      54.400  39.033  27.318  1.00  0.00     0.344 HD
ATOM      6  H   UNL     1      55.715  38.095  27.828  1.00  0.00     0.344 HD
ATOM      7  H   UNL     1      54.713  38.872  28.980  1.00  0.00     0.344 HD
ENDBRANCH   3   4
ENDBRANCH   2   3
ENDBRANCH   1   2
BRANCH   1   8
ATOM      8  C   UNL     1      51.285  37.504  29.236  1.00  0.00     0.072 C 
BRANCH   8   9
ATOM      9  C   UNL     1      50.750  38.706  30.046  1.00  0.00     0.227 C 
BRANCH   9  10
ATOM     10  N   UNL     1      50.031  39.660  29.191  1.00  0.00    -0.350 N 
ATOM     11  H   UNL     1      49.229  39.194  28.707  1.00  0.00     0.345 HD
ATOM     12  H   UNL     1      49.672  40.456  29.765  1.00  0.00     0.345 HD
ATOM     13  H   UNL     1      50.680  40.056  28.474  1.00  0.00     0.345 HD
ENDBRANCH   9  10
BRANCH   9  14
ATOM     14  C   UNL     1      51.897  39.397  30.737  1.00  0.00     0.099 C 
ATOM     15  O   UNL     1      51.975  39.391  31.993  1.00  0.00    -0.544 OA
ATOM     16  O   UNL     1      52.887  40.025  29.990  1.00  0.00    -0.544 OA
ENDBRANCH   9  14
ENDBRANCH   8   9
ENDBRANCH   1   8
TORSDOF 7
ENDMDL
MODEL 3
REMARK VINA RESULT:    -4.553      3.741      4.662
REMARK INTER + INTRA:          -6.275
REMARK INTER:                  -6.040
REMARK INTRA:                  -0.234
REMARK UNBOUND:                -0.125
REMARK SMILES [NH3+]CCCC[C@H]([NH3+])C(=O)[O-]
REMARK SMILES IDX 4 1 3 2 2 3 1 4 5 8 6 9 7 10 8 14 9 15 10 16
REMARK H PARENT 1 5 1 6 1 7 7 11 7 12 7 13
REMARK Flexibility Score: inf
ROOT
ATOM      1  C   UNL     1      52.601  37.484  27.258  1.00  0.00     0.012 C 
ENDROOT
BRANCH   1   2
ATOM      2  C   UNL     1      52.252  35.990  27.144  1.00  0.00     0.061 C 
BRANCH   2   3
ATOM      3  C   UNL     1      53.436  35.034  27.383  1.00  0.00     0.258 C 
BRANCH   3   4
ATOM      4  N   UNL     1      54.311  34.928  26.213  1.00  0.00    -0.358 N 
ATOM      5  H   UNL     1      53.729  34.985  25.347  1.00  0.00     0.344 HD
ATOM      6  H   UNL     1      54.808  34.009  26.215  1.00  0.00     0.344 HD
ATOM      7  H   UNL     1      55.003  35.711  26.203  1.00  0.00     0.344 HD
ENDBRANCH   3   4
ENDBRANCH   2   3
ENDBRANCH   1   2
BRANCH   1   8
ATOM      8  C   UNL     1      53.420  37.810  28.519  1.00  0.00     0.072 C 
BRANCH   8   9
ATOM      9  C   UNL     1      54.766  38.493  28.191  1.00  0.00     0.227 C 
BRANCH   9  10
ATOM     10  N   UNL     1      55.904  37.593  28.426  1.00  0.00    -0.350 N 
ATOM     11  H   UNL     1      56.126  37.534  29.447  1.00  0.00     0.345 HD
ATOM     12  H   UNL     1      55.686  36.637  28.064  1.00  0.00     0.345 HD
ATOM     13  H   UNL     1      56.745  37.941  27.912  1.00  0.00     0.345 HD
ENDBRANCH   9  10
BRANCH   9  14
ATOM     14  C   UNL     1      54.915  39.738  29.025  1.00  0.00     0.099 C 
ATOM     15  O   UNL     1      54.039  40.036  29.880  1.00  0.00    -0.544 OA
ATOM     16  O   UNL     1      56.030  40.554  28.873  1.00  0.00    -0.544 OA
ENDBRANCH   9  14
ENDBRANCH   8   9
ENDBRANCH   1   8
TORSDOF 7
ENDMDL
MODEL 4
REMARK VINA RESULT:    -4.535     14.719     15.756
REMARK INTER + INTRA:          -6.251
REMARK INTER:                  -5.789
REMARK INTRA:                  -0.462
REMARK UNBOUND:                -0.125
REMARK SMILES [NH3+]CCCC[C@H]([NH3+])C(=O)[O-]
REMARK SMILES IDX 4 1 3 2 2 3 1 4 5 8 6 9 7 10 8 14 9 15 10 16
REMARK H PARENT 1 5 1 6 1 7 7 11 7 12 7 13
REMARK Flexibility Score: inf
ROOT
ATOM      1  C   UNL     1      59.968  50.398  19.335  1.00  0.00     0.012 C 
ENDROOT
BRANCH   1   2
ATOM      2  C   UNL     1      59.923  49.224  18.342  1.00  0.00     0.061 C 
BRANCH   2   3
ATOM      3  C   UNL     1      61.192  48.352  18.321  1.00  0.00     0.258 C 
BRANCH   3   4
ATOM      4  N   UNL     1      61.098  47.210  19.233  1.00  0.00    -0.358 N 
ATOM      5  H   UNL     1      60.165  46.754  19.112  1.00  0.00     0.344 HD
ATOM      6  H   UNL     1      61.178  47.531  20.224  1.00  0.00     0.344 HD
ATOM      7  H   UNL     1      61.844  46.509  19.021  1.00  0.00     0.344 HD
ENDBRANCH   3   4
ENDBRANCH   2   3
ENDBRANCH   1   2
BRANCH   1   8
ATOM      8  C   UNL     1      59.659  49.970  20.780  1.00  0.00     0.072 C 
BRANCH   8   9
ATOM      9  C   UNL     1      60.793  50.336  21.762  1.00  0.00     0.227 C 
BRANCH   9  10
ATOM     10  N   UNL     1      61.905  51.014  21.081  1.00  0.00    -0.350 N 
ATOM     11  H   UNL     1      61.750  52.048  21.055  1.00  0.00     0.345 HD
ATOM     12  H   UNL     1      62.804  50.811  21.572  1.00  0.00     0.345 HD
ATOM     13  H   UNL     1      61.993  50.656  20.102  1.00  0.00     0.345 HD
ENDBRANCH   9  10
BRANCH   9  14
ATOM     14  C   UNL     1      61.291  49.089  22.444  1.00  0.00     0.099 C 
ATOM     15  O   UNL     1      60.996  48.863  23.647  1.00  0.00    -0.544 OA
ATOM     16  O   UNL     1      62.060  48.167  21.742  1.00  0.00    -0.544 OA
ENDBRANCH   9  14
ENDBRANCH   8   9
ENDBRANCH   1   8
TORSDOF 7
ENDMDL
MODEL 5
REMARK VINA RESULT:    -4.495      3.803      4.935
REMARK INTER + INTRA:          -6.197
REMARK INTER:                  -6.080
REMARK INTRA:                  -0.117
REMARK UNBOUND:                -0.125
REMARK SMILES [NH3+]CCCC[C@H]([NH3+])C(=O)[O-]
REMARK SMILES IDX 4 1 3 2 2 3 1 4 5 8 6 9 7 10 8 14 9 15 10 16
REMARK H PARENT 1 5 1 6 1 7 7 11 7 12 7 13
REMARK Flexibility Score: inf
ROOT
ATOM      1  C   UNL     1      54.815  35.702  28.321  1.00  0.00     0.012 C 
ENDROOT
BRANCH   1   2
ATOM      2  C   UNL     1      54.451  34.496  27.436  1.00  0.00     0.061 C 
BRANCH   2   3
ATOM      3  C   UNL     1      52.975  34.441  27.002  1.00  0.00     0.258 C 
BRANCH   3   4
ATOM      4  N   UNL     1      52.662  33.225  26.248  1.00  0.00    -0.358 N 
ATOM      5  H   UNL     1      53.270  32.447  26.590  1.00  0.00     0.344 HD
ATOM      6  H   UNL     1      52.857  33.369  25.232  1.00  0.00     0.344 HD
ATOM      7  H   UNL     1      51.662  32.955  26.388  1.00  0.00     0.344 HD
ENDBRANCH   3   4
ENDBRANCH   2   3
ENDBRANCH   1   2
BRANCH   1   8
ATOM      8  C   UNL     1      53.777  36.835  28.241  1.00  0.00     0.072 C 
BRANCH   8   9
ATOM      9  C   UNL     1      54.430  38.232  28.155  1.00  0.00     0.227 C 
BRANCH   9  10
ATOM     10  N   UNL     1      55.894  38.155  28.256  1.00  0.00    -0.350 N 
ATOM     11  H   UNL     1      56.230  37.184  28.057  1.00  0.00     0.345 HD
ATOM     12  H   UNL     1      56.336  38.819  27.581  1.00  0.00     0.345 HD
ATOM     13  H   UNL     1      56.199  38.432  29.216  1.00  0.00     0.345 HD
ENDBRANCH   9  10
BRANCH   9  14
ATOM     14  C   UNL     1      53.884  39.110  29.250  1.00  0.00     0.099 C 
ATOM     15  O   UNL     1      54.541  40.107  29.649  1.00  0.00    -0.544 OA
ATOM     16  O   UNL     1      52.641  38.839  29.810  1.00  0.00    -0.544 OA
ENDBRANCH   9  14
ENDBRANCH   8   9
ENDBRANCH   1   8
TORSDOF 7
ENDMDL
MODEL 6
REMARK VINA RESULT:    -4.450      3.148      4.333
REMARK INTER + INTRA:          -6.136
REMARK INTER:                  -5.643
REMARK INTRA:                  -0.493
REMARK UNBOUND:                -0.125
REMARK SMILES [NH3+]CCCC[C@H]([NH3+])C(=O)[O-]
REMARK SMILES IDX 4 1 3 2 2 3 1 4 5 8 6 9 7 10 8 14 9 15 10 16
REMARK H PARENT 1 5 1 6 1 7 7 11 7 12 7 13
REMARK Flexibility Score: inf
ROOT
ATOM      1  C   UNL     1      50.897  38.394  28.109  1.00  0.00     0.012 C 
ENDROOT
BRANCH   1   2
ATOM      2  C   UNL     1      50.547  38.957  29.498  1.00  0.00     0.061 C 
BRANCH   2   3
ATOM      3  C   UNL     1      51.759  39.193  30.419  1.00  0.00     0.258 C 
BRANCH   3   4
ATOM      4  N   UNL     1      52.655  40.230  29.904  1.00  0.00    -0.358 N 
ATOM      5  H   UNL     1      53.099  40.727  30.710  1.00  0.00     0.344 HD
ATOM      6  H   UNL     1      52.116  40.930  29.345  1.00  0.00     0.344 HD
ATOM      7  H   UNL     1      53.408  39.804  29.317  1.00  0.00     0.344 HD
ENDBRANCH   3   4
ENDBRANCH   2   3
ENDBRANCH   1   2
BRANCH   1   8
ATOM      8  C   UNL     1      51.749  37.115  28.181  1.00  0.00     0.072 C 
BRANCH   8   9
ATOM      9  C   UNL     1      53.004  37.187  27.283  1.00  0.00     0.227 C 
BRANCH   9  10
ATOM     10  N   UNL     1      53.097  36.027  26.386  1.00  0.00    -0.350 N 
ATOM     11  H   UNL     1      53.993  36.046  25.846  1.00  0.00     0.345 HD
ATOM     12  H   UNL     1      53.043  35.141  26.937  1.00  0.00     0.345 HD
ATOM     13  H   UNL     1      52.294  36.030  25.716  1.00  0.00     0.345 HD
ENDBRANCH   9  10
BRANCH   9  14
ATOM     14  C   UNL     1      54.235  37.271  28.145  1.00  0.00     0.099 C 
ATOM     15  O   UNL     1      54.843  36.222  28.486  1.00  0.00    -0.544 OA
ATOM     16  O   UNL     1      54.722  38.508  28.552  1.00  0.00    -0.544 OA
ENDBRANCH   9  14
ENDBRANCH   8   9
ENDBRANCH   1   8
TORSDOF 7
ENDMDL
MODEL 7
REMARK VINA RESULT:    -4.414      3.069      3.474
REMARK INTER + INTRA:          -6.087
REMARK INTER:                  -5.925
REMARK INTRA:                  -0.162
REMARK UNBOUND:                -0.125
REMARK SMILES [NH3+]CCCC[C@H]([NH3+])C(=O)[O-]
REMARK SMILES IDX 4 1 3 2 2 3 1 4 5 8 6 9 7 10 8 14 9 15 10 16
REMARK H PARENT 1 5 1 6 1 7 7 11 7 12 7 13
REMARK Flexibility Score: inf
ROOT
ATOM      1  C   UNL     1      53.193  38.395  28.810  1.00  0.00     0.012 C 
ENDROOT
BRANCH   1   2
ATOM      2  C   UNL     1      54.677  38.415  28.403  1.00  0.00     0.061 C 
BRANCH   2   3
ATOM      3  C   UNL     1      55.399  39.748  28.675  1.00  0.00     0.258 C 
BRANCH   3   4
ATOM      4  N   UNL     1      56.140  40.228  27.505  1.00  0.00    -0.358 N 
ATOM      5  H   UNL     1      57.006  39.653  27.393  1.00  0.00     0.344 HD
ATOM      6  H   UNL     1      56.423  41.224  27.640  1.00  0.00     0.344 HD
ATOM      7  H   UNL     1      55.560  40.132  26.641  1.00  0.00     0.344 HD
ENDBRANCH   3   4
ENDBRANCH   2   3
ENDBRANCH   1   2
BRANCH   1   8
ATOM      8  C   UNL     1      52.291  37.752  27.742  1.00  0.00     0.072 C 
BRANCH   8   9
ATOM      9  C   UNL     1      52.980  36.578  27.013  1.00  0.00     0.227 C 
BRANCH   9  10
ATOM     10  N   UNL     1      52.822  36.676  25.555  1.00  0.00    -0.350 N 
ATOM     11  H   UNL     1      53.391  35.945  25.070  1.00  0.00     0.345 HD
ATOM     12  H   UNL     1      51.817  36.562  25.294  1.00  0.00     0.345 HD
ATOM     13  H   UNL     1      53.128  37.621  25.227  1.00  0.00     0.345 HD
ENDBRANCH   9  10
BRANCH   9  14
ATOM     14  C   UNL     1      52.407  35.274  27.505  1.00  0.00     0.099 C 
ATOM     15  O   UNL     1      51.545  35.268  28.423  1.00  0.00    -0.544 OA
ATOM     16  O   UNL     1      52.810  34.073  26.934  1.00  0.00    -0.544 OA
ENDBRANCH   9  14
ENDBRANCH   8   9
ENDBRANCH   1   8
TORSDOF 7
ENDMDL
MODEL 8
REMARK VINA RESULT:    -4.400     14.229     15.456
REMARK INTER + INTRA:          -6.069
REMARK INTER:                  -5.530
REMARK INTRA:                  -0.539
REMARK UNBOUND:                -0.125
REMARK SMILES [NH3+]CCCC[C@H]([NH3+])C(=O)[O-]
REMARK SMILES IDX 4 1 3 2 2 3 1 4 5 8 6 9 7 10 8 14 9 15 10 16
REMARK H PARENT 1 5 1 6 1 7 7 11 7 12 7 13
REMARK Flexibility Score: inf
ROOT
ATOM      1  C   UNL     1      61.673  48.345  18.589  1.00  0.00     0.012 C 
ENDROOT
BRANCH   1   2
ATOM      2  C   UNL     1      60.284  48.670  18.012  1.00  0.00     0.061 C 
BRANCH   2   3
ATOM      3  C   UNL     1      59.457  49.664  18.849  1.00  0.00     0.258 C 
BRANCH   3   4
ATOM      4  N   UNL     1      58.314  49.023  19.504  1.00  0.00    -0.358 N 
ATOM      5  H   UNL     1      57.647  49.762  19.822  1.00  0.00     0.344 HD
ATOM      6  H   UNL     1      58.632  48.486  20.342  1.00  0.00     0.344 HD
ATOM      7  H   UNL     1      57.819  48.389  18.837  1.00  0.00     0.344 HD
ENDBRANCH   3   4
ENDBRANCH   2   3
ENDBRANCH   1   2
BRANCH   1   8
ATOM      8  C   UNL     1      61.973  49.112  19.889  1.00  0.00     0.072 C 
BRANCH   8   9
ATOM      9  C   UNL     1      62.106  48.179  21.112  1.00  0.00     0.227 C 
BRANCH   9  10
ATOM     10  N   UNL     1      62.018  46.763  20.727  1.00  0.00    -0.350 N 
ATOM     11  H   UNL     1      62.700  46.187  21.272  1.00  0.00     0.345 HD
ATOM     12  H   UNL     1      61.051  46.405  20.894  1.00  0.00     0.345 HD
ATOM     13  H   UNL     1      62.221  46.659  19.707  1.00  0.00     0.345 HD
ENDBRANCH   9  10
BRANCH   9  14
ATOM     14  C   UNL     1      61.030  48.507  22.114  1.00  0.00     0.099 C 
ATOM     15  O   UNL     1      59.862  48.064  21.957  1.00  0.00    -0.544 OA
ATOM     16  O   UNL     1      61.326  49.282  23.229  1.00  0.00    -0.544 OA
ENDBRANCH   9  14
ENDBRANCH   8   9
ENDBRANCH   1   8
TORSDOF 7
ENDMDL
MODEL 9
REMARK VINA RESULT:    -4.334     14.270     15.375
REMARK INTER + INTRA:          -5.980
REMARK INTER:                  -5.492
REMARK INTRA:                  -0.488
REMARK UNBOUND:                -0.125
REMARK SMILES [NH3+]CCCC[C@H]([NH3+])C(=O)[O-]
REMARK SMILES IDX 4 1 3 2 2 3 1 4 5 8 6 9 7 10 8 14 9 15 10 16
REMARK H PARENT 1 5 1 6 1 7 7 11 7 12 7 13
REMARK Flexibility Score: inf
ROOT
ATOM      1  C   UNL     1      60.242  48.709  18.380  1.00  0.00     0.012 C 
ENDROOT
BRANCH   1   2
ATOM      2  C   UNL     1      61.558  48.218  19.007  1.00  0.00     0.061 C 
BRANCH   2   3
ATOM      3  C   UNL     1      61.393  47.099  20.052  1.00  0.00     0.258 C 
BRANCH   3   4
ATOM      4  N   UNL     1      61.225  47.624  21.408  1.00  0.00    -0.358 N 
ATOM      5  H   UNL     1      60.308  48.123  21.468  1.00  0.00     0.344 HD
ATOM      6  H   UNL     1      61.984  48.308  21.628  1.00  0.00     0.344 HD
ATOM      7  H   UNL     1      61.229  46.845  22.105  1.00  0.00     0.344 HD
ENDBRANCH   3   4
ENDBRANCH   2   3
ENDBRANCH   1   2
BRANCH   1   8
ATOM      8  C   UNL     1      59.898  50.157  18.772  1.00  0.00     0.072 C 
BRANCH   8   9
ATOM      9  C   UNL     1      58.426  50.319  19.208  1.00  0.00     0.227 C 
BRANCH   9  10
ATOM     10  N   UNL     1      58.018  51.731  19.231  1.00  0.00    -0.350 N 
ATOM     11  H   UNL     1      57.449  51.939  20.084  1.00  0.00     0.345 HD
ATOM     12  H   UNL     1      58.861  52.348  19.218  1.00  0.00     0.345 HD
ATOM     13  H   UNL     1      57.452  51.951  18.380  1.00  0.00     0.345 HD
ENDBRANCH   9  10
BRANCH   9  14
ATOM     14  C   UNL     1      58.234  49.706  20.570  1.00  0.00     0.099 C 
ATOM     15  O   UNL     1      57.181  49.069  20.836  1.00  0.00    -0.544 OA
ATOM     16  O   UNL     1      59.229  49.820  21.535  1.00  0.00    -0.544 OA
ENDBRANCH   9  14
ENDBRANCH   8   9
ENDBRANCH   1   8
TORSDOF 7
ENDMDL
