MODEL 1
REMARK VINA RESULT:    -4.995      0.000      0.000
REMARK INTER + INTRA:         -10.296
REMARK INTER:                  -8.791
REMARK INTRA:                  -1.505
REMARK UNBOUND:                -1.505
REMARK SMILES CCCCCCC=CCCCCCCCC(=O)[O-]
REMARK SMILES IDX 10 1 11 2 12 3 13 4 14 5 15 6 16 7 17 8 18 9 9 10 8 11 7 12
REMARK SMILES IDX 6 13 5 14 4 15 3 16 2 17 1 18
REMARK H PARENT
REMARK Flexibility Score: inf
ROOT
ATOM      1  C   UNL     1      -3.068   1.642   3.305  1.00  0.00     0.004 C 
ENDROOT
BRANCH   1   2
ATOM      2  C   UNL     1      -4.505   1.953   3.750  1.00  0.00     0.000 C 
BRANCH   2   3
ATOM      3  C   UNL     1      -4.637   1.875   5.277  1.00  0.00     0.000 C 
BRANCH   3   4
ATOM      4  C   UNL     1      -5.377   0.611   5.753  1.00  0.00     0.000 C 
BRANCH   4   5
ATOM      5  C   UNL     1      -5.420  -0.540   4.732  1.00  0.00     0.006 C 
BRANCH   5   6
ATOM      6  C   UNL     1      -5.223  -1.918   5.377  1.00  0.00     0.053 C 
BRANCH   6   7
ATOM      7  C   UNL     1      -6.241  -2.143   6.450  1.00  0.00     0.041 C 
ATOM      8  O   UNL     1      -7.456  -2.285   6.152  1.00  0.00    -0.550 OA
ATOM      9  O   UNL     1      -5.841  -2.245   7.777  1.00  0.00    -0.550 OA
ENDBRANCH   6   7
ENDBRANCH   5   6
ENDBRANCH   4   5
ENDBRANCH   3   4
ENDBRANCH   2   3
ENDBRANCH   1   2
BRANCH   1  10
ATOM     10  C   UNL     1      -2.060   1.795   4.454  1.00  0.00     0.027 C 
BRANCH  10  11
ATOM     11  C   UNL     1      -1.237   0.551   4.664  1.00  0.00    -0.031 C 
ATOM     12  C   UNL     1      -1.691  -0.661   4.314  1.00  0.00    -0.031 C 
BRANCH  12  13
ATOM     13  C   UNL     1      -0.851  -1.888   4.538  1.00  0.00     0.027 C 
BRANCH  13  14
ATOM     14  C   UNL     1       0.249  -2.011   3.473  1.00  0.00     0.004 C 
BRANCH  14  15
ATOM     15  C   UNL     1       1.619  -1.520   3.987  1.00  0.00     0.000 C 
BRANCH  15  16
ATOM     16  C   UNL     1       2.558  -1.024   2.870  1.00  0.00    -0.000 C 
BRANCH  16  17
ATOM     17  C   UNL     1       2.576   0.502   2.677  1.00  0.00    -0.003 C 
ATOM     18  C   UNL     1       1.936   1.256   3.842  1.00  0.00     0.004 C 
ENDBRANCH  16  17
ENDBRANCH  15  16
ENDBRANCH  14  15
ENDBRANCH  13  14
ENDBRANCH  12  13
ENDBRANCH  10  11
ENDBRANCH   1  10
TORSDOF 13
ENDMDL
MODEL 2
REMARK VINA RESULT:    -4.898      1.171      1.626
REMARK INTER + INTRA:         -10.125
REMARK INTER:                  -8.875
REMARK INTRA:                  -1.251
REMARK UNBOUND:                -1.505
REMARK SMILES CCCCCCC=CCCCCCCCC(=O)[O-]
REMARK SMILES IDX 10 1 11 2 12 3 13 4 14 5 15 6 16 7 17 8 18 9 9 10 8 11 7 12
REMARK SMILES IDX 6 13 5 14 4 15 3 16 2 17 1 18
REMARK H PARENT
REMARK Flexibility Score: inf
ROOT
ATOM      1  C   UNL     1      -2.949   2.050   3.515  1.00  0.00     0.004 C 
ENDROOT
BRANCH   1   2
ATOM      2  C   UNL     1      -3.964   2.659   4.493  1.00  0.00     0.000 C 
BRANCH   2   3
ATOM      3  C   UNL     1      -5.015   1.620   4.911  1.00  0.00     0.000 C 
BRANCH   3   4
ATOM      4  C   UNL     1      -4.857   1.159   6.372  1.00  0.00     0.000 C 
BRANCH   4   5
ATOM      5  C   UNL     1      -5.704  -0.067   6.761  1.00  0.00     0.006 C 
BRANCH   5   6
ATOM      6  C   UNL     1      -5.536  -1.242   5.789  1.00  0.00     0.053 C 
BRANCH   6   7
ATOM      7  C   UNL     1      -6.859  -1.635   5.211  1.00  0.00     0.041 C 
ATOM      8  O   UNL     1      -7.648  -2.362   5.870  1.00  0.00    -0.550 OA
ATOM      9  O   UNL     1      -7.241  -1.157   3.964  1.00  0.00    -0.550 OA
ENDBRANCH   6   7
ENDBRANCH   5   6
ENDBRANCH   4   5
ENDBRANCH   3   4
ENDBRANCH   2   3
ENDBRANCH   1   2
BRANCH   1  10
ATOM     10  C   UNL     1      -3.192   0.551   3.284  1.00  0.00     0.027 C 
BRANCH  10  11
ATOM     11  C   UNL     1      -2.049  -0.298   3.774  1.00  0.00    -0.031 C 
ATOM     12  C   UNL     1      -1.326   0.048   4.848  1.00  0.00    -0.031 C 
BRANCH  12  13
ATOM     13  C   UNL     1      -0.187  -0.815   5.316  1.00  0.00     0.027 C 
BRANCH  13  14
ATOM     14  C   UNL     1      -0.078  -2.097   4.478  1.00  0.00     0.004 C 
BRANCH  14  15
ATOM     15  C   UNL     1       1.009  -1.994   3.387  1.00  0.00     0.000 C 
BRANCH  15  16
ATOM     16  C   UNL     1       1.824  -0.687   3.446  1.00  0.00    -0.000 C 
BRANCH  16  17
ATOM     17  C   UNL     1       3.068  -0.665   2.543  1.00  0.00    -0.003 C 
ATOM     18  C   UNL     1       3.778   0.689   2.542  1.00  0.00     0.004 C 
ENDBRANCH  16  17
ENDBRANCH  15  16
ENDBRANCH  14  15
ENDBRANCH  13  14
ENDBRANCH  12  13
ENDBRANCH  10  11
ENDBRANCH   1  10
TORSDOF 13
ENDMDL
MODEL 3
REMARK VINA RESULT:    -4.858      1.130      2.373
REMARK INTER + INTRA:         -10.055
REMARK INTER:                  -8.582
REMARK INTRA:                  -1.473
REMARK UNBOUND:                -1.505
REMARK SMILES CCCCCCC=CCCCCCCCC(=O)[O-]
REMARK SMILES IDX 10 1 11 2 12 3 13 4 14 5 15 6 16 7 17 8 18 9 9 10 8 11 7 12
REMARK SMILES IDX 6 13 5 14 4 15 3 16 2 17 1 18
REMARK H PARENT
REMARK Flexibility Score: inf
ROOT
ATOM      1  C   UNL     1      -2.922   2.005   3.064  1.00  0.00     0.004 C 
ENDROOT
BRANCH   1   2
ATOM      2  C   UNL     1      -4.282   2.466   3.608  1.00  0.00     0.000 C 
BRANCH   2   3
ATOM      3  C   UNL     1      -4.911   1.387   4.502  1.00  0.00     0.000 C 
BRANCH   3   4
ATOM      4  C   UNL     1      -3.952   0.220   4.800  1.00  0.00     0.000 C 
BRANCH   4   5
ATOM      5  C   UNL     1      -4.606  -1.174   4.798  1.00  0.00     0.006 C 
BRANCH   5   6
ATOM      6  C   UNL     1      -5.571  -1.384   5.972  1.00  0.00     0.053 C 
BRANCH   6   7
ATOM      7  C   UNL     1      -6.938  -1.726   5.469  1.00  0.00     0.041 C 
ATOM      8  O   UNL     1      -7.306  -1.348   4.327  1.00  0.00    -0.550 OA
ATOM      9  O   UNL     1      -7.788  -2.505   6.244  1.00  0.00    -0.550 OA
ENDBRANCH   6   7
ENDBRANCH   5   6
ENDBRANCH   4   5
ENDBRANCH   3   4
ENDBRANCH   2   3
ENDBRANCH   1   2
BRANCH   1  10
ATOM     10  C   UNL     1      -1.749   2.691   3.778  1.00  0.00     0.027 C 
BRANCH  10  11
ATOM     11  C   UNL     1      -0.624   1.736   4.080  1.00  0.00    -0.031 C 
ATOM     12  C   UNL     1       0.654   2.048   3.820  1.00  0.00    -0.031 C 
BRANCH  12  13
ATOM     13  C   UNL     1       1.759   1.075   4.127  1.00  0.00     0.027 C 
BRANCH  13  14
ATOM     14  C   UNL     1       1.864  -0.008   3.044  1.00  0.00     0.004 C 
BRANCH  14  15
ATOM     15  C   UNL     1       1.644  -1.427   3.611  1.00  0.00     0.000 C 
BRANCH  15  16
ATOM     16  C   UNL     1       0.203  -1.944   3.443  1.00  0.00    -0.000 C 
BRANCH  16  17
ATOM     17  C   UNL     1      -0.597  -2.054   4.751  1.00  0.00    -0.003 C 
ATOM     18  C   UNL     1       0.217  -1.652   5.981  1.00  0.00     0.004 C 
ENDBRANCH  16  17
ENDBRANCH  15  16
ENDBRANCH  14  15
ENDBRANCH  13  14
ENDBRANCH  12  13
ENDBRANCH  10  11
ENDBRANCH   1  10
TORSDOF 13
ENDMDL
MODEL 4
REMARK VINA RESULT:    -4.781      4.191      7.529
REMARK INTER + INTRA:          -9.919
REMARK INTER:                  -8.327
REMARK INTRA:                  -1.592
REMARK UNBOUND:                -1.505
REMARK SMILES CCCCCCC=CCCCCCCCC(=O)[O-]
REMARK SMILES IDX 10 1 11 2 12 3 13 4 14 5 15 6 16 7 17 8 18 9 9 10 8 11 7 12
REMARK SMILES IDX 6 13 5 14 4 15 3 16 2 17 1 18
REMARK H PARENT
REMARK Flexibility Score: inf
ROOT
ATOM      1  C   UNL     1      -0.940  -1.238   5.040  1.00  0.00     0.004 C 
ENDROOT
BRANCH   1   2
ATOM      2  C   UNL     1      -0.456  -2.623   4.582  1.00  0.00     0.000 C 
BRANCH   2   3
ATOM      3  C   UNL     1       0.605  -2.496   3.480  1.00  0.00     0.000 C 
BRANCH   3   4
ATOM      4  C   UNL     1       1.855  -1.721   3.934  1.00  0.00     0.000 C 
BRANCH   4   5
ATOM      5  C   UNL     1       2.572  -0.935   2.821  1.00  0.00     0.006 C 
BRANCH   5   6
ATOM      6  C   UNL     1       2.251   0.565   2.848  1.00  0.00     0.053 C 
BRANCH   6   7
ATOM      7  C   UNL     1       3.174   1.313   1.936  1.00  0.00     0.041 C 
ATOM      8  O   UNL     1       4.420   1.233   2.093  1.00  0.00    -0.550 OA
ATOM      9  O   UNL     1       2.657   2.058   0.884  1.00  0.00    -0.550 OA
ENDBRANCH   6   7
ENDBRANCH   5   6
ENDBRANCH   4   5
ENDBRANCH   3   4
ENDBRANCH   2   3
ENDBRANCH   1   2
BRANCH   1  10
ATOM     10  C   UNL     1      -1.408  -0.369   3.863  1.00  0.00     0.027 C 
BRANCH  10  11
ATOM     11  C   UNL     1      -2.902  -0.181   3.847  1.00  0.00    -0.031 C 
ATOM     12  C   UNL     1      -3.716  -0.953   4.581  1.00  0.00    -0.031 C 
BRANCH  12  13
ATOM     13  C   UNL     1      -5.206  -0.748   4.545  1.00  0.00     0.027 C 
BRANCH  13  14
ATOM     14  C   UNL     1      -5.606   0.552   5.257  1.00  0.00     0.004 C 
BRANCH  14  15
ATOM     15  C   UNL     1      -5.172   0.566   6.738  1.00  0.00     0.000 C 
BRANCH  15  16
ATOM     16  C   UNL     1      -4.494   1.880   7.173  1.00  0.00    -0.000 C 
BRANCH  16  17
ATOM     17  C   UNL     1      -2.968   1.905   6.993  1.00  0.00    -0.003 C 
ATOM     18  C   UNL     1      -2.517   2.835   5.866  1.00  0.00     0.004 C 
ENDBRANCH  16  17
ENDBRANCH  15  16
ENDBRANCH  14  15
ENDBRANCH  13  14
ENDBRANCH  12  13
ENDBRANCH  10  11
ENDBRANCH   1  10
TORSDOF 13
ENDMDL
MODEL 5
REMARK VINA RESULT:    -4.712      1.383      2.411
REMARK INTER + INTRA:          -9.799
REMARK INTER:                  -8.863
REMARK INTRA:                  -0.936
REMARK UNBOUND:                -1.505
REMARK SMILES CCCCCCC=CCCCCCCCC(=O)[O-]
REMARK SMILES IDX 10 1 11 2 12 3 13 4 14 5 15 6 16 7 17 8 18 9 9 10 8 11 7 12
REMARK SMILES IDX 6 13 5 14 4 15 3 16 2 17 1 18
REMARK H PARENT
REMARK Flexibility Score: inf
ROOT
ATOM      1  C   UNL     1      -2.449  -0.262   4.502  1.00  0.00     0.004 C 
ENDROOT
BRANCH   1   2
ATOM      2  C   UNL     1      -2.761   0.824   5.542  1.00  0.00     0.000 C 
BRANCH   2   3
ATOM      3  C   UNL     1      -4.273   0.935   5.784  1.00  0.00     0.000 C 
BRANCH   3   4
ATOM      4  C   UNL     1      -5.111   0.503   4.566  1.00  0.00     0.000 C 
BRANCH   4   5
ATOM      5  C   UNL     1      -6.138  -0.609   4.845  1.00  0.00     0.006 C 
BRANCH   5   6
ATOM      6  C   UNL     1      -5.517  -1.842   5.515  1.00  0.00     0.053 C 
BRANCH   6   7
ATOM      7  C   UNL     1      -6.367  -2.299   6.659  1.00  0.00     0.041 C 
ATOM      8  O   UNL     1      -5.903  -2.310   7.828  1.00  0.00    -0.550 OA
ATOM      9  O   UNL     1      -7.688  -2.668   6.438  1.00  0.00    -0.550 OA
ENDBRANCH   6   7
ENDBRANCH   5   6
ENDBRANCH   4   5
ENDBRANCH   3   4
ENDBRANCH   2   3
ENDBRANCH   1   2
BRANCH   1  10
ATOM     10  C   UNL     1      -1.298  -1.176   4.946  1.00  0.00     0.027 C 
BRANCH  10  11
ATOM     11  C   UNL     1      -0.009  -0.863   4.233  1.00  0.00    -0.031 C 
ATOM     12  C   UNL     1       0.567   0.345   4.317  1.00  0.00    -0.031 C 
BRANCH  12  13
ATOM     13  C   UNL     1       1.852   0.634   3.593  1.00  0.00     0.027 C 
BRANCH  13  14
ATOM     14  C   UNL     1       2.485  -0.653   3.045  1.00  0.00     0.004 C 
BRANCH  14  15
ATOM     15  C   UNL     1       3.814  -0.385   2.308  1.00  0.00     0.000 C 
BRANCH  15  16
ATOM     16  C   UNL     1       4.520   0.910   2.754  1.00  0.00    -0.000 C 
BRANCH  16  17
ATOM     17  C   UNL     1       4.747   1.936   1.632  1.00  0.00    -0.003 C 
ATOM     18  C   UNL     1       3.462   2.295   0.885  1.00  0.00     0.004 C 
ENDBRANCH  16  17
ENDBRANCH  15  16
ENDBRANCH  14  15
ENDBRANCH  13  14
ENDBRANCH  12  13
ENDBRANCH  10  11
ENDBRANCH   1  10
TORSDOF 13
ENDMDL
MODEL 6
REMARK VINA RESULT:    -4.668     15.127     16.285
REMARK INTER + INTRA:          -9.721
REMARK INTER:                  -8.209
REMARK INTRA:                  -1.512
REMARK UNBOUND:                -1.505
REMARK SMILES CCCCCCC=CCCCCCCCC(=O)[O-]
REMARK SMILES IDX 10 1 11 2 12 3 13 4 14 5 15 6 16 7 17 8 18 9 9 10 8 11 7 12
REMARK SMILES IDX 6 13 5 14 4 15 3 16 2 17 1 18
REMARK H PARENT
REMARK Flexibility Score: inf
ROOT
ATOM      1  C   UNL     1      -8.480  -8.503  -5.784  1.00  0.00     0.004 C 
ENDROOT
BRANCH   1   2
ATOM      2  C   UNL     1      -9.059  -7.094  -5.582  1.00  0.00     0.000 C 
BRANCH   2   3
ATOM      3  C   UNL     1      -7.953  -6.093  -5.219  1.00  0.00     0.000 C 
BRANCH   3   4
ATOM      4  C   UNL     1      -6.551  -6.565  -5.647  1.00  0.00     0.000 C 
BRANCH   4   5
ATOM      5  C   UNL     1      -6.028  -5.946  -6.956  1.00  0.00     0.006 C 
BRANCH   5   6
ATOM      6  C   UNL     1      -5.537  -6.997  -7.960  1.00  0.00     0.053 C 
BRANCH   6   7
ATOM      7  C   UNL     1      -6.228  -6.824  -9.277  1.00  0.00     0.041 C 
ATOM      8  O   UNL     1      -6.493  -5.671  -9.706  1.00  0.00    -0.550 OA
ATOM      9  O   UNL     1      -6.534  -7.936 -10.051  1.00  0.00    -0.550 OA
ENDBRANCH   6   7
ENDBRANCH   5   6
ENDBRANCH   4   5
ENDBRANCH   3   4
ENDBRANCH   2   3
ENDBRANCH   1   2
BRANCH   1  10
ATOM     10  C   UNL     1      -8.590  -8.971  -7.243  1.00  0.00     0.027 C 
BRANCH  10  11
ATOM     11  C   UNL     1      -7.634 -10.091  -7.559  1.00  0.00    -0.031 C 
ATOM     12  C   UNL     1      -8.024 -11.177  -8.242  1.00  0.00    -0.031 C 
BRANCH  12  13
ATOM     13  C   UNL     1      -7.051 -12.284  -8.542  1.00  0.00     0.027 C 
BRANCH  13  14
ATOM     14  C   UNL     1      -6.217 -11.969  -9.792  1.00  0.00     0.004 C 
BRANCH  14  15
ATOM     15  C   UNL     1      -4.720 -11.778  -9.466  1.00  0.00     0.000 C 
BRANCH  15  16
ATOM     16  C   UNL     1      -4.298 -10.302  -9.333  1.00  0.00    -0.000 C 
BRANCH  16  17
ATOM     17  C   UNL     1      -2.902 -10.086  -8.726  1.00  0.00    -0.003 C 
ATOM     18  C   UNL     1      -2.216 -11.394  -8.332  1.00  0.00     0.004 C 
ENDBRANCH  16  17
ENDBRANCH  15  16
ENDBRANCH  14  15
ENDBRANCH  13  14
ENDBRANCH  12  13
ENDBRANCH  10  11
ENDBRANCH   1  10
TORSDOF 13
ENDMDL
MODEL 7
REMARK VINA RESULT:    -4.621      2.684      4.448
REMARK INTER + INTRA:          -9.638
REMARK INTER:                  -8.080
REMARK INTRA:                  -1.559
REMARK UNBOUND:                -1.505
REMARK SMILES CCCCCCC=CCCCCCCCC(=O)[O-]
REMARK SMILES IDX 10 1 11 2 12 3 13 4 14 5 15 6 16 7 17 8 18 9 9 10 8 11 7 12
REMARK SMILES IDX 6 13 5 14 4 15 3 16 2 17 1 18
REMARK H PARENT
REMARK Flexibility Score: inf
ROOT
ATOM      1  C   UNL     1      -5.763  -0.819   6.912  1.00  0.00     0.004 C 
ENDROOT
BRANCH   1   2
ATOM      2  C   UNL     1      -5.844   0.700   7.125  1.00  0.00     0.000 C 
BRANCH   2   3
ATOM      3  C   UNL     1      -4.827   1.161   8.179  1.00  0.00     0.000 C 
BRANCH   3   4
ATOM      4  C   UNL     1      -3.994   2.373   7.721  1.00  0.00     0.000 C 
BRANCH   4   5
ATOM      5  C   UNL     1      -3.611   2.373   6.230  1.00  0.00     0.006 C 
BRANCH   5   6
ATOM      6  C   UNL     1      -4.291   3.497   5.438  1.00  0.00     0.053 C 
BRANCH   6   7
ATOM      7  C   UNL     1      -4.378   3.135   3.988  1.00  0.00     0.041 C 
ATOM      8  O   UNL     1      -5.412   2.579   3.536  1.00  0.00    -0.550 OA
ATOM      9  O   UNL     1      -3.336   3.457   3.128  1.00  0.00    -0.550 OA
ENDBRANCH   6   7
ENDBRANCH   5   6
ENDBRANCH   4   5
ENDBRANCH   3   4
ENDBRANCH   2   3
ENDBRANCH   1   2
BRANCH   1  10
ATOM     10  C   UNL     1      -6.040  -1.215   5.454  1.00  0.00     0.027 C 
BRANCH  10  11
ATOM     11  C   UNL     1      -5.032  -0.630   4.500  1.00  0.00    -0.031 C 
ATOM     12  C   UNL     1      -3.714  -0.779   4.689  1.00  0.00    -0.031 C 
BRANCH  12  13
ATOM     13  C   UNL     1      -2.728  -0.182   3.723  1.00  0.00     0.027 C 
BRANCH  13  14
ATOM     14  C   UNL     1      -1.437   0.242   4.437  1.00  0.00     0.004 C 
BRANCH  14  15
ATOM     15  C   UNL     1      -0.255  -0.699   4.119  1.00  0.00     0.000 C 
BRANCH  15  16
ATOM     16  C   UNL     1      -0.321  -2.049   4.861  1.00  0.00    -0.000 C 
BRANCH  16  17
ATOM     17  C   UNL     1       0.341  -3.222   4.119  1.00  0.00    -0.003 C 
ATOM     18  C   UNL     1       0.692  -2.887   2.670  1.00  0.00     0.004 C 
ENDBRANCH  16  17
ENDBRANCH  15  16
ENDBRANCH  14  15
ENDBRANCH  13  14
ENDBRANCH  12  13
ENDBRANCH  10  11
ENDBRANCH   1  10
TORSDOF 13
ENDMDL
MODEL 8
REMARK VINA RESULT:    -4.524      1.811      3.417
REMARK INTER + INTRA:          -9.468
REMARK INTER:                  -7.886
REMARK INTRA:                  -1.581
REMARK UNBOUND:                -1.505
REMARK SMILES CCCCCCC=CCCCCCCCC(=O)[O-]
REMARK SMILES IDX 10 1 11 2 12 3 13 4 14 5 15 6 16 7 17 8 18 9 9 10 8 11 7 12
REMARK SMILES IDX 6 13 5 14 4 15 3 16 2 17 1 18
REMARK H PARENT
REMARK Flexibility Score: inf
ROOT
ATOM      1  C   UNL     1      -2.889   2.980   7.220  1.00  0.00     0.004 C 
ENDROOT
BRANCH   1   2
ATOM      2  C   UNL     1      -3.280   1.823   8.151  1.00  0.00     0.000 C 
BRANCH   2   3
ATOM      3  C   UNL     1      -4.798   1.788   8.376  1.00  0.00     0.000 C 
BRANCH   3   4
ATOM      4  C   UNL     1      -5.420   0.411   8.077  1.00  0.00     0.000 C 
BRANCH   4   5
ATOM      5  C   UNL     1      -5.840   0.192   6.613  1.00  0.00     0.006 C 
BRANCH   5   6
ATOM      6  C   UNL     1      -5.675  -1.262   6.154  1.00  0.00     0.053 C 
BRANCH   6   7
ATOM      7  C   UNL     1      -6.942  -1.761   5.533  1.00  0.00     0.041 C 
ATOM      8  O   UNL     1      -7.240  -1.437   4.354  1.00  0.00    -0.550 OA
ATOM      9  O   UNL     1      -7.769  -2.625   6.240  1.00  0.00    -0.550 OA
ENDBRANCH   6   7
ENDBRANCH   5   6
ENDBRANCH   4   5
ENDBRANCH   3   4
ENDBRANCH   2   3
ENDBRANCH   1   2
BRANCH   1  10
ATOM     10  C   UNL     1      -4.096   3.544   6.456  1.00  0.00     0.027 C 
BRANCH  10  11
ATOM     11  C   UNL     1      -4.266   2.908   5.101  1.00  0.00    -0.031 C 
ATOM     12  C   UNL     1      -3.295   2.171   4.544  1.00  0.00    -0.031 C 
BRANCH  12  13
ATOM     13  C   UNL     1      -3.488   1.549   3.188  1.00  0.00     0.027 C 
BRANCH  13  14
ATOM     14  C   UNL     1      -3.106   0.062   3.198  1.00  0.00     0.004 C 
BRANCH  14  15
ATOM     15  C   UNL     1      -2.287  -0.325   4.448  1.00  0.00     0.000 C 
BRANCH  15  16
ATOM     16  C   UNL     1      -0.781  -0.494   4.174  1.00  0.00    -0.000 C 
BRANCH  16  17
ATOM     17  C   UNL     1      -0.162  -1.776   4.754  1.00  0.00    -0.003 C 
ATOM     18  C   UNL     1       0.154  -2.820   3.684  1.00  0.00     0.004 C 
ENDBRANCH  16  17
ENDBRANCH  15  16
ENDBRANCH  14  15
ENDBRANCH  13  14
ENDBRANCH  12  13
ENDBRANCH  10  11
ENDBRANCH   1  10
TORSDOF 13
ENDMDL
MODEL 9
REMARK VINA RESULT:    -4.505      2.158      3.304
REMARK INTER + INTRA:          -9.433
REMARK INTER:                  -7.877
REMARK INTRA:                  -1.556
REMARK UNBOUND:                -1.505
REMARK SMILES CCCCCCC=CCCCCCCCC(=O)[O-]
REMARK SMILES IDX 10 1 11 2 12 3 13 4 14 5 15 6 16 7 17 8 18 9 9 10 8 11 7 12
REMARK SMILES IDX 6 13 5 14 4 15 3 16 2 17 1 18
REMARK H PARENT
REMARK Flexibility Score: inf
ROOT
ATOM      1  C   UNL     1      -3.343   0.064   3.962  1.00  0.00     0.004 C 
ENDROOT
BRANCH   1   2
ATOM      2  C   UNL     1      -4.868  -0.035   4.125  1.00  0.00     0.000 C 
BRANCH   2   3
ATOM      3  C   UNL     1      -5.257  -1.310   4.886  1.00  0.00     0.000 C 
BRANCH   3   4
ATOM      4  C   UNL     1      -5.428  -1.080   6.398  1.00  0.00     0.000 C 
BRANCH   4   5
ATOM      5  C   UNL     1      -5.794   0.360   6.799  1.00  0.00     0.006 C 
BRANCH   5   6
ATOM      6  C   UNL     1      -5.259   0.750   8.183  1.00  0.00     0.053 C 
BRANCH   6   7
ATOM      7  C   UNL     1      -4.206   1.806   8.058  1.00  0.00     0.041 C 
ATOM      8  O   UNL     1      -4.480   2.914   7.526  1.00  0.00    -0.550 OA
ATOM      9  O   UNL     1      -2.935   1.584   8.572  1.00  0.00    -0.550 OA
ENDBRANCH   6   7
ENDBRANCH   5   6
ENDBRANCH   4   5
ENDBRANCH   3   4
ENDBRANCH   2   3
ENDBRANCH   1   2
BRANCH   1  10
ATOM     10  C   UNL     1      -2.763   1.294   4.677  1.00  0.00     0.027 C 
BRANCH  10  11
ATOM     11  C   UNL     1      -1.319   1.104   5.063  1.00  0.00    -0.031 C 
ATOM     12  C   UNL     1      -0.337   1.135   4.151  1.00  0.00    -0.031 C 
BRANCH  12  13
ATOM     13  C   UNL     1       1.096   0.939   4.562  1.00  0.00     0.027 C 
BRANCH  13  14
ATOM     14  C   UNL     1       1.995   0.689   3.343  1.00  0.00     0.004 C 
BRANCH  14  15
ATOM     15  C   UNL     1       2.071  -0.806   2.967  1.00  0.00     0.000 C 
BRANCH  15  16
ATOM     16  C   UNL     1       1.605  -1.751   4.091  1.00  0.00    -0.000 C 
BRANCH  16  17
ATOM     17  C   UNL     1       0.371  -2.601   3.744  1.00  0.00    -0.003 C 
ATOM     18  C   UNL     1      -0.700  -2.564   4.834  1.00  0.00     0.004 C 
ENDBRANCH  16  17
ENDBRANCH  15  16
ENDBRANCH  14  15
ENDBRANCH  13  14
ENDBRANCH  12  13
ENDBRANCH  10  11
ENDBRANCH   1  10
TORSDOF 13
ENDMDL
