MODEL 1
REMARK VINA RESULT:    -3.948      0.000      0.000
REMARK INTER + INTRA:          -9.112
REMARK INTER:                  -7.178
REMARK INTRA:                  -1.934
REMARK UNBOUND:                -1.934
REMARK SMILES CCCCCCCCCCCCCC[C@@H](C)C(=O)[O-]
REMARK SMILES IDX 9 1 10 2 11 3 12 4 13 5 14 6 15 7 16 8 17 9 18 10 19 11 8 12
REMARK SMILES IDX 7 13 6 14 5 15 4 16 3 17 2 18 1 19
REMARK H PARENT
REMARK Flexibility Score: inf
ROOT
ATOM      1  C   UNL     1      23.006  27.627  24.632  1.00  0.00     0.000 C 
ENDROOT
BRANCH   1   2
ATOM      2  C   UNL     1      22.204  28.001  23.374  1.00  0.00     0.000 C 
BRANCH   2   3
ATOM      3  C   UNL     1      22.613  27.171  22.145  1.00  0.00     0.000 C 
BRANCH   3   4
ATOM      4  C   UNL     1      23.016  28.047  20.948  1.00  0.00     0.000 C 
BRANCH   4   5
ATOM      5  C   UNL     1      24.444  27.756  20.451  1.00  0.00     0.001 C 
BRANCH   5   6
ATOM      6  C   UNL     1      24.609  26.296  19.977  1.00  0.00     0.009 C 
BRANCH   6   7
ATOM      7  C   UNL     1      26.077  25.813  19.964  1.00  0.00     0.032 C 
ATOM      8  C   UNL     1      26.193  24.284  20.018  1.00  0.00     0.014 C 
BRANCH   7   9
ATOM      9  C   UNL     1      26.770  26.328  18.732  1.00  0.00     0.044 C 
ATOM     10  O   UNL     1      26.132  26.463  17.656  1.00  0.00    -0.550 OA
ATOM     11  O   UNL     1      28.122  26.652  18.772  1.00  0.00    -0.550 OA
ENDBRANCH   7   9
ENDBRANCH   6   7
ENDBRANCH   5   6
ENDBRANCH   4   5
ENDBRANCH   3   4
ENDBRANCH   2   3
ENDBRANCH   1   2
BRANCH   1  12
ATOM     12  C   UNL     1      23.595  26.208  24.555  1.00  0.00     0.000 C 
BRANCH  12  13
ATOM     13  C   UNL     1      25.114  26.179  24.803  1.00  0.00    -0.000 C 
BRANCH  13  14
ATOM     14  C   UNL     1      25.982  26.091  23.532  1.00  0.00    -0.000 C 
BRANCH  14  15
ATOM     15  C   UNL     1      26.853  27.330  23.244  1.00  0.00    -0.000 C 
BRANCH  15  16
ATOM     16  C   UNL     1      28.225  27.032  22.612  1.00  0.00    -0.000 C 
BRANCH  16  17
ATOM     17  C   UNL     1      29.242  28.164  22.834  1.00  0.00    -0.000 C 
BRANCH  17  18
ATOM     18  C   UNL     1      28.946  28.979  24.103  1.00  0.00    -0.003 C 
ATOM     19  C   UNL     1      30.086  28.931  25.118  1.00  0.00     0.004 C 
ENDBRANCH  17  18
ENDBRANCH  16  17
ENDBRANCH  15  16
ENDBRANCH  14  15
ENDBRANCH  13  14
ENDBRANCH  12  13
ENDBRANCH   1  12
TORSDOF 14
ENDMDL
MODEL 2
REMARK VINA RESULT:    -3.866     13.374     15.853
REMARK INTER + INTRA:          -8.963
REMARK INTER:                  -6.645
REMARK INTRA:                  -2.318
REMARK UNBOUND:                -1.934
REMARK SMILES CCCCCCCCCCCCCC[C@@H](C)C(=O)[O-]
REMARK SMILES IDX 9 1 10 2 11 3 12 4 13 5 14 6 15 7 16 8 17 9 18 10 19 11 8 12
REMARK SMILES IDX 7 13 6 14 5 15 4 16 3 17 2 18 1 19
REMARK H PARENT
REMARK Flexibility Score: inf
ROOT
ATOM      1  C   UNL     1      22.994  10.377  21.140  1.00  0.00     0.000 C 
ENDROOT
BRANCH   1   2
ATOM      2  C   UNL     1      22.294  10.374  22.509  1.00  0.00     0.000 C 
BRANCH   2   3
ATOM      3  C   UNL     1      23.225  10.824  23.649  1.00  0.00     0.000 C 
BRANCH   3   4
ATOM      4  C   UNL     1      22.702  12.072  24.379  1.00  0.00     0.000 C 
BRANCH   4   5
ATOM      5  C   UNL     1      22.995  13.376  23.616  1.00  0.00     0.001 C 
BRANCH   5   6
ATOM      6  C   UNL     1      24.401  13.932  23.930  1.00  0.00     0.009 C 
BRANCH   6   7
ATOM      7  C   UNL     1      24.876  13.633  25.370  1.00  0.00     0.032 C 
ATOM      8  C   UNL     1      26.331  13.148  25.421  1.00  0.00     0.014 C 
BRANCH   7   9
ATOM      9  C   UNL     1      24.725  14.864  26.221  1.00  0.00     0.044 C 
ATOM     10  O   UNL     1      25.022  14.830  27.443  1.00  0.00    -0.550 OA
ATOM     11  O   UNL     1      24.247  16.047  25.665  1.00  0.00    -0.550 OA
ENDBRANCH   7   9
ENDBRANCH   6   7
ENDBRANCH   5   6
ENDBRANCH   4   5
ENDBRANCH   3   4
ENDBRANCH   2   3
ENDBRANCH   1   2
BRANCH   1  12
ATOM     12  C   UNL     1      22.833  11.716  20.398  1.00  0.00     0.000 C 
BRANCH  12  13
ATOM     13  C   UNL     1      24.170  12.451  20.199  1.00  0.00    -0.000 C 
BRANCH  13  14
ATOM     14  C   UNL     1      25.429  11.578  20.372  1.00  0.00    -0.000 C 
BRANCH  14  15
ATOM     15  C   UNL     1      26.309  11.928  21.588  1.00  0.00    -0.000 C 
BRANCH  15  16
ATOM     16  C   UNL     1      26.635  10.747  22.519  1.00  0.00    -0.000 C 
BRANCH  16  17
ATOM     17  C   UNL     1      28.137  10.413  22.555  1.00  0.00    -0.000 C 
BRANCH  17  18
ATOM     18  C   UNL     1      28.450   9.048  21.923  1.00  0.00    -0.003 C 
ATOM     19  C   UNL     1      29.149   9.167  20.569  1.00  0.00     0.004 C 
ENDBRANCH  17  18
ENDBRANCH  16  17
ENDBRANCH  15  16
ENDBRANCH  14  15
ENDBRANCH  13  14
ENDBRANCH  12  13
ENDBRANCH   1  12
TORSDOF 14
ENDMDL
MODEL 3
REMARK VINA RESULT:    -3.838      1.520      4.836
REMARK INTER + INTRA:          -8.912
REMARK INTER:                  -6.200
REMARK INTRA:                  -2.712
REMARK UNBOUND:                -1.934
REMARK SMILES CCCCCCCCCCCCCC[C@@H](C)C(=O)[O-]
REMARK SMILES IDX 9 1 10 2 11 3 12 4 13 5 14 6 15 7 16 8 17 9 18 10 19 11 8 12
REMARK SMILES IDX 7 13 6 14 5 15 4 16 3 17 2 18 1 19
REMARK H PARENT
REMARK Flexibility Score: inf
ROOT
ATOM      1  C   UNL     1      25.960  24.287  20.724  1.00  0.00     0.000 C 
ENDROOT
BRANCH   1   2
ATOM      2  C   UNL     1      25.549  24.548  22.183  1.00  0.00     0.000 C 
BRANCH   2   3
ATOM      3  C   UNL     1      26.593  25.380  22.949  1.00  0.00     0.000 C 
BRANCH   3   4
ATOM      4  C   UNL     1      26.363  26.893  22.804  1.00  0.00     0.000 C 
BRANCH   4   5
ATOM      5  C   UNL     1      27.668  27.704  22.888  1.00  0.00     0.001 C 
BRANCH   5   6
ATOM      6  C   UNL     1      27.853  28.637  21.671  1.00  0.00     0.009 C 
BRANCH   6   7
ATOM      7  C   UNL     1      27.301  28.049  20.352  1.00  0.00     0.032 C 
ATOM      8  C   UNL     1      26.423  29.046  19.586  1.00  0.00     0.014 C 
BRANCH   7   9
ATOM      9  C   UNL     1      28.442  27.605  19.478  1.00  0.00     0.044 C 
ATOM     10  O   UNL     1      29.480  28.311  19.383  1.00  0.00    -0.550 OA
ATOM     11  O   UNL     1      28.355  26.416  18.761  1.00  0.00    -0.550 OA
ENDBRANCH   7   9
ENDBRANCH   6   7
ENDBRANCH   5   6
ENDBRANCH   4   5
ENDBRANCH   3   4
ENDBRANCH   2   3
ENDBRANCH   1   2
BRANCH   1  12
ATOM     12  C   UNL     1      25.144  25.123  19.722  1.00  0.00     0.000 C 
BRANCH  12  13
ATOM     13  C   UNL     1      23.792  25.584  20.293  1.00  0.00    -0.000 C 
BRANCH  13  14
ATOM     14  C   UNL     1      23.426  27.053  20.002  1.00  0.00    -0.000 C 
BRANCH  14  15
ATOM     15  C   UNL     1      23.033  27.889  21.237  1.00  0.00    -0.000 C 
BRANCH  15  16
ATOM     16  C   UNL     1      22.512  27.077  22.436  1.00  0.00    -0.000 C 
BRANCH  16  17
ATOM     17  C   UNL     1      22.501  27.888  23.744  1.00  0.00    -0.000 C 
BRANCH  17  18
ATOM     18  C   UNL     1      23.269  27.187  24.876  1.00  0.00    -0.003 C 
ATOM     19  C   UNL     1      23.193  25.663  24.789  1.00  0.00     0.004 C 
ENDBRANCH  17  18
ENDBRANCH  16  17
ENDBRANCH  15  16
ENDBRANCH  14  15
ENDBRANCH  13  14
ENDBRANCH  12  13
ENDBRANCH   1  12
TORSDOF 14
ENDMDL
MODEL 4
REMARK VINA RESULT:    -3.832     13.888     16.370
REMARK INTER + INTRA:          -8.902
REMARK INTER:                  -6.615
REMARK INTRA:                  -2.287
REMARK UNBOUND:                -1.934
REMARK SMILES CCCCCCCCCCCCCC[C@@H](C)C(=O)[O-]
REMARK SMILES IDX 9 1 10 2 11 3 12 4 13 5 14 6 15 7 16 8 17 9 18 10 19 11 8 12
REMARK SMILES IDX 7 13 6 14 5 15 4 16 3 17 2 18 1 19
REMARK H PARENT
REMARK Flexibility Score: inf
ROOT
ATOM      1  C   UNL     1      23.653  11.794  24.707  1.00  0.00     0.000 C 
ENDROOT
BRANCH   1   2
ATOM      2  C   UNL     1      24.271  12.850  23.775  1.00  0.00     0.000 C 
BRANCH   2   3
ATOM      3  C   UNL     1      25.806  12.895  23.870  1.00  0.00     0.000 C 
BRANCH   3   4
ATOM      4  C   UNL     1      26.489  12.622  22.521  1.00  0.00     0.000 C 
BRANCH   4   5
ATOM      5  C   UNL     1      26.676  11.120  22.240  1.00  0.00     0.001 C 
BRANCH   5   6
ATOM      6  C   UNL     1      27.143  10.347  23.493  1.00  0.00     0.009 C 
BRANCH   6   7
ATOM      7  C   UNL     1      28.349   9.417  23.231  1.00  0.00     0.032 C 
ATOM      8  C   UNL     1      29.182   9.861  22.022  1.00  0.00     0.014 C 
BRANCH   7   9
ATOM      9  C   UNL     1      29.223   9.362  24.454  1.00  0.00     0.044 C 
ATOM     10  O   UNL     1      30.415   8.968  24.363  1.00  0.00    -0.550 OA
ATOM     11  O   UNL     1      28.719   9.737  25.695  1.00  0.00    -0.550 OA
ENDBRANCH   7   9
ENDBRANCH   6   7
ENDBRANCH   5   6
ENDBRANCH   4   5
ENDBRANCH   3   4
ENDBRANCH   2   3
ENDBRANCH   1   2
BRANCH   1  12
ATOM     12  C   UNL     1      23.016  10.625  23.935  1.00  0.00     0.000 C 
BRANCH  12  13
ATOM     13  C   UNL     1      22.388  11.065  22.601  1.00  0.00    -0.000 C 
BRANCH  13  14
ATOM     14  C   UNL     1      22.939  10.351  21.351  1.00  0.00    -0.000 C 
BRANCH  14  15
ATOM     15  C   UNL     1      23.663  11.262  20.340  1.00  0.00    -0.000 C 
BRANCH  15  16
ATOM     16  C   UNL     1      22.806  12.399  19.754  1.00  0.00    -0.000 C 
BRANCH  16  17
ATOM     17  C   UNL     1      23.624  13.665  19.448  1.00  0.00    -0.000 C 
BRANCH  17  18
ATOM     18  C   UNL     1      23.780  14.576  20.676  1.00  0.00    -0.003 C 
ATOM     19  C   UNL     1      22.443  14.922  21.331  1.00  0.00     0.004 C 
ENDBRANCH  17  18
ENDBRANCH  16  17
ENDBRANCH  15  16
ENDBRANCH  14  15
ENDBRANCH  13  14
ENDBRANCH  12  13
ENDBRANCH   1  12
TORSDOF 14
ENDMDL
MODEL 5
REMARK VINA RESULT:    -3.830     14.168     16.695
REMARK INTER + INTRA:          -8.899
REMARK INTER:                  -6.282
REMARK INTRA:                  -2.616
REMARK UNBOUND:                -1.934
REMARK SMILES CCCCCCCCCCCCCC[C@@H](C)C(=O)[O-]
REMARK SMILES IDX 9 1 10 2 11 3 12 4 13 5 14 6 15 7 16 8 17 9 18 10 19 11 8 12
REMARK SMILES IDX 7 13 6 14 5 15 4 16 3 17 2 18 1 19
REMARK H PARENT
REMARK Flexibility Score: inf
ROOT
ATOM      1  C   UNL     1      24.388  12.544  20.432  1.00  0.00     0.000 C 
ENDROOT
BRANCH   1   2
ATOM      2  C   UNL     1      25.535  11.528  20.567  1.00  0.00     0.000 C 
BRANCH   2   3
ATOM      3  C   UNL     1      26.297  11.671  21.896  1.00  0.00     0.000 C 
BRANCH   3   4
ATOM      4  C   UNL     1      27.211  10.469  22.185  1.00  0.00     0.000 C 
BRANCH   4   5
ATOM      5  C   UNL     1      27.217  10.068  23.671  1.00  0.00     0.001 C 
BRANCH   5   6
ATOM      6  C   UNL     1      26.672  11.192  24.579  1.00  0.00     0.009 C 
BRANCH   6   7
ATOM      7  C   UNL     1      26.276  10.707  25.992  1.00  0.00     0.032 C 
ATOM      8  C   UNL     1      25.667   9.299  25.982  1.00  0.00     0.014 C 
BRANCH   7   9
ATOM      9  C   UNL     1      27.482  10.729  26.892  1.00  0.00     0.044 C 
ATOM     10  O   UNL     1      27.800  11.784  27.499  1.00  0.00    -0.550 OA
ATOM     11  O   UNL     1      28.258   9.586  27.053  1.00  0.00    -0.550 OA
ENDBRANCH   7   9
ENDBRANCH   6   7
ENDBRANCH   5   6
ENDBRANCH   4   5
ENDBRANCH   3   4
ENDBRANCH   2   3
ENDBRANCH   1   2
BRANCH   1  12
ATOM     12  C   UNL     1      23.004  11.872  20.424  1.00  0.00     0.000 C 
BRANCH  12  13
ATOM     13  C   UNL     1      23.042  10.422  20.934  1.00  0.00    -0.000 C 
BRANCH  13  14
ATOM     14  C   UNL     1      22.347  10.186  22.290  1.00  0.00    -0.000 C 
BRANCH  14  15
ATOM     15  C   UNL     1      23.161  10.610  23.529  1.00  0.00    -0.000 C 
BRANCH  15  16
ATOM     16  C   UNL     1      22.508  11.700  24.398  1.00  0.00    -0.000 C 
BRANCH  16  17
ATOM     17  C   UNL     1      22.672  13.111  23.807  1.00  0.00    -0.000 C 
BRANCH  17  18
ATOM     18  C   UNL     1      24.082  13.681  24.029  1.00  0.00    -0.003 C 
ATOM     19  C   UNL     1      24.306  15.007  23.305  1.00  0.00     0.004 C 
ENDBRANCH  17  18
ENDBRANCH  16  17
ENDBRANCH  15  16
ENDBRANCH  14  15
ENDBRANCH  13  14
ENDBRANCH  12  13
ENDBRANCH   1  12
TORSDOF 14
ENDMDL
MODEL 6
REMARK VINA RESULT:    -3.806     15.404     17.088
REMARK INTER + INTRA:          -8.855
REMARK INTER:                  -6.869
REMARK INTRA:                  -1.987
REMARK UNBOUND:                -1.934
REMARK SMILES CCCCCCCCCCCCCC[C@@H](C)C(=O)[O-]
REMARK SMILES IDX 9 1 10 2 11 3 12 4 13 5 14 6 15 7 16 8 17 9 18 10 19 11 8 12
REMARK SMILES IDX 7 13 6 14 5 15 4 16 3 17 2 18 1 19
REMARK H PARENT
REMARK Flexibility Score: inf
ROOT
ATOM      1  C   UNL     1      22.987  11.857  20.616  1.00  0.00     0.000 C 
ENDROOT
BRANCH   1   2
ATOM      2  C   UNL     1      22.920  10.405  21.117  1.00  0.00     0.000 C 
BRANCH   2   3
ATOM      3  C   UNL     1      22.219  10.283  22.481  1.00  0.00     0.000 C 
BRANCH   3   4
ATOM      4  C   UNL     1      23.192  10.439  23.660  1.00  0.00     0.000 C 
BRANCH   4   5
ATOM      5  C   UNL     1      23.142  11.842  24.293  1.00  0.00     0.001 C 
BRANCH   5   6
ATOM      6  C   UNL     1      24.503  12.259  24.894  1.00  0.00     0.009 C 
BRANCH   6   7
ATOM      7  C   UNL     1      25.136  11.177  25.798  1.00  0.00     0.032 C 
ATOM      8  C   UNL     1      26.603  11.476  26.132  1.00  0.00     0.014 C 
BRANCH   7   9
ATOM      9  C   UNL     1      24.344  11.052  27.070  1.00  0.00     0.044 C 
ATOM     10  O   UNL     1      23.683  10.006  27.304  1.00  0.00    -0.550 OA
ATOM     11  O   UNL     1      24.329  12.092  27.994  1.00  0.00    -0.550 OA
ENDBRANCH   7   9
ENDBRANCH   6   7
ENDBRANCH   5   6
ENDBRANCH   4   5
ENDBRANCH   3   4
ENDBRANCH   2   3
ENDBRANCH   1   2
BRANCH   1  12
ATOM     12  C   UNL     1      24.399  12.256  20.150  1.00  0.00     0.000 C 
BRANCH  12  13
ATOM     13  C   UNL     1      25.432  12.227  21.290  1.00  0.00    -0.000 C 
BRANCH  13  14
ATOM     14  C   UNL     1      26.474  11.094  21.201  1.00  0.00    -0.000 C 
BRANCH  14  15
ATOM     15  C   UNL     1      26.967  10.547  22.555  1.00  0.00    -0.000 C 
BRANCH  15  16
ATOM     16  C   UNL     1      28.410  10.010  22.556  1.00  0.00    -0.000 C 
BRANCH  16  17
ATOM     17  C   UNL     1      28.625   8.881  21.533  1.00  0.00    -0.000 C 
BRANCH  17  18
ATOM     18  C   UNL     1      29.661   9.250  20.460  1.00  0.00    -0.003 C 
ATOM     19  C   UNL     1      29.130   9.078  19.038  1.00  0.00     0.004 C 
ENDBRANCH  17  18
ENDBRANCH  16  17
ENDBRANCH  15  16
ENDBRANCH  14  15
ENDBRANCH  13  14
ENDBRANCH  12  13
ENDBRANCH   1  12
TORSDOF 14
ENDMDL
MODEL 7
REMARK VINA RESULT:    -3.797     14.561     17.152
REMARK INTER + INTRA:          -8.839
REMARK INTER:                  -6.500
REMARK INTRA:                  -2.339
REMARK UNBOUND:                -1.934
REMARK SMILES CCCCCCCCCCCCCC[C@@H](C)C(=O)[O-]
REMARK SMILES IDX 9 1 10 2 11 3 12 4 13 5 14 6 15 7 16 8 17 9 18 10 19 11 8 12
REMARK SMILES IDX 7 13 6 14 5 15 4 16 3 17 2 18 1 19
REMARK H PARENT
REMARK Flexibility Score: inf
ROOT
ATOM      1  C   UNL     1      26.377  12.943  23.441  1.00  0.00     0.000 C 
ENDROOT
BRANCH   1   2
ATOM      2  C   UNL     1      26.452  12.252  22.069  1.00  0.00     0.000 C 
BRANCH   2   3
ATOM      3  C   UNL     1      26.606  10.726  22.185  1.00  0.00     0.000 C 
BRANCH   3   4
ATOM      4  C   UNL     1      28.077  10.282  22.225  1.00  0.00     0.000 C 
BRANCH   4   5
ATOM      5  C   UNL     1      28.337   9.168  23.254  1.00  0.00     0.001 C 
BRANCH   5   6
ATOM      6  C   UNL     1      27.443   9.312  24.506  1.00  0.00     0.009 C 
BRANCH   6   7
ATOM      7  C   UNL     1      28.202   9.099  25.835  1.00  0.00     0.032 C 
ATOM      8  C   UNL     1      29.725   9.115  25.651  1.00  0.00     0.014 C 
BRANCH   7   9
ATOM      9  C   UNL     1      27.802  10.159  26.824  1.00  0.00     0.044 C 
ATOM     10  O   UNL     1      27.434  11.294  26.421  1.00  0.00    -0.550 OA
ATOM     11  O   UNL     1      27.844   9.897  28.189  1.00  0.00    -0.550 OA
ENDBRANCH   7   9
ENDBRANCH   6   7
ENDBRANCH   5   6
ENDBRANCH   4   5
ENDBRANCH   3   4
ENDBRANCH   2   3
ENDBRANCH   1   2
BRANCH   1  12
ATOM     12  C   UNL     1      25.171  13.892  23.560  1.00  0.00     0.000 C 
BRANCH  12  13
ATOM     13  C   UNL     1      24.012  13.283  24.368  1.00  0.00    -0.000 C 
BRANCH  13  14
ATOM     14  C   UNL     1      24.267  11.862  24.908  1.00  0.00    -0.000 C 
BRANCH  14  15
ATOM     15  C   UNL     1      23.494  10.737  24.190  1.00  0.00    -0.000 C 
BRANCH  15  16
ATOM     16  C   UNL     1      22.632  11.195  22.999  1.00  0.00    -0.000 C 
BRANCH  16  17
ATOM     17  C   UNL     1      22.710  10.232  21.802  1.00  0.00    -0.000 C 
BRANCH  17  18
ATOM     18  C   UNL     1      23.271  10.907  20.540  1.00  0.00    -0.003 C 
ATOM     19  C   UNL     1      23.049  12.419  20.529  1.00  0.00     0.004 C 
ENDBRANCH  17  18
ENDBRANCH  16  17
ENDBRANCH  15  16
ENDBRANCH  14  15
ENDBRANCH  13  14
ENDBRANCH  12  13
ENDBRANCH   1  12
TORSDOF 14
ENDMDL
MODEL 8
REMARK VINA RESULT:    -3.796      1.594      3.095
REMARK INTER + INTRA:          -8.836
REMARK INTER:                  -6.499
REMARK INTRA:                  -2.338
REMARK UNBOUND:                -1.934
REMARK SMILES CCCCCCCCCCCCCC[C@@H](C)C(=O)[O-]
REMARK SMILES IDX 9 1 10 2 11 3 12 4 13 5 14 6 15 7 16 8 17 9 18 10 19 11 8 12
REMARK SMILES IDX 7 13 6 14 5 15 4 16 3 17 2 18 1 19
REMARK H PARENT
REMARK Flexibility Score: inf
ROOT
ATOM      1  C   UNL     1      23.058  27.409  21.957  1.00  0.00     0.000 C 
ENDROOT
BRANCH   1   2
ATOM      2  C   UNL     1      22.821  26.007  21.371  1.00  0.00     0.000 C 
BRANCH   2   3
ATOM      3  C   UNL     1      23.943  25.572  20.412  1.00  0.00     0.000 C 
BRANCH   3   4
ATOM      4  C   UNL     1      24.188  24.055  20.439  1.00  0.00     0.000 C 
BRANCH   4   5
ATOM      5  C   UNL     1      25.562  23.663  19.868  1.00  0.00     0.001 C 
BRANCH   5   6
ATOM      6  C   UNL     1      26.488  24.885  19.685  1.00  0.00     0.009 C 
BRANCH   6   7
ATOM      7  C   UNL     1      27.555  24.694  18.584  1.00  0.00     0.032 C 
ATOM      8  C   UNL     1      27.062  23.805  17.435  1.00  0.00     0.014 C 
BRANCH   7   9
ATOM      9  C   UNL     1      27.972  26.033  18.042  1.00  0.00     0.044 C 
ATOM     10  O   UNL     1      28.610  26.840  18.769  1.00  0.00    -0.550 OA
ATOM     11  O   UNL     1      27.649  26.395  16.738  1.00  0.00    -0.550 OA
ENDBRANCH   7   9
ENDBRANCH   6   7
ENDBRANCH   5   6
ENDBRANCH   4   5
ENDBRANCH   3   4
ENDBRANCH   2   3
ENDBRANCH   1   2
BRANCH   1  12
ATOM     12  C   UNL     1      22.169  27.695  23.180  1.00  0.00     0.000 C 
BRANCH  12  13
ATOM     13  C   UNL     1      22.969  27.774  24.492  1.00  0.00    -0.000 C 
BRANCH  13  14
ATOM     14  C   UNL     1      23.330  26.413  25.121  1.00  0.00    -0.000 C 
BRANCH  14  15
ATOM     15  C   UNL     1      24.827  26.049  25.085  1.00  0.00    -0.000 C 
BRANCH  15  16
ATOM     16  C   UNL     1      25.229  25.042  23.992  1.00  0.00    -0.000 C 
BRANCH  16  17
ATOM     17  C   UNL     1      26.394  25.543  23.121  1.00  0.00    -0.000 C 
BRANCH  17  18
ATOM     18  C   UNL     1      26.558  27.070  23.180  1.00  0.00    -0.003 C 
ATOM     19  C   UNL     1      27.413  27.619  22.038  1.00  0.00     0.004 C 
ENDBRANCH  17  18
ENDBRANCH  16  17
ENDBRANCH  15  16
ENDBRANCH  14  15
ENDBRANCH  13  14
ENDBRANCH  12  13
ENDBRANCH   1  12
TORSDOF 14
ENDMDL
MODEL 9
REMARK VINA RESULT:    -3.751      1.782      3.480
REMARK INTER + INTRA:          -8.755
REMARK INTER:                  -6.423
REMARK INTRA:                  -2.331
REMARK UNBOUND:                -1.934
REMARK SMILES CCCCCCCCCCCCCC[C@@H](C)C(=O)[O-]
REMARK SMILES IDX 9 1 10 2 11 3 12 4 13 5 14 6 15 7 16 8 17 9 18 10 19 11 8 12
REMARK SMILES IDX 7 13 6 14 5 15 4 16 3 17 2 18 1 19
REMARK H PARENT
REMARK Flexibility Score: inf
ROOT
ATOM      1  C   UNL     1      22.100  26.389  22.498  1.00  0.00     0.000 C 
ENDROOT
BRANCH   1   2
ATOM      2  C   UNL     1      22.531  26.631  21.042  1.00  0.00     0.000 C 
BRANCH   2   3
ATOM      3  C   UNL     1      23.027  28.068  20.805  1.00  0.00     0.000 C 
BRANCH   3   4
ATOM      4  C   UNL     1      24.137  28.141  19.744  1.00  0.00     0.000 C 
BRANCH   4   5
ATOM      5  C   UNL     1      25.546  27.973  20.342  1.00  0.00     0.001 C 
BRANCH   5   6
ATOM      6  C   UNL     1      26.493  29.122  19.935  1.00  0.00     0.009 C 
BRANCH   6   7
ATOM      7  C   UNL     1      27.984  28.717  19.916  1.00  0.00     0.032 C 
ATOM      8  C   UNL     1      28.388  27.901  21.150  1.00  0.00     0.014 C 
BRANCH   7   9
ATOM      9  C   UNL     1      28.280  27.928  18.670  1.00  0.00     0.044 C 
ATOM     10  O   UNL     1      28.446  26.682  18.734  1.00  0.00    -0.550 OA
ATOM     11  O   UNL     1      28.379  28.569  17.439  1.00  0.00    -0.550 OA
ENDBRANCH   7   9
ENDBRANCH   6   7
ENDBRANCH   5   6
ENDBRANCH   4   5
ENDBRANCH   3   4
ENDBRANCH   2   3
ENDBRANCH   1   2
BRANCH   1  12
ATOM     12  C   UNL     1      21.985  27.694  23.305  1.00  0.00     0.000 C 
BRANCH  12  13
ATOM     13  C   UNL     1      23.002  27.775  24.456  1.00  0.00    -0.000 C 
BRANCH  13  14
ATOM     14  C   UNL     1      23.380  26.422  25.092  1.00  0.00    -0.000 C 
BRANCH  14  15
ATOM     15  C   UNL     1      24.875  26.054  25.014  1.00  0.00    -0.000 C 
BRANCH  15  16
ATOM     16  C   UNL     1      25.607  26.557  23.756  1.00  0.00    -0.000 C 
BRANCH  16  17
ATOM     17  C   UNL     1      26.343  25.433  23.006  1.00  0.00    -0.000 C 
BRANCH  17  18
ATOM     18  C   UNL     1      25.394  24.573  22.157  1.00  0.00    -0.003 C 
ATOM     19  C   UNL     1      25.916  24.336  20.740  1.00  0.00     0.004 C 
ENDBRANCH  17  18
ENDBRANCH  16  17
ENDBRANCH  15  16
ENDBRANCH  14  15
ENDBRANCH  13  14
ENDBRANCH  12  13
ENDBRANCH   1  12
TORSDOF 14
ENDMDL
