MODEL 1
REMARK VINA RESULT:    -7.627      0.000      0.000
REMARK INTER + INTRA:         -14.249
REMARK INTER:                 -12.531
REMARK INTRA:                  -1.718
REMARK UNBOUND:                -1.718
REMARK SMILES C[C@@H]1O[C@@H](OC[C@@H]2O[C@H](Oc3c(-c4ccc(O)c(O)c4)oc4cc(O)cc(O)c4c3=O)[C@H](O)[C@H](O)[C@@H]2O)[C@H](O)[C@@H](O)[C@@H]1O
REMARK SMILES IDX 7 1 36 2 34 3 32 4 9 5 8 6 6 7 5 8 4 9 1 10 2 11 42 12 3 13
REMARK SMILES IDX 40 14 38 15 43 16 41 18 39 20 37 22 35 24 10 26 11 27 12 28
REMARK SMILES IDX 30 29 21 30 29 31 31 32 22 33 27 34 23 35 26 36 24 37 13 38
REMARK SMILES IDX 20 39 14 40 18 41 15 42 16 43 19 44 17 46 28 48 25 50 33 52
REMARK H PARENT 43 17 41 19 39 21 37 23 35 25 19 45 17 47 28 49 25 51 33 53
REMARK Flexibility Score: inf
ROOT
ATOM      1  C   UNL     1      -3.364  -0.349  25.720  1.00  0.00     0.180 C 
ATOM      2  C   UNL     1      -3.327  -1.624  26.613  1.00  0.00     0.177 C 
ATOM      3  C   UNL     1      -2.879  -2.882  25.824  1.00  0.00     0.180 C 
ATOM      4  C   UNL     1      -1.958  -2.518  24.640  1.00  0.00     0.214 C 
ATOM      5  C   UNL     1      -1.243  -1.165  24.903  1.00  0.00     0.339 C 
ATOM      6  O   UNL     1      -2.131  -0.070  25.072  1.00  0.00    -0.332 OA
ENDROOT
BRANCH   1   7
ATOM      7  C   UNL     1      -4.509  -0.299  24.685  1.00  0.00     0.198 C 
BRANCH   7   8
ATOM      8  O   UNL     1      -4.229   0.727  23.732  1.00  0.00    -0.347 OA
BRANCH   8   9
ATOM      9  C   UNL     1      -4.201   0.333  22.353  1.00  0.00     0.281 C 
ATOM     10  C   UNL     1      -3.089   0.401  19.575  1.00  0.00     0.041 C 
ATOM     11  C   UNL     1      -4.387   1.054  20.095  1.00  0.00     0.150 C 
ATOM     12  C   UNL     1      -5.702   0.250  19.828  1.00  0.00     0.174 C 
ATOM     13  O   UNL     1      -4.272   1.438  21.456  1.00  0.00    -0.344 OA
ATOM     14  C   UNL     1      -6.362  -0.219  21.145  1.00  0.00     0.179 C 
ATOM     15  C   UNL     1      -5.294  -0.744  22.108  1.00  0.00     0.202 C 
BRANCH  12  16
ATOM     16  O   UNL     1      -5.471  -0.865  18.996  1.00  0.00    -0.388 OA
ATOM     17  H   UNL     1      -5.207  -1.619  19.581  1.00  0.00     0.211 HD
ENDBRANCH  12  16
BRANCH  14  18
ATOM     18  O   UNL     1      -7.057   0.853  21.743  1.00  0.00    -0.387 OA
ATOM     19  H   UNL     1      -6.942   0.765  22.723  1.00  0.00     0.211 HD
ENDBRANCH  14  18
BRANCH  15  20
ATOM     20  O   UNL     1      -4.726  -1.910  21.575  1.00  0.00    -0.385 OA
ATOM     21  H   UNL     1      -4.625  -2.554  22.322  1.00  0.00     0.211 HD
ENDBRANCH  15  20
ENDBRANCH   8   9
ENDBRANCH   7   8
ENDBRANCH   1   7
BRANCH   2  22
ATOM     22  O   UNL     1      -4.513  -1.844  27.325  1.00  0.00    -0.387 OA
ATOM     23  H   UNL     1      -5.259  -1.925  26.671  1.00  0.00     0.211 HD
ENDBRANCH   2  22
BRANCH   3  24
ATOM     24  O   UNL     1      -3.983  -3.616  25.370  1.00  0.00    -0.387 OA
ATOM     25  H   UNL     1      -4.672  -3.584  26.082  1.00  0.00     0.211 HD
ENDBRANCH   3  24
BRANCH   5  26
ATOM     26  O   UNL     1      -0.275  -0.856  23.872  1.00  0.00    -0.454 OA
BRANCH  26  27
ATOM     27  C   UNL     1       0.494  -1.802  23.169  1.00  0.00     0.214 A 
ATOM     28  C   UNL     1       1.257  -2.787  23.844  1.00  0.00     0.180 A 
ATOM     29  C   UNL     1       0.575  -1.765  21.755  1.00  0.00     0.239 A 
ATOM     30  O   UNL     1       1.843  -3.745  23.126  1.00  0.00    -0.452 OA
ATOM     31  C   UNL     1       1.109  -2.853  21.042  1.00  0.00     0.111 A 
ATOM     32  O   UNL     1       0.270  -0.704  21.155  1.00  0.00    -0.285 OA
ATOM     33  C   UNL     1       1.782  -3.833  21.802  1.00  0.00     0.146 A 
ATOM     34  C   UNL     1       1.045  -2.998  19.627  1.00  0.00     0.134 A 
ATOM     35  C   UNL     1       2.445  -4.884  21.171  1.00  0.00     0.094 A 
ATOM     36  C   UNL     1       1.735  -4.055  19.014  1.00  0.00     0.093 A 
ATOM     37  C   UNL     1       2.429  -4.996  19.779  1.00  0.00     0.123 A 
BRANCH  28  38
ATOM     38  C   UNL     1       1.512  -2.810  25.325  1.00  0.00     0.025 A 
ATOM     39  C   UNL     1       1.276  -3.929  26.151  1.00  0.00     0.062 A 
ATOM     40  C   UNL     1       2.053  -1.656  25.932  1.00  0.00     0.016 A 
ATOM     41  C   UNL     1       1.546  -3.901  27.521  1.00  0.00     0.158 A 
ATOM     42  C   UNL     1       2.337  -1.621  27.304  1.00  0.00     0.051 A 
ATOM     43  C   UNL     1       2.079  -2.742  28.103  1.00  0.00     0.157 A 
BRANCH  41  44
ATOM     44  O   UNL     1       1.279  -5.035  28.290  1.00  0.00    -0.504 OA
ATOM     45  H   UNL     1       0.357  -5.213  28.676  1.00  0.00     0.293 HD
ENDBRANCH  41  44
BRANCH  43  46
ATOM     46  O   UNL     1       2.381  -2.715  29.467  1.00  0.00    -0.504 OA
ATOM     47  H   UNL     1       2.472  -1.845  29.977  1.00  0.00     0.293 HD
ENDBRANCH  43  46
ENDBRANCH  28  38
BRANCH  34  48
ATOM     48  O   UNL     1       0.275  -2.176  18.796  1.00  0.00    -0.507 OA
ATOM     49  H   UNL     1      -0.394  -2.521  18.120  1.00  0.00     0.293 HD
ENDBRANCH  34  48
BRANCH  37  50
ATOM     50  O   UNL     1       3.088  -6.043  19.145  1.00  0.00    -0.508 OA
ATOM     51  H   UNL     1       4.079  -6.191  19.301  1.00  0.00     0.293 HD
ENDBRANCH  37  50
ENDBRANCH  26  27
ENDBRANCH   5  26
BRANCH   4  52
ATOM     52  O   UNL     1      -2.691  -2.485  23.440  1.00  0.00    -0.384 OA
ATOM     53  H   UNL     1      -2.955  -1.537  23.281  1.00  0.00     0.211 HD
ENDBRANCH   4  52
TORSDOF 16
ENDMDL
MODEL 2
REMARK VINA RESULT:    -6.240      2.418      7.130
REMARK INTER + INTRA:         -11.972
REMARK INTER:                  -9.999
REMARK INTRA:                  -1.973
REMARK UNBOUND:                -1.718
REMARK SMILES C[C@@H]1O[C@@H](OC[C@@H]2O[C@H](Oc3c(-c4ccc(O)c(O)c4)oc4cc(O)cc(O)c4c3=O)[C@H](O)[C@H](O)[C@@H]2O)[C@H](O)[C@@H](O)[C@@H]1O
REMARK SMILES IDX 7 1 36 2 34 3 32 4 9 5 8 6 6 7 5 8 4 9 1 10 2 11 42 12 3 13
REMARK SMILES IDX 40 14 38 15 43 16 41 18 39 20 37 22 35 24 10 26 11 27 12 28
REMARK SMILES IDX 30 29 21 30 29 31 31 32 22 33 27 34 23 35 26 36 24 37 13 38
REMARK SMILES IDX 20 39 14 40 18 41 15 42 16 43 19 44 17 46 28 48 25 50 33 52
REMARK H PARENT 43 17 41 19 39 21 37 23 35 25 19 45 17 47 28 49 25 51 33 53
REMARK Flexibility Score: inf
ROOT
ATOM      1  C   UNL     1      -0.207  -3.105  27.780  1.00  0.00     0.180 C 
ATOM      2  C   UNL     1      -0.745  -2.972  29.234  1.00  0.00     0.177 C 
ATOM      3  C   UNL     1      -0.723  -1.506  29.740  1.00  0.00     0.180 C 
ATOM      4  C   UNL     1      -0.852  -0.498  28.579  1.00  0.00     0.214 C 
ATOM      5  C   UNL     1      -1.568  -1.154  27.366  1.00  0.00     0.339 C 
ATOM      6  O   UNL     1      -0.889  -2.284  26.842  1.00  0.00    -0.332 OA
ENDROOT
BRANCH   1   7
ATOM      7  C   UNL     1       1.317  -2.907  27.618  1.00  0.00     0.198 C 
BRANCH   7   8
ATOM      8  O   UNL     1       1.838  -3.960  26.807  1.00  0.00    -0.347 OA
BRANCH   8   9
ATOM      9  C   UNL     1       2.120  -3.638  25.439  1.00  0.00     0.281 C 
ATOM     10  C   UNL     1       3.125  -1.840  23.267  1.00  0.00     0.041 C 
ATOM     11  C   UNL     1       1.660  -2.168  23.627  1.00  0.00     0.150 C 
ATOM     12  C   UNL     1       0.980  -3.274  22.754  1.00  0.00     0.174 C 
ATOM     13  O   UNL     1       1.507  -2.424  25.015  1.00  0.00    -0.344 OA
ATOM     14  C   UNL     1       0.622  -4.522  23.592  1.00  0.00     0.179 C 
ATOM     15  C   UNL     1       1.772  -4.861  24.545  1.00  0.00     0.202 C 
BRANCH  12  16
ATOM     16  O   UNL     1       1.795  -3.655  21.669  1.00  0.00    -0.388 OA
ATOM     17  H   UNL     1       1.930  -4.634  21.732  1.00  0.00     0.211 HD
ENDBRANCH  12  16
BRANCH  14  18
ATOM     18  O   UNL     1      -0.555  -4.284  24.331  1.00  0.00    -0.387 OA
ATOM     19  H   UNL     1      -1.088  -3.619  23.825  1.00  0.00     0.211 HD
ENDBRANCH  14  18
BRANCH  15  20
ATOM     20  O   UNL     1       2.888  -5.258  23.798  1.00  0.00    -0.385 OA
ATOM     21  H   UNL     1       3.691  -4.906  24.261  1.00  0.00     0.211 HD
ENDBRANCH  15  20
ENDBRANCH   8   9
ENDBRANCH   7   8
ENDBRANCH   1   7
BRANCH   2  22
ATOM     22  O   UNL     1      -0.136  -3.850  30.141  1.00  0.00    -0.387 OA
ATOM     23  H   UNL     1       0.849  -3.716  30.090  1.00  0.00     0.211 HD
ENDBRANCH   2  22
BRANCH   3  24
ATOM     24  O   UNL     1       0.436  -1.242  30.482  1.00  0.00    -0.387 OA
ATOM     25  H   UNL     1       0.516  -1.954  31.168  1.00  0.00     0.211 HD
ENDBRANCH   3  24
BRANCH   5  26
ATOM     26  O   UNL     1      -1.820  -0.199  26.308  1.00  0.00    -0.454 OA
BRANCH  26  27
ATOM     27  C   UNL     1      -2.848  -0.297  25.351  1.00  0.00     0.214 A 
ATOM     28  C   UNL     1      -4.186   0.049  25.662  1.00  0.00     0.180 A 
ATOM     29  C   UNL     1      -2.585  -0.803  24.054  1.00  0.00     0.239 A 
ATOM     30  O   UNL     1      -5.084   0.078  24.677  1.00  0.00    -0.452 OA
ATOM     31  C   UNL     1      -3.530  -0.650  23.025  1.00  0.00     0.111 A 
ATOM     32  O   UNL     1      -1.549  -1.488  23.865  1.00  0.00    -0.285 OA
ATOM     33  C   UNL     1      -4.818  -0.220  23.411  1.00  0.00     0.146 A 
ATOM     34  C   UNL     1      -3.280  -0.935  21.652  1.00  0.00     0.134 A 
ATOM     35  C   UNL     1      -5.851  -0.155  22.478  1.00  0.00     0.094 A 
ATOM     36  C   UNL     1      -4.341  -0.878  20.735  1.00  0.00     0.093 A 
ATOM     37  C   UNL     1      -5.618  -0.487  21.142  1.00  0.00     0.123 A 
BRANCH  28  38
ATOM     38  C   UNL     1      -4.699   0.337  27.046  1.00  0.00     0.025 A 
ATOM     39  C   UNL     1      -4.687  -0.596  28.103  1.00  0.00     0.062 A 
ATOM     40  C   UNL     1      -5.196   1.629  27.323  1.00  0.00     0.016 A 
ATOM     41  C   UNL     1      -5.161  -0.271  29.376  1.00  0.00     0.158 A 
ATOM     42  C   UNL     1      -5.667   1.969  28.598  1.00  0.00     0.051 A 
ATOM     43  C   UNL     1      -5.655   1.018  29.627  1.00  0.00     0.157 A 
BRANCH  41  44
ATOM     44  O   UNL     1      -5.137  -1.240  30.380  1.00  0.00    -0.504 OA
ATOM     45  H   UNL     1      -5.786  -1.216  31.161  1.00  0.00     0.293 HD
ENDBRANCH  41  44
BRANCH  43  46
ATOM     46  O   UNL     1      -6.105   1.362  30.904  1.00  0.00    -0.504 OA
ATOM     47  H   UNL     1      -7.082   1.299  31.162  1.00  0.00     0.293 HD
ENDBRANCH  43  46
ENDBRANCH  28  38
BRANCH  34  48
ATOM     48  O   UNL     1      -2.008  -1.213  21.136  1.00  0.00    -0.507 OA
ATOM     49  H   UNL     1      -1.368  -0.508  20.795  1.00  0.00     0.293 HD
ENDBRANCH  34  48
BRANCH  37  50
ATOM     50  O   UNL     1      -6.645  -0.423  20.207  1.00  0.00    -0.508 OA
ATOM     51  H   UNL     1      -7.475   0.128  20.396  1.00  0.00     0.293 HD
ENDBRANCH  37  50
ENDBRANCH  26  27
ENDBRANCH   5  26
BRANCH   4  52
ATOM     52  O   UNL     1       0.413   0.001  28.218  1.00  0.00    -0.384 OA
ATOM     53  H   UNL     1       0.485  -0.068  27.226  1.00  0.00     0.211 HD
ENDBRANCH   4  52
TORSDOF 16
ENDMDL
MODEL 3
REMARK VINA RESULT:    -6.200      2.220      6.985
REMARK INTER + INTRA:         -11.906
REMARK INTER:                  -9.157
REMARK INTRA:                  -2.749
REMARK UNBOUND:                -1.718
REMARK SMILES C[C@@H]1O[C@@H](OC[C@@H]2O[C@H](Oc3c(-c4ccc(O)c(O)c4)oc4cc(O)cc(O)c4c3=O)[C@H](O)[C@H](O)[C@@H]2O)[C@H](O)[C@@H](O)[C@@H]1O
REMARK SMILES IDX 7 1 36 2 34 3 32 4 9 5 8 6 6 7 5 8 4 9 1 10 2 11 42 12 3 13
REMARK SMILES IDX 40 14 38 15 43 16 41 18 39 20 37 22 35 24 10 26 11 27 12 28
REMARK SMILES IDX 30 29 21 30 29 31 31 32 22 33 27 34 23 35 26 36 24 37 13 38
REMARK SMILES IDX 20 39 14 40 18 41 15 42 16 43 19 44 17 46 28 48 25 50 33 52
REMARK H PARENT 43 17 41 19 39 21 37 23 35 25 19 45 17 47 28 49 25 51 33 53
REMARK Flexibility Score: inf
ROOT
ATOM      1  C   UNL     1      -3.827   0.901  20.830  1.00  0.00     0.180 C 
ATOM      2  C   UNL     1      -5.359   1.171  20.883  1.00  0.00     0.177 C 
ATOM      3  C   UNL     1      -6.160  -0.070  21.358  1.00  0.00     0.180 C 
ATOM      4  C   UNL     1      -5.318  -0.975  22.282  1.00  0.00     0.214 C 
ATOM      5  C   UNL     1      -4.194  -0.154  22.971  1.00  0.00     0.339 C 
ATOM      6  O   UNL     1      -3.285   0.449  22.063  1.00  0.00    -0.332 OA
ENDROOT
BRANCH   1   7
ATOM      7  C   UNL     1      -3.358  -0.033  19.692  1.00  0.00     0.198 C 
BRANCH   7   8
ATOM      8  O   UNL     1      -2.145   0.479  19.141  1.00  0.00    -0.347 OA
BRANCH   8   9
ATOM      9  C   UNL     1      -1.000  -0.383  19.195  1.00  0.00     0.281 C 
ATOM     10  C   UNL     1       0.842  -2.455  18.068  1.00  0.00     0.041 C 
ATOM     11  C   UNL     1      -0.224  -2.631  19.169  1.00  0.00     0.150 C 
ATOM     12  C   UNL     1       0.308  -2.583  20.640  1.00  0.00     0.174 C 
ATOM     13  O   UNL     1      -1.324  -1.753  18.979  1.00  0.00    -0.344 OA
ATOM     14  C   UNL     1      -0.254  -1.367  21.411  1.00  0.00     0.179 C 
ATOM     15  C   UNL     1      -0.228  -0.123  20.518  1.00  0.00     0.202 C 
BRANCH  12  16
ATOM     16  O   UNL     1       1.717  -2.557  20.683  1.00  0.00    -0.388 OA
ATOM     17  H   UNL     1       2.039  -3.400  20.276  1.00  0.00     0.211 HD
ENDBRANCH  12  16
BRANCH  14  18
ATOM     18  O   UNL     1      -1.576  -1.628  21.825  1.00  0.00    -0.387 OA
ATOM     19  H   UNL     1      -1.532  -1.949  22.762  1.00  0.00     0.211 HD
ENDBRANCH  14  18
BRANCH  15  20
ATOM     20  O   UNL     1       1.103   0.225  20.251  1.00  0.00    -0.385 OA
ATOM     21  H   UNL     1       1.132   0.587  19.328  1.00  0.00     0.211 HD
ENDBRANCH  15  20
ENDBRANCH   8   9
ENDBRANCH   7   8
ENDBRANCH   1   7
BRANCH   2  22
ATOM     22  O   UNL     1      -5.876   1.706  19.695  1.00  0.00    -0.387 OA
ATOM     23  H   UNL     1      -5.876   2.698  19.774  1.00  0.00     0.211 HD
ENDBRANCH   2  22
BRANCH   3  24
ATOM     24  O   UNL     1      -6.647  -0.808  20.271  1.00  0.00    -0.387 OA
ATOM     25  H   UNL     1      -6.827  -0.166  19.537  1.00  0.00     0.211 HD
ENDBRANCH   3  24
BRANCH   5  26
ATOM     26  O   UNL     1      -3.466  -0.945  23.941  1.00  0.00    -0.454 OA
BRANCH  26  27
ATOM     27  C   UNL     1      -3.209  -0.565  25.271  1.00  0.00     0.214 A 
ATOM     28  C   UNL     1      -1.954  -0.807  25.883  1.00  0.00     0.180 A 
ATOM     29  C   UNL     1      -4.223   0.026  26.066  1.00  0.00     0.239 A 
ATOM     30  O   UNL     1      -1.722  -0.292  27.090  1.00  0.00    -0.452 OA
ATOM     31  C   UNL     1      -3.902   0.649  27.285  1.00  0.00     0.111 A 
ATOM     32  O   UNL     1      -5.424  -0.113  25.723  1.00  0.00    -0.285 OA
ATOM     33  C   UNL     1      -2.600   0.423  27.782  1.00  0.00     0.146 A 
ATOM     34  C   UNL     1      -4.805   1.443  28.047  1.00  0.00     0.134 A 
ATOM     35  C   UNL     1      -2.232   0.900  29.039  1.00  0.00     0.094 A 
ATOM     36  C   UNL     1      -4.416   1.897  29.316  1.00  0.00     0.093 A 
ATOM     37  C   UNL     1      -3.137   1.633  29.810  1.00  0.00     0.123 A 
BRANCH  28  38
ATOM     38  C   UNL     1      -0.864  -1.660  25.297  1.00  0.00     0.025 A 
ATOM     39  C   UNL     1      -1.037  -3.002  24.899  1.00  0.00     0.062 A 
ATOM     40  C   UNL     1       0.408  -1.080  25.096  1.00  0.00     0.016 A 
ATOM     41  C   UNL     1       0.007  -3.745  24.344  1.00  0.00     0.158 A 
ATOM     42  C   UNL     1       1.460  -1.814  24.531  1.00  0.00     0.051 A 
ATOM     43  C   UNL     1       1.264  -3.150  24.158  1.00  0.00     0.157 A 
BRANCH  41  44
ATOM     44  O   UNL     1      -0.220  -5.073  23.983  1.00  0.00    -0.504 OA
ATOM     45  H   UNL     1      -1.012  -5.597  24.344  1.00  0.00     0.293 HD
ENDBRANCH  41  44
BRANCH  43  46
ATOM     46  O   UNL     1       2.306  -3.876  23.576  1.00  0.00    -0.504 OA
ATOM     47  H   UNL     1       2.135  -4.702  23.016  1.00  0.00     0.293 HD
ENDBRANCH  43  46
ENDBRANCH  28  38
BRANCH  34  48
ATOM     48  O   UNL     1      -6.057   1.859  27.579  1.00  0.00    -0.507 OA
ATOM     49  H   UNL     1      -6.203   2.679  27.003  1.00  0.00     0.293 HD
ENDBRANCH  34  48
BRANCH  37  50
ATOM     50  O   UNL     1      -2.774   2.111  31.064  1.00  0.00    -0.508 OA
ATOM     51  H   UNL     1      -3.481   2.459  31.702  1.00  0.00     0.293 HD
ENDBRANCH  37  50
ENDBRANCH  26  27
ENDBRANCH   5  26
BRANCH   4  52
ATOM     52  O   UNL     1      -4.789  -2.059  21.557  1.00  0.00    -0.384 OA
ATOM     53  H   UNL     1      -4.660  -1.752  20.618  1.00  0.00     0.211 HD
ENDBRANCH   4  52
TORSDOF 16
ENDMDL
MODEL 4
REMARK VINA RESULT:    -6.168      2.267      7.392
REMARK INTER + INTRA:         -11.853
REMARK INTER:                  -9.922
REMARK INTRA:                  -1.932
REMARK UNBOUND:                -1.718
REMARK SMILES C[C@@H]1O[C@@H](OC[C@@H]2O[C@H](Oc3c(-c4ccc(O)c(O)c4)oc4cc(O)cc(O)c4c3=O)[C@H](O)[C@H](O)[C@@H]2O)[C@H](O)[C@@H](O)[C@@H]1O
REMARK SMILES IDX 7 1 36 2 34 3 32 4 9 5 8 6 6 7 5 8 4 9 1 10 2 11 42 12 3 13
REMARK SMILES IDX 40 14 38 15 43 16 41 18 39 20 37 22 35 24 10 26 11 27 12 28
REMARK SMILES IDX 30 29 21 30 29 31 31 32 22 33 27 34 23 35 26 36 24 37 13 38
REMARK SMILES IDX 20 39 14 40 18 41 15 42 16 43 19 44 17 46 28 48 25 50 33 52
REMARK H PARENT 43 17 41 19 39 21 37 23 35 25 19 45 17 47 28 49 25 51 33 53
REMARK Flexibility Score: inf
ROOT
ATOM      1  C   UNL     1      -2.082  -3.073  24.836  1.00  0.00     0.180 C 
ATOM      2  C   UNL     1      -3.599  -3.249  25.137  1.00  0.00     0.177 C 
ATOM      3  C   UNL     1      -4.358  -1.896  25.152  1.00  0.00     0.180 C 
ATOM      4  C   UNL     1      -3.681  -0.850  24.241  1.00  0.00     0.214 C 
ATOM      5  C   UNL     1      -2.856  -1.551  23.128  1.00  0.00     0.339 C 
ATOM      6  O   UNL     1      -1.818  -2.385  23.621  1.00  0.00    -0.332 OA
ENDROOT
BRANCH   1   7
ATOM      7  C   UNL     1      -1.251  -2.440  25.973  1.00  0.00     0.198 C 
BRANCH   7   8
ATOM      8  O   UNL     1      -2.056  -2.359  27.149  1.00  0.00    -0.347 OA
BRANCH   8   9
ATOM      9  C   UNL     1      -1.706  -1.345  28.100  1.00  0.00     0.281 C 
ATOM     10  C   UNL     1      -2.316   0.545  30.340  1.00  0.00     0.041 C 
ATOM     11  C   UNL     1      -2.107   0.877  28.847  1.00  0.00     0.150 C 
ATOM     12  C   UNL     1      -0.678   1.385  28.461  1.00  0.00     0.174 C 
ATOM     13  O   UNL     1      -2.532  -0.187  28.009  1.00  0.00    -0.344 OA
ATOM     14  C   UNL     1       0.042   0.397  27.515  1.00  0.00     0.179 C 
ATOM     15  C   UNL     1      -0.187  -1.042  27.986  1.00  0.00     0.202 C 
BRANCH  12  16
ATOM     16  O   UNL     1       0.120   1.610  29.601  1.00  0.00    -0.388 OA
ATOM     17  H   UNL     1       1.066   1.507  29.322  1.00  0.00     0.211 HD
ENDBRANCH  12  16
BRANCH  14  18
ATOM     18  O   UNL     1      -0.443   0.550  26.199  1.00  0.00    -0.387 OA
ATOM     19  H   UNL     1       0.087  -0.055  25.620  1.00  0.00     0.211 HD
ENDBRANCH  14  18
BRANCH  15  20
ATOM     20  O   UNL     1       0.447  -1.228  29.223  1.00  0.00    -0.385 OA
ATOM     21  H   UNL     1      -0.266  -1.355  29.900  1.00  0.00     0.211 HD
ENDBRANCH  15  20
ENDBRANCH   8   9
ENDBRANCH   7   8
ENDBRANCH   1   7
BRANCH   2  22
ATOM     22  O   UNL     1      -3.858  -4.009  26.286  1.00  0.00    -0.387 OA
ATOM     23  H   UNL     1      -3.154  -4.708  26.363  1.00  0.00     0.211 HD
ENDBRANCH   2  22
BRANCH   3  24
ATOM     24  O   UNL     1      -4.480  -1.396  26.455  1.00  0.00    -0.387 OA
ATOM     25  H   UNL     1      -4.215  -0.441  26.430  1.00  0.00     0.211 HD
ENDBRANCH   3  24
BRANCH   5  26
ATOM     26  O   UNL     1      -2.312  -0.601  22.180  1.00  0.00    -0.454 OA
BRANCH  26  27
ATOM     27  C   UNL     1      -2.891  -0.266  20.942  1.00  0.00     0.214 A 
ATOM     28  C   UNL     1      -2.410  -0.812  19.726  1.00  0.00     0.180 A 
ATOM     29  C   UNL     1      -3.944   0.678  20.866  1.00  0.00     0.239 A 
ATOM     30  O   UNL     1      -3.091  -0.575  18.605  1.00  0.00    -0.452 OA
ATOM     31  C   UNL     1      -4.699   0.811  19.687  1.00  0.00     0.111 A 
ATOM     32  O   UNL     1      -4.121   1.472  21.823  1.00  0.00    -0.285 OA
ATOM     33  C   UNL     1      -4.191   0.165  18.539  1.00  0.00     0.146 A 
ATOM     34  C   UNL     1      -5.896   1.575  19.578  1.00  0.00     0.134 A 
ATOM     35  C   UNL     1      -4.806   0.339  17.301  1.00  0.00     0.094 A 
ATOM     36  C   UNL     1      -6.486   1.749  18.317  1.00  0.00     0.093 A 
ATOM     37  C   UNL     1      -5.949   1.133  17.184  1.00  0.00     0.123 A 
BRANCH  28  38
ATOM     38  C   UNL     1      -1.140  -1.605  19.583  1.00  0.00     0.025 A 
ATOM     39  C   UNL     1      -0.174  -1.740  20.602  1.00  0.00     0.062 A 
ATOM     40  C   UNL     1      -0.907  -2.288  18.370  1.00  0.00     0.016 A 
ATOM     41  C   UNL     1       0.982  -2.503  20.422  1.00  0.00     0.158 A 
ATOM     42  C   UNL     1       0.245  -3.063  18.183  1.00  0.00     0.051 A 
ATOM     43  C   UNL     1       1.195  -3.169  19.207  1.00  0.00     0.157 A 
BRANCH  41  44
ATOM     44  O   UNL     1       1.909  -2.589  21.462  1.00  0.00    -0.504 OA
ATOM     45  H   UNL     1       1.974  -3.412  22.053  1.00  0.00     0.293 HD
ENDBRANCH  41  44
BRANCH  43  46
ATOM     46  O   UNL     1       2.333  -3.959  19.028  1.00  0.00    -0.504 OA
ATOM     47  H   UNL     1       2.273  -4.924  18.728  1.00  0.00     0.293 HD
ENDBRANCH  43  46
ENDBRANCH  28  38
BRANCH  34  48
ATOM     48  O   UNL     1      -6.569   2.123  20.676  1.00  0.00    -0.507 OA
ATOM     49  H   UNL     1      -6.107   2.538  21.475  1.00  0.00     0.293 HD
ENDBRANCH  34  48
BRANCH  37  50
ATOM     50  O   UNL     1      -6.567   1.309  15.951  1.00  0.00    -0.508 OA
ATOM     51  H   UNL     1      -6.281   0.753  15.153  1.00  0.00     0.293 HD
ENDBRANCH  37  50
ENDBRANCH  26  27
ENDBRANCH   5  26
BRANCH   4  52
ATOM     52  O   UNL     1      -2.878   0.018  25.003  1.00  0.00    -0.384 OA
ATOM     53  H   UNL     1      -2.944   0.922  24.588  1.00  0.00     0.211 HD
ENDBRANCH   4  52
TORSDOF 16
ENDMDL
MODEL 5
REMARK VINA RESULT:    -6.098      1.737      7.184
REMARK INTER + INTRA:         -11.737
REMARK INTER:                 -10.296
REMARK INTRA:                  -1.442
REMARK UNBOUND:                -1.718
REMARK SMILES C[C@@H]1O[C@@H](OC[C@@H]2O[C@H](Oc3c(-c4ccc(O)c(O)c4)oc4cc(O)cc(O)c4c3=O)[C@H](O)[C@H](O)[C@@H]2O)[C@H](O)[C@@H](O)[C@@H]1O
REMARK SMILES IDX 7 1 36 2 34 3 32 4 9 5 8 6 6 7 5 8 4 9 1 10 2 11 42 12 3 13
REMARK SMILES IDX 40 14 38 15 43 16 41 18 39 20 37 22 35 24 10 26 11 27 12 28
REMARK SMILES IDX 30 29 21 30 29 31 31 32 22 33 27 34 23 35 26 36 24 37 13 38
REMARK SMILES IDX 20 39 14 40 18 41 15 42 16 43 19 44 17 46 28 48 25 50 33 52
REMARK H PARENT 43 17 41 19 39 21 37 23 35 25 19 45 17 47 28 49 25 51 33 53
REMARK Flexibility Score: inf
ROOT
ATOM      1  C   UNL     1      -2.328  -1.414  25.799  1.00  0.00     0.180 C 
ATOM      2  C   UNL     1      -3.857  -1.706  25.813  1.00  0.00     0.177 C 
ATOM      3  C   UNL     1      -4.668  -0.639  25.031  1.00  0.00     0.180 C 
ATOM      4  C   UNL     1      -3.830   0.007  23.908  1.00  0.00     0.214 C 
ATOM      5  C   UNL     1      -2.693  -0.951  23.458  1.00  0.00     0.339 C 
ATOM      6  O   UNL     1      -1.783  -1.289  24.493  1.00  0.00    -0.332 OA
ENDROOT
BRANCH   1   7
ATOM      7  C   UNL     1      -1.876  -0.214  26.660  1.00  0.00     0.198 C 
BRANCH   7   8
ATOM      8  O   UNL     1      -0.450  -0.197  26.720  1.00  0.00    -0.347 OA
BRANCH   8   9
ATOM      9  C   UNL     1       0.196  -1.442  27.019  1.00  0.00     0.281 C 
ATOM     10  C   UNL     1       0.764  -3.809  28.761  1.00  0.00     0.041 C 
ATOM     11  C   UNL     1       1.673  -2.592  28.486  1.00  0.00     0.150 C 
ATOM     12  C   UNL     1       2.774  -2.803  27.395  1.00  0.00     0.174 C 
ATOM     13  O   UNL     1       0.915  -1.415  28.249  1.00  0.00    -0.344 OA
ATOM     14  C   UNL     1       2.543  -1.892  26.167  1.00  0.00     0.179 C 
ATOM     15  C   UNL     1       1.056  -1.875  25.800  1.00  0.00     0.202 C 
BRANCH  12  16
ATOM     16  O   UNL     1       2.841  -4.147  26.976  1.00  0.00    -0.388 OA
ATOM     17  H   UNL     1       2.467  -4.189  26.060  1.00  0.00     0.211 HD
ENDBRANCH  12  16
BRANCH  14  18
ATOM     18  O   UNL     1       2.978  -0.581  26.452  1.00  0.00    -0.387 OA
ATOM     19  H   UNL     1       2.688  -0.371  27.377  1.00  0.00     0.211 HD
ENDBRANCH  14  18
BRANCH  15  20
ATOM     20  O   UNL     1       0.677  -3.150  25.358  1.00  0.00    -0.385 OA
ATOM     21  H   UNL     1       1.498  -3.705  25.326  1.00  0.00     0.211 HD
ENDBRANCH  15  20
ENDBRANCH   8   9
ENDBRANCH   7   8
ENDBRANCH   1   7
BRANCH   2  22
ATOM     22  O   UNL     1      -4.375  -1.923  27.097  1.00  0.00    -0.387 OA
ATOM     23  H   UNL     1      -5.218  -1.402  27.185  1.00  0.00     0.211 HD
ENDBRANCH   2  22
BRANCH   3  24
ATOM     24  O   UNL     1      -5.169   0.348  25.890  1.00  0.00    -0.387 OA
ATOM     25  H   UNL     1      -5.777  -0.101  26.532  1.00  0.00     0.211 HD
ENDBRANCH   3  24
BRANCH   5  26
ATOM     26  O   UNL     1      -1.967  -0.428  22.319  1.00  0.00    -0.454 OA
BRANCH  26  27
ATOM     27  C   UNL     1      -1.447  -1.199  21.263  1.00  0.00     0.214 A 
ATOM     28  C   UNL     1      -2.067  -1.227  19.989  1.00  0.00     0.180 A 
ATOM     29  C   UNL     1      -0.310  -2.022  21.458  1.00  0.00     0.239 A 
ATOM     30  O   UNL     1      -1.447  -1.855  18.990  1.00  0.00    -0.452 OA
ATOM     31  C   UNL     1       0.368  -2.573  20.356  1.00  0.00     0.111 A 
ATOM     32  O   UNL     1       0.015  -2.345  22.627  1.00  0.00    -0.285 OA
ATOM     33  C   UNL     1      -0.283  -2.484  19.107  1.00  0.00     0.146 A 
ATOM     34  C   UNL     1       1.627  -3.235  20.434  1.00  0.00     0.134 A 
ATOM     35  C   UNL     1       0.256  -3.106  17.983  1.00  0.00     0.094 A 
ATOM     36  C   UNL     1       2.141  -3.867  19.291  1.00  0.00     0.093 A 
ATOM     37  C   UNL     1       1.464  -3.802  18.071  1.00  0.00     0.123 A 
BRANCH  28  38
ATOM     38  C   UNL     1      -3.418  -0.646  19.679  1.00  0.00     0.025 A 
ATOM     39  C   UNL     1      -4.616  -1.052  20.304  1.00  0.00     0.062 A 
ATOM     40  C   UNL     1      -3.500   0.394  18.729  1.00  0.00     0.016 A 
ATOM     41  C   UNL     1      -5.844  -0.466  19.990  1.00  0.00     0.158 A 
ATOM     42  C   UNL     1      -4.726   0.995  18.412  1.00  0.00     0.051 A 
ATOM     43  C   UNL     1      -5.902   0.563  19.039  1.00  0.00     0.157 A 
BRANCH  41  44
ATOM     44  O   UNL     1      -6.998  -0.919  20.631  1.00  0.00    -0.504 OA
ATOM     45  H   UNL     1      -7.601  -0.289  21.151  1.00  0.00     0.293 HD
ENDBRANCH  41  44
BRANCH  43  46
ATOM     46  O   UNL     1      -7.122   1.176  18.739  1.00  0.00    -0.504 OA
ATOM     47  H   UNL     1      -7.509   1.166  17.804  1.00  0.00     0.293 HD
ENDBRANCH  43  46
ENDBRANCH  28  38
BRANCH  34  48
ATOM     48  O   UNL     1       2.430  -3.244  21.580  1.00  0.00    -0.507 OA
ATOM     49  H   UNL     1       3.009  -4.025  21.860  1.00  0.00     0.293 HD
ENDBRANCH  34  48
BRANCH  37  50
ATOM     50  O   UNL     1       2.007  -4.423  16.952  1.00  0.00    -0.508 OA
ATOM     51  H   UNL     1       2.268  -5.402  16.988  1.00  0.00     0.293 HD
ENDBRANCH  37  50
ENDBRANCH  26  27
ENDBRANCH   5  26
BRANCH   4  52
ATOM     52  O   UNL     1      -3.316   1.247  24.331  1.00  0.00    -0.384 OA
ATOM     53  H   UNL     1      -2.440   1.375  23.873  1.00  0.00     0.211 HD
ENDBRANCH   4  52
TORSDOF 16
ENDMDL
MODEL 6
REMARK VINA RESULT:    -6.060      2.129      7.561
REMARK INTER + INTRA:         -11.676
REMARK INTER:                  -9.625
REMARK INTRA:                  -2.051
REMARK UNBOUND:                -1.718
REMARK SMILES C[C@@H]1O[C@@H](OC[C@@H]2O[C@H](Oc3c(-c4ccc(O)c(O)c4)oc4cc(O)cc(O)c4c3=O)[C@H](O)[C@H](O)[C@@H]2O)[C@H](O)[C@@H](O)[C@@H]1O
REMARK SMILES IDX 7 1 36 2 34 3 32 4 9 5 8 6 6 7 5 8 4 9 1 10 2 11 42 12 3 13
REMARK SMILES IDX 40 14 38 15 43 16 41 18 39 20 37 22 35 24 10 26 11 27 12 28
REMARK SMILES IDX 30 29 21 30 29 31 31 32 22 33 27 34 23 35 26 36 24 37 13 38
REMARK SMILES IDX 20 39 14 40 18 41 15 42 16 43 19 44 17 46 28 48 25 50 33 52
REMARK H PARENT 43 17 41 19 39 21 37 23 35 25 19 45 17 47 28 49 25 51 33 53
REMARK Flexibility Score: inf
ROOT
ATOM      1  C   UNL     1      -3.525  -0.958  27.811  1.00  0.00     0.180 C 
ATOM      2  C   UNL     1      -4.790  -0.106  28.123  1.00  0.00     0.177 C 
ATOM      3  C   UNL     1      -5.191   0.810  26.936  1.00  0.00     0.180 C 
ATOM      4  C   UNL     1      -4.749   0.217  25.581  1.00  0.00     0.214 C 
ATOM      5  C   UNL     1      -4.606  -1.326  25.683  1.00  0.00     0.339 C 
ATOM      6  O   UNL     1      -3.647  -1.752  26.639  1.00  0.00    -0.332 OA
ENDROOT
BRANCH   1   7
ATOM      7  C   UNL     1      -2.195  -0.175  27.762  1.00  0.00     0.198 C 
BRANCH   7   8
ATOM      8  O   UNL     1      -1.524  -0.320  29.014  1.00  0.00    -0.347 OA
BRANCH   8   9
ATOM      9  C   UNL     1      -0.932  -1.599  29.281  1.00  0.00     0.281 C 
ATOM     10  C   UNL     1      -0.124  -3.846  31.085  1.00  0.00     0.041 C 
ATOM     11  C   UNL     1       0.779  -2.773  30.442  1.00  0.00     0.150 C 
ATOM     12  C   UNL     1       1.523  -3.208  29.137  1.00  0.00     0.174 C 
ATOM     13  O   UNL     1       0.091  -1.543  30.271  1.00  0.00    -0.344 OA
ATOM     14  C   UNL     1       1.049  -2.393  27.911  1.00  0.00     0.179 C 
ATOM     15  C   UNL     1      -0.474  -2.239  27.942  1.00  0.00     0.202 C 
BRANCH  12  16
ATOM     16  O   UNL     1       1.358  -4.584  28.878  1.00  0.00    -0.388 OA
ATOM     17  H   UNL     1       1.154  -5.023  29.742  1.00  0.00     0.211 HD
ENDBRANCH  12  16
BRANCH  14  18
ATOM     18  O   UNL     1       1.657  -1.121  27.916  1.00  0.00    -0.387 OA
ATOM     19  H   UNL     1       2.082  -0.996  27.029  1.00  0.00     0.211 HD
ENDBRANCH  14  18
BRANCH  15  20
ATOM     20  O   UNL     1      -1.068  -3.496  27.768  1.00  0.00    -0.385 OA
ATOM     21  H   UNL     1      -2.037  -3.390  27.950  1.00  0.00     0.211 HD
ENDBRANCH  15  20
ENDBRANCH   8   9
ENDBRANCH   7   8
ENDBRANCH   1   7
BRANCH   2  22
ATOM     22  O   UNL     1      -4.705   0.603  29.328  1.00  0.00    -0.387 OA
ATOM     23  H   UNL     1      -4.417   1.533  29.123  1.00  0.00     0.211 HD
ENDBRANCH   2  22
BRANCH   3  24
ATOM     24  O   UNL     1      -4.669   2.101  27.092  1.00  0.00    -0.387 OA
ATOM     25  H   UNL     1      -3.808   2.014  27.575  1.00  0.00     0.211 HD
ENDBRANCH   3  24
BRANCH   5  26
ATOM     26  O   UNL     1      -4.318  -1.927  24.398  1.00  0.00    -0.454 OA
BRANCH  26  27
ATOM     27  C   UNL     1      -3.058  -1.944  23.772  1.00  0.00     0.214 A 
ATOM     28  C   UNL     1      -2.770  -1.114  22.661  1.00  0.00     0.180 A 
ATOM     29  C   UNL     1      -2.047  -2.840  24.202  1.00  0.00     0.239 A 
ATOM     30  O   UNL     1      -1.517  -1.066  22.207  1.00  0.00    -0.452 OA
ATOM     31  C   UNL     1      -0.719  -2.676  23.771  1.00  0.00     0.111 A 
ATOM     32  O   UNL     1      -2.373  -3.847  24.879  1.00  0.00    -0.285 OA
ATOM     33  C   UNL     1      -0.509  -1.765  22.713  1.00  0.00     0.146 A 
ATOM     34  C   UNL     1       0.394  -3.388  24.302  1.00  0.00     0.134 A 
ATOM     35  C   UNL     1       0.754  -1.627  22.141  1.00  0.00     0.094 A 
ATOM     36  C   UNL     1       1.652  -3.244  23.697  1.00  0.00     0.093 A 
ATOM     37  C   UNL     1       1.835  -2.366  22.626  1.00  0.00     0.123 A 
BRANCH  28  38
ATOM     38  C   UNL     1      -3.789  -0.312  21.901  1.00  0.00     0.025 A 
ATOM     39  C   UNL     1      -4.935  -0.864  21.292  1.00  0.00     0.062 A 
ATOM     40  C   UNL     1      -3.616   1.087  21.816  1.00  0.00     0.016 A 
ATOM     41  C   UNL     1      -5.860  -0.069  20.611  1.00  0.00     0.158 A 
ATOM     42  C   UNL     1      -4.543   1.894  21.144  1.00  0.00     0.051 A 
ATOM     43  C   UNL     1      -5.665   1.318  20.535  1.00  0.00     0.157 A 
BRANCH  41  44
ATOM     44  O   UNL     1      -6.968  -0.673  20.015  1.00  0.00    -0.504 OA
ATOM     45  H   UNL     1      -6.974  -0.925  19.031  1.00  0.00     0.293 HD
ENDBRANCH  41  44
BRANCH  43  46
ATOM     46  O   UNL     1      -6.600   2.125  19.882  1.00  0.00    -0.504 OA
ATOM     47  H   UNL     1      -6.409   2.541  18.979  1.00  0.00     0.293 HD
ENDBRANCH  43  46
ENDBRANCH  28  38
BRANCH  34  48
ATOM     48  O   UNL     1       0.327  -4.191  25.446  1.00  0.00    -0.507 OA
ATOM     49  H   UNL     1       0.879  -5.028  25.584  1.00  0.00     0.293 HD
ENDBRANCH  34  48
BRANCH  37  50
ATOM     50  O   UNL     1       3.097  -2.231  22.060  1.00  0.00    -0.508 OA
ATOM     51  H   UNL     1       3.851  -1.803  22.586  1.00  0.00     0.293 HD
ENDBRANCH  37  50
ENDBRANCH  26  27
ENDBRANCH   5  26
BRANCH   4  52
ATOM     52  O   UNL     1      -3.551   0.815  25.151  1.00  0.00    -0.384 OA
ATOM     53  H   UNL     1      -3.797   1.614  24.609  1.00  0.00     0.211 HD
ENDBRANCH   4  52
TORSDOF 16
ENDMDL
MODEL 7
REMARK VINA RESULT:    -5.839      1.805      5.466
REMARK INTER + INTRA:         -11.312
REMARK INTER:                  -9.559
REMARK INTRA:                  -1.753
REMARK UNBOUND:                -1.718
REMARK SMILES C[C@@H]1O[C@@H](OC[C@@H]2O[C@H](Oc3c(-c4ccc(O)c(O)c4)oc4cc(O)cc(O)c4c3=O)[C@H](O)[C@H](O)[C@@H]2O)[C@H](O)[C@@H](O)[C@@H]1O
REMARK SMILES IDX 7 1 36 2 34 3 32 4 9 5 8 6 6 7 5 8 4 9 1 10 2 11 42 12 3 13
REMARK SMILES IDX 40 14 38 15 43 16 41 18 39 20 37 22 35 24 10 26 11 27 12 28
REMARK SMILES IDX 30 29 21 30 29 31 31 32 22 33 27 34 23 35 26 36 24 37 13 38
REMARK SMILES IDX 20 39 14 40 18 41 15 42 16 43 19 44 17 46 28 48 25 50 33 52
REMARK H PARENT 43 17 41 19 39 21 37 23 35 25 19 45 17 47 28 49 25 51 33 53
REMARK Flexibility Score: inf
ROOT
ATOM      1  C   UNL     1      -3.655   1.013  24.951  1.00  0.00     0.180 C 
ATOM      2  C   UNL     1      -4.722  -0.054  25.333  1.00  0.00     0.177 C 
ATOM      3  C   UNL     1      -4.375  -1.460  24.776  1.00  0.00     0.180 C 
ATOM      4  C   UNL     1      -2.853  -1.649  24.609  1.00  0.00     0.214 C 
ATOM      5  C   UNL     1      -2.078  -0.707  25.571  1.00  0.00     0.339 C 
ATOM      6  O   UNL     1      -2.337   0.672  25.355  1.00  0.00    -0.332 OA
ENDROOT
BRANCH   1   7
ATOM      7  C   UNL     1      -3.642   1.433  23.464  1.00  0.00     0.198 C 
BRANCH   7   8
ATOM      8  O   UNL     1      -4.959   1.297  22.931  1.00  0.00    -0.347 OA
BRANCH   8   9
ATOM      9  C   UNL     1      -5.084   1.359  21.504  1.00  0.00     0.281 C 
ATOM     10  C   UNL     1      -6.541   2.021  18.974  1.00  0.00     0.041 C 
ATOM     11  C   UNL     1      -6.309   0.630  19.600  1.00  0.00     0.150 C 
ATOM     12  C   UNL     1      -5.116  -0.189  19.006  1.00  0.00     0.174 C 
ATOM     13  O   UNL     1      -6.248   0.697  21.017  1.00  0.00    -0.344 OA
ATOM     14  C   UNL     1      -4.004  -0.419  20.054  1.00  0.00     0.179 C 
ATOM     15  C   UNL     1      -3.763   0.864  20.854  1.00  0.00     0.202 C 
BRANCH  12  16
ATOM     16  O   UNL     1      -4.568   0.440  17.870  1.00  0.00    -0.388 OA
ATOM     17  H   UNL     1      -3.601   0.223  17.852  1.00  0.00     0.211 HD
ENDBRANCH  12  16
BRANCH  14  18
ATOM     18  O   UNL     1      -4.375  -1.462  20.928  1.00  0.00    -0.387 OA
ATOM     19  H   UNL     1      -5.241  -1.821  20.604  1.00  0.00     0.211 HD
ENDBRANCH  14  18
BRANCH  15  20
ATOM     20  O   UNL     1      -3.235   1.844  20.003  1.00  0.00    -0.385 OA
ATOM     21  H   UNL     1      -3.961   2.118  19.385  1.00  0.00     0.211 HD
ENDBRANCH  15  20
ENDBRANCH   8   9
ENDBRANCH   7   8
ENDBRANCH   1   7
BRANCH   2  22
ATOM     22  O   UNL     1      -6.034   0.327  25.018  1.00  0.00    -0.387 OA
ATOM     23  H   UNL     1      -6.020   1.276  24.720  1.00  0.00     0.211 HD
ENDBRANCH   2  22
BRANCH   3  24
ATOM     24  O   UNL     1      -5.029  -1.700  23.560  1.00  0.00    -0.387 OA
ATOM     25  H   UNL     1      -4.369  -2.117  22.949  1.00  0.00     0.211 HD
ENDBRANCH   3  24
BRANCH   5  26
ATOM     26  O   UNL     1      -0.652  -0.950  25.532  1.00  0.00    -0.454 OA
BRANCH  26  27
ATOM     27  C   UNL     1       0.050  -1.813  26.394  1.00  0.00     0.214 A 
ATOM     28  C   UNL     1       1.053  -2.690  25.911  1.00  0.00     0.180 A 
ATOM     29  C   UNL     1      -0.266  -1.873  27.774  1.00  0.00     0.239 A 
ATOM     30  O   UNL     1       1.783  -3.372  26.793  1.00  0.00    -0.452 OA
ATOM     31  C   UNL     1       0.599  -2.519  28.675  1.00  0.00     0.111 A 
ATOM     32  O   UNL     1      -1.380  -1.444  28.164  1.00  0.00    -0.285 OA
ATOM     33  C   UNL     1       1.624  -3.306  28.109  1.00  0.00     0.146 A 
ATOM     34  C   UNL     1       0.478  -2.456  30.093  1.00  0.00     0.134 A 
ATOM     35  C   UNL     1       2.453  -4.077  28.922  1.00  0.00     0.094 A 
ATOM     36  C   UNL     1       1.315  -3.254  30.889  1.00  0.00     0.093 A 
ATOM     37  C   UNL     1       2.300  -4.058  30.310  1.00  0.00     0.123 A 
BRANCH  28  38
ATOM     38  C   UNL     1       1.329  -2.962  24.459  1.00  0.00     0.025 A 
ATOM     39  C   UNL     1       1.535  -4.250  23.922  1.00  0.00     0.062 A 
ATOM     40  C   UNL     1       1.351  -1.872  23.563  1.00  0.00     0.016 A 
ATOM     41  C   UNL     1       1.771  -4.449  22.560  1.00  0.00     0.158 A 
ATOM     42  C   UNL     1       1.578  -2.061  22.193  1.00  0.00     0.051 A 
ATOM     43  C   UNL     1       1.794  -3.349  21.688  1.00  0.00     0.157 A 
BRANCH  41  44
ATOM     44  O   UNL     1       1.982  -5.745  22.087  1.00  0.00    -0.504 OA
ATOM     45  H   UNL     1       2.232  -6.506  22.711  1.00  0.00     0.293 HD
ENDBRANCH  41  44
BRANCH  43  46
ATOM     46  O   UNL     1       2.000  -3.541  20.320  1.00  0.00    -0.504 OA
ATOM     47  H   UNL     1       1.802  -2.815  19.642  1.00  0.00     0.293 HD
ENDBRANCH  43  46
ENDBRANCH  28  38
BRANCH  34  48
ATOM     48  O   UNL     1      -0.395  -1.589  30.760  1.00  0.00    -0.507 OA
ATOM     49  H   UNL     1      -0.185  -1.143  31.644  1.00  0.00     0.293 HD
ENDBRANCH  34  48
BRANCH  37  50
ATOM     50  O   UNL     1       3.125  -4.824  31.125  1.00  0.00    -0.508 OA
ATOM     51  H   UNL     1       3.821  -5.436  30.716  1.00  0.00     0.293 HD
ENDBRANCH  37  50
ENDBRANCH  26  27
ENDBRANCH   5  26
BRANCH   4  52
ATOM     52  O   UNL     1      -2.475  -1.437  23.271  1.00  0.00    -0.384 OA
ATOM     53  H   UNL     1      -1.645  -0.885  23.282  1.00  0.00     0.211 HD
ENDBRANCH   4  52
TORSDOF 16
ENDMDL
MODEL 8
REMARK VINA RESULT:    -5.622      2.855      6.488
REMARK INTER + INTRA:         -10.955
REMARK INTER:                  -8.411
REMARK INTRA:                  -2.544
REMARK UNBOUND:                -1.718
REMARK SMILES C[C@@H]1O[C@@H](OC[C@@H]2O[C@H](Oc3c(-c4ccc(O)c(O)c4)oc4cc(O)cc(O)c4c3=O)[C@H](O)[C@H](O)[C@@H]2O)[C@H](O)[C@@H](O)[C@@H]1O
REMARK SMILES IDX 7 1 36 2 34 3 32 4 9 5 8 6 6 7 5 8 4 9 1 10 2 11 42 12 3 13
REMARK SMILES IDX 40 14 38 15 43 16 41 18 39 20 37 22 35 24 10 26 11 27 12 28
REMARK SMILES IDX 30 29 21 30 29 31 31 32 22 33 27 34 23 35 26 36 24 37 13 38
REMARK SMILES IDX 20 39 14 40 18 41 15 42 16 43 19 44 17 46 28 48 25 50 33 52
REMARK H PARENT 43 17 41 19 39 21 37 23 35 25 19 45 17 47 28 49 25 51 33 53
REMARK Flexibility Score: inf
ROOT
ATOM      1  C   UNL     1      -1.280   1.678  27.223  1.00  0.00     0.180 C 
ATOM      2  C   UNL     1      -0.043   0.994  27.875  1.00  0.00     0.177 C 
ATOM      3  C   UNL     1      -0.360  -0.437  28.383  1.00  0.00     0.180 C 
ATOM      4  C   UNL     1      -1.496  -1.094  27.570  1.00  0.00     0.214 C 
ATOM      5  C   UNL     1      -1.585  -0.465  26.153  1.00  0.00     0.339 C 
ATOM      6  O   UNL     1      -1.851   0.930  26.159  1.00  0.00    -0.332 OA
ENDROOT
BRANCH   1   7
ATOM      7  C   UNL     1      -2.395   2.104  28.205  1.00  0.00     0.198 C 
BRANCH   7   8
ATOM      8  O   UNL     1      -3.663   1.925  27.574  1.00  0.00    -0.347 OA
BRANCH   8   9
ATOM      9  C   UNL     1      -4.800   1.802  28.439  1.00  0.00     0.281 C 
ATOM     10  C   UNL     1      -6.210   2.109  31.062  1.00  0.00     0.041 C 
ATOM     11  C   UNL     1      -5.670   0.814  30.419  1.00  0.00     0.150 C 
ATOM     12  C   UNL     1      -6.726  -0.054  29.657  1.00  0.00     0.174 C 
ATOM     13  O   UNL     1      -4.520   1.062  29.625  1.00  0.00    -0.344 OA
ATOM     14  C   UNL     1      -6.418  -0.128  28.144  1.00  0.00     0.179 C 
ATOM     15  C   UNL     1      -6.003   1.251  27.625  1.00  0.00     0.202 C 
BRANCH  12  16
ATOM     16  O   UNL     1      -8.035   0.434  29.846  1.00  0.00    -0.388 OA
ATOM     17  H   UNL     1      -8.164   0.558  30.821  1.00  0.00     0.211 HD
ENDBRANCH  12  16
BRANCH  14  18
ATOM     18  O   UNL     1      -5.383  -1.057  27.909  1.00  0.00    -0.387 OA
ATOM     19  H   UNL     1      -4.763  -0.644  27.255  1.00  0.00     0.211 HD
ENDBRANCH  14  18
BRANCH  15  20
ATOM     20  O   UNL     1      -7.096   2.124  27.710  1.00  0.00    -0.385 OA
ATOM     21  H   UNL     1      -7.645   1.831  28.483  1.00  0.00     0.211 HD
ENDBRANCH  15  20
ENDBRANCH   8   9
ENDBRANCH   7   8
ENDBRANCH   1   7
BRANCH   2  22
ATOM     22  O   UNL     1       0.576   1.776  28.860  1.00  0.00    -0.387 OA
ATOM     23  H   UNL     1       1.245   1.210  29.332  1.00  0.00     0.211 HD
ENDBRANCH   2  22
BRANCH   3  24
ATOM     24  O   UNL     1      -0.680  -0.433  29.746  1.00  0.00    -0.387 OA
ATOM     25  H   UNL     1      -1.539  -0.918  29.848  1.00  0.00     0.211 HD
ENDBRANCH   3  24
BRANCH   5  26
ATOM     26  O   UNL     1      -2.556  -1.145  25.321  1.00  0.00    -0.454 OA
BRANCH  26  27
ATOM     27  C   UNL     1      -2.791  -0.876  23.960  1.00  0.00     0.214 A 
ATOM     28  C   UNL     1      -1.924  -1.357  22.948  1.00  0.00     0.180 A 
ATOM     29  C   UNL     1      -3.880  -0.062  23.560  1.00  0.00     0.239 A 
ATOM     30  O   UNL     1      -2.280  -1.197  21.673  1.00  0.00    -0.452 OA
ATOM     31  C   UNL     1      -4.276  -0.015  22.212  1.00  0.00     0.111 A 
ATOM     32  O   UNL     1      -4.412   0.702  24.403  1.00  0.00    -0.285 OA
ATOM     33  C   UNL     1      -3.392  -0.592  21.275  1.00  0.00     0.146 A 
ATOM     34  C   UNL     1      -5.472   0.603  21.745  1.00  0.00     0.134 A 
ATOM     35  C   UNL     1      -3.644  -0.487  19.908  1.00  0.00     0.094 A 
ATOM     36  C   UNL     1      -5.694   0.710  20.363  1.00  0.00     0.093 A 
ATOM     37  C   UNL     1      -4.789   0.167  19.448  1.00  0.00     0.123 A 
BRANCH  28  38
ATOM     38  C   UNL     1      -0.585  -1.993  23.195  1.00  0.00     0.025 A 
ATOM     39  C   UNL     1       0.646  -1.416  22.818  1.00  0.00     0.062 A 
ATOM     40  C   UNL     1      -0.543  -3.228  23.877  1.00  0.00     0.016 A 
ATOM     41  C   UNL     1       1.864  -2.044  23.087  1.00  0.00     0.158 A 
ATOM     42  C   UNL     1       0.674  -3.862  24.160  1.00  0.00     0.051 A 
ATOM     43  C   UNL     1       1.881  -3.273  23.762  1.00  0.00     0.157 A 
BRANCH  41  44
ATOM     44  O   UNL     1       3.050  -1.432  22.677  1.00  0.00    -0.504 OA
ATOM     45  H   UNL     1       3.206  -0.435  22.797  1.00  0.00     0.293 HD
ENDBRANCH  41  44
BRANCH  43  46
ATOM     46  O   UNL     1       3.096  -3.894  24.062  1.00  0.00    -0.504 OA
ATOM     47  H   UNL     1       3.466  -4.647  23.495  1.00  0.00     0.293 HD
ENDBRANCH  43  46
ENDBRANCH  28  38
BRANCH  34  48
ATOM     48  O   UNL     1      -6.489   1.063  22.589  1.00  0.00    -0.507 OA
ATOM     49  H   UNL     1      -6.440   1.039  23.600  1.00  0.00     0.293 HD
ENDBRANCH  34  48
BRANCH  37  50
ATOM     50  O   UNL     1      -5.045   0.274  18.086  1.00  0.00    -0.508 OA
ATOM     51  H   UNL     1      -4.340   0.650  17.462  1.00  0.00     0.293 HD
ENDBRANCH  37  50
ENDBRANCH  26  27
ENDBRANCH   5  26
BRANCH   4  52
ATOM     52  O   UNL     1      -2.718  -0.983  28.257  1.00  0.00    -0.384 OA
ATOM     53  H   UNL     1      -3.404  -1.468  27.720  1.00  0.00     0.211 HD
ENDBRANCH   4  52
TORSDOF 16
ENDMDL
MODEL 9
REMARK VINA RESULT:    -5.518      2.910      8.886
REMARK INTER + INTRA:         -10.784
REMARK INTER:                  -8.744
REMARK INTRA:                  -2.040
REMARK UNBOUND:                -1.718
REMARK SMILES C[C@@H]1O[C@@H](OC[C@@H]2O[C@H](Oc3c(-c4ccc(O)c(O)c4)oc4cc(O)cc(O)c4c3=O)[C@H](O)[C@H](O)[C@@H]2O)[C@H](O)[C@@H](O)[C@@H]1O
REMARK SMILES IDX 7 1 36 2 34 3 32 4 9 5 8 6 6 7 5 8 4 9 1 10 2 11 42 12 3 13
REMARK SMILES IDX 40 14 38 15 43 16 41 18 39 20 37 22 35 24 10 26 11 27 12 28
REMARK SMILES IDX 30 29 21 30 29 31 31 32 22 33 27 34 23 35 26 36 24 37 13 38
REMARK SMILES IDX 20 39 14 40 18 41 15 42 16 43 19 44 17 46 28 48 25 50 33 52
REMARK H PARENT 43 17 41 19 39 21 37 23 35 25 19 45 17 47 28 49 25 51 33 53
REMARK Flexibility Score: inf
ROOT
ATOM      1  C   UNL     1      -0.543  -2.962  26.564  1.00  0.00     0.180 C 
ATOM      2  C   UNL     1      -0.401  -3.250  28.087  1.00  0.00     0.177 C 
ATOM      3  C   UNL     1      -0.117  -1.963  28.907  1.00  0.00     0.180 C 
ATOM      4  C   UNL     1      -0.700  -0.709  28.222  1.00  0.00     0.214 C 
ATOM      5  C   UNL     1      -1.887  -1.095  27.298  1.00  0.00     0.339 C 
ATOM      6  O   UNL     1      -1.536  -1.993  26.257  1.00  0.00    -0.332 OA
ENDROOT
BRANCH   1   7
ATOM      7  C   UNL     1       0.769  -2.599  25.834  1.00  0.00     0.198 C 
BRANCH   7   8
ATOM      8  O   UNL     1       0.556  -1.426  25.050  1.00  0.00    -0.347 OA
BRANCH   8   9
ATOM      9  C   UNL     1       0.864  -1.521  23.653  1.00  0.00     0.281 C 
ATOM     10  C   UNL     1       0.510  -0.764  20.779  1.00  0.00     0.041 C 
ATOM     11  C   UNL     1       0.042  -2.054  21.486  1.00  0.00     0.150 C 
ATOM     12  C   UNL     1       0.975  -3.297  21.314  1.00  0.00     0.174 C 
ATOM     13  O   UNL     1      -0.275  -1.817  22.850  1.00  0.00    -0.344 OA
ATOM     14  C   UNL     1       1.591  -3.740  22.661  1.00  0.00     0.179 C 
ATOM     15  C   UNL     1       2.044  -2.513  23.458  1.00  0.00     0.202 C 
BRANCH  12  16
ATOM     16  O   UNL     1       2.006  -3.049  20.385  1.00  0.00    -0.388 OA
ATOM     17  H   UNL     1       1.579  -2.739  19.547  1.00  0.00     0.211 HD
ENDBRANCH  12  16
BRANCH  14  18
ATOM     18  O   UNL     1       0.642  -4.469  23.407  1.00  0.00    -0.387 OA
ATOM     19  H   UNL     1       1.111  -4.832  24.202  1.00  0.00     0.211 HD
ENDBRANCH  14  18
BRANCH  15  20
ATOM     20  O   UNL     1       3.104  -1.892  22.784  1.00  0.00    -0.385 OA
ATOM     21  H   UNL     1       3.937  -2.132  23.265  1.00  0.00     0.211 HD
ENDBRANCH  15  20
ENDBRANCH   8   9
ENDBRANCH   7   8
ENDBRANCH   1   7
BRANCH   2  22
ATOM     22  O   UNL     1       0.510  -4.273  28.382  1.00  0.00    -0.387 OA
ATOM     23  H   UNL     1       0.297  -5.056  27.805  1.00  0.00     0.211 HD
ENDBRANCH   2  22
BRANCH   3  24
ATOM     24  O   UNL     1       1.256  -1.798  29.131  1.00  0.00    -0.387 OA
ATOM     25  H   UNL     1       1.710  -1.872  28.253  1.00  0.00     0.211 HD
ENDBRANCH   3  24
BRANCH   5  26
ATOM     26  O   UNL     1      -2.538   0.072  26.741  1.00  0.00    -0.454 OA
BRANCH  26  27
ATOM     27  C   UNL     1      -3.838   0.508  27.059  1.00  0.00     0.214 A 
ATOM     28  C   UNL     1      -4.907   0.388  26.138  1.00  0.00     0.180 A 
ATOM     29  C   UNL     1      -4.108   1.137  28.300  1.00  0.00     0.239 A 
ATOM     30  O   UNL     1      -6.141   0.680  26.549  1.00  0.00    -0.452 OA
ATOM     31  C   UNL     1      -5.433   1.324  28.731  1.00  0.00     0.111 A 
ATOM     32  O   UNL     1      -3.154   1.626  28.956  1.00  0.00    -0.285 OA
ATOM     33  C   UNL     1      -6.444   1.102  27.771  1.00  0.00     0.146 A 
ATOM     34  C   UNL     1      -5.803   1.752  30.038  1.00  0.00     0.134 A 
ATOM     35  C   UNL     1      -7.776   1.377  28.071  1.00  0.00     0.094 A 
ATOM     36  C   UNL     1      -7.150   2.039  30.310  1.00  0.00     0.093 A 
ATOM     37  C   UNL     1      -8.133   1.849  29.337  1.00  0.00     0.123 A 
BRANCH  28  38
ATOM     38  C   UNL     1      -4.756   0.007  24.691  1.00  0.00     0.025 A 
ATOM     39  C   UNL     1      -4.529   0.931  23.650  1.00  0.00     0.062 A 
ATOM     40  C   UNL     1      -4.808  -1.361  24.348  1.00  0.00     0.016 A 
ATOM     41  C   UNL     1      -4.379   0.521  22.324  1.00  0.00     0.158 A 
ATOM     42  C   UNL     1      -4.649  -1.784  23.021  1.00  0.00     0.051 A 
ATOM     43  C   UNL     1      -4.439  -0.844  22.005  1.00  0.00     0.157 A 
BRANCH  41  44
ATOM     44  O   UNL     1      -4.171   1.482  21.333  1.00  0.00    -0.504 OA
ATOM     45  H   UNL     1      -3.473   1.357  20.606  1.00  0.00     0.293 HD
ENDBRANCH  41  44
BRANCH  43  46
ATOM     46  O   UNL     1      -4.261  -1.266  20.685  1.00  0.00    -0.504 OA
ATOM     47  H   UNL     1      -5.012  -1.686  20.152  1.00  0.00     0.293 HD
ENDBRANCH  43  46
ENDBRANCH  28  38
BRANCH  34  48
ATOM     48  O   UNL     1      -4.904   1.849  31.106  1.00  0.00    -0.507 OA
ATOM     49  H   UNL     1      -5.069   2.402  31.938  1.00  0.00     0.293 HD
ENDBRANCH  34  48
BRANCH  37  50
ATOM     50  O   UNL     1      -9.461   2.125  29.642  1.00  0.00    -0.508 OA
ATOM     51  H   UNL     1      -9.693   2.685  30.454  1.00  0.00     0.293 HD
ENDBRANCH  37  50
ENDBRANCH  26  27
ENDBRANCH   5  26
BRANCH   4  52
ATOM     52  O   UNL     1       0.303  -0.028  27.509  1.00  0.00    -0.384 OA
ATOM     53  H   UNL     1      -0.151   0.637  26.922  1.00  0.00     0.211 HD
ENDBRANCH   4  52
TORSDOF 16
ENDMDL
