MODEL 1
REMARK VINA RESULT:    -3.133      0.000      0.000
REMARK INTER + INTRA:          -4.184
REMARK INTER:                  -4.049
REMARK INTRA:                  -0.134
REMARK UNBOUND:                -0.134
REMARK SMILES CCCCCCC(=O)[O-]
REMARK SMILES IDX 5 1 6 2 7 3 8 4 9 5 4 6 3 7 2 8 1 9
REMARK H PARENT
REMARK Flexibility Score: inf
ROOT
ATOM      1  C   UNL     1      24.087   6.845  29.122  1.00  0.00     0.006 C 
ENDROOT
BRANCH   1   2
ATOM      2  C   UNL     1      25.373   7.630  29.412  1.00  0.00     0.053 C 
BRANCH   2   3
ATOM      3  C   UNL     1      25.392   8.905  28.630  1.00  0.00     0.041 C 
ATOM      4  O   UNL     1      25.551   8.880  27.380  1.00  0.00    -0.550 OA
ATOM      5  O   UNL     1      25.285  10.125  29.284  1.00  0.00    -0.550 OA
ENDBRANCH   2   3
ENDBRANCH   1   2
BRANCH   1   6
ATOM      6  C   UNL     1      23.263   6.572  30.391  1.00  0.00     0.000 C 
BRANCH   6   7
ATOM      7  C   UNL     1      22.412   5.295  30.279  1.00  0.00    -0.000 C 
BRANCH   7   8
ATOM      8  C   UNL     1      21.857   4.837  31.636  1.00  0.00    -0.003 C 
ATOM      9  C   UNL     1      22.697   5.332  32.814  1.00  0.00     0.004 C 
ENDBRANCH   7   8
ENDBRANCH   6   7
ENDBRANCH   1   6
TORSDOF 5
ENDMDL
MODEL 2
REMARK VINA RESULT:    -3.113      0.693      1.397
REMARK INTER + INTRA:          -4.158
REMARK INTER:                  -3.952
REMARK INTRA:                  -0.206
REMARK UNBOUND:                -0.134
REMARK SMILES CCCCCCC(=O)[O-]
REMARK SMILES IDX 5 1 6 2 7 3 8 4 9 5 4 6 3 7 2 8 1 9
REMARK H PARENT
REMARK Flexibility Score: inf
ROOT
ATOM      1  C   UNL     1      24.179   7.194  29.752  1.00  0.00     0.006 C 
ENDROOT
BRANCH   1   2
ATOM      2  C   UNL     1      25.554   7.689  29.287  1.00  0.00     0.053 C 
BRANCH   2   3
ATOM      3  C   UNL     1      25.415   8.957  28.505  1.00  0.00     0.041 C 
ATOM      4  O   UNL     1      25.266  10.056  29.103  1.00  0.00    -0.550 OA
ATOM      5  O   UNL     1      25.399   8.920  27.118  1.00  0.00    -0.550 OA
ENDBRANCH   2   3
ENDBRANCH   1   2
BRANCH   1   6
ATOM      6  C   UNL     1      23.598   6.110  28.829  1.00  0.00     0.000 C 
BRANCH   6   7
ATOM      7  C   UNL     1      22.475   5.302  29.502  1.00  0.00    -0.000 C 
BRANCH   7   8
ATOM      8  C   UNL     1      22.014   5.927  30.828  1.00  0.00    -0.003 C 
ATOM      9  C   UNL     1      22.115   4.956  32.004  1.00  0.00     0.004 C 
ENDBRANCH   7   8
ENDBRANCH   6   7
ENDBRANCH   1   6
TORSDOF 5
ENDMDL
MODEL 3
REMARK VINA RESULT:    -3.084      1.156      1.404
REMARK INTER + INTRA:          -4.120
REMARK INTER:                  -3.926
REMARK INTRA:                  -0.194
REMARK UNBOUND:                -0.134
REMARK SMILES CCCCCCC(=O)[O-]
REMARK SMILES IDX 5 1 6 2 7 3 8 4 9 5 4 6 3 7 2 8 1 9
REMARK H PARENT
REMARK Flexibility Score: inf
ROOT
ATOM      1  C   UNL     1      24.174   7.706  30.362  1.00  0.00     0.006 C 
ENDROOT
BRANCH   1   2
ATOM      2  C   UNL     1      25.209   7.568  29.237  1.00  0.00     0.053 C 
BRANCH   2   3
ATOM      3  C   UNL     1      25.349   8.861  28.497  1.00  0.00     0.041 C 
ATOM      4  O   UNL     1      25.483   8.863  27.244  1.00  0.00    -0.550 OA
ATOM      5  O   UNL     1      25.383  10.062  29.194  1.00  0.00    -0.550 OA
ENDBRANCH   2   3
ENDBRANCH   1   2
BRANCH   1   6
ATOM      6  C   UNL     1      23.208   6.511  30.425  1.00  0.00     0.000 C 
BRANCH   6   7
ATOM      7  C   UNL     1      23.164   5.718  29.108  1.00  0.00    -0.000 C 
BRANCH   7   8
ATOM      8  C   UNL     1      22.263   4.476  29.199  1.00  0.00    -0.003 C 
ATOM      9  C   UNL     1      21.735   4.234  30.613  1.00  0.00     0.004 C 
ENDBRANCH   7   8
ENDBRANCH   6   7
ENDBRANCH   1   6
TORSDOF 5
ENDMDL
MODEL 4
REMARK VINA RESULT:    -2.995      3.256      5.030
REMARK INTER + INTRA:          -4.005
REMARK INTER:                  -3.770
REMARK INTRA:                  -0.234
REMARK UNBOUND:                -0.134
REMARK SMILES CCCCCCC(=O)[O-]
REMARK SMILES IDX 5 1 6 2 7 3 8 4 9 5 4 6 3 7 2 8 1 9
REMARK H PARENT
REMARK Flexibility Score: inf
ROOT
ATOM      1  C   UNL     1      23.086   6.298  30.211  1.00  0.00     0.006 C 
ENDROOT
BRANCH   1   2
ATOM      2  C   UNL     1      22.969   7.404  31.267  1.00  0.00     0.053 C 
BRANCH   2   3
ATOM      3  C   UNL     1      21.888   7.076  32.248  1.00  0.00     0.041 C 
ATOM      4  O   UNL     1      21.809   7.704  33.337  1.00  0.00    -0.550 OA
ATOM      5  O   UNL     1      20.997   6.045  31.982  1.00  0.00    -0.550 OA
ENDBRANCH   2   3
ENDBRANCH   1   2
BRANCH   1   6
ATOM      6  C   UNL     1      24.041   6.673  29.066  1.00  0.00     0.000 C 
BRANCH   6   7
ATOM      7  C   UNL     1      25.192   7.582  29.531  1.00  0.00    -0.000 C 
BRANCH   7   8
ATOM      8  C   UNL     1      25.387   8.801  28.615  1.00  0.00    -0.003 C 
ATOM      9  C   UNL     1      25.086  10.123  29.321  1.00  0.00     0.004 C 
ENDBRANCH   7   8
ENDBRANCH   6   7
ENDBRANCH   1   6
TORSDOF 5
ENDMDL
MODEL 5
REMARK VINA RESULT:    -2.989      3.059      5.245
REMARK INTER + INTRA:          -3.997
REMARK INTER:                  -3.766
REMARK INTRA:                  -0.231
REMARK UNBOUND:                -0.134
REMARK SMILES CCCCCCC(=O)[O-]
REMARK SMILES IDX 5 1 6 2 7 3 8 4 9 5 4 6 3 7 2 8 1 9
REMARK H PARENT
REMARK Flexibility Score: inf
ROOT
ATOM      1  C   UNL     1      24.373   7.289  29.774  1.00  0.00     0.006 C 
ENDROOT
BRANCH   1   2
ATOM      2  C   UNL     1      23.687   6.270  28.854  1.00  0.00     0.053 C 
BRANCH   2   3
ATOM      3  C   UNL     1      22.586   5.568  29.584  1.00  0.00     0.041 C 
ATOM      4  O   UNL     1      22.659   5.398  30.830  1.00  0.00    -0.550 OA
ATOM      5  O   UNL     1      21.502   5.056  28.883  1.00  0.00    -0.550 OA
ENDBRANCH   2   3
ENDBRANCH   1   2
BRANCH   1   6
ATOM      6  C   UNL     1      25.416   8.142  29.035  1.00  0.00     0.000 C 
BRANCH   6   7
ATOM      7  C   UNL     1      25.041   9.634  29.001  1.00  0.00    -0.000 C 
BRANCH   7   8
ATOM      8  C   UNL     1      24.501  10.074  27.631  1.00  0.00    -0.003 C 
ATOM      9  C   UNL     1      25.184   9.351  26.469  1.00  0.00     0.004 C 
ENDBRANCH   7   8
ENDBRANCH   6   7
ENDBRANCH   1   6
TORSDOF 5
ENDMDL
MODEL 6
REMARK VINA RESULT:    -2.883     13.798     15.107
REMARK INTER + INTRA:          -3.860
REMARK INTER:                  -3.596
REMARK INTRA:                  -0.263
REMARK UNBOUND:                -0.134
REMARK SMILES CCCCCCC(=O)[O-]
REMARK SMILES IDX 5 1 6 2 7 3 8 4 9 5 4 6 3 7 2 8 1 9
REMARK H PARENT
REMARK Flexibility Score: inf
ROOT
ATOM      1  C   UNL     1       8.634   8.119  31.347  1.00  0.00     0.006 C 
ENDROOT
BRANCH   1   2
ATOM      2  C   UNL     1       7.988   6.760  31.047  1.00  0.00     0.053 C 
BRANCH   2   3
ATOM      3  C   UNL     1       8.044   6.469  29.581  1.00  0.00     0.041 C 
ATOM      4  O   UNL     1       8.220   5.289  29.175  1.00  0.00    -0.550 OA
ATOM      5  O   UNL     1       7.953   7.505  28.661  1.00  0.00    -0.550 OA
ENDBRANCH   2   3
ENDBRANCH   1   2
BRANCH   1   6
ATOM      6  C   UNL     1      10.156   8.019  31.540  1.00  0.00     0.000 C 
BRANCH   6   7
ATOM      7  C   UNL     1      10.577   8.185  33.011  1.00  0.00    -0.000 C 
BRANCH   7   8
ATOM      8  C   UNL     1      11.217   6.912  33.587  1.00  0.00    -0.003 C 
ATOM      9  C   UNL     1      11.835   6.023  32.508  1.00  0.00     0.004 C 
ENDBRANCH   7   8
ENDBRANCH   6   7
ENDBRANCH   1   6
TORSDOF 5
ENDMDL
MODEL 7
REMARK VINA RESULT:    -2.819      7.764      9.235
REMARK INTER + INTRA:          -3.777
REMARK INTER:                  -3.663
REMARK INTRA:                  -0.114
REMARK UNBOUND:                -0.134
REMARK SMILES CCCCCCC(=O)[O-]
REMARK SMILES IDX 5 1 6 2 7 3 8 4 9 5 4 6 3 7 2 8 1 9
REMARK H PARENT
REMARK Flexibility Score: inf
ROOT
ATOM      1  C   UNL     1      20.053   9.882  37.247  1.00  0.00     0.006 C 
ENDROOT
BRANCH   1   2
ATOM      2  C   UNL     1      20.441   8.953  36.089  1.00  0.00     0.053 C 
BRANCH   2   3
ATOM      3  C   UNL     1      21.914   9.022  35.837  1.00  0.00     0.041 C 
ATOM      4  O   UNL     1      22.363   8.893  34.666  1.00  0.00    -0.550 OA
ATOM      5  O   UNL     1      22.795   9.179  36.898  1.00  0.00    -0.550 OA
ENDBRANCH   2   3
ENDBRANCH   1   2
BRANCH   1   6
ATOM      6  C   UNL     1      19.181   9.180  38.300  1.00  0.00     0.000 C 
BRANCH   6   7
ATOM      7  C   UNL     1      18.142  10.124  38.931  1.00  0.00    -0.000 C 
BRANCH   7   8
ATOM      8  C   UNL     1      16.701   9.750  38.552  1.00  0.00    -0.003 C 
ATOM      9  C   UNL     1      15.840   9.414  39.770  1.00  0.00     0.004 C 
ENDBRANCH   7   8
ENDBRANCH   6   7
ENDBRANCH   1   6
TORSDOF 5
ENDMDL
MODEL 8
REMARK VINA RESULT:    -2.804     12.985     14.368
REMARK INTER + INTRA:          -3.759
REMARK INTER:                  -3.459
REMARK INTRA:                  -0.300
REMARK UNBOUND:                -0.134
REMARK SMILES CCCCCCC(=O)[O-]
REMARK SMILES IDX 5 1 6 2 7 3 8 4 9 5 4 6 3 7 2 8 1 9
REMARK H PARENT
REMARK Flexibility Score: inf
ROOT
ATOM      1  C   UNL     1      10.571   8.301  31.972  1.00  0.00     0.006 C 
ENDROOT
BRANCH   1   2
ATOM      2  C   UNL     1      11.243   7.818  33.264  1.00  0.00     0.053 C 
BRANCH   2   3
ATOM      3  C   UNL     1      11.832   6.457  33.068  1.00  0.00     0.041 C 
ATOM      4  O   UNL     1      12.497   5.915  33.991  1.00  0.00    -0.550 OA
ATOM      5  O   UNL     1      11.691   5.806  31.850  1.00  0.00    -0.550 OA
ENDBRANCH   2   3
ENDBRANCH   1   2
BRANCH   1   6
ATOM      6  C   UNL     1       9.037   8.292  32.066  1.00  0.00     0.000 C 
BRANCH   6   7
ATOM      7  C   UNL     1       8.374   7.654  30.832  1.00  0.00    -0.000 C 
BRANCH   7   8
ATOM      8  C   UNL     1       8.231   6.130  30.965  1.00  0.00    -0.003 C 
ATOM      9  C   UNL     1       8.580   5.390  29.673  1.00  0.00     0.004 C 
ENDBRANCH   7   8
ENDBRANCH   6   7
ENDBRANCH   1   6
TORSDOF 5
ENDMDL
MODEL 9
REMARK VINA RESULT:    -2.762     14.154     15.442
REMARK INTER + INTRA:          -3.704
REMARK INTER:                  -3.318
REMARK INTRA:                  -0.386
REMARK UNBOUND:                -0.134
REMARK SMILES CCCCCCC(=O)[O-]
REMARK SMILES IDX 5 1 6 2 7 3 8 4 9 5 4 6 3 7 2 8 1 9
REMARK H PARENT
REMARK Flexibility Score: inf
ROOT
ATOM      1  C   UNL     1       7.877   6.450  31.115  1.00  0.00     0.006 C 
ENDROOT
BRANCH   1   2
ATOM      2  C   UNL     1       8.760   5.304  30.603  1.00  0.00     0.053 C 
BRANCH   2   3
ATOM      3  C   UNL     1       9.004   4.307  31.692  1.00  0.00     0.041 C 
ATOM      4  O   UNL     1       9.178   3.091  31.411  1.00  0.00    -0.550 OA
ATOM      5  O   UNL     1       8.990   4.710  33.021  1.00  0.00    -0.550 OA
ENDBRANCH   2   3
ENDBRANCH   1   2
BRANCH   1   6
ATOM      6  C   UNL     1       8.479   7.834  30.824  1.00  0.00     0.000 C 
BRANCH   6   7
ATOM      7  C   UNL     1       9.952   7.940  31.255  1.00  0.00    -0.000 C 
BRANCH   7   8
ATOM      8  C   UNL     1      10.106   8.248  32.753  1.00  0.00    -0.003 C 
ATOM      9  C   UNL     1      11.244   7.461  33.403  1.00  0.00     0.004 C 
ENDBRANCH   7   8
ENDBRANCH   6   7
ENDBRANCH   1   6
TORSDOF 5
ENDMDL
