MODEL 1
REMARK VINA RESULT:    -2.304      0.000      0.000
REMARK INTER + INTRA:          -2.581
REMARK INTER:                  -2.573
REMARK INTRA:                  -0.007
REMARK UNBOUND:                -0.007
REMARK SMILES CCCC(=O)[O-]
REMARK SMILES IDX 3 1 4 2 5 3 6 4 2 5 1 6
REMARK H PARENT
REMARK Flexibility Score: inf
ROOT
ATOM      1  C   UNL     1      68.339  54.964   9.790  1.00  0.00     0.052 C 
ENDROOT
BRANCH   1   2
ATOM      2  C   UNL     1      66.987  55.061  10.427  1.00  0.00     0.041 C 
ATOM      3  O   UNL     1      66.452  54.042  10.939  1.00  0.00    -0.550 OA
ATOM      4  O   UNL     1      66.303  56.270  10.425  1.00  0.00    -0.550 OA
ENDBRANCH   1   2
BRANCH   1   5
ATOM      5  C   UNL     1      69.462  55.229  10.800  1.00  0.00     0.003 C 
ATOM      6  C   UNL     1      70.756  54.501  10.435  1.00  0.00     0.004 C 
ENDBRANCH   1   5
TORSDOF 2
ENDMDL
MODEL 2
REMARK VINA RESULT:    -2.226      4.577      5.892
REMARK INTER + INTRA:          -2.494
REMARK INTER:                  -2.457
REMARK INTRA:                  -0.036
REMARK UNBOUND:                -0.007
REMARK SMILES CCCC(=O)[O-]
REMARK SMILES IDX 3 1 4 2 5 3 6 4 2 5 1 6
REMARK H PARENT
REMARK Flexibility Score: inf
ROOT
ATOM      1  C   UNL     1      63.677  57.617  10.848  1.00  0.00     0.052 C 
ENDROOT
BRANCH   1   2
ATOM      2  C   UNL     1      65.038  57.938  10.310  1.00  0.00     0.041 C 
ATOM      3  O   UNL     1      65.983  58.209  11.096  1.00  0.00    -0.550 OA
ATOM      4  O   UNL     1      65.252  57.968   8.938  1.00  0.00    -0.550 OA
ENDBRANCH   1   2
BRANCH   1   5
ATOM      5  C   UNL     1      62.567  58.066   9.890  1.00  0.00     0.003 C 
ATOM      6  C   UNL     1      61.875  56.887   9.207  1.00  0.00     0.004 C 
ENDBRANCH   1   5
TORSDOF 2
ENDMDL
MODEL 3
REMARK VINA RESULT:    -2.182      2.531      3.336
REMARK INTER + INTRA:          -2.444
REMARK INTER:                  -2.413
REMARK INTRA:                  -0.031
REMARK UNBOUND:                -0.007
REMARK SMILES CCCC(=O)[O-]
REMARK SMILES IDX 3 1 4 2 5 3 6 4 2 5 1 6
REMARK H PARENT
REMARK Flexibility Score: inf
ROOT
ATOM      1  C   UNL     1      68.691  54.982   9.813  1.00  0.00     0.052 C 
ENDROOT
BRANCH   1   2
ATOM      2  C   UNL     1      70.020  54.946  10.504  1.00  0.00     0.041 C 
ATOM      3  O   UNL     1      70.427  53.883  11.042  1.00  0.00    -0.550 OA
ATOM      4  O   UNL     1      70.792  56.098  10.584  1.00  0.00    -0.550 OA
ENDBRANCH   1   2
BRANCH   1   5
ATOM      5  C   UNL     1      67.560  55.364  10.775  1.00  0.00     0.003 C 
ATOM      6  C   UNL     1      66.598  54.204  11.031  1.00  0.00     0.004 C 
ENDBRANCH   1   5
TORSDOF 2
ENDMDL
MODEL 4
REMARK VINA RESULT:    -2.159      2.728      3.599
REMARK INTER + INTRA:          -2.419
REMARK INTER:                  -2.395
REMARK INTRA:                  -0.025
REMARK UNBOUND:                -0.007
REMARK SMILES CCCC(=O)[O-]
REMARK SMILES IDX 3 1 4 2 5 3 6 4 2 5 1 6
REMARK H PARENT
REMARK Flexibility Score: inf
ROOT
ATOM      1  C   UNL     1      65.915  57.324  10.855  1.00  0.00     0.052 C 
ENDROOT
BRANCH   1   2
ATOM      2  C   UNL     1      65.048  57.634   9.674  1.00  0.00     0.041 C 
ATOM      3  O   UNL     1      65.513  57.552   8.507  1.00  0.00    -0.550 OA
ATOM      4  O   UNL     1      63.735  58.046   9.865  1.00  0.00    -0.550 OA
ENDBRANCH   1   2
BRANCH   1   5
ATOM      5  C   UNL     1      66.030  55.814  11.094  1.00  0.00     0.003 C 
ATOM      6  C   UNL     1      67.248  55.205  10.399  1.00  0.00     0.004 C 
ENDBRANCH   1   5
TORSDOF 2
ENDMDL
MODEL 5
REMARK VINA RESULT:    -2.035      4.041      5.063
REMARK INTER + INTRA:          -2.281
REMARK INTER:                  -2.244
REMARK INTRA:                  -0.036
REMARK UNBOUND:                -0.007
REMARK SMILES CCCC(=O)[O-]
REMARK SMILES IDX 3 1 4 2 5 3 6 4 2 5 1 6
REMARK H PARENT
REMARK Flexibility Score: inf
ROOT
ATOM      1  C   UNL     1      64.278  57.990   9.596  1.00  0.00     0.052 C 
ENDROOT
BRANCH   1   2
ATOM      2  C   UNL     1      62.863  57.935  10.084  1.00  0.00     0.041 C 
ATOM      3  O   UNL     1      62.558  57.205  11.064  1.00  0.00    -0.550 OA
ATOM      4  O   UNL     1      61.876  58.665   9.435  1.00  0.00    -0.550 OA
ENDBRANCH   1   2
BRANCH   1   5
ATOM      5  C   UNL     1      65.281  57.896  10.752  1.00  0.00     0.003 C 
ATOM      6  C   UNL     1      66.039  56.569  10.759  1.00  0.00     0.004 C 
ENDBRANCH   1   5
TORSDOF 2
ENDMDL
MODEL 6
REMARK VINA RESULT:    -1.965     23.640     24.068
REMARK INTER + INTRA:          -2.203
REMARK INTER:                  -2.172
REMARK INTRA:                  -0.031
REMARK UNBOUND:                -0.007
REMARK SMILES CCCC(=O)[O-]
REMARK SMILES IDX 3 1 4 2 5 3 6 4 2 5 1 6
REMARK H PARENT
REMARK Flexibility Score: inf
ROOT
ATOM      1  C   UNL     1      80.490  63.646  -8.233  1.00  0.00     0.052 C 
ENDROOT
BRANCH   1   2
ATOM      2  C   UNL     1      81.569  63.553  -7.198  1.00  0.00     0.041 C 
ATOM      3  O   UNL     1      81.996  64.594  -6.633  1.00  0.00    -0.550 OA
ATOM      4  O   UNL     1      82.125  62.320  -6.883  1.00  0.00    -0.550 OA
ENDBRANCH   1   2
BRANCH   1   5
ATOM      5  C   UNL     1      79.923  65.067  -8.336  1.00  0.00     0.003 C 
ATOM      6  C   UNL     1      78.433  65.125  -7.997  1.00  0.00     0.004 C 
ENDBRANCH   1   5
TORSDOF 2
ENDMDL
MODEL 7
REMARK VINA RESULT:    -1.863      2.256      3.803
REMARK INTER + INTRA:          -2.088
REMARK INTER:                  -2.081
REMARK INTRA:                  -0.007
REMARK UNBOUND:                -0.007
REMARK SMILES CCCC(=O)[O-]
REMARK SMILES IDX 3 1 4 2 5 3 6 4 2 5 1 6
REMARK H PARENT
REMARK Flexibility Score: inf
ROOT
ATOM      1  C   UNL     1      66.169  56.540  11.064  1.00  0.00     0.052 C 
ENDROOT
BRANCH   1   2
ATOM      2  C   UNL     1      66.927  55.279  10.787  1.00  0.00     0.041 C 
ATOM      3  O   UNL     1      66.350  54.162  10.860  1.00  0.00    -0.550 OA
ATOM      4  O   UNL     1      68.281  55.336  10.480  1.00  0.00    -0.550 OA
ENDBRANCH   1   2
BRANCH   1   5
ATOM      5  C   UNL     1      65.620  57.168   9.777  1.00  0.00     0.003 C 
ATOM      6  C   UNL     1      64.316  57.930  10.011  1.00  0.00     0.004 C 
ENDBRANCH   1   5
TORSDOF 2
ENDMDL
MODEL 8
REMARK VINA RESULT:    -1.304     23.475     24.157
REMARK INTER + INTRA:          -1.464
REMARK INTER:                  -1.406
REMARK INTRA:                  -0.057
REMARK UNBOUND:                -0.007
REMARK SMILES CCCC(=O)[O-]
REMARK SMILES IDX 3 1 4 2 5 3 6 4 2 5 1 6
REMARK H PARENT
REMARK Flexibility Score: inf
ROOT
ATOM      1  C   UNL     1      81.421  64.912  -6.692  1.00  0.00     0.052 C 
ENDROOT
BRANCH   1   2
ATOM      2  C   UNL     1      80.687  65.045  -7.991  1.00  0.00     0.041 C 
ATOM      3  O   UNL     1      81.324  65.122  -9.075  1.00  0.00    -0.550 OA
ATOM      4  O   UNL     1      79.300  65.116  -8.001  1.00  0.00    -0.550 OA
ENDBRANCH   1   2
BRANCH   1   5
ATOM      5  C   UNL     1      82.125  63.555  -6.574  1.00  0.00     0.003 C 
ATOM      6  C   UNL     1      81.185  62.385  -6.863  1.00  0.00     0.004 C 
ENDBRANCH   1   5
TORSDOF 2
ENDMDL
MODEL 9
REMARK VINA RESULT:    -0.340     23.369     24.031
REMARK INTER + INTRA:          -0.387
REMARK INTER:                  -0.366
REMARK INTRA:                  -0.021
REMARK UNBOUND:                -0.007
REMARK SMILES CCCC(=O)[O-]
REMARK SMILES IDX 3 1 4 2 5 3 6 4 2 5 1 6
REMARK H PARENT
REMARK Flexibility Score: inf
ROOT
ATOM      1  C   UNL     1      82.125  63.330  -7.899  1.00  0.00     0.052 C 
ENDROOT
BRANCH   1   2
ATOM      2  C   UNL     1      81.255  63.252  -6.682  1.00  0.00     0.041 C 
ATOM      3  O   UNL     1      80.602  62.204  -6.434  1.00  0.00    -0.550 OA
ATOM      4  O   UNL     1      81.141  64.351  -5.839  1.00  0.00    -0.550 OA
ENDBRANCH   1   2
BRANCH   1   5
ATOM      5  C   UNL     1      81.978  64.677  -8.617  1.00  0.00     0.003 C 
ATOM      6  C   UNL     1      80.556  64.914  -9.125  1.00  0.00     0.004 C 
ENDBRANCH   1   5
TORSDOF 2
ENDMDL
