MODEL 1
REMARK VINA RESULT:    -3.980      0.000      0.000
REMARK INTER + INTRA:          -5.078
REMARK INTER:                  -5.027
REMARK INTRA:                  -0.051
REMARK UNBOUND:                -0.051
REMARK SMILES CCCCCCO
REMARK SMILES IDX 4 1 3 2 2 3 1 4 5 5 6 6 7 7
REMARK H PARENT 7 8
REMARK Flexibility Score: inf
ROOT
ATOM      1  C   UNL     1     -20.284  -2.760 -13.113  1.00  0.00     0.002 C 
ENDROOT
BRANCH   1   2
ATOM      2  C   UNL     1     -18.832  -2.849 -12.622  1.00  0.00    -0.000 C 
BRANCH   2   3
ATOM      3  C   UNL     1     -18.274  -4.280 -12.680  1.00  0.00    -0.003 C 
ATOM      4  C   UNL     1     -18.398  -4.907 -14.068  1.00  0.00     0.004 C 
ENDBRANCH   2   3
ENDBRANCH   1   2
BRANCH   1   5
ATOM      5  C   UNL     1     -21.009  -1.572 -12.471  1.00  0.00     0.028 C 
BRANCH   5   6
ATOM      6  C   UNL     1     -22.266  -1.198 -13.262  1.00  0.00     0.156 C 
BRANCH   6   7
ATOM      7  O   UNL     1     -22.448   0.192 -13.252  1.00  0.00    -0.396 OA
ATOM      8  H   UNL     1     -22.404   0.477 -12.302  1.00  0.00     0.210 HD
ENDBRANCH   6   7
ENDBRANCH   5   6
ENDBRANCH   1   5
TORSDOF 5
ENDMDL
MODEL 2
REMARK VINA RESULT:    -3.960      2.937      4.691
REMARK INTER + INTRA:          -5.053
REMARK INTER:                  -5.009
REMARK INTRA:                  -0.044
REMARK UNBOUND:                -0.051
REMARK SMILES CCCCCCO
REMARK SMILES IDX 4 1 3 2 2 3 1 4 5 5 6 6 7 7
REMARK H PARENT 7 8
REMARK Flexibility Score: inf
ROOT
ATOM      1  C   UNL     1     -19.138  -2.859 -12.852  1.00  0.00     0.002 C 
ENDROOT
BRANCH   1   2
ATOM      2  C   UNL     1     -20.399  -2.288 -12.186  1.00  0.00    -0.000 C 
BRANCH   2   3
ATOM      3  C   UNL     1     -21.448  -1.824 -13.209  1.00  0.00    -0.003 C 
ATOM      4  C   UNL     1     -22.138  -0.523 -12.799  1.00  0.00     0.004 C 
ENDBRANCH   2   3
ENDBRANCH   1   2
BRANCH   1   5
ATOM      5  C   UNL     1     -19.399  -4.266 -13.404  1.00  0.00     0.028 C 
BRANCH   5   6
ATOM      6  C   UNL     1     -18.086  -4.976 -13.746  1.00  0.00     0.156 C 
BRANCH   6   7
ATOM      7  O   UNL     1     -18.246  -5.760 -14.896  1.00  0.00    -0.396 OA
ATOM      8  H   UNL     1     -18.734  -5.201 -15.556  1.00  0.00     0.210 HD
ENDBRANCH   6   7
ENDBRANCH   5   6
ENDBRANCH   1   5
TORSDOF 5
ENDMDL
MODEL 3
REMARK VINA RESULT:    -3.917      2.509      4.113
REMARK INTER + INTRA:          -4.999
REMARK INTER:                  -4.845
REMARK INTRA:                  -0.154
REMARK UNBOUND:                -0.051
REMARK SMILES CCCCCCO
REMARK SMILES IDX 4 1 3 2 2 3 1 4 5 5 6 6 7 7
REMARK H PARENT 7 8
REMARK Flexibility Score: inf
ROOT
ATOM      1  C   UNL     1     -18.473  -3.834 -12.742  1.00  0.00     0.002 C 
ENDROOT
BRANCH   1   2
ATOM      2  C   UNL     1     -19.818  -3.348 -13.300  1.00  0.00    -0.000 C 
BRANCH   2   3
ATOM      3  C   UNL     1     -20.370  -2.132 -12.538  1.00  0.00    -0.003 C 
ATOM      4  C   UNL     1     -21.610  -1.533 -13.199  1.00  0.00     0.004 C 
ENDBRANCH   2   3
ENDBRANCH   1   2
BRANCH   1   5
ATOM      5  C   UNL     1     -18.243  -3.302 -11.322  1.00  0.00     0.028 C 
BRANCH   5   6
ATOM      6  C   UNL     1     -16.906  -2.563 -11.218  1.00  0.00     0.156 C 
BRANCH   6   7
ATOM      7  O   UNL     1     -17.001  -1.304 -11.826  1.00  0.00    -0.396 OA
ATOM      8  H   UNL     1     -16.265  -0.752 -11.451  1.00  0.00     0.210 HD
ENDBRANCH   6   7
ENDBRANCH   5   6
ENDBRANCH   1   5
TORSDOF 5
ENDMDL
MODEL 4
REMARK VINA RESULT:    -3.689      1.802      1.893
REMARK INTER + INTRA:          -4.711
REMARK INTER:                  -4.651
REMARK INTRA:                  -0.060
REMARK UNBOUND:                -0.051
REMARK SMILES CCCCCCO
REMARK SMILES IDX 4 1 3 2 2 3 1 4 5 5 6 6 7 7
REMARK H PARENT 7 8
REMARK Flexibility Score: inf
ROOT
ATOM      1  C   UNL     1     -21.156  -2.266 -13.045  1.00  0.00     0.002 C 
ENDROOT
BRANCH   1   2
ATOM      2  C   UNL     1     -19.713  -2.644 -12.680  1.00  0.00    -0.000 C 
BRANCH   2   3
ATOM      3  C   UNL     1     -19.102  -3.657 -13.661  1.00  0.00    -0.003 C 
ATOM      4  C   UNL     1     -18.069  -4.570 -13.000  1.00  0.00     0.004 C 
ENDBRANCH   2   3
ENDBRANCH   1   2
BRANCH   1   5
ATOM      5  C   UNL     1     -21.613  -1.027 -12.264  1.00  0.00     0.028 C 
BRANCH   5   6
ATOM      6  C   UNL     1     -22.545  -1.412 -11.112  1.00  0.00     0.156 C 
BRANCH   6   7
ATOM      7  O   UNL     1     -21.823  -1.505  -9.915  1.00  0.00    -0.396 OA
ATOM      8  H   UNL     1     -21.782  -2.469  -9.682  1.00  0.00     0.210 HD
ENDBRANCH   6   7
ENDBRANCH   5   6
ENDBRANCH   1   5
TORSDOF 5
ENDMDL
MODEL 5
REMARK VINA RESULT:    -3.688      2.528      4.492
REMARK INTER + INTRA:          -4.709
REMARK INTER:                  -4.661
REMARK INTRA:                  -0.048
REMARK UNBOUND:                -0.051
REMARK SMILES CCCCCCO
REMARK SMILES IDX 4 1 3 2 2 3 1 4 5 5 6 6 7 7
REMARK H PARENT 7 8
REMARK Flexibility Score: inf
ROOT
ATOM      1  C   UNL     1     -20.245  -3.084 -13.277  1.00  0.00     0.002 C 
ENDROOT
BRANCH   1   2
ATOM      2  C   UNL     1     -20.648  -1.806 -12.528  1.00  0.00    -0.000 C 
BRANCH   2   3
ATOM      3  C   UNL     1     -21.897  -1.139 -13.126  1.00  0.00    -0.003 C 
ATOM      4  C   UNL     1     -23.199  -1.739 -12.594  1.00  0.00     0.004 C 
ENDBRANCH   2   3
ENDBRANCH   1   2
BRANCH   1   5
ATOM      5  C   UNL     1     -18.958  -3.680 -12.692  1.00  0.00     0.028 C 
BRANCH   5   6
ATOM      6  C   UNL     1     -18.378  -4.755 -13.615  1.00  0.00     0.156 C 
BRANCH   6   7
ATOM      7  O   UNL     1     -17.969  -4.183 -14.827  1.00  0.00    -0.396 OA
ATOM      8  H   UNL     1     -17.027  -4.465 -14.970  1.00  0.00     0.210 HD
ENDBRANCH   6   7
ENDBRANCH   5   6
ENDBRANCH   1   5
TORSDOF 5
ENDMDL
MODEL 6
REMARK VINA RESULT:    -3.515      2.837      3.692
REMARK INTER + INTRA:          -4.491
REMARK INTER:                  -4.566
REMARK INTRA:                   0.076
REMARK UNBOUND:                -0.051
REMARK SMILES CCCCCCO
REMARK SMILES IDX 4 1 3 2 2 3 1 4 5 5 6 6 7 7
REMARK H PARENT 7 8
REMARK Flexibility Score: inf
ROOT
ATOM      1  C   UNL     1     -18.973  -3.631 -11.581  1.00  0.00     0.002 C 
ENDROOT
BRANCH   1   2
ATOM      2  C   UNL     1     -19.640  -3.519 -12.960  1.00  0.00    -0.000 C 
BRANCH   2   3
ATOM      3  C   UNL     1     -18.650  -3.738 -14.115  1.00  0.00    -0.003 C 
ATOM      4  C   UNL     1     -18.390  -5.218 -14.398  1.00  0.00     0.004 C 
ENDBRANCH   2   3
ENDBRANCH   1   2
BRANCH   1   5
ATOM      5  C   UNL     1     -17.445  -3.615 -11.709  1.00  0.00     0.028 C 
BRANCH   5   6
ATOM      6  C   UNL     1     -16.848  -2.372 -11.044  1.00  0.00     0.156 C 
BRANCH   6   7
ATOM      7  O   UNL     1     -17.011  -1.254 -11.873  1.00  0.00    -0.396 OA
ATOM      8  H   UNL     1     -17.817  -1.427 -12.427  1.00  0.00     0.210 HD
ENDBRANCH   6   7
ENDBRANCH   5   6
ENDBRANCH   1   5
TORSDOF 5
ENDMDL
MODEL 7
REMARK VINA RESULT:    -3.479      2.662      4.377
REMARK INTER + INTRA:          -4.445
REMARK INTER:                  -4.364
REMARK INTRA:                  -0.081
REMARK UNBOUND:                -0.051
REMARK SMILES CCCCCCO
REMARK SMILES IDX 4 1 3 2 2 3 1 4 5 5 6 6 7 7
REMARK H PARENT 7 8
REMARK Flexibility Score: inf
ROOT
ATOM      1  C   UNL     1     -19.640  -3.580 -13.329  1.00  0.00     0.002 C 
ENDROOT
BRANCH   1   2
ATOM      2  C   UNL     1     -20.160  -2.304 -12.649  1.00  0.00    -0.000 C 
BRANCH   2   3
ATOM      3  C   UNL     1     -21.663  -2.081 -12.881  1.00  0.00    -0.003 C 
ATOM      4  C   UNL     1     -22.013  -0.612 -13.116  1.00  0.00     0.004 C 
ENDBRANCH   2   3
ENDBRANCH   1   2
BRANCH   1   5
ATOM      5  C   UNL     1     -18.473  -4.185 -12.540  1.00  0.00     0.028 C 
BRANCH   5   6
ATOM      6  C   UNL     1     -18.026  -3.253 -11.411  1.00  0.00     0.156 C 
BRANCH   6   7
ATOM      7  O   UNL     1     -16.761  -2.721 -11.694  1.00  0.00    -0.396 OA
ATOM      8  H   UNL     1     -16.162  -3.005 -10.956  1.00  0.00     0.210 HD
ENDBRANCH   6   7
ENDBRANCH   5   6
ENDBRANCH   1   5
TORSDOF 5
ENDMDL
MODEL 8
REMARK VINA RESULT:    -3.475      1.593      2.112
REMARK INTER + INTRA:          -4.440
REMARK INTER:                  -4.391
REMARK INTRA:                  -0.048
REMARK UNBOUND:                -0.051
REMARK SMILES CCCCCCO
REMARK SMILES IDX 4 1 3 2 2 3 1 4 5 5 6 6 7 7
REMARK H PARENT 7 8
REMARK Flexibility Score: inf
ROOT
ATOM      1  C   UNL     1     -21.791  -1.852 -12.059  1.00  0.00     0.002 C 
ENDROOT
BRANCH   1   2
ATOM      2  C   UNL     1     -20.951  -2.471 -13.186  1.00  0.00    -0.000 C 
BRANCH   2   3
ATOM      3  C   UNL     1     -19.578  -2.960 -12.700  1.00  0.00    -0.003 C 
ATOM      4  C   UNL     1     -19.177  -4.301 -13.313  1.00  0.00     0.004 C 
ENDBRANCH   2   3
ENDBRANCH   1   2
BRANCH   1   5
ATOM      5  C   UNL     1     -22.596  -0.651 -12.570  1.00  0.00     0.028 C 
BRANCH   5   6
ATOM      6  C   UNL     1     -24.038  -0.694 -12.059  1.00  0.00     0.156 C 
BRANCH   6   7
ATOM      7  O   UNL     1     -24.799  -1.581 -12.832  1.00  0.00    -0.396 OA
ATOM      8  H   UNL     1     -25.504  -1.039 -13.275  1.00  0.00     0.210 HD
ENDBRANCH   6   7
ENDBRANCH   5   6
ENDBRANCH   1   5
TORSDOF 5
ENDMDL
MODEL 9
REMARK VINA RESULT:    -3.120      2.537      3.450
REMARK INTER + INTRA:          -3.992
REMARK INTER:                  -3.840
REMARK INTRA:                  -0.152
REMARK UNBOUND:                -0.051
REMARK SMILES CCCCCCO
REMARK SMILES IDX 4 1 3 2 2 3 1 4 5 5 6 6 7 7
REMARK H PARENT 7 8
REMARK Flexibility Score: inf
ROOT
ATOM      1  C   UNL     1     -23.109  -1.340 -12.468  1.00  0.00     0.002 C 
ENDROOT
BRANCH   1   2
ATOM      2  C   UNL     1     -21.704  -1.301 -13.085  1.00  0.00    -0.000 C 
BRANCH   2   3
ATOM      3  C   UNL     1     -20.963  -2.641 -12.954  1.00  0.00    -0.003 C 
ATOM      4  C   UNL     1     -19.488  -2.467 -12.591  1.00  0.00     0.004 C 
ENDBRANCH   2   3
ENDBRANCH   1   2
BRANCH   1   5
ATOM      5  C   UNL     1     -23.035  -1.372 -10.936  1.00  0.00     0.028 C 
BRANCH   5   6
ATOM      6  C   UNL     1     -24.070  -2.338 -10.353  1.00  0.00     0.156 C 
BRANCH   6   7
ATOM      7  O   UNL     1     -23.720  -3.662 -10.653  1.00  0.00    -0.396 OA
ATOM      8  H   UNL     1     -23.024  -3.618 -11.360  1.00  0.00     0.210 HD
ENDBRANCH   6   7
ENDBRANCH   5   6
ENDBRANCH   1   5
TORSDOF 5
ENDMDL
