MODEL 1
REMARK VINA RESULT:    -4.457      0.000      0.000
REMARK INTER + INTRA:          -6.863
REMARK INTER:                  -6.802
REMARK INTRA:                  -0.061
REMARK UNBOUND:                -0.061
REMARK SMILES CC1=CCC[C@H](C)C(=O)C[C@@H](C(C)C)C(=O)C1
REMARK SMILES IDX 8 1 9 2 6 3 7 4 5 5 4 6 3 7 2 8 1 9 10 11 11 12 15 13 16 14
REMARK SMILES IDX 17 15 12 17 13 18 14 19
REMARK H PARENT
REMARK Flexibility Score: 70.00
ROOT
ATOM      1  C   UNL     1      20.211  28.440 -11.792  1.00  0.00     0.136 C 
ATOM      2  O   UNL     1      19.707  27.719 -10.941  1.00  0.00    -0.299 OA
ENDROOT
BRANCH   1   3
ATOM      3  C   UNL     1      21.634  28.929 -11.602  1.00  0.00     0.053 C 
ATOM      4  C   UNL     1      22.535  27.780 -11.131  1.00  0.00     0.016 C 
BRANCH   3   5
ATOM      5  C   UNL     1      22.172  29.550 -12.913  1.00  0.00     0.015 C 
BRANCH   5   6
ATOM      6  C   UNL     1      23.027  28.543 -13.707  1.00  0.00     0.028 C 
BRANCH   6   7
ATOM      7  C   UNL     1      23.049  28.815 -15.192  1.00  0.00    -0.028 C 
ATOM      8  C   UNL     1      22.143  28.359 -16.093  1.00  0.00    -0.070 CG0
ATOM      9  C   UNL     1      22.279  28.829 -17.519  1.00  0.00     0.039 C 
ATOM     10  G   UNL     1      21.037  27.367 -15.754  1.00  0.00     0.000 G0
ENDBRANCH   6   7
ENDBRANCH   5   6
ENDBRANCH   3   5
ENDBRANCH   1   3
BRANCH   1  11
ATOM     11  C   UNL     1      19.385  28.839 -12.995  1.00  0.00     0.087 C 
BRANCH  11  12
ATOM     12  C   UNL     1      19.148  27.644 -13.958  1.00  0.00     0.066 C 
BRANCH  12  13
ATOM     13  C   UNL     1      19.730  27.974 -15.324  1.00  0.00     0.140 C 
ATOM     14  O   UNL     1      19.121  28.713 -16.087  1.00  0.00    -0.299 OA
BRANCH  13  15
ATOM     15  C   UNL     1      21.033  27.351 -15.761  1.00  0.00     0.106 CG0
ATOM     16  G   UNL     1      22.124  28.362 -16.094  1.00  0.00     0.000 G0
ENDBRANCH  13  15
ENDBRANCH  12  13
BRANCH  12  17
ATOM     17  C   UNL     1      17.642  27.233 -14.069  1.00  0.00    -0.006 C 
ATOM     18  C   UNL     1      17.047  26.796 -12.716  1.00  0.00     0.008 C 
ATOM     19  C   UNL     1      17.456  26.084 -15.080  1.00  0.00     0.008 C 
ENDBRANCH  12  17
ENDBRANCH  11  12
ENDBRANCH   1  11
TORSDOF 1
ENDMDL
MODEL 2
REMARK VINA RESULT:    -4.366      2.054      4.949
REMARK INTER + INTRA:          -6.724
REMARK INTER:                  -6.858
REMARK INTRA:                   0.134
REMARK UNBOUND:                -0.061
REMARK SMILES CC1=CCC[C@H](C)C(=O)C[C@@H](C(C)C)C(=O)C1
REMARK SMILES IDX 8 1 9 2 6 3 7 4 5 5 4 6 3 7 2 8 1 9 10 11 11 12 15 13 16 14
REMARK SMILES IDX 17 15 12 17 13 18 14 19
REMARK H PARENT
REMARK Flexibility Score: 70.00
ROOT
ATOM      1  C   UNL     1      20.440  27.796 -15.739  1.00  0.00     0.136 C 
ATOM      2  O   UNL     1      20.439  26.636 -16.126  1.00  0.00    -0.299 OA
ENDROOT
BRANCH   1   3
ATOM      3  C   UNL     1      19.410  28.238 -14.716  1.00  0.00     0.053 C 
ATOM      4  C   UNL     1      18.111  27.437 -14.887  1.00  0.00     0.016 C 
BRANCH   3   5
ATOM      5  C   UNL     1      19.969  28.083 -13.283  1.00  0.00     0.015 C 
BRANCH   5   6
ATOM      6  C   UNL     1      21.130  29.062 -13.020  1.00  0.00     0.028 C 
BRANCH   6   7
ATOM      7  C   UNL     1      22.370  28.390 -12.480  1.00  0.00    -0.028 C 
ATOM      8  C   UNL     1      23.573  28.331 -13.104  1.00  0.00    -0.070 CG0
ATOM      9  C   UNL     1      24.720  27.704 -12.351  1.00  0.00     0.039 C 
ATOM     10  G   UNL     1      23.812  28.813 -14.530  1.00  0.00     0.000 G0
ENDBRANCH   6   7
ENDBRANCH   5   6
ENDBRANCH   3   5
ENDBRANCH   1   3
BRANCH   1  11
ATOM     11  C   UNL     1      21.455  28.759 -16.313  1.00  0.00     0.087 C 
BRANCH  11  12
ATOM     12  C   UNL     1      22.735  28.029 -16.802  1.00  0.00     0.066 C 
BRANCH  12  13
ATOM     13  C   UNL     1      23.651  27.765 -15.616  1.00  0.00     0.140 C 
ATOM     14  O   UNL     1      24.217  26.684 -15.509  1.00  0.00    -0.299 OA
BRANCH  13  15
ATOM     15  C   UNL     1      23.825  28.814 -14.546  1.00  0.00     0.106 CG0
ATOM     16  G   UNL     1      23.575  28.305 -13.131  1.00  0.00     0.000 G0
ENDBRANCH  13  15
ENDBRANCH  12  13
BRANCH  12  17
ATOM     17  C   UNL     1      23.487  28.799 -17.938  1.00  0.00    -0.006 C 
ATOM     18  C   UNL     1      22.527  29.551 -18.879  1.00  0.00     0.008 C 
ATOM     19  C   UNL     1      24.348  27.838 -18.781  1.00  0.00     0.008 C 
ENDBRANCH  12  17
ENDBRANCH  11  12
ENDBRANCH   1  11
TORSDOF 1
ENDMDL
MODEL 3
REMARK VINA RESULT:    -4.359     11.621     13.994
REMARK INTER + INTRA:          -6.713
REMARK INTER:                  -6.570
REMARK INTRA:                  -0.143
REMARK UNBOUND:                -0.061
REMARK SMILES CC1=CCC[C@H](C)C(=O)C[C@@H](C(C)C)C(=O)C1
REMARK SMILES IDX 8 1 9 2 6 3 7 4 5 5 4 6 3 7 2 8 1 9 10 11 11 12 15 13 16 14
REMARK SMILES IDX 17 15 12 17 13 18 14 19
REMARK H PARENT
REMARK Flexibility Score: 70.00
ROOT
ATOM      1  C   UNL     1      33.400  30.105 -12.514  1.00  0.00     0.136 C 
ATOM      2  O   UNL     1      33.233  30.688 -11.452  1.00  0.00    -0.299 OA
ENDROOT
BRANCH   1   3
ATOM      3  C   UNL     1      32.267  29.281 -13.095  1.00  0.00     0.053 C 
ATOM      4  C   UNL     1      31.982  28.063 -12.205  1.00  0.00     0.016 C 
BRANCH   3   5
ATOM      5  C   UNL     1      30.998  30.149 -13.264  1.00  0.00     0.015 C 
BRANCH   5   6
ATOM      6  C   UNL     1      31.310  31.475 -13.985  1.00  0.00     0.028 C 
BRANCH   6   7
ATOM      7  C   UNL     1      31.270  31.362 -15.490  1.00  0.00    -0.028 C 
ATOM      8  C   UNL     1      32.270  31.718 -16.337  1.00  0.00    -0.070 CG0
ATOM      9  C   UNL     1      32.078  31.429 -17.804  1.00  0.00     0.039 C 
ATOM     10  G   UNL     1      33.540  32.434 -15.894  1.00  0.00     0.000 G0
ENDBRANCH   6   7
ENDBRANCH   5   6
ENDBRANCH   3   5
ENDBRANCH   1   3
BRANCH   1  11
ATOM     11  C   UNL     1      34.744  30.208 -13.201  1.00  0.00     0.087 C 
BRANCH  11  12
ATOM     12  C   UNL     1      34.961  31.603 -13.847  1.00  0.00     0.066 C 
BRANCH  12  13
ATOM     13  C   UNL     1      34.621  31.534 -15.328  1.00  0.00     0.140 C 
ATOM     14  O   UNL     1      35.233  30.767 -16.061  1.00  0.00    -0.299 OA
BRANCH  13  15
ATOM     15  C   UNL     1      33.566  32.445 -15.906  1.00  0.00     0.106 CG0
ATOM     16  G   UNL     1      32.291  31.727 -16.333  1.00  0.00     0.000 G0
ENDBRANCH  13  15
ENDBRANCH  12  13
BRANCH  12  17
ATOM     17  C   UNL     1      36.404  32.166 -13.623  1.00  0.00    -0.006 C 
ATOM     18  C   UNL     1      36.794  32.220 -12.133  1.00  0.00     0.008 C 
ATOM     19  C   UNL     1      36.543  33.582 -14.217  1.00  0.00     0.008 C 
ENDBRANCH  12  17
ENDBRANCH  11  12
ENDBRANCH   1  11
TORSDOF 1
ENDMDL
MODEL 4
REMARK VINA RESULT:    -4.212     10.994     13.049
REMARK INTER + INTRA:          -6.489
REMARK INTER:                  -6.274
REMARK INTRA:                  -0.215
REMARK UNBOUND:                -0.061
REMARK SMILES CC1=CCC[C@H](C)C(=O)C[C@@H](C(C)C)C(=O)C1
REMARK SMILES IDX 8 1 9 2 6 3 7 4 5 5 4 6 3 7 2 8 1 9 10 11 11 12 15 13 16 14
REMARK SMILES IDX 17 15 12 17 13 18 14 19
REMARK H PARENT
REMARK Flexibility Score: 70.00
ROOT
ATOM      1  C   UNL     1      30.857  30.171 -13.504  1.00  0.00     0.136 C 
ATOM      2  O   UNL     1      30.046  29.431 -14.044  1.00  0.00    -0.299 OA
ENDROOT
BRANCH   1   3
ATOM      3  C   UNL     1      31.509  29.737 -12.205  1.00  0.00     0.053 C 
ATOM      4  C   UNL     1      31.964  28.274 -12.299  1.00  0.00     0.016 C 
BRANCH   3   5
ATOM      5  C   UNL     1      32.698  30.664 -11.861  1.00  0.00     0.015 C 
BRANCH   5   6
ATOM      6  C   UNL     1      34.038  30.064 -12.331  1.00  0.00     0.028 C 
BRANCH   6   7
ATOM      7  C   UNL     1      35.108  31.102 -12.569  1.00  0.00    -0.028 C 
ATOM      8  C   UNL     1      35.340  31.744 -13.742  1.00  0.00    -0.070 CG0
ATOM      9  C   UNL     1      36.390  32.827 -13.749  1.00  0.00     0.039 C 
ATOM     10  G   UNL     1      34.639  31.397 -15.051  1.00  0.00     0.000 G0
ENDBRANCH   6   7
ENDBRANCH   5   6
ENDBRANCH   3   5
ENDBRANCH   1   3
BRANCH   1  11
ATOM     11  C   UNL     1      31.164  31.508 -14.141  1.00  0.00     0.087 C 
BRANCH  11  12
ATOM     12  C   UNL     1      32.027  31.357 -15.423  1.00  0.00     0.066 C 
BRANCH  12  13
ATOM     13  C   UNL     1      33.317  32.147 -15.259  1.00  0.00     0.140 C 
ATOM     14  O   UNL     1      33.298  33.370 -15.330  1.00  0.00    -0.299 OA
BRANCH  13  15
ATOM     15  C   UNL     1      34.627  31.426 -15.061  1.00  0.00     0.106 CG0
ATOM     16  G   UNL     1      35.323  31.751 -13.745  1.00  0.00     0.000 G0
ENDBRANCH  13  15
ENDBRANCH  12  13
BRANCH  12  17
ATOM     17  C   UNL     1      31.270  31.772 -16.727  1.00  0.00    -0.006 C 
ATOM     18  C   UNL     1      29.755  31.944 -16.504  1.00  0.00     0.008 C 
ATOM     19  C   UNL     1      31.485  30.732 -17.845  1.00  0.00     0.008 C 
ENDBRANCH  12  17
ENDBRANCH  11  12
ENDBRANCH   1  11
TORSDOF 1
ENDMDL
MODEL 5
REMARK VINA RESULT:    -4.160      2.050      3.079
REMARK INTER + INTRA:          -6.410
REMARK INTER:                  -6.618
REMARK INTRA:                   0.208
REMARK UNBOUND:                -0.061
REMARK SMILES CC1=CCC[C@H](C)C(=O)C[C@@H](C(C)C)C(=O)C1
REMARK SMILES IDX 8 1 9 2 6 3 7 4 5 5 4 6 3 7 2 8 1 9 10 11 11 12 15 13 16 14
REMARK SMILES IDX 17 15 12 17 13 18 14 19
REMARK H PARENT
REMARK Flexibility Score: 70.00
ROOT
ATOM      1  C   UNL     1      20.108  28.225 -11.573  1.00  0.00     0.136 C 
ATOM      2  O   UNL     1      19.387  27.238 -11.625  1.00  0.00    -0.299 OA
ENDROOT
BRANCH   1   3
ATOM      3  C   UNL     1      20.722  28.627 -10.246  1.00  0.00     0.053 C 
ATOM      4  C   UNL     1      19.999  27.924  -9.089  1.00  0.00     0.016 C 
BRANCH   3   5
ATOM      5  C   UNL     1      22.234  28.303 -10.229  1.00  0.00     0.015 C 
BRANCH   5   6
ATOM      6  C   UNL     1      23.080  29.523 -10.642  1.00  0.00     0.028 C 
BRANCH   6   7
ATOM      7  C   UNL     1      24.207  29.179 -11.585  1.00  0.00    -0.028 C 
ATOM      8  C   UNL     1      24.175  29.304 -12.937  1.00  0.00    -0.070 CG0
ATOM      9  C   UNL     1      25.443  29.007 -13.696  1.00  0.00     0.039 C 
ATOM     10  G   UNL     1      22.922  29.674 -13.723  1.00  0.00     0.000 G0
ENDBRANCH   6   7
ENDBRANCH   5   6
ENDBRANCH   3   5
ENDBRANCH   1   3
BRANCH   1  11
ATOM     11  C   UNL     1      20.343  29.026 -12.835  1.00  0.00     0.087 C 
BRANCH  11  12
ATOM     12  C   UNL     1      20.801  28.128 -14.016  1.00  0.00     0.066 C 
BRANCH  12  13
ATOM     13  C   UNL     1      22.237  28.472 -14.385  1.00  0.00     0.140 C 
ATOM     14  O   UNL     1      22.851  27.766 -15.175  1.00  0.00    -0.299 OA
BRANCH  13  15
ATOM     15  C   UNL     1      22.922  29.652 -13.740  1.00  0.00     0.106 CG0
ATOM     16  G   UNL     1      24.167  29.287 -12.941  1.00  0.00     0.000 G0
ENDBRANCH  13  15
ENDBRANCH  12  13
BRANCH  12  17
ATOM     17  C   UNL     1      19.859  28.222 -15.261  1.00  0.00    -0.006 C 
ATOM     18  C   UNL     1      18.375  28.371 -14.872  1.00  0.00     0.008 C 
ATOM     19  C   UNL     1      20.007  26.978 -16.161  1.00  0.00     0.008 C 
ENDBRANCH  12  17
ENDBRANCH  11  12
ENDBRANCH   1  11
TORSDOF 1
ENDMDL
MODEL 6
REMARK VINA RESULT:    -4.145     10.103     12.430
REMARK INTER + INTRA:          -6.387
REMARK INTER:                  -6.554
REMARK INTRA:                   0.166
REMARK UNBOUND:                -0.061
REMARK SMILES CC1=CCC[C@H](C)C(=O)C[C@@H](C(C)C)C(=O)C1
REMARK SMILES IDX 8 1 9 2 6 3 7 4 5 5 4 6 3 7 2 8 1 9 10 11 11 12 15 13 16 14
REMARK SMILES IDX 17 15 12 17 13 18 14 19
REMARK H PARENT
REMARK Flexibility Score: 70.00
ROOT
ATOM      1  C   UNL     1      33.650  31.846 -15.273  1.00  0.00     0.136 C 
ATOM      2  O   UNL     1      33.613  33.068 -15.322  1.00  0.00    -0.299 OA
ENDROOT
BRANCH   1   3
ATOM      3  C   UNL     1      34.719  31.168 -14.439  1.00  0.00     0.053 C 
ATOM      4  C   UNL     1      36.035  31.955 -14.516  1.00  0.00     0.016 C 
BRANCH   3   5
ATOM      5  C   UNL     1      34.249  31.021 -12.972  1.00  0.00     0.015 C 
BRANCH   5   6
ATOM      6  C   UNL     1      33.153  29.947 -12.834  1.00  0.00     0.028 C 
BRANCH   6   7
ATOM      7  C   UNL     1      31.891  30.459 -12.185  1.00  0.00    -0.028 C 
ATOM      8  C   UNL     1      30.686  30.596 -12.796  1.00  0.00    -0.070 CG0
ATOM      9  C   UNL     1      29.517  31.027 -11.946  1.00  0.00     0.039 C 
ATOM     10  G   UNL     1      30.467  30.391 -14.290  1.00  0.00     0.000 G0
ENDBRANCH   6   7
ENDBRANCH   5   6
ENDBRANCH   3   5
ENDBRANCH   1   3
BRANCH   1  11
ATOM     11  C   UNL     1      32.638  31.052 -16.070  1.00  0.00     0.087 C 
BRANCH  11  12
ATOM     12  C   UNL     1      31.325  31.848 -16.299  1.00  0.00     0.066 C 
BRANCH  12  13
ATOM     13  C   UNL     1      30.418  31.686 -15.089  1.00  0.00     0.140 C 
ATOM     14  O   UNL     1      29.692  32.609 -14.740  1.00  0.00    -0.299 OA
BRANCH  13  15
ATOM     15  C   UNL     1      30.446  30.408 -14.288  1.00  0.00     0.106 CG0
ATOM     16  G   UNL     1      30.679  30.615 -12.796  1.00  0.00     0.000 G0
ENDBRANCH  13  15
ENDBRANCH  12  13
BRANCH  12  17
ATOM     17  C   UNL     1      30.586  31.449 -17.619  1.00  0.00    -0.006 C 
ATOM     18  C   UNL     1      31.549  30.921 -18.700  1.00  0.00     0.008 C 
ATOM     19  C   UNL     1      29.806  32.646 -18.199  1.00  0.00     0.008 C 
ENDBRANCH  12  17
ENDBRANCH  11  12
ENDBRANCH   1  11
TORSDOF 1
ENDMDL
MODEL 7
REMARK VINA RESULT:    -4.142     10.484     12.811
REMARK INTER + INTRA:          -6.383
REMARK INTER:                  -6.381
REMARK INTRA:                  -0.001
REMARK UNBOUND:                -0.061
REMARK SMILES CC1=CCC[C@H](C)C(=O)C[C@@H](C(C)C)C(=O)C1
REMARK SMILES IDX 8 1 9 2 6 3 7 4 5 5 4 6 3 7 2 8 1 9 10 11 11 12 15 13 16 14
REMARK SMILES IDX 17 15 12 17 13 18 14 19
REMARK H PARENT
REMARK Flexibility Score: 70.00
ROOT
ATOM      1  C   UNL     1      34.123  30.660 -11.483  1.00  0.00     0.136 C 
ATOM      2  O   UNL     1      34.854  31.633 -11.364  1.00  0.00    -0.299 OA
ENDROOT
BRANCH   1   3
ATOM      3  C   UNL     1      33.469  30.067 -10.250  1.00  0.00     0.053 C 
ATOM      4  C   UNL     1      34.255  30.456  -8.990  1.00  0.00     0.016 C 
BRANCH   3   5
ATOM      5  C   UNL     1      31.996  30.526 -10.145  1.00  0.00     0.015 C 
BRANCH   5   6
ATOM      6  C   UNL     1      31.020  29.364 -10.413  1.00  0.00     0.028 C 
BRANCH   6   7
ATOM      7  C   UNL     1      29.916  29.719 -11.379  1.00  0.00    -0.028 C 
ATOM      8  C   UNL     1      29.988  29.629 -12.732  1.00  0.00    -0.070 CG0
ATOM      9  C   UNL     1      28.739  29.931 -13.520  1.00  0.00     0.039 C 
ATOM     10  G   UNL     1      31.267  29.293 -13.490  1.00  0.00     0.000 G0
ENDBRANCH   6   7
ENDBRANCH   5   6
ENDBRANCH   3   5
ENDBRANCH   1   3
BRANCH   1  11
ATOM     11  C   UNL     1      33.916  30.065 -12.859  1.00  0.00     0.087 C 
BRANCH  11  12
ATOM     12  C   UNL     1      33.199  31.054 -13.817  1.00  0.00     0.066 C 
BRANCH  12  13
ATOM     13  C   UNL     1      31.868  30.460 -14.254  1.00  0.00     0.140 C 
ATOM     14  O   UNL     1      31.254  30.957 -15.190  1.00  0.00    -0.299 OA
BRANCH  13  15
ATOM     15  C   UNL     1      31.278  29.292 -13.503  1.00  0.00     0.106 CG0
ATOM     16  G   UNL     1      30.001  29.624 -12.741  1.00  0.00     0.000 G0
ENDBRANCH  13  15
ENDBRANCH  12  13
BRANCH  12  17
ATOM     17  C   UNL     1      34.072  31.455 -15.052  1.00  0.00    -0.006 C 
ATOM     18  C   UNL     1      35.561  31.108 -14.863  1.00  0.00     0.008 C 
ATOM     19  C   UNL     1      33.955  32.964 -15.345  1.00  0.00     0.008 C 
ENDBRANCH  12  17
ENDBRANCH  11  12
ENDBRANCH   1  11
TORSDOF 1
ENDMDL
MODEL 8
REMARK VINA RESULT:    -4.103     15.484     17.710
REMARK INTER + INTRA:          -6.324
REMARK INTER:                  -6.152
REMARK INTRA:                  -0.172
REMARK UNBOUND:                -0.061
REMARK SMILES CC1=CCC[C@H](C)C(=O)C[C@@H](C(C)C)C(=O)C1
REMARK SMILES IDX 8 1 9 2 6 3 7 4 5 5 4 6 3 7 2 8 1 9 10 11 11 12 15 13 16 14
REMARK SMILES IDX 17 15 12 17 13 18 14 19
REMARK H PARENT
REMARK Flexibility Score: 70.00
ROOT
ATOM      1  C   UNL     1      32.151  35.491 -21.436  1.00  0.00     0.136 C 
ATOM      2  O   UNL     1      31.104  34.983 -21.813  1.00  0.00    -0.299 OA
ENDROOT
BRANCH   1   3
ATOM      3  C   UNL     1      33.166  34.639 -20.698  1.00  0.00     0.053 C 
ATOM      4  C   UNL     1      32.761  33.160 -20.751  1.00  0.00     0.016 C 
BRANCH   3   5
ATOM      5  C   UNL     1      34.579  34.845 -21.292  1.00  0.00     0.015 C 
BRANCH   5   6
ATOM      6  C   UNL     1      34.592  34.615 -22.816  1.00  0.00     0.028 C 
BRANCH   6   7
ATOM      7  C   UNL     1      35.542  35.530 -23.552  1.00  0.00    -0.028 C 
ATOM      8  C   UNL     1      35.182  36.541 -24.382  1.00  0.00    -0.070 CG0
ATOM      9  C   UNL     1      36.281  37.410 -24.941  1.00  0.00     0.039 C 
ATOM     10  G   UNL     1      33.746  36.809 -24.818  1.00  0.00     0.000 G0
ENDBRANCH   6   7
ENDBRANCH   5   6
ENDBRANCH   3   5
ENDBRANCH   1   3
BRANCH   1  11
ATOM     11  C   UNL     1      32.386  36.962 -21.700  1.00  0.00     0.087 C 
BRANCH  11  12
ATOM     12  C   UNL     1      31.848  37.396 -23.089  1.00  0.00     0.066 C 
BRANCH  12  13
ATOM     13  C   UNL     1      33.010  37.834 -23.968  1.00  0.00     0.140 C 
ATOM     14  O   UNL     1      33.333  39.014 -24.012  1.00  0.00    -0.299 OA
BRANCH  13  15
ATOM     15  C   UNL     1      33.733  36.824 -24.824  1.00  0.00     0.106 CG0
ATOM     16  G   UNL     1      35.160  36.534 -24.373  1.00  0.00     0.000 G0
ENDBRANCH  13  15
ENDBRANCH  12  13
BRANCH  12  17
ATOM     17  C   UNL     1      30.752  38.510 -23.003  1.00  0.00    -0.006 C 
ATOM     18  C   UNL     1      29.862  38.371 -21.754  1.00  0.00     0.008 C 
ATOM     19  C   UNL     1      29.849  38.494 -24.253  1.00  0.00     0.008 C 
ENDBRANCH  12  17
ENDBRANCH  11  12
ENDBRANCH   1  11
TORSDOF 1
ENDMDL
MODEL 9
REMARK VINA RESULT:    -4.037     10.138     11.939
REMARK INTER + INTRA:          -6.222
REMARK INTER:                  -5.866
REMARK INTRA:                  -0.356
REMARK UNBOUND:                -0.061
REMARK SMILES CC1=CCC[C@H](C)C(=O)C[C@@H](C(C)C)C(=O)C1
REMARK SMILES IDX 8 1 9 2 6 3 7 4 5 5 4 6 3 7 2 8 1 9 10 11 11 12 15 13 16 14
REMARK SMILES IDX 17 15 12 17 13 18 14 19
REMARK H PARENT
REMARK Flexibility Score: 70.00
ROOT
ATOM      1  C   UNL     1      33.635  30.473 -13.070  1.00  0.00     0.136 C 
ATOM      2  O   UNL     1      34.160  29.431 -12.703  1.00  0.00    -0.299 OA
ENDROOT
BRANCH   1   3
ATOM      3  C   UNL     1      34.452  31.477 -13.862  1.00  0.00     0.053 C 
ATOM      4  C   UNL     1      35.949  31.276 -13.593  1.00  0.00     0.016 C 
BRANCH   3   5
ATOM      5  C   UNL     1      34.141  31.355 -15.372  1.00  0.00     0.015 C 
BRANCH   5   6
ATOM      6  C   UNL     1      33.237  32.505 -15.859  1.00  0.00     0.028 C 
BRANCH   6   7
ATOM      7  C   UNL     1      32.060  32.036 -16.679  1.00  0.00    -0.028 C 
ATOM      8  C   UNL     1      30.804  31.823 -16.211  1.00  0.00    -0.070 CG0
ATOM      9  C   UNL     1      29.739  31.456 -17.213  1.00  0.00     0.039 C 
ATOM     10  G   UNL     1      30.430  31.882 -14.735  1.00  0.00     0.000 G0
ENDBRANCH   6   7
ENDBRANCH   5   6
ENDBRANCH   3   5
ENDBRANCH   1   3
BRANCH   1  11
ATOM     11  C   UNL     1      32.192  30.736 -12.700  1.00  0.00     0.087 C 
BRANCH  11  12
ATOM     12  C   UNL     1      31.221  29.763 -13.421  1.00  0.00     0.066 C 
BRANCH  12  13
ATOM     13  C   UNL     1      30.112  30.561 -14.092  1.00  0.00     0.140 C 
ATOM     14  O   UNL     1      28.977  30.104 -14.148  1.00  0.00    -0.299 OA
BRANCH  13  15
ATOM     15  C   UNL     1      30.419  31.892 -14.733  1.00  0.00     0.106 CG0
ATOM     16  G   UNL     1      30.796  31.800 -16.207  1.00  0.00     0.000 G0
ENDBRANCH  13  15
ENDBRANCH  12  13
BRANCH  12  17
ATOM     17  C   UNL     1      30.634  28.664 -12.475  1.00  0.00    -0.006 C 
ATOM     18  C   UNL     1      30.826  29.003 -10.984  1.00  0.00     0.008 C 
ATOM     19  C   UNL     1      31.282  27.293 -12.753  1.00  0.00     0.008 C 
ENDBRANCH  12  17
ENDBRANCH  11  12
ENDBRANCH   1  11
TORSDOF 1
ENDMDL
