MODEL 1
REMARK VINA RESULT:    -5.844      0.000      0.000
REMARK INTER + INTRA:          -9.029
REMARK INTER:                  -8.065
REMARK INTRA:                  -0.964
REMARK UNBOUND:                -0.964
REMARK SMILES CCCCc1cccc(O)c1CCCC
REMARK SMILES IDX 5 1 11 2 9 3 8 4 7 5 6 6 4 7 3 8 2 9 1 10 12 11 13 12 14 13
REMARK SMILES IDX 15 14 10 15
REMARK H PARENT 10 16
REMARK Flexibility Score: inf
ROOT
ATOM      1  C   UNL     1      59.897 152.989   4.102  1.00  0.00    -0.041 A 
ATOM      2  C   UNL     1      60.961 152.295   4.750  1.00  0.00    -0.003 A 
ATOM      3  C   UNL     1      61.313 152.663   6.071  1.00  0.00     0.119 A 
ATOM      4  C   UNL     1      60.645 153.710   6.717  1.00  0.00     0.046 A 
ATOM      5  C   UNL     1      59.626 154.400   6.069  1.00  0.00     0.004 A 
ATOM      6  C   UNL     1      59.253 154.044   4.776  1.00  0.00     0.004 A 
ENDROOT
BRANCH   1   7
ATOM      7  C   UNL     1      59.382 152.634   2.721  1.00  0.00     0.036 C 
BRANCH   7   8
ATOM      8  C   UNL     1      58.789 153.871   2.021  1.00  0.00     0.004 C 
BRANCH   8   9
ATOM      9  C   UNL     1      59.420 154.131   0.646  1.00  0.00    -0.003 C 
ATOM     10  C   UNL     1      60.904 153.766   0.600  1.00  0.00     0.004 C 
ENDBRANCH   8   9
ENDBRANCH   7   8
ENDBRANCH   1   7
BRANCH   2  11
ATOM     11  C   UNL     1      61.736 151.176   4.070  1.00  0.00     0.040 C 
BRANCH  11  12
ATOM     12  C   UNL     1      62.937 151.680   3.255  1.00  0.00     0.005 C 
BRANCH  12  13
ATOM     13  C   UNL     1      64.278 151.195   3.822  1.00  0.00    -0.003 C 
ATOM     14  C   UNL     1      65.031 152.335   4.503  1.00  0.00     0.004 C 
ENDBRANCH  12  13
ENDBRANCH  11  12
ENDBRANCH   2  11
BRANCH   3  15
ATOM     15  O   UNL     1      62.329 151.986   6.747  1.00  0.00    -0.508 OA
ATOM     16  H   UNL     1      62.711 151.113   6.401  1.00  0.00     0.293 HD
ENDBRANCH   3  15
TORSDOF 7
ENDMDL
MODEL 2
REMARK VINA RESULT:    -5.746      2.592      4.467
REMARK INTER + INTRA:          -8.893
REMARK INTER:                  -8.298
REMARK INTRA:                  -0.595
REMARK UNBOUND:                -0.964
REMARK SMILES CCCCc1cccc(O)c1CCCC
REMARK SMILES IDX 5 1 11 2 9 3 8 4 7 5 6 6 4 7 3 8 2 9 1 10 12 11 13 12 14 13
REMARK SMILES IDX 15 14 10 15
REMARK H PARENT 10 16
REMARK Flexibility Score: inf
ROOT
ATOM      1  C   UNL     1      62.549 151.144   4.258  1.00  0.00    -0.041 A 
ATOM      2  C   UNL     1      62.609 149.919   4.986  1.00  0.00    -0.003 A 
ATOM      3  C   UNL     1      63.876 149.390   5.332  1.00  0.00     0.119 A 
ATOM      4  C   UNL     1      65.049 150.047   4.940  1.00  0.00     0.046 A 
ATOM      5  C   UNL     1      64.983 151.226   4.207  1.00  0.00     0.004 A 
ATOM      6  C   UNL     1      63.747 151.772   3.870  1.00  0.00     0.004 A 
ENDROOT
BRANCH   1   7
ATOM      7  C   UNL     1      61.252 151.843   3.899  1.00  0.00     0.036 C 
BRANCH   7   8
ATOM      8  C   UNL     1      61.053 151.877   2.373  1.00  0.00     0.004 C 
BRANCH   8   9
ATOM      9  C   UNL     1      60.217 153.080   1.912  1.00  0.00    -0.003 C 
ATOM     10  C   UNL     1      60.795 153.757   0.670  1.00  0.00     0.004 C 
ENDBRANCH   8   9
ENDBRANCH   7   8
ENDBRANCH   1   7
BRANCH   2  11
ATOM     11  C   UNL     1      61.359 149.155   5.401  1.00  0.00     0.040 C 
BRANCH  11  12
ATOM     12  C   UNL     1      60.751 149.660   6.718  1.00  0.00     0.005 C 
BRANCH  12  13
ATOM     13  C   UNL     1      59.700 148.698   7.288  1.00  0.00    -0.003 C 
ATOM     14  C   UNL     1      60.218 147.262   7.299  1.00  0.00     0.004 C 
ENDBRANCH  12  13
ENDBRANCH  11  12
ENDBRANCH   2  11
BRANCH   3  15
ATOM     15  O   UNL     1      63.972 148.210   6.071  1.00  0.00    -0.508 OA
ATOM     16  H   UNL     1      63.193 147.566   6.153  1.00  0.00     0.293 HD
ENDBRANCH   3  15
TORSDOF 7
ENDMDL
MODEL 3
REMARK VINA RESULT:    -5.621      1.954      4.538
REMARK INTER + INTRA:          -8.721
REMARK INTER:                  -7.541
REMARK INTRA:                  -1.180
REMARK UNBOUND:                -0.964
REMARK SMILES CCCCc1cccc(O)c1CCCC
REMARK SMILES IDX 5 1 11 2 9 3 8 4 7 5 6 6 4 7 3 8 2 9 1 10 12 11 13 12 14 13
REMARK SMILES IDX 15 14 10 15
REMARK H PARENT 10 16
REMARK Flexibility Score: inf
ROOT
ATOM      1  C   UNL     1      61.813 151.885   3.273  1.00  0.00    -0.041 A 
ATOM      2  C   UNL     1      60.937 152.132   4.371  1.00  0.00    -0.003 A 
ATOM      3  C   UNL     1      59.709 152.797   4.131  1.00  0.00     0.119 A 
ATOM      4  C   UNL     1      59.378 153.227   2.841  1.00  0.00     0.046 A 
ATOM      5  C   UNL     1      60.249 153.006   1.780  1.00  0.00     0.004 A 
ATOM      6  C   UNL     1      61.453 152.341   1.991  1.00  0.00     0.004 A 
ENDROOT
BRANCH   1   7
ATOM      7  C   UNL     1      63.115 151.117   3.395  1.00  0.00     0.036 C 
BRANCH   7   8
ATOM      8  C   UNL     1      64.239 152.025   3.924  1.00  0.00     0.004 C 
BRANCH   8   9
ATOM      9  C   UNL     1      65.028 151.381   5.073  1.00  0.00    -0.003 C 
ATOM     10  C   UNL     1      65.112 149.860   4.950  1.00  0.00     0.004 C 
ENDBRANCH   8   9
ENDBRANCH   7   8
ENDBRANCH   1   7
BRANCH   2  11
ATOM     11  C   UNL     1      61.276 151.712   5.794  1.00  0.00     0.040 C 
BRANCH  11  12
ATOM     12  C   UNL     1      60.752 150.313   6.153  1.00  0.00     0.005 C 
BRANCH  12  13
ATOM     13  C   UNL     1      61.883 149.324   6.467  1.00  0.00    -0.003 C 
ATOM     14  C   UNL     1      61.832 148.117   5.534  1.00  0.00     0.004 C 
ENDBRANCH  12  13
ENDBRANCH  11  12
ENDBRANCH   2  11
BRANCH   3  15
ATOM     15  O   UNL     1      58.815 153.028   5.176  1.00  0.00    -0.508 OA
ATOM     16  H   UNL     1      59.053 152.820   6.139  1.00  0.00     0.293 HD
ENDBRANCH   3  15
TORSDOF 7
ENDMDL
MODEL 4
REMARK VINA RESULT:    -5.600      2.080      5.045
REMARK INTER + INTRA:          -8.692
REMARK INTER:                  -7.507
REMARK INTRA:                  -1.184
REMARK UNBOUND:                -0.964
REMARK SMILES CCCCc1cccc(O)c1CCCC
REMARK SMILES IDX 5 1 11 2 9 3 8 4 7 5 6 6 4 7 3 8 2 9 1 10 12 11 13 12 14 13
REMARK SMILES IDX 15 14 10 15
REMARK H PARENT 10 16
REMARK Flexibility Score: inf
ROOT
ATOM      1  C   UNL     1      62.725 151.822   4.194  1.00  0.00    -0.041 A 
ATOM      2  C   UNL     1      61.516 151.931   4.943  1.00  0.00    -0.003 A 
ATOM      3  C   UNL     1      60.294 152.107   4.248  1.00  0.00     0.119 A 
ATOM      4  C   UNL     1      60.281 152.201   2.852  1.00  0.00     0.046 A 
ATOM      5  C   UNL     1      61.466 152.121   2.130  1.00  0.00     0.004 A 
ATOM      6  C   UNL     1      62.676 151.931   2.791  1.00  0.00     0.004 A 
ENDROOT
BRANCH   1   7
ATOM      7  C   UNL     1      64.079 151.556   4.821  1.00  0.00     0.036 C 
BRANCH   7   8
ATOM      8  C   UNL     1      64.948 150.681   3.899  1.00  0.00     0.004 C 
BRANCH   8   9
ATOM      9  C   UNL     1      64.972 149.208   4.333  1.00  0.00    -0.003 C 
ATOM     10  C   UNL     1      65.297 149.037   5.817  1.00  0.00     0.004 C 
ENDBRANCH   8   9
ENDBRANCH   7   8
ENDBRANCH   1   7
BRANCH   2  11
ATOM     11  C   UNL     1      61.492 151.870   6.463  1.00  0.00     0.040 C 
BRANCH  11  12
ATOM     12  C   UNL     1      61.823 150.476   7.018  1.00  0.00     0.005 C 
BRANCH  12  13
ATOM     13  C   UNL     1      60.842 149.401   6.530  1.00  0.00    -0.003 C 
ATOM     14  C   UNL     1      61.566 148.319   5.733  1.00  0.00     0.004 C 
ENDBRANCH  12  13
ENDBRANCH  11  12
ENDBRANCH   2  11
BRANCH   3  15
ATOM     15  O   UNL     1      59.089 152.187   4.947  1.00  0.00    -0.508 OA
ATOM     16  H   UNL     1      58.193 152.111   4.478  1.00  0.00     0.293 HD
ENDBRANCH   3  15
TORSDOF 7
ENDMDL
MODEL 5
REMARK VINA RESULT:    -5.592      2.693      5.686
REMARK INTER + INTRA:          -8.682
REMARK INTER:                  -8.070
REMARK INTRA:                  -0.611
REMARK UNBOUND:                -0.964
REMARK SMILES CCCCc1cccc(O)c1CCCC
REMARK SMILES IDX 5 1 11 2 9 3 8 4 7 5 6 6 4 7 3 8 2 9 1 10 12 11 13 12 14 13
REMARK SMILES IDX 15 14 10 15
REMARK H PARENT 10 16
REMARK Flexibility Score: inf
ROOT
ATOM      1  C   UNL     1      62.607 149.647   5.209  1.00  0.00    -0.041 A 
ATOM      2  C   UNL     1      62.743 150.947   4.637  1.00  0.00    -0.003 A 
ATOM      3  C   UNL     1      64.042 151.481   4.454  1.00  0.00     0.119 A 
ATOM      4  C   UNL     1      65.170 150.754   4.855  1.00  0.00     0.046 A 
ATOM      5  C   UNL     1      65.028 149.500   5.437  1.00  0.00     0.004 A 
ATOM      6  C   UNL     1      63.761 148.949   5.611  1.00  0.00     0.004 A 
ENDROOT
BRANCH   1   7
ATOM      7  C   UNL     1      61.275 148.943   5.383  1.00  0.00     0.036 C 
BRANCH   7   8
ATOM      8  C   UNL     1      61.410 147.745   6.340  1.00  0.00     0.004 C 
BRANCH   8   9
ATOM      9  C   UNL     1      60.219 147.619   7.300  1.00  0.00    -0.003 C 
ATOM     10  C   UNL     1      59.288 148.830   7.246  1.00  0.00     0.004 C 
ENDBRANCH   8   9
ENDBRANCH   7   8
ENDBRANCH   1   7
BRANCH   2  11
ATOM     11  C   UNL     1      61.543 151.784   4.221  1.00  0.00     0.040 C 
BRANCH  11  12
ATOM     12  C   UNL     1      61.207 151.658   2.727  1.00  0.00     0.005 C 
BRANCH  12  13
ATOM     13  C   UNL     1      60.181 152.702   2.264  1.00  0.00    -0.003 C 
ATOM     14  C   UNL     1      60.692 153.473   1.050  1.00  0.00     0.004 C 
ENDBRANCH  12  13
ENDBRANCH  11  12
ENDBRANCH   2  11
BRANCH   3  15
ATOM     15  O   UNL     1      64.215 152.736   3.870  1.00  0.00    -0.508 OA
ATOM     16  H   UNL     1      64.248 153.584   4.425  1.00  0.00     0.293 HD
ENDBRANCH   3  15
TORSDOF 7
ENDMDL
MODEL 6
REMARK VINA RESULT:    -5.496      1.682      4.387
REMARK INTER + INTRA:          -8.549
REMARK INTER:                  -7.635
REMARK INTRA:                  -0.914
REMARK UNBOUND:                -0.964
REMARK SMILES CCCCc1cccc(O)c1CCCC
REMARK SMILES IDX 5 1 11 2 9 3 8 4 7 5 6 6 4 7 3 8 2 9 1 10 12 11 13 12 14 13
REMARK SMILES IDX 15 14 10 15
REMARK H PARENT 10 16
REMARK Flexibility Score: inf
ROOT
ATOM      1  C   UNL     1      63.347 151.095   4.147  1.00  0.00    -0.041 A 
ATOM      2  C   UNL     1      62.741 150.649   5.359  1.00  0.00    -0.003 A 
ATOM      3  C   UNL     1      63.400 149.661   6.131  1.00  0.00     0.119 A 
ATOM      4  C   UNL     1      64.612 149.113   5.694  1.00  0.00     0.046 A 
ATOM      5  C   UNL     1      65.183 149.533   4.498  1.00  0.00     0.004 A 
ATOM      6  C   UNL     1      64.560 150.514   3.732  1.00  0.00     0.004 A 
ENDROOT
BRANCH   1   7
ATOM      7  C   UNL     1      62.775 152.199   3.280  1.00  0.00     0.036 C 
BRANCH   7   8
ATOM      8  C   UNL     1      61.707 151.643   2.319  1.00  0.00     0.004 C 
BRANCH   8   9
ATOM      9  C   UNL     1      60.590 152.655   2.028  1.00  0.00    -0.003 C 
ATOM     10  C   UNL     1      60.935 153.598   0.875  1.00  0.00     0.004 C 
ENDBRANCH   8   9
ENDBRANCH   7   8
ENDBRANCH   1   7
BRANCH   2  11
ATOM     11  C   UNL     1      61.408 151.194   5.851  1.00  0.00     0.040 C 
BRANCH  11  12
ATOM     12  C   UNL     1      61.551 152.468   6.698  1.00  0.00     0.005 C 
BRANCH  12  13
ATOM     13  C   UNL     1      60.393 153.452   6.479  1.00  0.00    -0.003 C 
ATOM     14  C   UNL     1      59.431 152.940   5.410  1.00  0.00     0.004 C 
ENDBRANCH  12  13
ENDBRANCH  11  12
ENDBRANCH   2  11
BRANCH   3  15
ATOM     15  O   UNL     1      62.852 149.224   7.337  1.00  0.00    -0.508 OA
ATOM     16  H   UNL     1      61.954 149.558   7.668  1.00  0.00     0.293 HD
ENDBRANCH   3  15
TORSDOF 7
ENDMDL
MODEL 7
REMARK VINA RESULT:    -5.471      2.543      3.659
REMARK INTER + INTRA:          -8.515
REMARK INTER:                  -7.449
REMARK INTRA:                  -1.066
REMARK UNBOUND:                -0.964
REMARK SMILES CCCCc1cccc(O)c1CCCC
REMARK SMILES IDX 5 1 11 2 9 3 8 4 7 5 6 6 4 7 3 8 2 9 1 10 12 11 13 12 14 13
REMARK SMILES IDX 15 14 10 15
REMARK H PARENT 10 16
REMARK Flexibility Score: inf
ROOT
ATOM      1  C   UNL     1      61.364 150.619   5.708  1.00  0.00    -0.041 A 
ATOM      2  C   UNL     1      62.361 149.645   5.402  1.00  0.00    -0.003 A 
ATOM      3  C   UNL     1      62.165 148.308   5.825  1.00  0.00     0.119 A 
ATOM      4  C   UNL     1      61.024 147.957   6.556  1.00  0.00     0.046 A 
ATOM      5  C   UNL     1      60.069 148.916   6.874  1.00  0.00     0.004 A 
ATOM      6  C   UNL     1      60.235 150.233   6.454  1.00  0.00     0.004 A 
ENDROOT
BRANCH   1   7
ATOM      7  C   UNL     1      61.428 152.060   5.243  1.00  0.00     0.036 C 
BRANCH   7   8
ATOM      8  C   UNL     1      60.449 152.305   4.081  1.00  0.00     0.004 C 
BRANCH   8   9
ATOM      9  C   UNL     1      60.949 151.719   2.753  1.00  0.00    -0.003 C 
ATOM     10  C   UNL     1      61.192 152.790   1.690  1.00  0.00     0.004 C 
ENDBRANCH   8   9
ENDBRANCH   7   8
ENDBRANCH   1   7
BRANCH   2  11
ATOM     11  C   UNL     1      63.632 149.993   4.641  1.00  0.00     0.040 C 
BRANCH  11  12
ATOM     12  C   UNL     1      64.807 150.358   5.561  1.00  0.00     0.005 C 
BRANCH  12  13
ATOM     13  C   UNL     1      65.311 151.790   5.332  1.00  0.00    -0.003 C 
ATOM     14  C   UNL     1      64.695 152.394   4.073  1.00  0.00     0.004 C 
ENDBRANCH  12  13
ENDBRANCH  11  12
ENDBRANCH   2  11
BRANCH   3  15
ATOM     15  O   UNL     1      63.104 147.324   5.517  1.00  0.00    -0.508 OA
ATOM     16  H   UNL     1      63.076 146.405   5.945  1.00  0.00     0.293 HD
ENDBRANCH   3  15
TORSDOF 7
ENDMDL
MODEL 8
REMARK VINA RESULT:    -5.385      2.650      5.485
REMARK INTER + INTRA:          -8.395
REMARK INTER:                  -7.044
REMARK INTRA:                  -1.351
REMARK UNBOUND:                -0.964
REMARK SMILES CCCCc1cccc(O)c1CCCC
REMARK SMILES IDX 5 1 11 2 9 3 8 4 7 5 6 6 4 7 3 8 2 9 1 10 12 11 13 12 14 13
REMARK SMILES IDX 15 14 10 15
REMARK H PARENT 10 16
REMARK Flexibility Score: inf
ROOT
ATOM      1  C   UNL     1      63.206 149.264   5.857  1.00  0.00    -0.041 A 
ATOM      2  C   UNL     1      62.050 149.767   6.525  1.00  0.00    -0.003 A 
ATOM      3  C   UNL     1      60.921 148.923   6.667  1.00  0.00     0.119 A 
ATOM      4  C   UNL     1      60.933 147.629   6.135  1.00  0.00     0.046 A 
ATOM      5  C   UNL     1      62.053 147.154   5.462  1.00  0.00     0.004 A 
ATOM      6  C   UNL     1      63.179 147.961   5.326  1.00  0.00     0.004 A 
ENDROOT
BRANCH   1   7
ATOM      7  C   UNL     1      64.497 150.045   5.713  1.00  0.00     0.036 C 
BRANCH   7   8
ATOM      8  C   UNL     1      64.690 150.521   4.262  1.00  0.00     0.004 C 
BRANCH   8   9
ATOM      9  C   UNL     1      65.027 152.016   4.170  1.00  0.00    -0.003 C 
ATOM     10  C   UNL     1      65.448 152.609   5.514  1.00  0.00     0.004 C 
ENDBRANCH   8   9
ENDBRANCH   7   8
ENDBRANCH   1   7
BRANCH   2  11
ATOM     11  C   UNL     1      61.984 151.180   7.086  1.00  0.00     0.040 C 
BRANCH  11  12
ATOM     12  C   UNL     1      61.834 152.255   5.999  1.00  0.00     0.005 C 
BRANCH  12  13
ATOM     13  C   UNL     1      60.714 151.931   5.001  1.00  0.00    -0.003 C 
ATOM     14  C   UNL     1      61.268 151.761   3.589  1.00  0.00     0.004 C 
ENDBRANCH  12  13
ENDBRANCH  11  12
ENDBRANCH   2  11
BRANCH   3  15
ATOM     15  O   UNL     1      59.784 149.372   7.340  1.00  0.00    -0.508 OA
ATOM     16  H   UNL     1      59.038 149.863   6.861  1.00  0.00     0.293 HD
ENDBRANCH   3  15
TORSDOF 7
ENDMDL
MODEL 9
REMARK VINA RESULT:    -5.324      2.983      6.056
REMARK INTER + INTRA:          -8.311
REMARK INTER:                  -7.201
REMARK INTRA:                  -1.111
REMARK UNBOUND:                -0.964
REMARK SMILES CCCCc1cccc(O)c1CCCC
REMARK SMILES IDX 5 1 11 2 9 3 8 4 7 5 6 6 4 7 3 8 2 9 1 10 12 11 13 12 14 13
REMARK SMILES IDX 15 14 10 15
REMARK H PARENT 10 16
REMARK Flexibility Score: inf
ROOT
ATOM      1  C   UNL     1      63.133 149.806   6.079  1.00  0.00    -0.041 A 
ATOM      2  C   UNL     1      63.135 151.138   5.568  1.00  0.00    -0.003 A 
ATOM      3  C   UNL     1      64.071 151.484   4.562  1.00  0.00     0.119 A 
ATOM      4  C   UNL     1      64.996 150.540   4.101  1.00  0.00     0.046 A 
ATOM      5  C   UNL     1      65.006 149.252   4.623  1.00  0.00     0.004 A 
ATOM      6  C   UNL     1      64.085 148.886   5.601  1.00  0.00     0.004 A 
ENDROOT
BRANCH   1   7
ATOM      7  C   UNL     1      62.131 149.300   7.098  1.00  0.00     0.036 C 
BRANCH   7   8
ATOM      8  C   UNL     1      61.062 148.420   6.426  1.00  0.00     0.004 C 
BRANCH   8   9
ATOM      9  C   UNL     1      59.811 148.239   7.297  1.00  0.00    -0.003 C 
ATOM     10  C   UNL     1      59.784 146.891   8.015  1.00  0.00     0.004 C 
ENDBRANCH   8   9
ENDBRANCH   7   8
ENDBRANCH   1   7
BRANCH   2  11
ATOM     11  C   UNL     1      62.169 152.203   6.067  1.00  0.00     0.040 C 
BRANCH  11  12
ATOM     12  C   UNL     1      60.851 152.241   5.280  1.00  0.00     0.005 C 
BRANCH  12  13
ATOM     13  C   UNL     1      59.640 151.853   6.140  1.00  0.00    -0.003 C 
ATOM     14  C   UNL     1      59.844 152.268   7.594  1.00  0.00     0.004 C 
ENDBRANCH  12  13
ENDBRANCH  11  12
ENDBRANCH   2  11
BRANCH   3  15
ATOM     15  O   UNL     1      64.080 152.768   4.018  1.00  0.00    -0.508 OA
ATOM     16  H   UNL     1      64.258 153.589   4.586  1.00  0.00     0.293 HD
ENDBRANCH   3  15
TORSDOF 7
ENDMDL
