MODEL 1
REMARK VINA RESULT:    -5.936      0.000      0.000
REMARK INTER + INTRA:          -8.564
REMARK INTER:                  -8.018
REMARK INTRA:                  -0.546
REMARK UNBOUND:                -0.546
REMARK SMILES COc1ccc(-c2cc(=O)c3c(OC)c(OC)c(OC)c(OC)c3o2)cc1
REMARK SMILES IDX 7 1 8 2 9 3 10 4 11 5 24 6 25 7 21 8 18 9 15 10 12 11 6 12
REMARK SMILES IDX 3 13 4 14 27 15 5 16 26 17 2 18 1 19 22 20 23 21 13 22 14 23
REMARK SMILES IDX 19 24 20 25 16 26 17 27
REMARK H PARENT
REMARK Flexibility Score: inf
ROOT
ATOM      1  C   UNL     1      -4.134 -34.887 -49.662  1.00  0.00     0.138 A 
ATOM      2  C   UNL     1      -5.465 -35.229 -49.382  1.00  0.00     0.100 A 
ATOM      3  C   UNL     1      -6.408 -34.217 -49.201  1.00  0.00     0.197 A 
ATOM      4  O   UNL     1      -7.601 -34.537 -48.951  1.00  0.00    -0.289 OA
ATOM      5  C   UNL     1      -6.010 -32.866 -49.294  1.00  0.00     0.115 A 
ATOM      6  C   UNL     1      -4.648 -32.602 -49.555  1.00  0.00     0.188 A 
ATOM      7  O   UNL     1      -3.788 -33.604 -49.725  1.00  0.00    -0.452 OA
ATOM      8  C   UNL     1      -4.194 -31.279 -49.665  1.00  0.00     0.209 A 
ATOM      9  C   UNL     1      -5.081 -30.205 -49.527  1.00  0.00     0.211 A 
ATOM     10  C   UNL     1      -6.442 -30.457 -49.229  1.00  0.00     0.208 A 
ATOM     11  C   UNL     1      -6.915 -31.788 -49.166  1.00  0.00     0.179 A 
ENDROOT
BRANCH   1  12
ATOM     12  C   UNL     1      -3.095 -35.925 -49.883  1.00  0.00     0.018 A 
ATOM     13  C   UNL     1      -1.084 -37.860 -50.322  1.00  0.00     0.118 A 
ATOM     14  C   UNL     1      -0.739 -36.542 -49.972  1.00  0.00     0.047 A 
ATOM     15  C   UNL     1      -2.434 -38.197 -50.459  1.00  0.00     0.047 A 
ATOM     16  C   UNL     1      -1.737 -35.586 -49.760  1.00  0.00     0.016 A 
ATOM     17  C   UNL     1      -3.432 -37.242 -50.245  1.00  0.00     0.016 A 
BRANCH  13  18
ATOM     18  O   UNL     1      -0.121 -38.855 -50.546  1.00  0.00    -0.497 OA
ATOM     19  C   UNL     1       1.135 -38.924 -49.879  1.00  0.00     0.278 C 
ENDBRANCH  13  18
ENDBRANCH   1  12
BRANCH   8  20
ATOM     20  O   UNL     1      -2.848 -31.009 -49.931  1.00  0.00    -0.490 OA
ATOM     21  C   UNL     1      -1.920 -30.710 -48.895  1.00  0.00     0.278 C 
ENDBRANCH   8  20
BRANCH  11  22
ATOM     22  O   UNL     1      -8.280 -32.044 -48.996  1.00  0.00    -0.492 OA
ATOM     23  C   UNL     1      -9.225 -31.858 -50.045  1.00  0.00     0.278 C 
ENDBRANCH  11  22
BRANCH   9  24
ATOM     24  O   UNL     1      -4.540 -28.914 -49.677  1.00  0.00    -0.490 OA
ATOM     25  C   UNL     1      -4.312 -28.225 -50.902  1.00  0.00     0.279 C 
ENDBRANCH   9  24
BRANCH  10  26
ATOM     26  O   UNL     1      -7.314 -29.392 -48.981  1.00  0.00    -0.490 OA
ATOM     27  C   UNL     1      -7.510 -28.849 -47.679  1.00  0.00     0.278 C 
ENDBRANCH  10  26
TORSDOF 6
ENDMDL
MODEL 2
REMARK VINA RESULT:    -5.905      2.066      4.136
REMARK INTER + INTRA:          -8.523
REMARK INTER:                  -8.066
REMARK INTRA:                  -0.457
REMARK UNBOUND:                -0.546
REMARK SMILES COc1ccc(-c2cc(=O)c3c(OC)c(OC)c(OC)c(OC)c3o2)cc1
REMARK SMILES IDX 7 1 8 2 9 3 10 4 11 5 24 6 25 7 21 8 18 9 15 10 12 11 6 12
REMARK SMILES IDX 3 13 4 14 27 15 5 16 26 17 2 18 1 19 22 20 23 21 13 22 14 23
REMARK SMILES IDX 19 24 20 25 16 26 17 27
REMARK H PARENT
REMARK Flexibility Score: inf
ROOT
ATOM      1  C   UNL     1      -4.984 -35.742 -49.864  1.00  0.00     0.138 A 
ATOM      2  C   UNL     1      -3.864 -34.922 -50.062  1.00  0.00     0.100 A 
ATOM      3  C   UNL     1      -3.995 -33.540 -49.933  1.00  0.00     0.197 A 
ATOM      4  O   UNL     1      -2.980 -32.815 -50.113  1.00  0.00    -0.289 OA
ATOM      5  C   UNL     1      -5.252 -32.984 -49.612  1.00  0.00     0.115 A 
ATOM      6  C   UNL     1      -6.338 -33.872 -49.451  1.00  0.00     0.188 A 
ATOM      7  O   UNL     1      -6.160 -35.185 -49.580  1.00  0.00    -0.452 OA
ATOM      8  C   UNL     1      -7.610 -33.379 -49.126  1.00  0.00     0.209 A 
ATOM      9  C   UNL     1      -7.821 -32.006 -48.948  1.00  0.00     0.211 A 
ATOM     10  C   UNL     1      -6.748 -31.103 -49.144  1.00  0.00     0.208 A 
ATOM     11  C   UNL     1      -5.453 -31.597 -49.422  1.00  0.00     0.179 A 
ENDROOT
BRANCH   1  12
ATOM     12  C   UNL     1      -4.896 -37.221 -49.970  1.00  0.00     0.018 A 
ATOM     13  C   UNL     1      -4.674 -40.030 -50.166  1.00  0.00     0.118 A 
ATOM     14  C   UNL     1      -3.788 -39.300 -49.353  1.00  0.00     0.047 A 
ATOM     15  C   UNL     1      -5.661 -39.345 -50.882  1.00  0.00     0.047 A 
ATOM     16  C   UNL     1      -3.897 -37.910 -49.262  1.00  0.00     0.016 A 
ATOM     17  C   UNL     1      -5.772 -37.955 -50.791  1.00  0.00     0.016 A 
BRANCH  13  18
ATOM     18  O   UNL     1      -4.606 -41.425 -50.291  1.00  0.00    -0.497 OA
ATOM     19  C   UNL     1      -4.575 -42.121 -51.533  1.00  0.00     0.278 C 
ENDBRANCH  13  18
ENDBRANCH   1  12
BRANCH   8  20
ATOM     20  O   UNL     1      -8.689 -34.252 -48.956  1.00  0.00    -0.490 OA
ATOM     21  C   UNL     1      -9.361 -34.843 -50.062  1.00  0.00     0.278 C 
ENDBRANCH   8  20
BRANCH  11  22
ATOM     22  O   UNL     1      -4.364 -30.722 -49.493  1.00  0.00    -0.492 OA
ATOM     23  C   UNL     1      -4.183 -29.821 -50.580  1.00  0.00     0.278 C 
ENDBRANCH  11  22
BRANCH   9  24
ATOM     24  O   UNL     1      -9.126 -31.606 -48.599  1.00  0.00    -0.490 OA
ATOM     25  C   UNL     1     -10.118 -31.086 -49.476  1.00  0.00     0.279 C 
ENDBRANCH   9  24
BRANCH  10  26
ATOM     26  O   UNL     1      -6.971 -29.725 -49.076  1.00  0.00    -0.490 OA
ATOM     27  C   UNL     1      -7.078 -29.025 -47.839  1.00  0.00     0.278 C 
ENDBRANCH  10  26
TORSDOF 6
ENDMDL
MODEL 3
REMARK VINA RESULT:    -5.887      2.525      8.673
REMARK INTER + INTRA:          -8.498
REMARK INTER:                  -7.919
REMARK INTRA:                  -0.579
REMARK UNBOUND:                -0.546
REMARK SMILES COc1ccc(-c2cc(=O)c3c(OC)c(OC)c(OC)c(OC)c3o2)cc1
REMARK SMILES IDX 7 1 8 2 9 3 10 4 11 5 24 6 25 7 21 8 18 9 15 10 12 11 6 12
REMARK SMILES IDX 3 13 4 14 27 15 5 16 26 17 2 18 1 19 22 20 23 21 13 22 14 23
REMARK SMILES IDX 19 24 20 25 16 26 17 27
REMARK H PARENT
REMARK Flexibility Score: inf
ROOT
ATOM      1  C   UNL     1      -7.555 -31.714 -48.975  1.00  0.00     0.138 A 
ATOM      2  C   UNL     1      -6.226 -31.534 -48.564  1.00  0.00     0.100 A 
ATOM      3  C   UNL     1      -5.294 -32.544 -48.798  1.00  0.00     0.197 A 
ATOM      4  O   UNL     1      -4.104 -32.369 -48.423  1.00  0.00    -0.289 OA
ATOM      5  C   UNL     1      -5.700 -33.735 -49.437  1.00  0.00     0.115 A 
ATOM      6  C   UNL     1      -7.059 -33.852 -49.800  1.00  0.00     0.188 A 
ATOM      7  O   UNL     1      -7.909 -32.856 -49.560  1.00  0.00    -0.452 OA
ATOM      8  C   UNL     1      -7.520 -35.010 -50.444  1.00  0.00     0.209 A 
ATOM      9  C   UNL     1      -6.643 -36.059 -50.743  1.00  0.00     0.211 A 
ATOM     10  C   UNL     1      -5.286 -35.968 -50.350  1.00  0.00     0.208 A 
ATOM     11  C   UNL     1      -4.804 -34.785 -49.747  1.00  0.00     0.179 A 
ENDROOT
BRANCH   1  12
ATOM     12  C   UNL     1      -8.583 -30.662 -48.769  1.00  0.00     0.018 A 
ATOM     13  C   UNL     1     -10.506 -28.636 -48.342  1.00  0.00     0.118 A 
ATOM     14  C   UNL     1      -9.132 -28.329 -48.330  1.00  0.00     0.047 A 
ATOM     15  C   UNL     1     -10.905 -29.958 -48.560  1.00  0.00     0.047 A 
ATOM     16  C   UNL     1      -8.184 -29.335 -48.536  1.00  0.00     0.016 A 
ATOM     17  C   UNL     1      -9.958 -30.965 -48.768  1.00  0.00     0.016 A 
BRANCH  13  18
ATOM     18  O   UNL     1     -11.496 -27.664 -48.140  1.00  0.00    -0.497 OA
ATOM     19  C   UNL     1     -12.782 -27.928 -47.588  1.00  0.00     0.278 C 
ENDBRANCH  13  18
ENDBRANCH   1  12
BRANCH   8  20
ATOM     20  O   UNL     1      -8.863 -35.130 -50.815  1.00  0.00    -0.490 OA
ATOM     21  C   UNL     1      -9.810 -35.816 -50.004  1.00  0.00     0.278 C 
ENDBRANCH   8  20
BRANCH  11  22
ATOM     22  O   UNL     1      -3.441 -34.637 -49.469  1.00  0.00    -0.492 OA
ATOM     23  C   UNL     1      -2.479 -34.396 -50.491  1.00  0.00     0.278 C 
ENDBRANCH  11  22
BRANCH   9  24
ATOM     24  O   UNL     1      -7.191 -37.170 -51.413  1.00  0.00    -0.490 OA
ATOM     25  C   UNL     1      -7.334 -37.329 -52.820  1.00  0.00     0.279 C 
ENDBRANCH   9  24
BRANCH  10  26
ATOM     26  O   UNL     1      -4.426 -37.054 -50.546  1.00  0.00    -0.490 OA
ATOM     27  C   UNL     1      -4.246 -38.075 -49.570  1.00  0.00     0.278 C 
ENDBRANCH  10  26
TORSDOF 6
ENDMDL
MODEL 4
REMARK VINA RESULT:    -5.858      1.387      3.700
REMARK INTER + INTRA:          -8.459
REMARK INTER:                  -7.941
REMARK INTRA:                  -0.518
REMARK UNBOUND:                -0.546
REMARK SMILES COc1ccc(-c2cc(=O)c3c(OC)c(OC)c(OC)c(OC)c3o2)cc1
REMARK SMILES IDX 7 1 8 2 9 3 10 4 11 5 24 6 25 7 21 8 18 9 15 10 12 11 6 12
REMARK SMILES IDX 3 13 4 14 27 15 5 16 26 17 2 18 1 19 22 20 23 21 13 22 14 23
REMARK SMILES IDX 19 24 20 25 16 26 17 27
REMARK H PARENT
REMARK Flexibility Score: inf
ROOT
ATOM      1  C   UNL     1      -4.097 -34.861 -49.767  1.00  0.00     0.138 A 
ATOM      2  C   UNL     1      -3.161 -33.839 -49.980  1.00  0.00     0.100 A 
ATOM      3  C   UNL     1      -3.564 -32.508 -49.874  1.00  0.00     0.197 A 
ATOM      4  O   UNL     1      -2.712 -31.600 -50.067  1.00  0.00    -0.289 OA
ATOM      5  C   UNL     1      -4.907 -32.208 -49.562  1.00  0.00     0.115 A 
ATOM      6  C   UNL     1      -5.796 -33.291 -49.385  1.00  0.00     0.188 A 
ATOM      7  O   UNL     1      -5.360 -34.544 -49.492  1.00  0.00    -0.452 OA
ATOM      8  C   UNL     1      -7.141 -33.054 -49.067  1.00  0.00     0.209 A 
ATOM      9  C   UNL     1      -7.621 -31.748 -48.913  1.00  0.00     0.211 A 
ATOM     10  C   UNL     1      -6.747 -30.654 -49.124  1.00  0.00     0.208 A 
ATOM     11  C   UNL     1      -5.380 -30.886 -49.395  1.00  0.00     0.179 A 
ENDROOT
BRANCH   1  12
ATOM     12  C   UNL     1      -3.716 -36.295 -49.848  1.00  0.00     0.018 A 
ATOM     13  C   UNL     1      -3.014 -39.029 -49.952  1.00  0.00     0.118 A 
ATOM     14  C   UNL     1      -4.176 -38.617 -49.273  1.00  0.00     0.047 A 
ATOM     15  C   UNL     1      -2.208 -38.066 -50.567  1.00  0.00     0.047 A 
ATOM     16  C   UNL     1      -4.517 -37.263 -49.219  1.00  0.00     0.016 A 
ATOM     17  C   UNL     1      -2.550 -36.712 -50.515  1.00  0.00     0.016 A 
BRANCH  13  18
ATOM     18  O   UNL     1      -2.628 -40.375 -50.035  1.00  0.00    -0.497 OA
ATOM     19  C   UNL     1      -2.253 -41.174 -48.918  1.00  0.00     0.278 C 
ENDBRANCH  13  18
ENDBRANCH   1  12
BRANCH   8  20
ATOM     20  O   UNL     1      -8.026 -34.121 -48.883  1.00  0.00    -0.490 OA
ATOM     21  C   UNL     1      -8.716 -34.726 -49.970  1.00  0.00     0.278 C 
ENDBRANCH   8  20
BRANCH  11  22
ATOM     22  O   UNL     1      -4.485 -29.813 -49.482  1.00  0.00    -0.492 OA
ATOM     23  C   UNL     1      -4.494 -28.903 -50.577  1.00  0.00     0.278 C 
ENDBRANCH  11  22
BRANCH   9  24
ATOM     24  O   UNL     1      -8.980 -31.609 -48.570  1.00  0.00    -0.490 OA
ATOM     25  C   UNL     1     -10.040 -31.222 -49.437  1.00  0.00     0.279 C 
ENDBRANCH   9  24
BRANCH  10  26
ATOM     26  O   UNL     1      -7.240 -29.346 -49.080  1.00  0.00    -0.490 OA
ATOM     27  C   UNL     1      -7.356 -28.611 -47.865  1.00  0.00     0.278 C 
ENDBRANCH  10  26
TORSDOF 6
ENDMDL
MODEL 5
REMARK VINA RESULT:    -5.836      2.263      7.893
REMARK INTER + INTRA:          -8.429
REMARK INTER:                  -7.906
REMARK INTRA:                  -0.523
REMARK UNBOUND:                -0.546
REMARK SMILES COc1ccc(-c2cc(=O)c3c(OC)c(OC)c(OC)c(OC)c3o2)cc1
REMARK SMILES IDX 7 1 8 2 9 3 10 4 11 5 24 6 25 7 21 8 18 9 15 10 12 11 6 12
REMARK SMILES IDX 3 13 4 14 27 15 5 16 26 17 2 18 1 19 22 20 23 21 13 22 14 23
REMARK SMILES IDX 19 24 20 25 16 26 17 27
REMARK H PARENT
REMARK Flexibility Score: inf
ROOT
ATOM      1  C   UNL     1      -7.618 -31.714 -49.077  1.00  0.00     0.138 A 
ATOM      2  C   UNL     1      -8.547 -32.562 -49.696  1.00  0.00     0.100 A 
ATOM      3  C   UNL     1      -8.142 -33.825 -50.126  1.00  0.00     0.197 A 
ATOM      4  O   UNL     1      -8.987 -34.578 -50.680  1.00  0.00    -0.289 OA
ATOM      5  C   UNL     1      -6.803 -34.230 -49.939  1.00  0.00     0.115 A 
ATOM      6  C   UNL     1      -5.920 -33.311 -49.330  1.00  0.00     0.188 A 
ATOM      7  O   UNL     1      -6.358 -32.119 -48.932  1.00  0.00    -0.452 OA
ATOM      8  C   UNL     1      -4.579 -33.660 -49.112  1.00  0.00     0.209 A 
ATOM      9  C   UNL     1      -4.098 -34.921 -49.486  1.00  0.00     0.211 A 
ATOM     10  C   UNL     1      -4.964 -35.835 -50.132  1.00  0.00     0.208 A 
ATOM     11  C   UNL     1      -6.328 -35.510 -50.309  1.00  0.00     0.179 A 
ENDROOT
BRANCH   1  12
ATOM     12  C   UNL     1      -8.002 -30.366 -48.584  1.00  0.00     0.018 A 
ATOM     13  C   UNL     1      -8.758 -27.795 -47.690  1.00  0.00     0.118 A 
ATOM     14  C   UNL     1      -9.619 -28.546 -48.513  1.00  0.00     0.047 A 
ATOM     15  C   UNL     1      -7.521 -28.336 -47.328  1.00  0.00     0.047 A 
ATOM     16  C   UNL     1      -9.239 -29.815 -48.957  1.00  0.00     0.016 A 
ATOM     17  C   UNL     1      -7.141 -29.606 -47.770  1.00  0.00     0.016 A 
BRANCH  13  18
ATOM     18  O   UNL     1      -9.093 -26.517 -47.219  1.00  0.00    -0.497 OA
ATOM     19  C   UNL     1      -9.655 -26.255 -45.937  1.00  0.00     0.278 C 
ENDBRANCH  13  18
ENDBRANCH   1  12
BRANCH   8  20
ATOM     20  O   UNL     1      -3.701 -32.759 -48.502  1.00  0.00    -0.490 OA
ATOM     21  C   UNL     1      -2.994 -31.773 -49.246  1.00  0.00     0.278 C 
ENDBRANCH   8  20
BRANCH  11  22
ATOM     22  O   UNL     1      -7.218 -36.455 -50.832  1.00  0.00    -0.492 OA
ATOM     23  C   UNL     1      -7.204 -36.834 -52.204  1.00  0.00     0.278 C 
ENDBRANCH  11  22
BRANCH   9  24
ATOM     24  O   UNL     1      -2.744 -35.189 -49.206  1.00  0.00    -0.490 OA
ATOM     25  C   UNL     1      -1.671 -35.212 -50.140  1.00  0.00     0.279 C 
ENDBRANCH   9  24
BRANCH  10  26
ATOM     26  O   UNL     1      -4.468 -37.053 -50.607  1.00  0.00    -0.490 OA
ATOM     27  C   UNL     1      -4.384 -38.217 -49.791  1.00  0.00     0.278 C 
ENDBRANCH  10  26
TORSDOF 6
ENDMDL
MODEL 6
REMARK VINA RESULT:    -5.827      2.573      8.200
REMARK INTER + INTRA:          -8.417
REMARK INTER:                  -7.770
REMARK INTRA:                  -0.647
REMARK UNBOUND:                -0.546
REMARK SMILES COc1ccc(-c2cc(=O)c3c(OC)c(OC)c(OC)c(OC)c3o2)cc1
REMARK SMILES IDX 7 1 8 2 9 3 10 4 11 5 24 6 25 7 21 8 18 9 15 10 12 11 6 12
REMARK SMILES IDX 3 13 4 14 27 15 5 16 26 17 2 18 1 19 22 20 23 21 13 22 14 23
REMARK SMILES IDX 19 24 20 25 16 26 17 27
REMARK H PARENT
REMARK Flexibility Score: inf
ROOT
ATOM      1  C   UNL     1      -7.984 -30.152 -48.876  1.00  0.00     0.138 A 
ATOM      2  C   UNL     1      -9.157 -30.708 -49.404  1.00  0.00     0.100 A 
ATOM      3  C   UNL     1      -9.132 -32.007 -49.911  1.00  0.00     0.197 A 
ATOM      4  O   UNL     1     -10.194 -32.495 -50.383  1.00  0.00    -0.289 OA
ATOM      5  C   UNL     1      -7.927 -32.741 -49.892  1.00  0.00     0.115 A 
ATOM      6  C   UNL     1      -6.781 -32.105 -49.365  1.00  0.00     0.188 A 
ATOM      7  O   UNL     1      -6.859 -30.865 -48.889  1.00  0.00    -0.452 OA
ATOM      8  C   UNL     1      -5.557 -32.787 -49.315  1.00  0.00     0.209 A 
ATOM      9  C   UNL     1      -5.452 -34.105 -49.776  1.00  0.00     0.211 A 
ATOM     10  C   UNL     1      -6.585 -34.739 -50.340  1.00  0.00     0.208 A 
ATOM     11  C   UNL     1      -7.833 -34.077 -50.348  1.00  0.00     0.179 A 
ENDROOT
BRANCH   1  12
ATOM     12  C   UNL     1      -7.960 -28.781 -48.305  1.00  0.00     0.018 A 
ATOM     13  C   UNL     1      -7.957 -26.160 -47.251  1.00  0.00     0.118 A 
ATOM     14  C   UNL     1      -9.167 -26.781 -47.613  1.00  0.00     0.047 A 
ATOM     15  C   UNL     1      -6.757 -26.854 -47.428  1.00  0.00     0.047 A 
ATOM     16  C   UNL     1      -9.164 -28.076 -48.139  1.00  0.00     0.016 A 
ATOM     17  C   UNL     1      -6.753 -28.150 -47.952  1.00  0.00     0.016 A 
BRANCH  13  18
ATOM     18  O   UNL     1      -7.907 -24.863 -46.720  1.00  0.00    -0.497 OA
ATOM     19  C   UNL     1      -7.257 -23.762 -47.346  1.00  0.00     0.278 C 
ENDBRANCH  13  18
ENDBRANCH   1  12
BRANCH   8  20
ATOM     20  O   UNL     1      -4.420 -32.167 -48.787  1.00  0.00    -0.490 OA
ATOM     21  C   UNL     1      -3.533 -31.403 -49.597  1.00  0.00     0.278 C 
ENDBRANCH   8  20
BRANCH  11  22
ATOM     22  O   UNL     1      -8.983 -34.741 -50.788  1.00  0.00    -0.492 OA
ATOM     23  C   UNL     1      -9.639 -35.729 -50.000  1.00  0.00     0.278 C 
ENDBRANCH  11  22
BRANCH   9  24
ATOM     24  O   UNL     1      -4.188 -34.716 -49.662  1.00  0.00    -0.490 OA
ATOM     25  C   UNL     1      -3.774 -35.629 -48.652  1.00  0.00     0.279 C 
ENDBRANCH   9  24
BRANCH  10  26
ATOM     26  O   UNL     1      -6.465 -36.014 -50.901  1.00  0.00    -0.490 OA
ATOM     27  C   UNL     1      -6.071 -36.222 -52.254  1.00  0.00     0.278 C 
ENDBRANCH  10  26
TORSDOF 6
ENDMDL
MODEL 7
REMARK VINA RESULT:    -5.780      4.564      6.666
REMARK INTER + INTRA:          -8.353
REMARK INTER:                  -7.778
REMARK INTRA:                  -0.576
REMARK UNBOUND:                -0.546
REMARK SMILES COc1ccc(-c2cc(=O)c3c(OC)c(OC)c(OC)c(OC)c3o2)cc1
REMARK SMILES IDX 7 1 8 2 9 3 10 4 11 5 24 6 25 7 21 8 18 9 15 10 12 11 6 12
REMARK SMILES IDX 3 13 4 14 27 15 5 16 26 17 2 18 1 19 22 20 23 21 13 22 14 23
REMARK SMILES IDX 19 24 20 25 16 26 17 27
REMARK H PARENT
REMARK Flexibility Score: inf
ROOT
ATOM      1  C   UNL     1      -7.919 -36.124 -52.235  1.00  0.00     0.138 A 
ATOM      2  C   UNL     1      -8.607 -35.580 -51.141  1.00  0.00     0.100 A 
ATOM      3  C   UNL     1      -7.894 -34.910 -50.148  1.00  0.00     0.197 A 
ATOM      4  O   UNL     1      -8.526 -34.425 -49.170  1.00  0.00    -0.289 OA
ATOM      5  C   UNL     1      -6.492 -34.793 -50.252  1.00  0.00     0.115 A 
ATOM      6  C   UNL     1      -5.868 -35.387 -51.371  1.00  0.00     0.188 A 
ATOM      7  O   UNL     1      -6.594 -36.012 -52.295  1.00  0.00    -0.452 OA
ATOM      8  C   UNL     1      -4.477 -35.298 -51.532  1.00  0.00     0.209 A 
ATOM      9  C   UNL     1      -3.690 -34.616 -50.596  1.00  0.00     0.211 A 
ATOM     10  C   UNL     1      -4.301 -34.048 -49.452  1.00  0.00     0.208 A 
ATOM     11  C   UNL     1      -5.707 -34.091 -49.309  1.00  0.00     0.179 A 
ENDROOT
BRANCH   1  12
ATOM     12  C   UNL     1      -8.631 -36.831 -53.330  1.00  0.00     0.018 A 
ATOM     13  C   UNL     1      -9.968 -38.139 -55.448  1.00  0.00     0.118 A 
ATOM     14  C   UNL     1      -8.744 -37.483 -55.675  1.00  0.00     0.047 A 
ATOM     15  C   UNL     1     -10.517 -38.128 -54.162  1.00  0.00     0.047 A 
ATOM     16  C   UNL     1      -8.088 -36.832 -54.626  1.00  0.00     0.016 A 
ATOM     17  C   UNL     1      -9.861 -37.479 -53.112  1.00  0.00     0.016 A 
BRANCH  13  18
ATOM     18  O   UNL     1     -10.665 -38.805 -56.466  1.00  0.00    -0.497 OA
ATOM     19  C   UNL     1     -10.461 -38.583 -57.858  1.00  0.00     0.278 C 
ENDBRANCH  13  18
ENDBRANCH   1  12
BRANCH   8  20
ATOM     20  O   UNL     1      -3.852 -35.876 -52.641  1.00  0.00    -0.490 OA
ATOM     21  C   UNL     1      -3.510 -37.257 -52.680  1.00  0.00     0.278 C 
ENDBRANCH   8  20
BRANCH  11  22
ATOM     22  O   UNL     1      -6.329 -33.425 -48.247  1.00  0.00    -0.492 OA
ATOM     23  C   UNL     1      -6.581 -32.024 -48.271  1.00  0.00     0.278 C 
ENDBRANCH  11  22
BRANCH   9  24
ATOM     24  O   UNL     1      -2.307 -34.558 -50.855  1.00  0.00    -0.490 OA
ATOM     25  C   UNL     1      -1.300 -35.381 -50.277  1.00  0.00     0.279 C 
ENDBRANCH   9  24
BRANCH  10  26
ATOM     26  O   UNL     1      -3.514 -33.460 -48.457  1.00  0.00    -0.490 OA
ATOM     27  C   UNL     1      -2.974 -32.148 -48.583  1.00  0.00     0.278 C 
ENDBRANCH  10  26
TORSDOF 6
ENDMDL
MODEL 8
REMARK VINA RESULT:    -5.752      2.289      7.794
REMARK INTER + INTRA:          -8.316
REMARK INTER:                  -7.868
REMARK INTRA:                  -0.448
REMARK UNBOUND:                -0.546
REMARK SMILES COc1ccc(-c2cc(=O)c3c(OC)c(OC)c(OC)c(OC)c3o2)cc1
REMARK SMILES IDX 7 1 8 2 9 3 10 4 11 5 24 6 25 7 21 8 18 9 15 10 12 11 6 12
REMARK SMILES IDX 3 13 4 14 27 15 5 16 26 17 2 18 1 19 22 20 23 21 13 22 14 23
REMARK SMILES IDX 19 24 20 25 16 26 17 27
REMARK H PARENT
REMARK Flexibility Score: inf
ROOT
ATOM      1  C   UNL     1      -7.561 -33.705 -50.219  1.00  0.00     0.138 A 
ATOM      2  C   UNL     1      -8.190 -34.899 -50.600  1.00  0.00     0.100 A 
ATOM      3  C   UNL     1      -7.412 -35.991 -50.983  1.00  0.00     0.197 A 
ATOM      4  O   UNL     1      -7.990 -37.059 -51.322  1.00  0.00    -0.289 OA
ATOM      5  C   UNL     1      -6.006 -35.878 -50.991  1.00  0.00     0.115 A 
ATOM      6  C   UNL     1      -5.447 -34.636 -50.618  1.00  0.00     0.188 A 
ATOM      7  O   UNL     1      -6.233 -33.626 -50.255  1.00  0.00    -0.452 OA
ATOM      8  C   UNL     1      -4.055 -34.466 -50.600  1.00  0.00     0.209 A 
ATOM      9  C   UNL     1      -3.200 -35.522 -50.943  1.00  0.00     0.211 A 
ATOM     10  C   UNL     1      -3.750 -36.760 -51.354  1.00  0.00     0.208 A 
ATOM     11  C   UNL     1      -5.150 -36.954 -51.325  1.00  0.00     0.179 A 
ENDROOT
BRANCH   1  12
ATOM     12  C   UNL     1      -8.342 -32.519 -49.783  1.00  0.00     0.018 A 
ATOM     13  C   UNL     1      -9.800 -30.263 -48.906  1.00  0.00     0.118 A 
ATOM     14  C   UNL     1      -8.474 -30.465 -48.480  1.00  0.00     0.047 A 
ATOM     15  C   UNL     1     -10.388 -31.199 -49.763  1.00  0.00     0.047 A 
ATOM     16  C   UNL     1      -7.757 -31.585 -48.912  1.00  0.00     0.016 A 
ATOM     17  C   UNL     1      -9.672 -32.318 -50.197  1.00  0.00     0.016 A 
BRANCH  13  18
ATOM     18  O   UNL     1     -10.561 -29.157 -48.502  1.00  0.00    -0.497 OA
ATOM     19  C   UNL     1     -10.027 -27.859 -48.259  1.00  0.00     0.278 C 
ENDBRANCH  13  18
ENDBRANCH   1  12
BRANCH   8  20
ATOM     20  O   UNL     1      -3.493 -33.242 -50.224  1.00  0.00    -0.490 OA
ATOM     21  C   UNL     1      -3.343 -32.167 -51.144  1.00  0.00     0.278 C 
ENDBRANCH   8  20
BRANCH  11  22
ATOM     22  O   UNL     1      -5.695 -38.211 -51.610  1.00  0.00    -0.492 OA
ATOM     23  C   UNL     1      -5.652 -39.286 -50.678  1.00  0.00     0.278 C 
ENDBRANCH  11  22
BRANCH   9  24
ATOM     24  O   UNL     1      -1.818 -35.265 -50.872  1.00  0.00    -0.490 OA
ATOM     25  C   UNL     1      -0.937 -35.636 -49.818  1.00  0.00     0.279 C 
ENDBRANCH   9  24
BRANCH  10  26
ATOM     26  O   UNL     1      -2.911 -37.785 -51.801  1.00  0.00    -0.490 OA
ATOM     27  C   UNL     1      -2.267 -38.692 -50.911  1.00  0.00     0.278 C 
ENDBRANCH  10  26
TORSDOF 6
ENDMDL
MODEL 9
REMARK VINA RESULT:    -5.689      3.001      7.121
REMARK INTER + INTRA:          -8.231
REMARK INTER:                  -7.685
REMARK INTRA:                  -0.546
REMARK UNBOUND:                -0.546
REMARK SMILES COc1ccc(-c2cc(=O)c3c(OC)c(OC)c(OC)c(OC)c3o2)cc1
REMARK SMILES IDX 7 1 8 2 9 3 10 4 11 5 24 6 25 7 21 8 18 9 15 10 12 11 6 12
REMARK SMILES IDX 3 13 4 14 27 15 5 16 26 17 2 18 1 19 22 20 23 21 13 22 14 23
REMARK SMILES IDX 19 24 20 25 16 26 17 27
REMARK H PARENT
REMARK Flexibility Score: inf
ROOT
ATOM      1  C   UNL     1      -3.924 -29.838 -50.895  1.00  0.00     0.138 A 
ATOM      2  C   UNL     1      -3.224 -30.859 -50.236  1.00  0.00     0.100 A 
ATOM      3  C   UNL     1      -3.934 -31.891 -49.624  1.00  0.00     0.197 A 
ATOM      4  O   UNL     1      -3.292 -32.803 -49.036  1.00  0.00    -0.289 OA
ATOM      5  C   UNL     1      -5.344 -31.893 -49.671  1.00  0.00     0.115 A 
ATOM      6  C   UNL     1      -5.978 -30.819 -50.333  1.00  0.00     0.188 A 
ATOM      7  O   UNL     1      -5.255 -29.859 -50.905  1.00  0.00    -0.452 OA
ATOM      8  C   UNL     1      -7.377 -30.769 -50.417  1.00  0.00     0.209 A 
ATOM      9  C   UNL     1      -8.164 -31.782 -49.855  1.00  0.00     0.211 A 
ATOM     10  C   UNL     1      -7.541 -32.845 -49.157  1.00  0.00     0.208 A 
ATOM     11  C   UNL     1      -6.131 -32.927 -49.112  1.00  0.00     0.179 A 
ENDROOT
BRANCH   1  12
ATOM     12  C   UNL     1      -3.217 -28.725 -51.579  1.00  0.00     0.018 A 
ATOM     13  C   UNL     1      -1.861 -26.587 -52.833  1.00  0.00     0.118 A 
ATOM     14  C   UNL     1      -1.438 -27.061 -51.577  1.00  0.00     0.047 A 
ATOM     15  C   UNL     1      -2.967 -27.182 -53.447  1.00  0.00     0.047 A 
ATOM     16  C   UNL     1      -2.114 -28.116 -50.958  1.00  0.00     0.016 A 
ATOM     17  C   UNL     1      -3.643 -28.239 -52.829  1.00  0.00     0.016 A 
BRANCH  13  18
ATOM     18  O   UNL     1      -1.217 -25.532 -53.495  1.00  0.00    -0.497 OA
ATOM     19  C   UNL     1      -1.533 -25.098 -54.814  1.00  0.00     0.278 C 
ENDBRANCH  13  18
ENDBRANCH   1  12
BRANCH   8  20
ATOM     20  O   UNL     1      -8.013 -29.713 -51.078  1.00  0.00    -0.490 OA
ATOM     21  C   UNL     1      -8.233 -28.455 -50.451  1.00  0.00     0.278 C 
ENDBRANCH   8  20
BRANCH  11  22
ATOM     22  O   UNL     1      -5.506 -34.037 -48.533  1.00  0.00    -0.492 OA
ATOM     23  C   UNL     1      -5.346 -35.268 -49.230  1.00  0.00     0.278 C 
ENDBRANCH  11  22
BRANCH   9  24
ATOM     24  O   UNL     1      -9.559 -31.660 -50.011  1.00  0.00    -0.490 OA
ATOM     25  C   UNL     1     -10.468 -31.076 -49.086  1.00  0.00     0.279 C 
ENDBRANCH   9  24
BRANCH  10  26
ATOM     26  O   UNL     1      -8.319 -33.803 -48.501  1.00  0.00    -0.490 OA
ATOM     27  C   UNL     1      -8.915 -34.903 -49.181  1.00  0.00     0.278 C 
ENDBRANCH  10  26
TORSDOF 6
ENDMDL
