MODEL 1
REMARK VINA RESULT:    -3.832      0.000      0.000
REMARK INTER + INTRA:          -6.070
REMARK INTER:                  -5.625
REMARK INTRA:                  -0.446
REMARK UNBOUND:                -0.446
REMARK SMILES O=C([O-])CCCCCCCC(=O)[O-]
REMARK SMILES IDX 7 1 6 2 5 3 4 4 2 5 1 6 3 7 8 8 9 9 10 10 11 11 12 12 13 13
REMARK H PARENT
REMARK Flexibility Score: inf
ROOT
ATOM      1  C   UNL     1     -17.329  43.865  -6.890  1.00  0.00     0.000 C 
ENDROOT
BRANCH   1   2
ATOM      2  C   UNL     1     -16.925  44.716  -8.105  1.00  0.00     0.000 C 
BRANCH   2   3
ATOM      3  C   UNL     1     -18.128  45.102  -8.983  1.00  0.00     0.006 C 
BRANCH   3   4
ATOM      4  C   UNL     1     -19.340  44.195  -8.735  1.00  0.00     0.053 C 
BRANCH   4   5
ATOM      5  C   UNL     1     -19.510  43.184  -9.827  1.00  0.00     0.041 C 
ATOM      6  O   UNL     1     -20.339  43.386 -10.753  1.00  0.00    -0.550 OA
ATOM      7  O   UNL     1     -18.726  42.038  -9.843  1.00  0.00    -0.550 OA
ENDBRANCH   4   5
ENDBRANCH   3   4
ENDBRANCH   2   3
ENDBRANCH   1   2
BRANCH   1   8
ATOM      8  C   UNL     1     -16.128  43.489  -6.007  1.00  0.00     0.000 C 
BRANCH   8   9
ATOM      9  C   UNL     1     -16.546  43.024  -4.601  1.00  0.00     0.006 C 
BRANCH   9  10
ATOM     10  C   UNL     1     -17.897  42.293  -4.554  1.00  0.00     0.053 C 
BRANCH  10  11
ATOM     11  C   UNL     1     -18.866  42.964  -3.629  1.00  0.00     0.041 C 
ATOM     12  O   UNL     1     -19.125  44.189  -3.764  1.00  0.00    -0.550 OA
ATOM     13  O   UNL     1     -19.455  42.245  -2.598  1.00  0.00    -0.550 OA
ENDBRANCH  10  11
ENDBRANCH   9  10
ENDBRANCH   8   9
ENDBRANCH   1   8
TORSDOF 8
ENDMDL
MODEL 2
REMARK VINA RESULT:    -3.779      0.309      5.588
REMARK INTER + INTRA:          -5.992
REMARK INTER:                  -5.582
REMARK INTRA:                  -0.410
REMARK UNBOUND:                -0.446
REMARK SMILES O=C([O-])CCCCCCCC(=O)[O-]
REMARK SMILES IDX 7 1 6 2 5 3 4 4 2 5 1 6 3 7 8 8 9 9 10 10 11 11 12 12 13 13
REMARK H PARENT
REMARK Flexibility Score: inf
ROOT
ATOM      1  C   UNL     1     -17.346  43.749  -6.861  1.00  0.00     0.000 C 
ENDROOT
BRANCH   1   2
ATOM      2  C   UNL     1     -16.114  43.580  -5.958  1.00  0.00     0.000 C 
BRANCH   2   3
ATOM      3  C   UNL     1     -16.485  43.157  -4.526  1.00  0.00     0.006 C 
BRANCH   3   4
ATOM      4  C   UNL     1     -17.746  42.284  -4.489  1.00  0.00     0.053 C 
BRANCH   4   5
ATOM      5  C   UNL     1     -18.801  42.867  -3.599  1.00  0.00     0.041 C 
ATOM      6  O   UNL     1     -18.747  44.079  -3.265  1.00  0.00    -0.550 OA
ATOM      7  O   UNL     1     -19.862  42.081  -3.170  1.00  0.00    -0.550 OA
ENDBRANCH   4   5
ENDBRANCH   3   4
ENDBRANCH   2   3
ENDBRANCH   1   2
BRANCH   1   8
ATOM      8  C   UNL     1     -17.017  44.474  -8.178  1.00  0.00     0.000 C 
BRANCH   8   9
ATOM      9  C   UNL     1     -18.269  45.025  -8.883  1.00  0.00     0.006 C 
BRANCH   9  10
ATOM     10  C   UNL     1     -19.489  44.092  -8.820  1.00  0.00     0.053 C 
BRANCH  10  11
ATOM     11  C   UNL     1     -19.517  43.128  -9.967  1.00  0.00     0.041 C 
ATOM     12  O   UNL     1     -20.291  43.324 -10.940  1.00  0.00    -0.550 OA
ATOM     13  O   UNL     1     -18.713  41.996  -9.942  1.00  0.00    -0.550 OA
ENDBRANCH  10  11
ENDBRANCH   9  10
ENDBRANCH   8   9
ENDBRANCH   1   8
TORSDOF 8
ENDMDL
MODEL 3
REMARK VINA RESULT:    -3.721      1.176      1.494
REMARK INTER + INTRA:          -5.908
REMARK INTER:                  -5.542
REMARK INTRA:                  -0.365
REMARK UNBOUND:                -0.446
REMARK SMILES O=C([O-])CCCCCCCC(=O)[O-]
REMARK SMILES IDX 7 1 6 2 5 3 4 4 2 5 1 6 3 7 8 8 9 9 10 10 11 11 12 12 13 13
REMARK H PARENT
REMARK Flexibility Score: inf
ROOT
ATOM      1  C   UNL     1     -15.807  44.187  -7.179  1.00  0.00     0.000 C 
ENDROOT
BRANCH   1   2
ATOM      2  C   UNL     1     -16.998  44.197  -8.150  1.00  0.00     0.000 C 
BRANCH   2   3
ATOM      3  C   UNL     1     -16.564  44.042  -9.618  1.00  0.00     0.006 C 
BRANCH   3   4
ATOM      4  C   UNL     1     -17.595  43.267 -10.448  1.00  0.00     0.053 C 
BRANCH   4   5
ATOM      5  C   UNL     1     -18.974  43.830 -10.290  1.00  0.00     0.041 C 
ATOM      6  O   UNL     1     -19.875  43.150  -9.732  1.00  0.00    -0.550 OA
ATOM      7  O   UNL     1     -19.254  45.119 -10.724  1.00  0.00    -0.550 OA
ENDBRANCH   4   5
ENDBRANCH   3   4
ENDBRANCH   2   3
ENDBRANCH   1   2
BRANCH   1   8
ATOM      8  C   UNL     1     -16.109  43.416  -5.883  1.00  0.00     0.000 C 
BRANCH   8   9
ATOM      9  C   UNL     1     -17.614  43.173  -5.672  1.00  0.00     0.006 C 
BRANCH   9  10
ATOM     10  C   UNL     1     -17.943  42.244  -4.493  1.00  0.00     0.053 C 
BRANCH  10  11
ATOM     11  C   UNL     1     -18.771  42.932  -3.451  1.00  0.00     0.041 C 
ATOM     12  O   UNL     1     -18.785  44.189  -3.382  1.00  0.00    -0.550 OA
ATOM     13  O   UNL     1     -19.500  42.184  -2.536  1.00  0.00    -0.550 OA
ENDBRANCH  10  11
ENDBRANCH   9  10
ENDBRANCH   8   9
ENDBRANCH   1   8
TORSDOF 8
ENDMDL
MODEL 4
REMARK VINA RESULT:    -3.499      1.600      5.938
REMARK INTER + INTRA:          -5.582
REMARK INTER:                  -5.020
REMARK INTRA:                  -0.561
REMARK UNBOUND:                -0.446
REMARK SMILES O=C([O-])CCCCCCCC(=O)[O-]
REMARK SMILES IDX 7 1 6 2 5 3 4 4 2 5 1 6 3 7 8 8 9 9 10 10 11 11 12 12 13 13
REMARK H PARENT
REMARK Flexibility Score: inf
ROOT
ATOM      1  C   UNL     1     -18.807  44.506  -7.013  1.00  0.00     0.000 C 
ENDROOT
BRANCH   1   2
ATOM      2  C   UNL     1     -17.697  43.453  -6.882  1.00  0.00     0.000 C 
BRANCH   2   3
ATOM      3  C   UNL     1     -17.126  43.370  -5.455  1.00  0.00     0.006 C 
BRANCH   3   4
ATOM      4  C   UNL     1     -17.833  42.303  -4.610  1.00  0.00     0.053 C 
BRANCH   4   5
ATOM      5  C   UNL     1     -18.721  42.915  -3.570  1.00  0.00     0.041 C 
ATOM      6  O   UNL     1     -18.747  44.164  -3.417  1.00  0.00    -0.550 OA
ATOM      7  O   UNL     1     -19.545  42.109  -2.797  1.00  0.00    -0.550 OA
ENDBRANCH   4   5
ENDBRANCH   3   4
ENDBRANCH   2   3
ENDBRANCH   1   2
BRANCH   1   8
ATOM      8  C   UNL     1     -19.510  44.456  -8.380  1.00  0.00     0.000 C 
BRANCH   8   9
ATOM      9  C   UNL     1     -19.135  43.206  -9.196  1.00  0.00     0.006 C 
BRANCH   9  10
ATOM     10  C   UNL     1     -18.646  43.508 -10.622  1.00  0.00     0.053 C 
BRANCH  10  11
ATOM     11  C   UNL     1     -17.382  44.312 -10.622  1.00  0.00     0.041 C 
ATOM     12  O   UNL     1     -17.366  45.467 -11.125  1.00  0.00    -0.550 OA
ATOM     13  O   UNL     1     -16.215  43.772 -10.099  1.00  0.00    -0.550 OA
ENDBRANCH  10  11
ENDBRANCH   9  10
ENDBRANCH   8   9
ENDBRANCH   1   8
TORSDOF 8
ENDMDL
MODEL 5
REMARK VINA RESULT:    -3.490      1.671      2.437
REMARK INTER + INTRA:          -5.568
REMARK INTER:                  -5.020
REMARK INTRA:                  -0.548
REMARK UNBOUND:                -0.446
REMARK SMILES O=C([O-])CCCCCCCC(=O)[O-]
REMARK SMILES IDX 7 1 6 2 5 3 4 4 2 5 1 6 3 7 8 8 9 9 10 10 11 11 12 12 13 13
REMARK H PARENT
REMARK Flexibility Score: inf
ROOT
ATOM      1  C   UNL     1     -18.893  44.505  -7.140  1.00  0.00     0.000 C 
ENDROOT
BRANCH   1   2
ATOM      2  C   UNL     1     -19.615  44.405  -8.493  1.00  0.00     0.000 C 
BRANCH   2   3
ATOM      3  C   UNL     1     -19.114  43.225  -9.344  1.00  0.00     0.006 C 
BRANCH   3   4
ATOM      4  C   UNL     1     -18.544  43.685 -10.691  1.00  0.00     0.053 C 
BRANCH   4   5
ATOM      5  C   UNL     1     -17.240  44.403 -10.528  1.00  0.00     0.041 C 
ATOM      6  O   UNL     1     -16.187  43.756 -10.287  1.00  0.00    -0.550 OA
ATOM      7  O   UNL     1     -17.181  45.782 -10.677  1.00  0.00    -0.550 OA
ENDBRANCH   4   5
ENDBRANCH   3   4
ENDBRANCH   2   3
ENDBRANCH   1   2
BRANCH   1   8
ATOM      8  C   UNL     1     -17.748  43.487  -7.006  1.00  0.00     0.000 C 
BRANCH   8   9
ATOM      9  C   UNL     1     -17.240  43.351  -5.559  1.00  0.00     0.006 C 
BRANCH   9  10
ATOM     10  C   UNL     1     -17.972  42.281  -4.733  1.00  0.00     0.053 C 
BRANCH  10  11
ATOM     11  C   UNL     1     -18.784  42.885  -3.628  1.00  0.00     0.041 C 
ATOM     12  O   UNL     1     -19.347  42.146  -2.779  1.00  0.00    -0.550 OA
ATOM     13  O   UNL     1     -18.946  44.263  -3.558  1.00  0.00    -0.550 OA
ENDBRANCH  10  11
ENDBRANCH   9  10
ENDBRANCH   8   9
ENDBRANCH   1   8
TORSDOF 8
ENDMDL
MODEL 6
REMARK VINA RESULT:    -3.416      1.353      1.713
REMARK INTER + INTRA:          -5.459
REMARK INTER:                  -5.202
REMARK INTRA:                  -0.256
REMARK UNBOUND:                -0.446
REMARK SMILES O=C([O-])CCCCCCCC(=O)[O-]
REMARK SMILES IDX 7 1 6 2 5 3 4 4 2 5 1 6 3 7 8 8 9 9 10 10 11 11 12 12 13 13
REMARK H PARENT
REMARK Flexibility Score: inf
ROOT
ATOM      1  C   UNL     1     -17.983  44.030  -6.797  1.00  0.00     0.000 C 
ENDROOT
BRANCH   1   2
ATOM      2  C   UNL     1     -17.939  43.865  -8.325  1.00  0.00     0.000 C 
BRANCH   2   3
ATOM      3  C   UNL     1     -19.164  43.113  -8.873  1.00  0.00     0.006 C 
BRANCH   3   4
ATOM      4  C   UNL     1     -19.067  42.874 -10.385  1.00  0.00     0.053 C 
BRANCH   4   5
ATOM      5  C   UNL     1     -17.921  41.975 -10.734  1.00  0.00     0.041 C 
ATOM      6  O   UNL     1     -18.067  40.725 -10.708  1.00  0.00    -0.550 OA
ATOM      7  O   UNL     1     -16.704  42.518 -11.123  1.00  0.00    -0.550 OA
ENDBRANCH   4   5
ENDBRANCH   3   4
ENDBRANCH   2   3
ENDBRANCH   1   2
BRANCH   1   8
ATOM      8  C   UNL     1     -16.760  43.408  -6.102  1.00  0.00     0.000 C 
BRANCH   8   9
ATOM      9  C   UNL     1     -17.146  42.345  -5.058  1.00  0.00     0.006 C 
BRANCH   9  10
ATOM     10  C   UNL     1     -17.308  42.893  -3.631  1.00  0.00     0.053 C 
BRANCH  10  11
ATOM     11  C   UNL     1     -18.736  43.220  -3.315  1.00  0.00     0.041 C 
ATOM     12  O   UNL     1     -19.195  44.364  -3.573  1.00  0.00    -0.550 OA
ATOM     13  O   UNL     1     -19.547  42.272  -2.705  1.00  0.00    -0.550 OA
ENDBRANCH  10  11
ENDBRANCH   9  10
ENDBRANCH   8   9
ENDBRANCH   1   8
TORSDOF 8
ENDMDL
MODEL 7
REMARK VINA RESULT:    -3.396      2.436      6.015
REMARK INTER + INTRA:          -5.430
REMARK INTER:                  -5.019
REMARK INTRA:                  -0.411
REMARK UNBOUND:                -0.446
REMARK SMILES O=C([O-])CCCCCCCC(=O)[O-]
REMARK SMILES IDX 7 1 6 2 5 3 4 4 2 5 1 6 3 7 8 8 9 9 10 10 11 11 12 12 13 13
REMARK H PARENT
REMARK Flexibility Score: inf
ROOT
ATOM      1  C   UNL     1     -18.019  43.749  -6.801  1.00  0.00     0.000 C 
ENDROOT
BRANCH   1   2
ATOM      2  C   UNL     1     -16.616  43.575  -6.199  1.00  0.00     0.000 C 
BRANCH   2   3
ATOM      3  C   UNL     1     -16.652  43.012  -4.768  1.00  0.00     0.006 C 
BRANCH   3   4
ATOM      4  C   UNL     1     -17.951  42.249  -4.479  1.00  0.00     0.053 C 
BRANCH   4   5
ATOM      5  C   UNL     1     -18.758  42.911  -3.404  1.00  0.00     0.041 C 
ATOM      6  O   UNL     1     -18.784  44.167  -3.315  1.00  0.00    -0.550 OA
ATOM      7  O   UNL     1     -19.509  42.143  -2.525  1.00  0.00    -0.550 OA
ENDBRANCH   4   5
ENDBRANCH   3   4
ENDBRANCH   2   3
ENDBRANCH   1   2
BRANCH   1   8
ATOM      8  C   UNL     1     -18.000  43.797  -8.338  1.00  0.00     0.000 C 
BRANCH   8   9
ATOM      9  C   UNL     1     -18.169  45.224  -8.890  1.00  0.00     0.006 C 
BRANCH   9  10
ATOM     10  C   UNL     1     -17.186  45.584 -10.016  1.00  0.00     0.053 C 
BRANCH  10  11
ATOM     11  C   UNL     1     -15.872  46.065  -9.481  1.00  0.00     0.041 C 
ATOM     12  O   UNL     1     -15.778  46.450  -8.286  1.00  0.00    -0.550 OA
ATOM     13  O   UNL     1     -14.761  46.120 -10.312  1.00  0.00    -0.550 OA
ENDBRANCH  10  11
ENDBRANCH   9  10
ENDBRANCH   8   9
ENDBRANCH   1   8
TORSDOF 8
ENDMDL
MODEL 8
REMARK VINA RESULT:    -3.354      2.121      2.513
REMARK INTER + INTRA:          -5.368
REMARK INTER:                  -4.899
REMARK INTRA:                  -0.469
REMARK UNBOUND:                -0.446
REMARK SMILES O=C([O-])CCCCCCCC(=O)[O-]
REMARK SMILES IDX 7 1 6 2 5 3 4 4 2 5 1 6 3 7 8 8 9 9 10 10 11 11 12 12 13 13
REMARK H PARENT
REMARK Flexibility Score: inf
ROOT
ATOM      1  C   UNL     1     -18.077  43.669  -7.014  1.00  0.00     0.000 C 
ENDROOT
BRANCH   1   2
ATOM      2  C   UNL     1     -18.410  44.899  -7.874  1.00  0.00     0.000 C 
BRANCH   2   3
ATOM      3  C   UNL     1     -18.321  44.607  -9.382  1.00  0.00     0.006 C 
BRANCH   3   4
ATOM      4  C   UNL     1     -17.519  45.678 -10.132  1.00  0.00     0.053 C 
BRANCH   4   5
ATOM      5  C   UNL     1     -16.053  45.583  -9.839  1.00  0.00     0.041 C 
ATOM      6  O   UNL     1     -15.380  46.628  -9.637  1.00  0.00    -0.550 OA
ATOM      7  O   UNL     1     -15.439  44.341  -9.752  1.00  0.00    -0.550 OA
ENDBRANCH   4   5
ENDBRANCH   3   4
ENDBRANCH   2   3
ENDBRANCH   1   2
BRANCH   1   8
ATOM      8  C   UNL     1     -16.656  43.726  -6.429  1.00  0.00     0.000 C 
BRANCH   8   9
ATOM      9  C   UNL     1     -16.595  43.248  -4.968  1.00  0.00     0.006 C 
BRANCH   9  10
ATOM     10  C   UNL     1     -17.732  42.295  -4.568  1.00  0.00     0.053 C 
BRANCH  10  11
ATOM     11  C   UNL     1     -18.666  42.921  -3.578  1.00  0.00     0.041 C 
ATOM     12  O   UNL     1     -18.699  44.172  -3.442  1.00  0.00    -0.550 OA
ATOM     13  O   UNL     1     -19.475  42.119  -2.783  1.00  0.00    -0.550 OA
ENDBRANCH  10  11
ENDBRANCH   9  10
ENDBRANCH   8   9
ENDBRANCH   1   8
TORSDOF 8
ENDMDL
MODEL 9
REMARK VINA RESULT:    -3.322      2.431      3.364
REMARK INTER + INTRA:          -5.321
REMARK INTER:                  -4.690
REMARK INTRA:                  -0.631
REMARK UNBOUND:                -0.446
REMARK SMILES O=C([O-])CCCCCCCC(=O)[O-]
REMARK SMILES IDX 7 1 6 2 5 3 4 4 2 5 1 6 3 7 8 8 9 9 10 10 11 11 12 12 13 13
REMARK H PARENT
REMARK Flexibility Score: inf
ROOT
ATOM      1  C   UNL     1     -19.572  44.120  -8.935  1.00  0.00     0.000 C 
ENDROOT
BRANCH   1   2
ATOM      2  C   UNL     1     -18.712  42.968  -9.477  1.00  0.00     0.000 C 
BRANCH   2   3
ATOM      3  C   UNL     1     -18.075  43.295 -10.838  1.00  0.00     0.006 C 
BRANCH   3   4
ATOM      4  C   UNL     1     -16.543  43.338 -10.765  1.00  0.00     0.053 C 
BRANCH   4   5
ATOM      5  C   UNL     1     -16.055  44.536 -10.011  1.00  0.00     0.041 C 
ATOM      6  O   UNL     1     -15.109  44.424  -9.189  1.00  0.00    -0.550 OA
ATOM      7  O   UNL     1     -16.620  45.783 -10.243  1.00  0.00    -0.550 OA
ENDBRANCH   4   5
ENDBRANCH   3   4
ENDBRANCH   2   3
ENDBRANCH   1   2
BRANCH   1   8
ATOM      8  C   UNL     1     -18.958  44.779  -7.688  1.00  0.00     0.000 C 
BRANCH   8   9
ATOM      9  C   UNL     1     -18.076  43.813  -6.878  1.00  0.00     0.006 C 
BRANCH   9  10
ATOM     10  C   UNL     1     -18.428  43.742  -5.383  1.00  0.00     0.053 C 
BRANCH  10  11
ATOM     11  C   UNL     1     -17.521  42.811  -4.638  1.00  0.00     0.041 C 
ATOM     12  O   UNL     1     -17.529  41.578  -4.894  1.00  0.00    -0.550 OA
ATOM     13  O   UNL     1     -16.693  43.302  -3.636  1.00  0.00    -0.550 OA
ENDBRANCH  10  11
ENDBRANCH   9  10
ENDBRANCH   8   9
ENDBRANCH   1   8
TORSDOF 8
ENDMDL
