MODEL 1
REMARK VINA RESULT:    -2.389      0.000      0.000
REMARK INTER + INTRA:          -4.085
REMARK INTER:                  -3.716
REMARK INTRA:                  -0.369
REMARK UNBOUND:                -0.369
REMARK SMILES COc1cc(CNC(=O)CCCCC=CC(C)C)ccc1O
REMARK SMILES IDX 11 1 12 2 13 3 14 4 15 5 16 6 17 7 18 8 10 9 8 10 9 11 7 12
REMARK SMILES IDX 6 14 5 15 4 16 19 17 3 18 20 19 21 20 2 21 1 22 22 23
REMARK H PARENT 7 13 22 24
REMARK Flexibility Score: inf
ROOT
ATOM      1  C   UNL     1     -24.933 -25.903 -14.588  1.00  0.00     0.010 C 
ENDROOT
BRANCH   1   2
ATOM      2  C   UNL     1     -23.401 -25.760 -14.469  1.00  0.00     0.005 C 
BRANCH   2   3
ATOM      3  C   UNL     1     -22.937 -24.760 -13.401  1.00  0.00     0.027 C 
BRANCH   3   4
ATOM      4  C   UNL     1     -22.184 -23.608 -14.011  1.00  0.00    -0.031 C 
ATOM      5  C   UNL     1     -21.312 -22.881 -13.296  1.00  0.00    -0.028 C 
BRANCH   5   6
ATOM      6  C   UNL     1     -20.579 -21.705 -13.893  1.00  0.00     0.005 C 
ATOM      7  C   UNL     1     -21.109 -20.404 -13.286  1.00  0.00     0.012 C 
ATOM      8  C   UNL     1     -19.075 -21.849 -13.642  1.00  0.00     0.012 C 
ENDBRANCH   5   6
ENDBRANCH   3   4
ENDBRANCH   2   3
ENDBRANCH   1   2
BRANCH   1   9
ATOM      9  C   UNL     1     -25.547 -25.234 -15.828  1.00  0.00     0.100 C 
BRANCH   9  10
ATOM     10  C   UNL     1     -26.979 -25.635 -16.037  1.00  0.00     0.220 C 
ATOM     11  O   UNL     1     -27.701 -24.973 -16.831  1.00  0.00    -0.275 OA
ATOM     12  N   UNL     1     -27.514 -26.778 -15.358  1.00  0.00    -0.352 N 
ATOM     13  H   UNL     1     -26.973 -27.206 -14.572  1.00  0.00     0.163 HD
BRANCH  12  14
ATOM     14  C   UNL     1     -28.695 -27.485 -15.844  1.00  0.00     0.151 C 
BRANCH  14  15
ATOM     15  C   UNL     1     -28.357 -28.929 -16.086  1.00  0.00    -0.025 A 
ATOM     16  C   UNL     1     -28.372 -29.441 -17.394  1.00  0.00     0.056 A 
ATOM     17  C   UNL     1     -28.106 -29.792 -15.011  1.00  0.00     0.009 A 
ATOM     18  C   UNL     1     -28.137 -30.810 -17.632  1.00  0.00     0.160 A 
ATOM     19  C   UNL     1     -27.864 -31.148 -15.241  1.00  0.00     0.050 A 
ATOM     20  C   UNL     1     -27.881 -31.661 -16.541  1.00  0.00     0.157 A 
BRANCH  18  21
ATOM     21  O   UNL     1     -28.158 -31.352 -18.926  1.00  0.00    -0.493 OA
ATOM     22  C   UNL     1     -29.125 -32.288 -19.393  1.00  0.00     0.278 C 
ENDBRANCH  18  21
BRANCH  20  23
ATOM     23  O   UNL     1     -27.646 -33.023 -16.730  1.00  0.00    -0.504 OA
ATOM     24  H   UNL     1     -28.168 -33.735 -16.235  1.00  0.00     0.293 HD
ENDBRANCH  20  23
ENDBRANCH  14  15
ENDBRANCH  12  14
ENDBRANCH   9  10
ENDBRANCH   1   9
TORSDOF 10
ENDMDL
MODEL 2
REMARK VINA RESULT:    -2.220      0.968      1.980
REMARK INTER + INTRA:          -3.822
REMARK INTER:                  -3.217
REMARK INTRA:                  -0.605
REMARK UNBOUND:                -0.369
REMARK SMILES COc1cc(CNC(=O)CCCCC=CC(C)C)ccc1O
REMARK SMILES IDX 11 1 12 2 13 3 14 4 15 5 16 6 17 7 18 8 10 9 8 10 9 11 7 12
REMARK SMILES IDX 6 14 5 15 4 16 19 17 3 18 20 19 21 20 2 21 1 22 22 23
REMARK H PARENT 7 13 22 24
REMARK Flexibility Score: inf
ROOT
ATOM      1  C   UNL     1     -24.116 -26.045 -15.027  1.00  0.00     0.010 C 
ENDROOT
BRANCH   1   2
ATOM      2  C   UNL     1     -24.164 -25.258 -13.701  1.00  0.00     0.005 C 
BRANCH   2   3
ATOM      3  C   UNL     1     -22.787 -24.906 -13.120  1.00  0.00     0.027 C 
BRANCH   3   4
ATOM      4  C   UNL     1     -22.238 -23.642 -13.724  1.00  0.00    -0.031 C 
ATOM      5  C   UNL     1     -21.066 -23.125 -13.326  1.00  0.00    -0.028 C 
BRANCH   5   6
ATOM      6  C   UNL     1     -20.526 -21.840 -13.905  1.00  0.00     0.005 C 
ATOM      7  C   UNL     1     -21.137 -20.645 -13.169  1.00  0.00     0.012 C 
ATOM      8  C   UNL     1     -18.998 -21.823 -13.795  1.00  0.00     0.012 C 
ENDBRANCH   5   6
ENDBRANCH   3   4
ENDBRANCH   2   3
ENDBRANCH   1   2
BRANCH   1   9
ATOM      9  C   UNL     1     -24.863 -25.381 -16.196  1.00  0.00     0.100 C 
BRANCH   9  10
ATOM     10  C   UNL     1     -26.353 -25.508 -16.063  1.00  0.00     0.220 C 
ATOM     11  O   UNL     1     -27.098 -24.592 -16.505  1.00  0.00    -0.275 OA
ATOM     12  N   UNL     1     -26.925 -26.676 -15.460  1.00  0.00    -0.352 N 
ATOM     13  H   UNL     1     -26.306 -27.337 -14.937  1.00  0.00     0.163 HD
BRANCH  12  14
ATOM     14  C   UNL     1     -28.306 -27.078 -15.709  1.00  0.00     0.151 C 
BRANCH  14  15
ATOM     15  C   UNL     1     -28.343 -28.512 -16.159  1.00  0.00    -0.025 A 
ATOM     16  C   UNL     1     -28.547 -29.535 -15.220  1.00  0.00     0.056 A 
ATOM     17  C   UNL     1     -28.093 -28.844 -17.498  1.00  0.00     0.009 A 
ATOM     18  C   UNL     1     -28.503 -30.888 -15.610  1.00  0.00     0.160 A 
ATOM     19  C   UNL     1     -28.057 -30.183 -17.893  1.00  0.00     0.050 A 
ATOM     20  C   UNL     1     -28.257 -31.204 -16.960  1.00  0.00     0.157 A 
BRANCH  18  21
ATOM     21  O   UNL     1     -28.691 -31.932 -14.692  1.00  0.00    -0.493 OA
ATOM     22  C   UNL     1     -29.121 -31.756 -13.345  1.00  0.00     0.278 C 
ENDBRANCH  18  21
BRANCH  20  23
ATOM     23  O   UNL     1     -28.202 -32.530 -17.390  1.00  0.00    -0.504 OA
ATOM     24  H   UNL     1     -27.504 -32.856 -18.046  1.00  0.00     0.293 HD
ENDBRANCH  20  23
ENDBRANCH  14  15
ENDBRANCH  12  14
ENDBRANCH   9  10
ENDBRANCH   1   9
TORSDOF 10
ENDMDL
MODEL 3
REMARK VINA RESULT:    -2.153     10.665     13.942
REMARK INTER + INTRA:          -3.718
REMARK INTER:                  -3.072
REMARK INTRA:                  -0.646
REMARK UNBOUND:                -0.369
REMARK SMILES COc1cc(CNC(=O)CCCCC=CC(C)C)ccc1O
REMARK SMILES IDX 11 1 12 2 13 3 14 4 15 5 16 6 17 7 18 8 10 9 8 10 9 11 7 12
REMARK SMILES IDX 6 14 5 15 4 16 19 17 3 18 20 19 21 20 2 21 1 22 22 23
REMARK H PARENT 7 13 22 24
REMARK Flexibility Score: inf
ROOT
ATOM      1  C   UNL     1     -24.869 -18.544 -12.561  1.00  0.00     0.010 C 
ENDROOT
BRANCH   1   2
ATOM      2  C   UNL     1     -25.274 -18.597 -14.049  1.00  0.00     0.005 C 
BRANCH   2   3
ATOM      3  C   UNL     1     -26.511 -17.758 -14.401  1.00  0.00     0.027 C 
BRANCH   3   4
ATOM      4  C   UNL     1     -26.131 -16.458 -15.056  1.00  0.00    -0.031 C 
ATOM      5  C   UNL     1     -25.223 -16.407 -16.042  1.00  0.00    -0.028 C 
BRANCH   5   6
ATOM      6  C   UNL     1     -24.813 -15.102 -16.680  1.00  0.00     0.005 C 
ATOM      7  C   UNL     1     -24.647 -14.029 -15.601  1.00  0.00     0.012 C 
ATOM      8  C   UNL     1     -23.511 -15.293 -17.463  1.00  0.00     0.012 C 
ENDBRANCH   5   6
ENDBRANCH   3   4
ENDBRANCH   2   3
ENDBRANCH   1   2
BRANCH   1   9
ATOM      9  C   UNL     1     -23.494 -17.913 -12.290  1.00  0.00     0.100 C 
BRANCH   9  10
ATOM     10  C   UNL     1     -23.318 -16.607 -13.011  1.00  0.00     0.220 C 
ATOM     11  O   UNL     1     -23.915 -15.579 -12.591  1.00  0.00    -0.275 OA
ATOM     12  N   UNL     1     -22.455 -16.525 -14.152  1.00  0.00    -0.352 N 
ATOM     13  H   UNL     1     -22.113 -17.405 -14.599  1.00  0.00     0.163 HD
BRANCH  12  14
ATOM     14  C   UNL     1     -21.882 -15.258 -14.600  1.00  0.00     0.151 C 
BRANCH  14  15
ATOM     15  C   UNL     1     -20.511 -15.086 -14.008  1.00  0.00    -0.025 A 
ATOM     16  C   UNL     1     -19.529 -16.067 -14.224  1.00  0.00     0.056 A 
ATOM     17  C   UNL     1     -20.227 -13.997 -13.175  1.00  0.00     0.009 A 
ATOM     18  C   UNL     1     -18.265 -15.963 -13.611  1.00  0.00     0.160 A 
ATOM     19  C   UNL     1     -18.973 -13.883 -12.571  1.00  0.00     0.050 A 
ATOM     20  C   UNL     1     -17.994 -14.858 -12.781  1.00  0.00     0.157 A 
BRANCH  18  21
ATOM     21  O   UNL     1     -17.267 -16.932 -13.797  1.00  0.00    -0.493 OA
ATOM     22  C   UNL     1     -17.516 -18.287 -14.163  1.00  0.00     0.278 C 
ENDBRANCH  18  21
BRANCH  20  23
ATOM     23  O   UNL     1     -16.756 -14.717 -12.152  1.00  0.00    -0.504 OA
ATOM     24  H   UNL     1     -16.107 -15.488 -12.059  1.00  0.00     0.293 HD
ENDBRANCH  20  23
ENDBRANCH  14  15
ENDBRANCH  12  14
ENDBRANCH   9  10
ENDBRANCH   1   9
TORSDOF 10
ENDMDL
MODEL 4
REMARK VINA RESULT:    -1.879     11.082     14.140
REMARK INTER + INTRA:          -3.292
REMARK INTER:                  -2.425
REMARK INTRA:                  -0.867
REMARK UNBOUND:                -0.369
REMARK SMILES COc1cc(CNC(=O)CCCCC=CC(C)C)ccc1O
REMARK SMILES IDX 11 1 12 2 13 3 14 4 15 5 16 6 17 7 18 8 10 9 8 10 9 11 7 12
REMARK SMILES IDX 6 14 5 15 4 16 19 17 3 18 20 19 21 20 2 21 1 22 22 23
REMARK H PARENT 7 13 22 24
REMARK Flexibility Score: inf
ROOT
ATOM      1  C   UNL     1     -23.956 -15.199 -17.603  1.00  0.00     0.010 C 
ENDROOT
BRANCH   1   2
ATOM      2  C   UNL     1     -23.928 -16.461 -16.716  1.00  0.00     0.005 C 
BRANCH   2   3
ATOM      3  C   UNL     1     -25.310 -16.948 -16.259  1.00  0.00     0.027 C 
BRANCH   3   4
ATOM      4  C   UNL     1     -25.237 -17.659 -14.936  1.00  0.00    -0.031 C 
ATOM      5  C   UNL     1     -24.084 -17.772 -14.260  1.00  0.00    -0.028 C 
BRANCH   5   6
ATOM      6  C   UNL     1     -23.998 -18.512 -12.949  1.00  0.00     0.005 C 
ATOM      7  C   UNL     1     -23.097 -17.743 -11.979  1.00  0.00     0.012 C 
ATOM      8  C   UNL     1     -25.400 -18.693 -12.361  1.00  0.00     0.012 C 
ENDBRANCH   5   6
ENDBRANCH   3   4
ENDBRANCH   2   3
ENDBRANCH   1   2
BRANCH   1   9
ATOM      9  C   UNL     1     -24.209 -13.885 -16.844  1.00  0.00     0.100 C 
BRANCH   9  10
ATOM     10  C   UNL     1     -23.929 -14.017 -15.375  1.00  0.00     0.220 C 
ATOM     11  O   UNL     1     -24.888 -14.028 -14.557  1.00  0.00    -0.275 OA
ATOM     12  N   UNL     1     -22.581 -14.156 -14.908  1.00  0.00    -0.352 N 
ATOM     13  H   UNL     1     -21.790 -13.963 -15.564  1.00  0.00     0.163 HD
BRANCH  12  14
ATOM     14  C   UNL     1     -22.269 -14.739 -13.607  1.00  0.00     0.151 C 
BRANCH  14  15
ATOM     15  C   UNL     1     -20.780 -14.737 -13.395  1.00  0.00    -0.025 A 
ATOM     16  C   UNL     1     -19.975 -15.659 -14.083  1.00  0.00     0.056 A 
ATOM     17  C   UNL     1     -20.196 -13.878 -12.455  1.00  0.00     0.009 A 
ATOM     18  C   UNL     1     -18.590 -15.726 -13.837  1.00  0.00     0.160 A 
ATOM     19  C   UNL     1     -18.822 -13.933 -12.212  1.00  0.00     0.050 A 
ATOM     20  C   UNL     1     -18.018 -14.852 -12.893  1.00  0.00     0.157 A 
BRANCH  18  21
ATOM     21  O   UNL     1     -17.761 -16.645 -14.499  1.00  0.00    -0.493 OA
ATOM     22  C   UNL     1     -17.878 -18.061 -14.392  1.00  0.00     0.278 C 
ENDBRANCH  18  21
BRANCH  20  23
ATOM     23  O   UNL     1     -16.651 -14.885 -12.616  1.00  0.00    -0.504 OA
ATOM     24  H   UNL     1     -15.951 -14.814 -13.343  1.00  0.00     0.293 HD
ENDBRANCH  20  23
ENDBRANCH  14  15
ENDBRANCH  12  14
ENDBRANCH   9  10
ENDBRANCH   1   9
TORSDOF 10
ENDMDL
MODEL 5
REMARK VINA RESULT:    -1.854      5.455     11.893
REMARK INTER + INTRA:          -3.253
REMARK INTER:                  -2.761
REMARK INTRA:                  -0.492
REMARK UNBOUND:                -0.369
REMARK SMILES COc1cc(CNC(=O)CCCCC=CC(C)C)ccc1O
REMARK SMILES IDX 11 1 12 2 13 3 14 4 15 5 16 6 17 7 18 8 10 9 8 10 9 11 7 12
REMARK SMILES IDX 6 14 5 15 4 16 19 17 3 18 20 19 21 20 2 21 1 22 22 23
REMARK H PARENT 7 13 22 24
REMARK Flexibility Score: inf
ROOT
ATOM      1  C   UNL     1     -22.356 -23.692 -14.145  1.00  0.00     0.010 C 
ENDROOT
BRANCH   1   2
ATOM      2  C   UNL     1     -23.363 -24.753 -13.655  1.00  0.00     0.005 C 
BRANCH   2   3
ATOM      3  C   UNL     1     -23.483 -25.983 -14.566  1.00  0.00     0.027 C 
BRANCH   3   4
ATOM      4  C   UNL     1     -24.665 -25.875 -15.490  1.00  0.00    -0.031 C 
ATOM      5  C   UNL     1     -25.887 -26.287 -15.120  1.00  0.00    -0.028 C 
BRANCH   5   6
ATOM      6  C   UNL     1     -27.070 -26.211 -16.054  1.00  0.00     0.005 C 
ATOM      7  C   UNL     1     -27.995 -27.407 -15.814  1.00  0.00     0.012 C 
ATOM      8  C   UNL     1     -27.818 -24.893 -15.839  1.00  0.00     0.012 C 
ENDBRANCH   5   6
ENDBRANCH   3   4
ENDBRANCH   2   3
ENDBRANCH   1   2
BRANCH   1   9
ATOM      9  C   UNL     1     -21.505 -23.052 -13.035  1.00  0.00     0.100 C 
BRANCH   9  10
ATOM     10  C   UNL     1     -20.800 -21.812 -13.505  1.00  0.00     0.220 C 
ATOM     11  O   UNL     1     -19.626 -21.898 -13.956  1.00  0.00    -0.275 OA
ATOM     12  N   UNL     1     -21.468 -20.545 -13.466  1.00  0.00    -0.352 N 
ATOM     13  H   UNL     1     -22.359 -20.453 -12.928  1.00  0.00     0.163 HD
BRANCH  12  14
ATOM     14  C   UNL     1     -21.052 -19.424 -14.304  1.00  0.00     0.151 C 
BRANCH  14  15
ATOM     15  C   UNL     1     -21.960 -18.250 -14.067  1.00  0.00    -0.025 A 
ATOM     16  C   UNL     1     -21.527 -16.955 -14.392  1.00  0.00     0.056 A 
ATOM     17  C   UNL     1     -23.205 -18.426 -13.447  1.00  0.00     0.009 A 
ATOM     18  C   UNL     1     -22.331 -15.835 -14.102  1.00  0.00     0.160 A 
ATOM     19  C   UNL     1     -24.010 -17.321 -13.165  1.00  0.00     0.050 A 
ATOM     20  C   UNL     1     -23.581 -16.030 -13.484  1.00  0.00     0.157 A 
BRANCH  18  21
ATOM     21  O   UNL     1     -21.920 -14.527 -14.403  1.00  0.00    -0.493 OA
ATOM     22  C   UNL     1     -20.722 -13.926 -13.920  1.00  0.00     0.278 C 
ENDBRANCH  18  21
BRANCH  20  23
ATOM     23  O   UNL     1     -24.408 -14.950 -13.177  1.00  0.00    -0.504 OA
ATOM     24  H   UNL     1     -25.402 -14.959 -13.366  1.00  0.00     0.293 HD
ENDBRANCH  20  23
ENDBRANCH  14  15
ENDBRANCH  12  14
ENDBRANCH   9  10
ENDBRANCH   1   9
TORSDOF 10
ENDMDL
MODEL 6
REMARK VINA RESULT:    -1.512      5.403     11.188
REMARK INTER + INTRA:          -2.721
REMARK INTER:                  -2.197
REMARK INTRA:                  -0.524
REMARK UNBOUND:                -0.369
REMARK SMILES COc1cc(CNC(=O)CCCCC=CC(C)C)ccc1O
REMARK SMILES IDX 11 1 12 2 13 3 14 4 15 5 16 6 17 7 18 8 10 9 8 10 9 11 7 12
REMARK SMILES IDX 6 14 5 15 4 16 19 17 3 18 20 19 21 20 2 21 1 22 22 23
REMARK H PARENT 7 13 22 24
REMARK Flexibility Score: inf
ROOT
ATOM      1  C   UNL     1     -22.340 -23.629 -14.118  1.00  0.00     0.010 C 
ENDROOT
BRANCH   1   2
ATOM      2  C   UNL     1     -23.299 -24.726 -13.608  1.00  0.00     0.005 C 
BRANCH   2   3
ATOM      3  C   UNL     1     -23.448 -25.928 -14.551  1.00  0.00     0.027 C 
BRANCH   3   4
ATOM      4  C   UNL     1     -24.635 -25.772 -15.463  1.00  0.00    -0.031 C 
ATOM      5  C   UNL     1     -25.834 -26.286 -15.151  1.00  0.00    -0.028 C 
BRANCH   5   6
ATOM      6  C   UNL     1     -27.019 -26.161 -16.077  1.00  0.00     0.005 C 
ATOM      7  C   UNL     1     -27.947 -27.365 -15.893  1.00  0.00     0.012 C 
ATOM      8  C   UNL     1     -27.763 -24.853 -15.795  1.00  0.00     0.012 C 
ENDBRANCH   5   6
ENDBRANCH   3   4
ENDBRANCH   2   3
ENDBRANCH   1   2
BRANCH   1   9
ATOM      9  C   UNL     1     -21.494 -22.956 -13.025  1.00  0.00     0.100 C 
BRANCH   9  10
ATOM     10  C   UNL     1     -20.805 -21.718 -13.524  1.00  0.00     0.220 C 
ATOM     11  O   UNL     1     -19.637 -21.802 -13.990  1.00  0.00    -0.275 OA
ATOM     12  N   UNL     1     -21.482 -20.455 -13.494  1.00  0.00    -0.352 N 
ATOM     13  H   UNL     1     -22.367 -20.362 -12.946  1.00  0.00     0.163 HD
BRANCH  12  14
ATOM     14  C   UNL     1     -21.087 -19.345 -14.356  1.00  0.00     0.151 C 
BRANCH  14  15
ATOM     15  C   UNL     1     -22.043 -18.199 -14.176  1.00  0.00    -0.025 A 
ATOM     16  C   UNL     1     -23.408 -18.379 -14.447  1.00  0.00     0.056 A 
ATOM     17  C   UNL     1     -21.572 -16.928 -13.818  1.00  0.00     0.009 A 
ATOM     18  C   UNL     1     -24.306 -17.296 -14.363  1.00  0.00     0.160 A 
ATOM     19  C   UNL     1     -22.458 -15.853 -13.723  1.00  0.00     0.050 A 
ATOM     20  C   UNL     1     -23.817 -16.028 -13.996  1.00  0.00     0.157 A 
BRANCH  18  21
ATOM     21  O   UNL     1     -25.674 -17.442 -14.640  1.00  0.00    -0.493 OA
ATOM     22  C   UNL     1     -26.499 -18.478 -14.113  1.00  0.00     0.278 C 
ENDBRANCH  18  21
BRANCH  20  23
ATOM     23  O   UNL     1     -24.670 -14.928 -13.902  1.00  0.00    -0.504 OA
ATOM     24  H   UNL     1     -25.053 -14.615 -13.019  1.00  0.00     0.293 HD
ENDBRANCH  20  23
ENDBRANCH  14  15
ENDBRANCH  12  14
ENDBRANCH   9  10
ENDBRANCH   1   9
TORSDOF 10
ENDMDL
MODEL 7
REMARK VINA RESULT:    -1.329     10.687     13.571
REMARK INTER + INTRA:          -2.436
REMARK INTER:                  -2.999
REMARK INTRA:                   0.562
REMARK UNBOUND:                -0.369
REMARK SMILES COc1cc(CNC(=O)CCCCC=CC(C)C)ccc1O
REMARK SMILES IDX 11 1 12 2 13 3 14 4 15 5 16 6 17 7 18 8 10 9 8 10 9 11 7 12
REMARK SMILES IDX 6 14 5 15 4 16 19 17 3 18 20 19 21 20 2 21 1 22 22 23
REMARK H PARENT 7 13 22 24
REMARK Flexibility Score: inf
ROOT
ATOM      1  C   UNL     1     -18.389 -17.380 -14.216  1.00  0.00     0.010 C 
ENDROOT
BRANCH   1   2
ATOM      2  C   UNL     1     -19.896 -17.096 -14.393  1.00  0.00     0.005 C 
BRANCH   2   3
ATOM      3  C   UNL     1     -20.812 -18.269 -14.016  1.00  0.00     0.027 C 
BRANCH   3   4
ATOM      4  C   UNL     1     -22.264 -17.885 -14.094  1.00  0.00    -0.031 C 
ATOM      5  C   UNL     1     -23.172 -18.392 -13.246  1.00  0.00    -0.028 C 
BRANCH   5   6
ATOM      6  C   UNL     1     -24.635 -18.036 -13.339  1.00  0.00     0.005 C 
ATOM      7  C   UNL     1     -25.105 -18.162 -14.791  1.00  0.00     0.012 C 
ATOM      8  C   UNL     1     -25.452 -18.949 -12.421  1.00  0.00     0.012 C 
ENDBRANCH   5   6
ENDBRANCH   3   4
ENDBRANCH   2   3
ENDBRANCH   1   2
BRANCH   1   9
ATOM      9  C   UNL     1     -17.611 -16.280 -13.475  1.00  0.00     0.100 C 
BRANCH   9  10
ATOM     10  C   UNL     1     -18.457 -15.068 -13.210  1.00  0.00     0.220 C 
ATOM     11  O   UNL     1     -17.918 -14.018 -12.767  1.00  0.00    -0.275 OA
ATOM     12  N   UNL     1     -19.863 -15.097 -13.485  1.00  0.00    -0.352 N 
ATOM     13  H   UNL     1     -20.328 -16.013 -13.675  1.00  0.00     0.163 HD
BRANCH  12  14
ATOM     14  C   UNL     1     -20.635 -13.876 -13.698  1.00  0.00     0.151 C 
BRANCH  14  15
ATOM     15  C   UNL     1     -22.018 -14.228 -14.170  1.00  0.00    -0.025 A 
ATOM     16  C   UNL     1     -22.315 -14.205 -15.543  1.00  0.00     0.056 A 
ATOM     17  C   UNL     1     -23.038 -14.498 -13.248  1.00  0.00     0.009 A 
ATOM     18  C   UNL     1     -23.625 -14.453 -15.998  1.00  0.00     0.160 A 
ATOM     19  C   UNL     1     -24.337 -14.753 -13.693  1.00  0.00     0.050 A 
ATOM     20  C   UNL     1     -24.637 -14.729 -15.058  1.00  0.00     0.157 A 
BRANCH  18  21
ATOM     21  O   UNL     1     -23.955 -14.425 -17.361  1.00  0.00    -0.493 OA
ATOM     22  C   UNL     1     -23.847 -15.541 -18.241  1.00  0.00     0.278 C 
ENDBRANCH  18  21
BRANCH  20  23
ATOM     23  O   UNL     1     -25.948 -14.977 -15.464  1.00  0.00    -0.504 OA
ATOM     24  H   UNL     1     -26.463 -14.331 -16.050  1.00  0.00     0.293 HD
ENDBRANCH  20  23
ENDBRANCH  14  15
ENDBRANCH  12  14
ENDBRANCH   9  10
ENDBRANCH   1   9
TORSDOF 10
ENDMDL
MODEL 8
REMARK VINA RESULT:    -1.021     10.507     13.955
REMARK INTER + INTRA:          -1.956
REMARK INTER:                  -2.569
REMARK INTRA:                   0.612
REMARK UNBOUND:                -0.369
REMARK SMILES COc1cc(CNC(=O)CCCCC=CC(C)C)ccc1O
REMARK SMILES IDX 11 1 12 2 13 3 14 4 15 5 16 6 17 7 18 8 10 9 8 10 9 11 7 12
REMARK SMILES IDX 6 14 5 15 4 16 19 17 3 18 20 19 21 20 2 21 1 22 22 23
REMARK H PARENT 7 13 22 24
REMARK Flexibility Score: inf
ROOT
ATOM      1  C   UNL     1     -25.599 -16.969 -15.485  1.00  0.00     0.010 C 
ENDROOT
BRANCH   1   2
ATOM      2  C   UNL     1     -26.745 -17.838 -14.926  1.00  0.00     0.005 C 
BRANCH   2   3
ATOM      3  C   UNL     1     -26.335 -18.763 -13.771  1.00  0.00     0.027 C 
BRANCH   3   4
ATOM      4  C   UNL     1     -24.937 -18.472 -13.298  1.00  0.00    -0.031 C 
ATOM      5  C   UNL     1     -23.881 -18.574 -14.118  1.00  0.00    -0.028 C 
BRANCH   5   6
ATOM      6  C   UNL     1     -22.473 -18.315 -13.640  1.00  0.00     0.005 C 
ATOM      7  C   UNL     1     -22.506 -17.741 -12.222  1.00  0.00     0.012 C 
ATOM      8  C   UNL     1     -21.663 -19.613 -13.683  1.00  0.00     0.012 C 
ENDBRANCH   5   6
ENDBRANCH   3   4
ENDBRANCH   2   3
ENDBRANCH   1   2
BRANCH   1   9
ATOM      9  C   UNL     1     -25.717 -15.469 -15.169  1.00  0.00     0.100 C 
BRANCH   9  10
ATOM     10  C   UNL     1     -24.403 -14.756 -15.306  1.00  0.00     0.220 C 
ATOM     11  O   UNL     1     -24.186 -14.041 -16.321  1.00  0.00    -0.275 OA
ATOM     12  N   UNL     1     -23.412 -14.866 -14.276  1.00  0.00    -0.352 N 
ATOM     13  H   UNL     1     -23.523 -15.596 -13.536  1.00  0.00     0.163 HD
BRANCH  12  14
ATOM     14  C   UNL     1     -22.353 -13.875 -14.111  1.00  0.00     0.151 C 
BRANCH  14  15
ATOM     15  C   UNL     1     -21.040 -14.571 -13.884  1.00  0.00    -0.025 A 
ATOM     16  C   UNL     1     -20.009 -13.911 -13.196  1.00  0.00     0.056 A 
ATOM     17  C   UNL     1     -20.804 -15.841 -14.426  1.00  0.00     0.009 A 
ATOM     18  C   UNL     1     -18.745 -14.515 -13.045  1.00  0.00     0.160 A 
ATOM     19  C   UNL     1     -19.557 -16.449 -14.272  1.00  0.00     0.050 A 
ATOM     20  C   UNL     1     -18.528 -15.794 -13.590  1.00  0.00     0.157 A 
BRANCH  18  21
ATOM     21  O   UNL     1     -17.692 -13.876 -12.373  1.00  0.00    -0.493 OA
ATOM     22  C   UNL     1     -16.311 -14.088 -12.649  1.00  0.00     0.278 C 
ENDBRANCH  18  21
BRANCH  20  23
ATOM     23  O   UNL     1     -17.291 -16.428 -13.466  1.00  0.00    -0.504 OA
ATOM     24  H   UNL     1     -16.964 -17.110 -14.139  1.00  0.00     0.293 HD
ENDBRANCH  20  23
ENDBRANCH  14  15
ENDBRANCH  12  14
ENDBRANCH   9  10
ENDBRANCH   1   9
TORSDOF 10
ENDMDL
MODEL 9
REMARK VINA RESULT:    -0.858      8.773     11.820
REMARK INTER + INTRA:          -1.704
REMARK INTER:                  -1.734
REMARK INTRA:                   0.029
REMARK UNBOUND:                -0.369
REMARK SMILES COc1cc(CNC(=O)CCCCC=CC(C)C)ccc1O
REMARK SMILES IDX 11 1 12 2 13 3 14 4 15 5 16 6 17 7 18 8 10 9 8 10 9 11 7 12
REMARK SMILES IDX 6 14 5 15 4 16 19 17 3 18 20 19 21 20 2 21 1 22 22 23
REMARK H PARENT 7 13 22 24
REMARK Flexibility Score: inf
ROOT
ATOM      1  C   UNL     1     -19.986 -16.437 -13.964  1.00  0.00     0.010 C 
ENDROOT
BRANCH   1   2
ATOM      2  C   UNL     1     -21.319 -17.054 -14.439  1.00  0.00     0.005 C 
BRANCH   2   3
ATOM      3  C   UNL     1     -21.800 -18.248 -13.602  1.00  0.00     0.027 C 
BRANCH   3   4
ATOM      4  C   UNL     1     -21.266 -19.549 -14.135  1.00  0.00    -0.031 C 
ATOM      5  C   UNL     1     -21.123 -20.626 -13.348  1.00  0.00    -0.028 C 
BRANCH   5   6
ATOM      6  C   UNL     1     -20.557 -21.924 -13.869  1.00  0.00     0.005 C 
ATOM      7  C   UNL     1     -19.029 -21.890 -13.788  1.00  0.00     0.012 C 
ATOM      8  C   UNL     1     -21.119 -23.097 -13.061  1.00  0.00     0.012 C 
ENDBRANCH   5   6
ENDBRANCH   3   4
ENDBRANCH   2   3
ENDBRANCH   1   2
BRANCH   1   9
ATOM      9  C   UNL     1     -20.050 -14.935 -13.644  1.00  0.00     0.100 C 
BRANCH   9  10
ATOM     10  C   UNL     1     -21.209 -14.261 -14.319  1.00  0.00     0.220 C 
ATOM     11  O   UNL     1     -21.095 -13.876 -15.514  1.00  0.00    -0.275 OA
ATOM     12  N   UNL     1     -22.446 -14.080 -13.617  1.00  0.00    -0.352 N 
ATOM     13  H   UNL     1     -22.475 -14.232 -12.583  1.00  0.00     0.163 HD
BRANCH  12  14
ATOM     14  C   UNL     1     -23.711 -13.877 -14.318  1.00  0.00     0.151 C 
BRANCH  14  15
ATOM     15  C   UNL     1     -24.443 -15.185 -14.430  1.00  0.00    -0.025 A 
ATOM     16  C   UNL     1     -24.272 -16.168 -13.442  1.00  0.00     0.056 A 
ATOM     17  C   UNL     1     -25.232 -15.465 -15.553  1.00  0.00     0.009 A 
ATOM     18  C   UNL     1     -24.886 -17.430 -13.572  1.00  0.00     0.160 A 
ATOM     19  C   UNL     1     -25.850 -16.710 -15.684  1.00  0.00     0.050 A 
ATOM     20  C   UNL     1     -25.680 -17.693 -14.704  1.00  0.00     0.157 A 
BRANCH  18  21
ATOM     21  O   UNL     1     -24.724 -18.437 -12.608  1.00  0.00    -0.493 OA
ATOM     22  C   UNL     1     -25.761 -18.910 -11.753  1.00  0.00     0.278 C 
ENDBRANCH  18  21
BRANCH  20  23
ATOM     23  O   UNL     1     -26.303 -18.929 -14.874  1.00  0.00    -0.504 OA
ATOM     24  H   UNL     1     -27.310 -19.032 -14.866  1.00  0.00     0.293 HD
ENDBRANCH  20  23
ENDBRANCH  14  15
ENDBRANCH  12  14
ENDBRANCH   9  10
ENDBRANCH   1   9
TORSDOF 10
ENDMDL
