MODEL 1
REMARK VINA RESULT:    -4.326      0.000      0.000
REMARK INTER + INTRA:          -7.771
REMARK INTER:                  -6.096
REMARK INTRA:                  -1.675
REMARK UNBOUND:                -1.675
REMARK SMILES C=CC(=C)CCC=C(C)CCC=C(C)C
REMARK SMILES IDX 8 1 7 2 9 3 10 4 11 5 12 6 14 7 13 8 15 9 6 10 5 11 3 12
REMARK SMILES IDX 4 13 2 14 1 15
REMARK H PARENT
REMARK Flexibility Score: inf
ROOT
ATOM      1  C   UNL     1       9.355  19.615  23.156  1.00  0.00    -0.077 C 
ATOM      2  C   UNL     1      10.385  18.974  23.751  1.00  0.00    -0.028 C 
ATOM      3  C   UNL     1       9.050  21.064  23.456  1.00  0.00     0.039 C 
ENDROOT
BRANCH   1   4
ATOM      4  C   UNL     1       8.489  18.866  22.167  1.00  0.00     0.034 C 
BRANCH   4   5
ATOM      5  C   UNL     1       7.326  18.168  22.880  1.00  0.00     0.032 C 
BRANCH   5   6
ATOM      6  C   UNL     1       6.032  18.392  22.138  1.00  0.00    -0.028 C 
ATOM      7  C   UNL     1       5.448  20.445  23.449  1.00  0.00     0.039 C 
ATOM      8  C   UNL     1       5.189  19.424  22.365  1.00  0.00    -0.080 C 
ATOM      9  C   UNL     1       3.950  19.540  21.516  1.00  0.00     0.039 C 
ENDBRANCH   5   6
ENDBRANCH   4   5
ENDBRANCH   1   4
BRANCH   2  10
ATOM     10  C   UNL     1      11.300  19.638  24.751  1.00  0.00     0.032 C 
BRANCH  10  11
ATOM     11  C   UNL     1      11.156  19.005  26.140  1.00  0.00     0.039 C 
BRANCH  11  12
ATOM     12  C   UNL     1       9.981  19.603  26.884  1.00  0.00    -0.055 C 
ATOM     13  C   UNL     1      10.089  20.837  27.386  1.00  0.00     0.012 C 
BRANCH  12  14
ATOM     14  C   UNL     1       8.690  18.881  27.037  1.00  0.00    -0.005 C 
ATOM     15  C   UNL     1       7.557  19.243  26.434  1.00  0.00     0.009 C 
ENDBRANCH  12  14
ENDBRANCH  11  12
ENDBRANCH  10  11
ENDBRANCH   2  10
TORSDOF 7
ENDMDL
MODEL 2
REMARK VINA RESULT:    -4.198      1.359      2.430
REMARK INTER + INTRA:          -7.591
REMARK INTER:                  -6.610
REMARK INTRA:                  -0.981
REMARK UNBOUND:                -1.675
REMARK SMILES C=CC(=C)CCC=C(C)CCC=C(C)C
REMARK SMILES IDX 8 1 7 2 9 3 10 4 11 5 12 6 14 7 13 8 15 9 6 10 5 11 3 12
REMARK SMILES IDX 4 13 2 14 1 15
REMARK H PARENT
REMARK Flexibility Score: inf
ROOT
ATOM      1  C   UNL     1       7.899  19.100  23.895  1.00  0.00    -0.077 C 
ATOM      2  C   UNL     1       9.186  19.309  23.540  1.00  0.00    -0.028 C 
ATOM      3  C   UNL     1       7.352  19.607  25.208  1.00  0.00     0.039 C 
ENDROOT
BRANCH   1   4
ATOM      4  C   UNL     1       6.987  18.343  22.956  1.00  0.00     0.034 C 
BRANCH   4   5
ATOM      5  C   UNL     1       6.265  19.304  22.005  1.00  0.00     0.032 C 
BRANCH   5   6
ATOM      6  C   UNL     1       4.771  19.115  22.085  1.00  0.00    -0.028 C 
ATOM      7  C   UNL     1       4.422  21.181  23.457  1.00  0.00     0.039 C 
ATOM      8  C   UNL     1       3.926  19.964  22.713  1.00  0.00    -0.080 C 
ATOM      9  C   UNL     1       2.450  19.665  22.676  1.00  0.00     0.039 C 
ENDBRANCH   5   6
ENDBRANCH   4   5
ENDBRANCH   1   4
BRANCH   2  10
ATOM     10  C   UNL     1      10.171  20.050  24.413  1.00  0.00     0.032 C 
BRANCH  10  11
ATOM     11  C   UNL     1      11.271  19.115  24.926  1.00  0.00     0.039 C 
BRANCH  11  12
ATOM     12  C   UNL     1      11.397  19.207  26.431  1.00  0.00    -0.055 C 
ATOM     13  C   UNL     1      10.468  18.627  27.198  1.00  0.00     0.012 C 
BRANCH  12  14
ATOM     14  C   UNL     1      12.546  19.883  27.091  1.00  0.00    -0.005 C 
ATOM     15  C   UNL     1      13.091  19.477  28.238  1.00  0.00     0.009 C 
ENDBRANCH  12  14
ENDBRANCH  11  12
ENDBRANCH  10  11
ENDBRANCH   2  10
TORSDOF 7
ENDMDL
MODEL 3
REMARK VINA RESULT:    -4.189      1.479      2.957
REMARK INTER + INTRA:          -7.578
REMARK INTER:                  -6.447
REMARK INTRA:                  -1.131
REMARK UNBOUND:                -1.675
REMARK SMILES C=CC(=C)CCC=C(C)CCC=C(C)C
REMARK SMILES IDX 8 1 7 2 9 3 10 4 11 5 12 6 14 7 13 8 15 9 6 10 5 11 3 12
REMARK SMILES IDX 4 13 2 14 1 15
REMARK H PARENT
REMARK Flexibility Score: inf
ROOT
ATOM      1  C   UNL     1       6.943  18.812  22.958  1.00  0.00    -0.077 C 
ATOM      2  C   UNL     1       6.922  19.597  24.058  1.00  0.00    -0.028 C 
ATOM      3  C   UNL     1       8.228  18.533  22.215  1.00  0.00     0.039 C 
ENDROOT
BRANCH   1   4
ATOM      4  C   UNL     1       5.652  18.200  22.462  1.00  0.00     0.034 C 
BRANCH   4   5
ATOM      5  C   UNL     1       4.780  19.253  21.771  1.00  0.00     0.032 C 
BRANCH   5   6
ATOM      6  C   UNL     1       3.400  19.288  22.379  1.00  0.00    -0.028 C 
ATOM      7  C   UNL     1       3.781  21.487  23.516  1.00  0.00     0.039 C 
ATOM      8  C   UNL     1       2.927  20.297  23.145  1.00  0.00    -0.080 C 
ATOM      9  C   UNL     1       1.511  20.212  23.651  1.00  0.00     0.039 C 
ENDBRANCH   5   6
ENDBRANCH   4   5
ENDBRANCH   1   4
BRANCH   2  10
ATOM     10  C   UNL     1       8.158  20.253  24.626  1.00  0.00     0.032 C 
BRANCH  10  11
ATOM     11  C   UNL     1       8.637  19.532  25.891  1.00  0.00     0.039 C 
BRANCH  11  12
ATOM     12  C   UNL     1      10.140  19.358  25.874  1.00  0.00    -0.055 C 
ATOM     13  C   UNL     1      10.738  18.762  26.910  1.00  0.00     0.012 C 
BRANCH  12  14
ATOM     14  C   UNL     1      10.974  19.785  24.719  1.00  0.00    -0.005 C 
ATOM     15  C   UNL     1      11.541  18.942  23.856  1.00  0.00     0.009 C 
ENDBRANCH  12  14
ENDBRANCH  11  12
ENDBRANCH  10  11
ENDBRANCH   2  10
TORSDOF 7
ENDMDL
MODEL 4
REMARK VINA RESULT:    -4.187      1.810      3.851
REMARK INTER + INTRA:          -7.575
REMARK INTER:                  -5.400
REMARK INTRA:                  -2.175
REMARK UNBOUND:                -1.675
REMARK SMILES C=CC(=C)CCC=C(C)CCC=C(C)C
REMARK SMILES IDX 8 1 7 2 9 3 10 4 11 5 12 6 14 7 13 8 15 9 6 10 5 11 3 12
REMARK SMILES IDX 4 13 2 14 1 15
REMARK H PARENT
REMARK Flexibility Score: inf
ROOT
ATOM      1  C   UNL     1       9.599  19.442  27.005  1.00  0.00    -0.077 C 
ATOM      2  C   UNL     1       9.802  20.771  26.876  1.00  0.00    -0.028 C 
ATOM      3  C   UNL     1      10.744  18.491  27.265  1.00  0.00     0.039 C 
ENDROOT
BRANCH   1   4
ATOM      4  C   UNL     1       8.194  18.894  26.887  1.00  0.00     0.034 C 
BRANCH   4   5
ATOM      5  C   UNL     1       7.384  19.686  25.855  1.00  0.00     0.032 C 
BRANCH   5   6
ATOM      6  C   UNL     1       7.511  19.067  24.486  1.00  0.00    -0.028 C 
ATOM      7  C   UNL     1       8.455  21.146  23.456  1.00  0.00     0.039 C 
ATOM      8  C   UNL     1       8.014  19.702  23.403  1.00  0.00    -0.080 C 
ATOM      9  C   UNL     1       8.116  18.940  22.107  1.00  0.00     0.039 C 
ENDBRANCH   5   6
ENDBRANCH   4   5
ENDBRANCH   1   4
BRANCH   2  10
ATOM     10  C   UNL     1      11.168  21.408  26.975  1.00  0.00     0.032 C 
BRANCH  10  11
ATOM     11  C   UNL     1      11.672  21.857  25.599  1.00  0.00     0.039 C 
BRANCH  11  12
ATOM     12  C   UNL     1      12.477  20.760  24.938  1.00  0.00    -0.055 C 
ATOM     13  C   UNL     1      13.612  20.348  25.514  1.00  0.00     0.012 C 
BRANCH  12  14
ATOM     14  C   UNL     1      12.027  20.089  23.690  1.00  0.00    -0.005 C 
ATOM     15  C   UNL     1      11.533  18.851  23.645  1.00  0.00     0.009 C 
ENDBRANCH  12  14
ENDBRANCH  11  12
ENDBRANCH  10  11
ENDBRANCH   2  10
TORSDOF 7
ENDMDL
MODEL 5
REMARK VINA RESULT:    -4.107      1.485      6.249
REMARK INTER + INTRA:          -7.463
REMARK INTER:                  -6.217
REMARK INTRA:                  -1.246
REMARK UNBOUND:                -1.675
REMARK SMILES C=CC(=C)CCC=C(C)CCC=C(C)C
REMARK SMILES IDX 8 1 7 2 9 3 10 4 11 5 12 6 14 7 13 8 15 9 6 10 5 11 3 12
REMARK SMILES IDX 4 13 2 14 1 15
REMARK H PARENT
REMARK Flexibility Score: inf
ROOT
ATOM      1  C   UNL     1       6.971  20.303  24.948  1.00  0.00    -0.077 C 
ATOM      2  C   UNL     1       7.131  19.277  24.083  1.00  0.00    -0.028 C 
ATOM      3  C   UNL     1       6.369  21.617  24.508  1.00  0.00     0.039 C 
ENDROOT
BRANCH   1   4
ATOM      4  C   UNL     1       7.403  20.132  26.388  1.00  0.00     0.034 C 
BRANCH   4   5
ATOM      5  C   UNL     1       8.027  18.750  26.608  1.00  0.00     0.032 C 
BRANCH   5   6
ATOM      6  C   UNL     1       9.310  18.862  27.394  1.00  0.00    -0.028 C 
ATOM      7  C   UNL     1      10.725  19.158  25.349  1.00  0.00     0.039 C 
ATOM      8  C   UNL     1      10.527  19.070  26.844  1.00  0.00    -0.080 C 
ATOM      9  C   UNL     1      11.717  19.200  27.761  1.00  0.00     0.039 C 
ENDBRANCH   5   6
ENDBRANCH   4   5
ENDBRANCH   1   4
BRANCH   2  10
ATOM     10  C   UNL     1       6.733  19.356  22.629  1.00  0.00     0.032 C 
BRANCH  10  11
ATOM     11  C   UNL     1       5.409  18.627  22.376  1.00  0.00     0.039 C 
BRANCH  11  12
ATOM     12  C   UNL     1       4.289  19.614  22.134  1.00  0.00    -0.055 C 
ATOM     13  C   UNL     1       3.085  19.377  22.667  1.00  0.00     0.012 C 
BRANCH  12  14
ATOM     14  C   UNL     1       4.491  20.868  21.361  1.00  0.00    -0.005 C 
ATOM     15  C   UNL     1       3.708  21.943  21.464  1.00  0.00     0.009 C 
ENDBRANCH  12  14
ENDBRANCH  11  12
ENDBRANCH  10  11
ENDBRANCH   2  10
TORSDOF 7
ENDMDL
MODEL 6
REMARK VINA RESULT:    -4.048      1.276      5.738
REMARK INTER + INTRA:          -7.380
REMARK INTER:                  -5.987
REMARK INTRA:                  -1.393
REMARK UNBOUND:                -1.675
REMARK SMILES C=CC(=C)CCC=C(C)CCC=C(C)C
REMARK SMILES IDX 8 1 7 2 9 3 10 4 11 5 12 6 14 7 13 8 15 9 6 10 5 11 3 12
REMARK SMILES IDX 4 13 2 14 1 15
REMARK H PARENT
REMARK Flexibility Score: inf
ROOT
ATOM      1  C   UNL     1       8.391  20.124  26.077  1.00  0.00    -0.077 C 
ATOM      2  C   UNL     1       7.789  20.959  25.201  1.00  0.00    -0.028 C 
ATOM      3  C   UNL     1       7.664  18.936  26.659  1.00  0.00     0.039 C 
ENDROOT
BRANCH   1   4
ATOM      4  C   UNL     1       9.826  20.385  26.481  1.00  0.00     0.034 C 
BRANCH   4   5
ATOM      5  C   UNL     1      10.719  19.194  26.118  1.00  0.00     0.032 C 
BRANCH   5   6
ATOM      6  C   UNL     1      11.077  19.220  24.652  1.00  0.00    -0.028 C 
ATOM      7  C   UNL     1      13.276  20.353  25.045  1.00  0.00     0.039 C 
ATOM      8  C   UNL     1      12.234  19.715  24.157  1.00  0.00    -0.080 C 
ATOM      9  C   UNL     1      12.469  19.637  22.670  1.00  0.00     0.039 C 
ENDBRANCH   5   6
ENDBRANCH   4   5
ENDBRANCH   1   4
BRANCH   2  10
ATOM     10  C   UNL     1       6.362  20.780  24.743  1.00  0.00     0.032 C 
BRANCH  10  11
ATOM     11  C   UNL     1       6.287  20.592  23.223  1.00  0.00     0.039 C 
BRANCH  11  12
ATOM     12  C   UNL     1       6.143  19.129  22.869  1.00  0.00    -0.055 C 
ATOM     13  C   UNL     1       4.959  18.675  22.445  1.00  0.00     0.012 C 
BRANCH  12  14
ATOM     14  C   UNL     1       7.288  18.182  22.930  1.00  0.00    -0.005 C 
ATOM     15  C   UNL     1       8.394  18.300  22.194  1.00  0.00     0.009 C 
ENDBRANCH  12  14
ENDBRANCH  11  12
ENDBRANCH  10  11
ENDBRANCH   2  10
TORSDOF 7
ENDMDL
MODEL 7
REMARK VINA RESULT:    -4.018      0.968      4.754
REMARK INTER + INTRA:          -7.337
REMARK INTER:                  -5.604
REMARK INTRA:                  -1.732
REMARK UNBOUND:                -1.675
REMARK SMILES C=CC(=C)CCC=C(C)CCC=C(C)C
REMARK SMILES IDX 8 1 7 2 9 3 10 4 11 5 12 6 14 7 13 8 15 9 6 10 5 11 3 12
REMARK SMILES IDX 4 13 2 14 1 15
REMARK H PARENT
REMARK Flexibility Score: inf
ROOT
ATOM      1  C   UNL     1      10.331  19.825  23.312  1.00  0.00    -0.077 C 
ATOM      2  C   UNL     1       9.637  18.744  22.892  1.00  0.00    -0.028 C 
ATOM      3  C   UNL     1       9.916  21.225  22.924  1.00  0.00     0.039 C 
ENDROOT
BRANCH   1   4
ATOM      4  C   UNL     1      11.547  19.629  24.189  1.00  0.00     0.034 C 
BRANCH   4   5
ATOM      5  C   UNL     1      11.239  20.008  25.641  1.00  0.00     0.032 C 
BRANCH   5   6
ATOM      6  C   UNL     1      10.060  19.222  26.161  1.00  0.00    -0.028 C 
ATOM      7  C   UNL     1       8.617  21.253  26.424  1.00  0.00     0.039 C 
ATOM      8  C   UNL     1       8.867  19.764  26.493  1.00  0.00    -0.080 C 
ATOM      9  C   UNL     1       7.767  18.846  26.961  1.00  0.00     0.039 C 
ENDBRANCH   5   6
ENDBRANCH   4   5
ENDBRANCH   1   4
BRANCH   2  10
ATOM     10  C   UNL     1       8.414  18.841  22.013  1.00  0.00     0.032 C 
BRANCH  10  11
ATOM     11  C   UNL     1       7.222  18.105  22.637  1.00  0.00     0.039 C 
BRANCH  11  12
ATOM     12  C   UNL     1       6.075  19.057  22.890  1.00  0.00    -0.055 C 
ATOM     13  C   UNL     1       4.907  18.847  22.275  1.00  0.00     0.012 C 
BRANCH  12  14
ATOM     14  C   UNL     1       6.186  20.197  23.839  1.00  0.00    -0.005 C 
ATOM     15  C   UNL     1       6.258  21.475  23.465  1.00  0.00     0.009 C 
ENDBRANCH  12  14
ENDBRANCH  11  12
ENDBRANCH  10  11
ENDBRANCH   2  10
TORSDOF 7
ENDMDL
MODEL 8
REMARK VINA RESULT:    -3.962      1.961      3.201
REMARK INTER + INTRA:          -7.258
REMARK INTER:                  -5.078
REMARK INTRA:                  -2.180
REMARK UNBOUND:                -1.675
REMARK SMILES C=CC(=C)CCC=C(C)CCC=C(C)C
REMARK SMILES IDX 8 1 7 2 9 3 10 4 11 5 12 6 14 7 13 8 15 9 6 10 5 11 3 12
REMARK SMILES IDX 4 13 2 14 1 15
REMARK H PARENT
REMARK Flexibility Score: inf
ROOT
ATOM      1  C   UNL     1      10.311  19.680  23.144  1.00  0.00    -0.077 C 
ATOM      2  C   UNL     1      10.513  20.975  23.476  1.00  0.00    -0.028 C 
ATOM      3  C   UNL     1      11.388  18.640  23.341  1.00  0.00     0.039 C 
ENDROOT
BRANCH   1   4
ATOM      4  C   UNL     1       8.977  19.265  22.563  1.00  0.00     0.034 C 
BRANCH   4   5
ATOM      5  C   UNL     1       7.822  19.903  23.341  1.00  0.00     0.032 C 
BRANCH   5   6
ATOM      6  C   UNL     1       7.598  19.187  24.650  1.00  0.00    -0.028 C 
ATOM      7  C   UNL     1       7.889  21.264  26.020  1.00  0.00     0.039 C 
ATOM      8  C   UNL     1       7.600  19.790  25.861  1.00  0.00    -0.080 C 
ATOM      9  C   UNL     1       7.323  18.950  27.081  1.00  0.00     0.039 C 
ENDBRANCH   5   6
ENDBRANCH   4   5
ENDBRANCH   1   4
BRANCH   2  10
ATOM     10  C   UNL     1      11.810  21.482  24.059  1.00  0.00     0.032 C 
BRANCH  10  11
ATOM     11  C   UNL     1      11.676  21.748  25.563  1.00  0.00     0.039 C 
BRANCH  11  12
ATOM     12  C   UNL     1      12.114  20.542  26.363  1.00  0.00    -0.055 C 
ATOM     13  C   UNL     1      13.396  20.165  26.324  1.00  0.00     0.012 C 
BRANCH  12  14
ATOM     14  C   UNL     1      11.175  19.784  27.232  1.00  0.00    -0.005 C 
ATOM     15  C   UNL     1      10.912  18.484  27.092  1.00  0.00     0.009 C 
ENDBRANCH  12  14
ENDBRANCH  11  12
ENDBRANCH  10  11
ENDBRANCH   2  10
TORSDOF 7
ENDMDL
MODEL 9
REMARK VINA RESULT:    -3.927      1.782      3.375
REMARK INTER + INTRA:          -7.210
REMARK INTER:                  -5.217
REMARK INTRA:                  -1.993
REMARK UNBOUND:                -1.675
REMARK SMILES C=CC(=C)CCC=C(C)CCC=C(C)C
REMARK SMILES IDX 8 1 7 2 9 3 10 4 11 5 12 6 14 7 13 8 15 9 6 10 5 11 3 12
REMARK SMILES IDX 4 13 2 14 1 15
REMARK H PARENT
REMARK Flexibility Score: inf
ROOT
ATOM      1  C   UNL     1       7.914  19.034  23.484  1.00  0.00    -0.077 C 
ATOM      2  C   UNL     1       7.398  19.141  24.729  1.00  0.00    -0.028 C 
ATOM      3  C   UNL     1       9.132  19.823  23.066  1.00  0.00     0.039 C 
ENDROOT
BRANCH   1   4
ATOM      4  C   UNL     1       7.258  18.102  22.489  1.00  0.00     0.034 C 
BRANCH   4   5
ATOM      5  C   UNL     1       5.742  18.325  22.451  1.00  0.00     0.032 C 
BRANCH   5   6
ATOM      6  C   UNL     1       5.416  19.688  21.892  1.00  0.00    -0.028 C 
ATOM      7  C   UNL     1       2.995  19.541  22.517  1.00  0.00     0.039 C 
ATOM      8  C   UNL     1       4.191  20.259  21.936  1.00  0.00    -0.080 C 
ATOM      9  C   UNL     1       4.025  21.646  21.371  1.00  0.00     0.039 C 
ENDBRANCH   5   6
ENDBRANCH   4   5
ENDBRANCH   1   4
BRANCH   2  10
ATOM     10  C   UNL     1       7.983  20.046  25.786  1.00  0.00     0.032 C 
BRANCH  10  11
ATOM     11  C   UNL     1       6.922  20.998  26.350  1.00  0.00     0.039 C 
BRANCH  11  12
ATOM     12  C   UNL     1       6.361  21.884  25.259  1.00  0.00    -0.055 C 
ATOM     13  C   UNL     1       5.040  21.910  25.057  1.00  0.00     0.012 C 
BRANCH  12  14
ATOM     14  C   UNL     1       7.227  22.766  24.432  1.00  0.00    -0.005 C 
ATOM     15  C   UNL     1       7.129  22.876  23.106  1.00  0.00     0.009 C 
ENDBRANCH  12  14
ENDBRANCH  11  12
ENDBRANCH  10  11
ENDBRANCH   2  10
TORSDOF 7
ENDMDL
