MODEL 1
REMARK VINA RESULT:    -5.736      0.000      0.000
REMARK INTER + INTRA:          -6.623
REMARK INTER:                  -6.574
REMARK INTRA:                  -0.049
REMARK UNBOUND:                -0.049
REMARK SMILES O=C([O-])c1cc(O)c(O)c(O)c1
REMARK SMILES IDX 4 1 5 2 12 3 6 4 10 5 8 6 2 7 1 8 3 9 7 10 11 12 9 14
REMARK H PARENT 7 11 11 13 9 15
REMARK Flexibility Score: inf
ROOT
ATOM      1  C   UNL     1      71.663  40.209  -5.378  1.00  0.00     0.005 A 
ATOM      2  C   UNL     1      72.755  39.922  -6.215  1.00  0.00     0.060 A 
ATOM      3  C   UNL     1      70.362  40.126  -5.902  1.00  0.00     0.060 A 
ATOM      4  C   UNL     1      72.551  39.558  -7.553  1.00  0.00     0.162 A 
ATOM      5  C   UNL     1      70.153  39.763  -7.240  1.00  0.00     0.162 A 
ATOM      6  C   UNL     1      71.252  39.479  -8.068  1.00  0.00     0.200 A 
ENDROOT
BRANCH   1   7
ATOM      7  C   UNL     1      71.875  40.593  -3.965  1.00  0.00     0.072 C 
ATOM      8  O   UNL     1      71.149  40.113  -3.054  1.00  0.00    -0.545 OA
ATOM      9  O   UNL     1      72.880  41.489  -3.621  1.00  0.00    -0.545 OA
ENDBRANCH   1   7
BRANCH   4  10
ATOM     10  O   UNL     1      73.638  39.274  -8.379  1.00  0.00    -0.504 OA
ATOM     11  H   UNL     1      74.345  38.601  -8.112  1.00  0.00     0.293 HD
ENDBRANCH   4  10
BRANCH   5  12
ATOM     12  O   UNL     1      68.857  39.685  -7.749  1.00  0.00    -0.504 OA
ATOM     13  H   UNL     1      68.269  40.507  -7.834  1.00  0.00     0.293 HD
ENDBRANCH   5  12
BRANCH   6  14
ATOM     14  O   UNL     1      71.068  39.115  -9.402  1.00  0.00    -0.502 OA
ATOM     15  H   UNL     1      70.420  39.603 -10.011  1.00  0.00     0.293 HD
ENDBRANCH   6  14
TORSDOF 4
ENDMDL
MODEL 2
REMARK VINA RESULT:    -5.677      0.059      2.422
REMARK INTER + INTRA:          -6.556
REMARK INTER:                  -6.507
REMARK INTRA:                  -0.048
REMARK UNBOUND:                -0.049
REMARK SMILES O=C([O-])c1cc(O)c(O)c(O)c1
REMARK SMILES IDX 4 1 5 2 12 3 6 4 10 5 8 6 2 7 1 8 3 9 7 10 11 12 9 14
REMARK H PARENT 7 11 11 13 9 15
REMARK Flexibility Score: inf
ROOT
ATOM      1  C   UNL     1      71.641  40.208  -5.361  1.00  0.00     0.005 A 
ATOM      2  C   UNL     1      70.349  40.167  -5.913  1.00  0.00     0.060 A 
ATOM      3  C   UNL     1      72.741  39.896  -6.176  1.00  0.00     0.060 A 
ATOM      4  C   UNL     1      70.161  39.822  -7.259  1.00  0.00     0.162 A 
ATOM      5  C   UNL     1      72.558  39.551  -7.522  1.00  0.00     0.162 A 
ATOM      6  C   UNL     1      71.263  39.513  -8.065  1.00  0.00     0.200 A 
ENDROOT
BRANCH   1   7
ATOM      7  C   UNL     1      71.842  40.571  -3.941  1.00  0.00     0.072 C 
ATOM      8  O   UNL     1      71.114  40.072  -3.041  1.00  0.00    -0.545 OA
ATOM      9  O   UNL     1      72.838  41.470  -3.577  1.00  0.00    -0.545 OA
ENDBRANCH   1   7
BRANCH   4  10
ATOM     10  O   UNL     1      68.877  39.785  -7.803  1.00  0.00    -0.504 OA
ATOM     11  H   UNL     1      68.439  38.911  -8.068  1.00  0.00     0.293 HD
ENDBRANCH   4  10
BRANCH   5  12
ATOM     12  O   UNL     1      73.659  39.243  -8.321  1.00  0.00    -0.504 OA
ATOM     13  H   UNL     1      74.363  39.937  -8.546  1.00  0.00     0.293 HD
ENDBRANCH   5  12
BRANCH   6  14
ATOM     14  O   UNL     1      71.056  39.172  -9.402  1.00  0.00    -0.502 OA
ATOM     15  H   UNL     1      70.266  39.522  -9.932  1.00  0.00     0.293 HD
ENDBRANCH   6  14
TORSDOF 4
ENDMDL
MODEL 3
REMARK VINA RESULT:    -5.603      1.206      4.355
REMARK INTER + INTRA:          -6.470
REMARK INTER:                  -6.422
REMARK INTRA:                  -0.048
REMARK UNBOUND:                -0.049
REMARK SMILES O=C([O-])c1cc(O)c(O)c(O)c1
REMARK SMILES IDX 4 1 5 2 12 3 6 4 10 5 8 6 2 7 1 8 3 9 7 10 11 12 9 14
REMARK H PARENT 7 11 11 13 9 15
REMARK Flexibility Score: inf
ROOT
ATOM      1  C   UNL     1      72.503  39.874  -6.578  1.00  0.00     0.005 A 
ATOM      2  C   UNL     1      73.712  40.543  -6.317  1.00  0.00     0.060 A 
ATOM      3  C   UNL     1      71.510  39.849  -5.584  1.00  0.00     0.060 A 
ATOM      4  C   UNL     1      73.923  41.178  -5.085  1.00  0.00     0.162 A 
ATOM      5  C   UNL     1      71.717  40.482  -4.351  1.00  0.00     0.162 A 
ATOM      6  C   UNL     1      72.929  41.148  -4.101  1.00  0.00     0.200 A 
ENDROOT
BRANCH   1   7
ATOM      7  C   UNL     1      72.277  39.204  -7.877  1.00  0.00     0.072 C 
ATOM      8  O   UNL     1      71.204  39.384  -8.513  1.00  0.00    -0.545 OA
ATOM      9  O   UNL     1      73.245  38.364  -8.415  1.00  0.00    -0.545 OA
ENDBRANCH   1   7
BRANCH   4  10
ATOM     10  O   UNL     1      75.124  41.841  -4.832  1.00  0.00    -0.504 OA
ATOM     11  H   UNL     1      75.717  42.169  -5.584  1.00  0.00     0.293 HD
ENDBRANCH   4  10
BRANCH   5  12
ATOM     12  O   UNL     1      70.723  40.450  -3.373  1.00  0.00    -0.504 OA
ATOM     13  H   UNL     1      69.770  40.729  -3.575  1.00  0.00     0.293 HD
ENDBRANCH   5  12
BRANCH   6  14
ATOM     14  O   UNL     1      73.157  41.786  -2.881  1.00  0.00    -0.502 OA
ATOM     15  H   UNL     1      72.913  41.359  -1.995  1.00  0.00     0.293 HD
ENDBRANCH   6  14
TORSDOF 4
ENDMDL
MODEL 4
REMARK VINA RESULT:    -5.585      1.213      4.929
REMARK INTER + INTRA:          -6.451
REMARK INTER:                  -6.403
REMARK INTRA:                  -0.048
REMARK UNBOUND:                -0.049
REMARK SMILES O=C([O-])c1cc(O)c(O)c(O)c1
REMARK SMILES IDX 4 1 5 2 12 3 6 4 10 5 8 6 2 7 1 8 3 9 7 10 11 12 9 14
REMARK H PARENT 7 11 11 13 9 15
REMARK Flexibility Score: inf
ROOT
ATOM      1  C   UNL     1      72.508  39.872  -6.589  1.00  0.00     0.005 A 
ATOM      2  C   UNL     1      71.527  39.835  -5.583  1.00  0.00     0.060 A 
ATOM      3  C   UNL     1      73.708  40.560  -6.345  1.00  0.00     0.060 A 
ATOM      4  C   UNL     1      71.743  40.473  -4.354  1.00  0.00     0.162 A 
ATOM      5  C   UNL     1      73.929  41.200  -5.118  1.00  0.00     0.162 A 
ATOM      6  C   UNL     1      72.942  41.157  -4.119  1.00  0.00     0.200 A 
ENDROOT
BRANCH   1   7
ATOM      7  C   UNL     1      72.283  39.199  -7.887  1.00  0.00     0.072 C 
ATOM      8  O   UNL     1      71.221  39.397  -8.537  1.00  0.00    -0.545 OA
ATOM      9  O   UNL     1      73.240  38.337  -8.410  1.00  0.00    -0.545 OA
ENDBRANCH   1   7
BRANCH   4  10
ATOM     10  O   UNL     1      70.767  40.433  -3.358  1.00  0.00    -0.504 OA
ATOM     11  H   UNL     1      69.832  40.090  -3.546  1.00  0.00     0.293 HD
ENDBRANCH   4  10
BRANCH   5  12
ATOM     12  O   UNL     1      75.125  41.880  -4.888  1.00  0.00    -0.504 OA
ATOM     13  H   UNL     1      75.400  42.172  -3.958  1.00  0.00     0.293 HD
ENDBRANCH   5  12
BRANCH   6  14
ATOM     14  O   UNL     1      73.138  41.786  -2.890  1.00  0.00    -0.502 OA
ATOM     15  H   UNL     1      72.844  41.367  -2.015  1.00  0.00     0.293 HD
ENDBRANCH   6  14
TORSDOF 4
ENDMDL
MODEL 5
REMARK VINA RESULT:    -5.417      1.790      2.442
REMARK INTER + INTRA:          -6.257
REMARK INTER:                  -6.206
REMARK INTRA:                  -0.051
REMARK UNBOUND:                -0.049
REMARK SMILES O=C([O-])c1cc(O)c(O)c(O)c1
REMARK SMILES IDX 4 1 5 2 12 3 6 4 10 5 8 6 2 7 1 8 3 9 7 10 11 12 9 14
REMARK H PARENT 7 11 11 13 9 15
REMARK Flexibility Score: inf
ROOT
ATOM      1  C   UNL     1      73.612  41.137  -5.254  1.00  0.00     0.005 A 
ATOM      2  C   UNL     1      74.189  40.766  -6.481  1.00  0.00     0.060 A 
ATOM      3  C   UNL     1      72.385  40.564  -4.877  1.00  0.00     0.060 A 
ATOM      4  C   UNL     1      73.552  39.839  -7.317  1.00  0.00     0.162 A 
ATOM      5  C   UNL     1      71.745  39.636  -5.710  1.00  0.00     0.162 A 
ATOM      6  C   UNL     1      72.330  39.273  -6.934  1.00  0.00     0.200 A 
ENDROOT
BRANCH   1   7
ATOM      7  C   UNL     1      74.282  42.115  -4.370  1.00  0.00     0.072 C 
ATOM      8  O   UNL     1      75.105  42.946  -4.840  1.00  0.00    -0.545 OA
ATOM      9  O   UNL     1      74.013  42.134  -3.006  1.00  0.00    -0.545 OA
ENDBRANCH   1   7
BRANCH   4  10
ATOM     10  O   UNL     1      74.130  39.474  -8.533  1.00  0.00    -0.504 OA
ATOM     11  H   UNL     1      74.882  40.013  -8.945  1.00  0.00     0.293 HD
ENDBRANCH   4  10
BRANCH   5  12
ATOM     12  O   UNL     1      70.528  39.074  -5.325  1.00  0.00    -0.504 OA
ATOM     13  H   UNL     1      70.241  39.042  -4.353  1.00  0.00     0.293 HD
ENDBRANCH   5  12
BRANCH   6  14
ATOM     14  O   UNL     1      71.711  38.351  -7.779  1.00  0.00    -0.502 OA
ATOM     15  H   UNL     1      71.221  38.634  -8.620  1.00  0.00     0.293 HD
ENDBRANCH   6  14
TORSDOF 4
ENDMDL
MODEL 6
REMARK VINA RESULT:    -5.391      1.802      3.285
REMARK INTER + INTRA:          -6.227
REMARK INTER:                  -6.176
REMARK INTRA:                  -0.051
REMARK UNBOUND:                -0.049
REMARK SMILES O=C([O-])c1cc(O)c(O)c(O)c1
REMARK SMILES IDX 4 1 5 2 12 3 6 4 10 5 8 6 2 7 1 8 3 9 7 10 11 12 9 14
REMARK H PARENT 7 11 11 13 9 15
REMARK Flexibility Score: inf
ROOT
ATOM      1  C   UNL     1      73.625  41.142  -5.259  1.00  0.00     0.005 A 
ATOM      2  C   UNL     1      72.377  40.586  -4.926  1.00  0.00     0.060 A 
ATOM      3  C   UNL     1      74.239  40.766  -6.465  1.00  0.00     0.060 A 
ATOM      4  C   UNL     1      71.754  39.671  -5.786  1.00  0.00     0.162 A 
ATOM      5  C   UNL     1      73.620  39.851  -7.328  1.00  0.00     0.162 A 
ATOM      6  C   UNL     1      72.373  39.301  -6.986  1.00  0.00     0.200 A 
ENDROOT
BRANCH   1   7
ATOM      7  C   UNL     1      74.286  42.108  -4.354  1.00  0.00     0.072 C 
ATOM      8  O   UNL     1      75.125  42.935  -4.801  1.00  0.00    -0.545 OA
ATOM      9  O   UNL     1      73.990  42.119  -2.996  1.00  0.00    -0.545 OA
ENDBRANCH   1   7
BRANCH   4  10
ATOM     10  O   UNL     1      70.516  39.122  -5.452  1.00  0.00    -0.504 OA
ATOM     11  H   UNL     1      70.000  39.434  -4.638  1.00  0.00     0.293 HD
ENDBRANCH   4  10
BRANCH   5  12
ATOM     12  O   UNL     1      74.240  39.486  -8.522  1.00  0.00    -0.504 OA
ATOM     13  H   UNL     1      75.089  38.934  -8.533  1.00  0.00     0.293 HD
ENDBRANCH   5  12
BRANCH   6  14
ATOM     14  O   UNL     1      71.737  38.389  -7.828  1.00  0.00    -0.502 OA
ATOM     15  H   UNL     1      71.269  37.563  -7.474  1.00  0.00     0.293 HD
ENDBRANCH   6  14
TORSDOF 4
ENDMDL
MODEL 7
REMARK VINA RESULT:    -5.219      1.239      4.557
REMARK INTER + INTRA:          -6.030
REMARK INTER:                  -5.979
REMARK INTRA:                  -0.052
REMARK UNBOUND:                -0.049
REMARK SMILES O=C([O-])c1cc(O)c(O)c(O)c1
REMARK SMILES IDX 4 1 5 2 12 3 6 4 10 5 8 6 2 7 1 8 3 9 7 10 11 12 9 14
REMARK H PARENT 7 11 11 13 9 15
REMARK Flexibility Score: inf
ROOT
ATOM      1  C   UNL     1      73.009  39.931  -7.654  1.00  0.00     0.005 A 
ATOM      2  C   UNL     1      71.638  39.627  -7.721  1.00  0.00     0.060 A 
ATOM      3  C   UNL     1      73.554  40.358  -6.432  1.00  0.00     0.060 A 
ATOM      4  C   UNL     1      70.826  39.748  -6.584  1.00  0.00     0.162 A 
ATOM      5  C   UNL     1      72.747  40.481  -5.293  1.00  0.00     0.162 A 
ATOM      6  C   UNL     1      71.377  40.175  -5.370  1.00  0.00     0.200 A 
ENDROOT
BRANCH   1   7
ATOM      7  C   UNL     1      73.868  39.804  -8.852  1.00  0.00     0.072 C 
ATOM      8  O   UNL     1      75.117  39.682  -8.735  1.00  0.00    -0.545 OA
ATOM      9  O   UNL     1      73.311  39.818 -10.125  1.00  0.00    -0.545 OA
ENDBRANCH   1   7
BRANCH   4  10
ATOM     10  O   UNL     1      69.467  39.445  -6.655  1.00  0.00    -0.504 OA
ATOM     11  H   UNL     1      68.780  39.963  -6.121  1.00  0.00     0.293 HD
ENDBRANCH   4  10
BRANCH   5  12
ATOM     12  O   UNL     1      73.300  40.906  -4.086  1.00  0.00    -0.504 OA
ATOM     13  H   UNL     1      73.306  40.312  -3.265  1.00  0.00     0.293 HD
ENDBRANCH   5  12
BRANCH   6  14
ATOM     14  O   UNL     1      70.554  40.289  -4.250  1.00  0.00    -0.502 OA
ATOM     15  H   UNL     1      69.658  39.819  -4.188  1.00  0.00     0.293 HD
ENDBRANCH   6  14
TORSDOF 4
ENDMDL
MODEL 8
REMARK VINA RESULT:    -4.821      3.540      5.339
REMARK INTER + INTRA:          -5.574
REMARK INTER:                  -5.522
REMARK INTRA:                  -0.053
REMARK UNBOUND:                -0.049
REMARK SMILES O=C([O-])c1cc(O)c(O)c(O)c1
REMARK SMILES IDX 4 1 5 2 12 3 6 4 10 5 8 6 2 7 1 8 3 9 7 10 11 12 9 14
REMARK H PARENT 7 11 11 13 9 15
REMARK Flexibility Score: inf
ROOT
ATOM      1  C   UNL     1      73.596  43.882  -3.059  1.00  0.00     0.005 A 
ATOM      2  C   UNL     1      72.780  42.813  -2.649  1.00  0.00     0.060 A 
ATOM      3  C   UNL     1      74.375  43.739  -4.219  1.00  0.00     0.060 A 
ATOM      4  C   UNL     1      72.744  41.622  -3.387  1.00  0.00     0.162 A 
ATOM      5  C   UNL     1      74.342  42.550  -4.960  1.00  0.00     0.162 A 
ATOM      6  C   UNL     1      73.523  41.487  -4.542  1.00  0.00     0.200 A 
ENDROOT
BRANCH   1   7
ATOM      7  C   UNL     1      73.637  45.140  -2.282  1.00  0.00     0.072 C 
ATOM      8  O   UNL     1      72.858  45.318  -1.308  1.00  0.00    -0.545 OA
ATOM      9  O   UNL     1      74.537  46.146  -2.615  1.00  0.00    -0.545 OA
ENDBRANCH   1   7
BRANCH   4  10
ATOM     10  O   UNL     1      71.932  40.564  -2.977  1.00  0.00    -0.504 OA
ATOM     11  H   UNL     1      72.182  39.979  -2.189  1.00  0.00     0.293 HD
ENDBRANCH   4  10
BRANCH   5  12
ATOM     12  O   UNL     1      75.120  42.420  -6.110  1.00  0.00    -0.504 OA
ATOM     13  H   UNL     1      75.645  41.575  -6.305  1.00  0.00     0.293 HD
ENDBRANCH   5  12
BRANCH   6  14
ATOM     14  O   UNL     1      73.473  40.294  -5.263  1.00  0.00    -0.502 OA
ATOM     15  H   UNL     1      73.013  39.465  -4.905  1.00  0.00     0.293 HD
ENDBRANCH   6  14
TORSDOF 4
ENDMDL
MODEL 9
REMARK VINA RESULT:    -4.767      3.538      4.982
REMARK INTER + INTRA:          -5.513
REMARK INTER:                  -5.462
REMARK INTRA:                  -0.051
REMARK UNBOUND:                -0.049
REMARK SMILES O=C([O-])c1cc(O)c(O)c(O)c1
REMARK SMILES IDX 4 1 5 2 12 3 6 4 10 5 8 6 2 7 1 8 3 9 7 10 11 12 9 14
REMARK H PARENT 7 11 11 13 9 15
REMARK Flexibility Score: inf
ROOT
ATOM      1  C   UNL     1      73.498  43.864  -3.028  1.00  0.00     0.005 A 
ATOM      2  C   UNL     1      74.317  43.719  -4.161  1.00  0.00     0.060 A 
ATOM      3  C   UNL     1      72.671  42.795  -2.644  1.00  0.00     0.060 A 
ATOM      4  C   UNL     1      74.310  42.526  -4.897  1.00  0.00     0.162 A 
ATOM      5  C   UNL     1      72.661  41.600  -3.376  1.00  0.00     0.162 A 
ATOM      6  C   UNL     1      73.483  41.466  -4.507  1.00  0.00     0.200 A 
ENDROOT
BRANCH   1   7
ATOM      7  C   UNL     1      73.502  45.122  -2.250  1.00  0.00     0.072 C 
ATOM      8  O   UNL     1      74.515  45.872  -2.249  1.00  0.00    -0.545 OA
ATOM      9  O   UNL     1      72.389  45.496  -1.507  1.00  0.00    -0.545 OA
ENDBRANCH   1   7
BRANCH   4  10
ATOM     10  O   UNL     1      75.125  42.387  -6.020  1.00  0.00    -0.504 OA
ATOM     11  H   UNL     1      75.894  43.021  -6.199  1.00  0.00     0.293 HD
ENDBRANCH   4  10
BRANCH   5  12
ATOM     12  O   UNL     1      71.836  40.546  -2.984  1.00  0.00    -0.504 OA
ATOM     13  H   UNL     1      71.052  40.690  -2.358  1.00  0.00     0.293 HD
ENDBRANCH   5  12
BRANCH   6  14
ATOM     14  O   UNL     1      73.491  40.286  -5.252  1.00  0.00    -0.502 OA
ATOM     15  H   UNL     1      73.933  40.224  -6.161  1.00  0.00     0.293 HD
ENDBRANCH   6  14
TORSDOF 4
ENDMDL
