MODEL 1
REMARK VINA RESULT:    -4.440      0.000      0.000
REMARK INTER + INTRA:          -7.039
REMARK INTER:                  -6.516
REMARK INTRA:                  -0.523
REMARK UNBOUND:                -0.523
REMARK SMILES C=C1C=C[C@H](C(C)C)CCC(C)=CCC1
REMARK SMILES IDX 3 1 4 2 5 3 9 4 10 5 11 6 12 7 13 8 6 10 7 11 8 12 2 13 1 14
REMARK SMILES IDX 15 15 14 16
REMARK H PARENT
REMARK Flexibility Score: 70.00
ROOT
ATOM      1  C   UNL     1       8.727  34.353  21.536  1.00  0.00    -0.001 C 
ATOM      2  C   UNL     1       9.531  34.315  22.621  1.00  0.00    -0.023 C 
ENDROOT
BRANCH   2   3
ATOM      3  C   UNL     1       9.942  33.148  23.520  1.00  0.00     0.014 C 
BRANCH   3   4
ATOM      4  C   UNL     1      11.424  32.712  23.453  1.00  0.00     0.012 C 
BRANCH   4   5
ATOM      5  C   UNL     1      12.110  33.185  22.158  1.00  0.00     0.031 C 
BRANCH   5   6
ATOM      6  C   UNL     1      12.230  32.057  21.156  1.00  0.00    -0.077 C 
ATOM      7  C   UNL     1      13.334  31.051  21.345  1.00  0.00     0.039 C 
ATOM      8  C   UNL     1      11.432  31.936  20.069  1.00  0.00    -0.028 CG0
ATOM      9  G   UNL     1      10.306  32.868  19.684  1.00  0.00     0.000 G0
ENDBRANCH   5   6
ENDBRANCH   4   5
ENDBRANCH   3   4
BRANCH   3  10
ATOM     10  C   UNL     1       9.418  33.280  24.982  1.00  0.00    -0.010 C 
ATOM     11  C   UNL     1       7.954  32.862  25.150  1.00  0.00     0.008 C 
ATOM     12  C   UNL     1      10.300  32.507  25.978  1.00  0.00     0.008 C 
ENDBRANCH   3  10
ENDBRANCH   2   3
BRANCH   1  13
ATOM     13  C   UNL     1       8.079  33.227  20.829  1.00  0.00    -0.055 C 
ATOM     14  C   UNL     1       6.855  32.830  21.192  1.00  0.00     0.012 C 
BRANCH  13  15
ATOM     15  C   UNL     1       8.941  32.282  20.021  1.00  0.00     0.039 C 
BRANCH  15  16
ATOM     16  C   UNL     1      10.306  32.867  19.650  1.00  0.00     0.032 CG0
ATOM     17  G   UNL     1      11.440  31.955  20.058  1.00  0.00     0.000 G0
ENDBRANCH  15  16
ENDBRANCH  13  15
ENDBRANCH   1  13
TORSDOF 1
ENDMDL
MODEL 2
REMARK VINA RESULT:    -4.415      1.188      3.511
REMARK INTER + INTRA:          -7.003
REMARK INTER:                  -6.485
REMARK INTRA:                  -0.518
REMARK UNBOUND:                -0.523
REMARK SMILES C=C1C=C[C@H](C(C)C)CCC(C)=CCC1
REMARK SMILES IDX 3 1 4 2 5 3 9 4 10 5 11 6 12 7 13 8 6 10 7 11 8 12 2 13 1 14
REMARK SMILES IDX 15 15 14 16
REMARK H PARENT
REMARK Flexibility Score: 70.00
ROOT
ATOM      1  C   UNL     1      12.036  31.841  22.059  1.00  0.00    -0.001 C 
ATOM      2  C   UNL     1      10.934  32.170  22.768  1.00  0.00    -0.023 C 
ENDROOT
BRANCH   2   3
ATOM      3  C   UNL     1      10.364  33.536  23.152  1.00  0.00     0.014 C 
BRANCH   3   4
ATOM      4  C   UNL     1       9.396  34.192  22.140  1.00  0.00     0.012 C 
BRANCH   4   5
ATOM      5  C   UNL     1       8.947  33.206  21.045  1.00  0.00     0.031 C 
BRANCH   5   6
ATOM      6  C   UNL     1       9.173  33.780  19.662  1.00  0.00    -0.077 C 
ATOM      7  C   UNL     1       8.090  34.640  19.064  1.00  0.00     0.039 C 
ATOM      8  C   UNL     1      10.269  33.517  18.914  1.00  0.00    -0.028 CG0
ATOM      9  G   UNL     1      11.434  32.643  19.319  1.00  0.00     0.000 G0
ENDBRANCH   5   6
ENDBRANCH   4   5
ENDBRANCH   3   4
BRANCH   3  10
ATOM     10  C   UNL     1       9.832  33.593  24.617  1.00  0.00    -0.010 C 
ATOM     11  C   UNL     1       8.326  33.346  24.734  1.00  0.00     0.008 C 
ATOM     12  C   UNL     1      10.594  32.626  25.540  1.00  0.00     0.008 C 
ENDBRANCH   3  10
ENDBRANCH   2   3
BRANCH   1  13
ATOM     13  C   UNL     1      12.975  32.736  21.349  1.00  0.00    -0.055 C 
ATOM     14  C   UNL     1      14.061  33.196  21.979  1.00  0.00     0.012 C 
BRANCH  13  15
ATOM     15  C   UNL     1      12.499  33.450  20.103  1.00  0.00     0.039 C 
BRANCH  15  16
ATOM     16  C   UNL     1      11.459  32.657  19.305  1.00  0.00     0.032 CG0
ATOM     17  G   UNL     1      10.271  33.510  18.925  1.00  0.00     0.000 G0
ENDBRANCH  15  16
ENDBRANCH  13  15
ENDBRANCH   1  13
TORSDOF 1
ENDMDL
MODEL 3
REMARK VINA RESULT:    -4.253      2.305      4.695
REMARK INTER + INTRA:          -6.766
REMARK INTER:                  -6.352
REMARK INTRA:                  -0.414
REMARK UNBOUND:                -0.523
REMARK SMILES C=C1C=C[C@H](C(C)C)CCC(C)=CCC1
REMARK SMILES IDX 3 1 4 2 5 3 9 4 10 5 11 6 12 7 13 8 6 10 7 11 8 12 2 13 1 14
REMARK SMILES IDX 15 15 14 16
REMARK H PARENT
REMARK Flexibility Score: 70.00
ROOT
ATOM      1  C   UNL     1       9.672  33.997  24.142  1.00  0.00    -0.001 C 
ATOM      2  C   UNL     1      10.349  33.823  22.986  1.00  0.00    -0.023 C 
ENDROOT
BRANCH   2   3
ATOM      3  C   UNL     1      11.232  32.670  22.508  1.00  0.00     0.014 C 
BRANCH   3   4
ATOM      4  C   UNL     1      10.521  31.515  21.765  1.00  0.00     0.012 C 
BRANCH   4   5
ATOM      5  C   UNL     1       9.067  31.868  21.403  1.00  0.00     0.031 C 
BRANCH   5   6
ATOM      6  C   UNL     1       8.099  30.841  21.954  1.00  0.00    -0.077 C 
ATOM      7  C   UNL     1       7.872  29.581  21.162  1.00  0.00     0.039 C 
ATOM      8  C   UNL     1       7.388  31.021  23.091  1.00  0.00    -0.028 CG0
ATOM      9  G   UNL     1       7.441  32.233  23.993  1.00  0.00     0.000 G0
ENDBRANCH   5   6
ENDBRANCH   4   5
ENDBRANCH   3   4
BRANCH   3  10
ATOM     10  C   UNL     1      12.529  33.145  21.784  1.00  0.00    -0.010 C 
ATOM     11  C   UNL     1      13.719  32.202  21.974  1.00  0.00     0.008 C 
ATOM     12  C   UNL     1      12.289  33.389  20.283  1.00  0.00     0.008 C 
ENDBRANCH   3  10
ENDBRANCH   2   3
BRANCH   1  13
ATOM     13  C   UNL     1       9.509  33.048  25.265  1.00  0.00    -0.055 C 
ATOM     14  C   UNL     1      10.514  32.856  26.124  1.00  0.00     0.012 C 
BRANCH  13  15
ATOM     15  C   UNL     1       8.407  32.014  25.190  1.00  0.00     0.039 C 
BRANCH  15  16
ATOM     16  C   UNL     1       7.447  32.229  24.016  1.00  0.00     0.032 CG0
ATOM     17  G   UNL     1       7.398  31.026  23.102  1.00  0.00     0.000 G0
ENDBRANCH  15  16
ENDBRANCH  13  15
ENDBRANCH   1  13
TORSDOF 1
ENDMDL
MODEL 4
REMARK VINA RESULT:    -4.095      2.258      4.280
REMARK INTER + INTRA:          -6.533
REMARK INTER:                  -6.021
REMARK INTRA:                  -0.512
REMARK UNBOUND:                -0.523
REMARK SMILES C=C1C=C[C@H](C(C)C)CCC(C)=CCC1
REMARK SMILES IDX 3 1 4 2 5 3 9 4 10 5 11 6 12 7 13 8 6 10 7 11 8 12 2 13 1 14
REMARK SMILES IDX 15 15 14 16
REMARK H PARENT
REMARK Flexibility Score: 70.00
ROOT
ATOM      1  C   UNL     1       7.882  33.423  21.470  1.00  0.00    -0.001 C 
ATOM      2  C   UNL     1       8.961  34.219  21.627  1.00  0.00    -0.023 C 
ENDROOT
BRANCH   2   3
ATOM      3  C   UNL     1      10.425  33.876  21.909  1.00  0.00     0.014 C 
BRANCH   3   4
ATOM      4  C   UNL     1      10.773  33.467  23.360  1.00  0.00     0.012 C 
BRANCH   4   5
ATOM      5  C   UNL     1       9.688  33.904  24.361  1.00  0.00     0.031 C 
BRANCH   5   6
ATOM      6  C   UNL     1       9.331  32.779  25.310  1.00  0.00    -0.077 C 
ATOM      7  C   UNL     1      10.200  32.569  26.522  1.00  0.00     0.039 C 
ATOM      8  C   UNL     1       8.307  31.920  25.099  1.00  0.00    -0.028 CG0
ATOM      9  G   UNL     1       7.358  31.939  23.923  1.00  0.00     0.000 G0
ENDBRANCH   5   6
ENDBRANCH   4   5
ENDBRANCH   3   4
BRANCH   3  10
ATOM     10  C   UNL     1      11.051  32.922  20.847  1.00  0.00    -0.010 C 
ATOM     11  C   UNL     1      12.103  33.594  19.961  1.00  0.00     0.008 C 
ATOM     12  C   UNL     1      11.643  31.657  21.493  1.00  0.00     0.008 C 
ENDBRANCH   3  10
ENDBRANCH   2   3
BRANCH   1  13
ATOM     13  C   UNL     1       7.827  31.945  21.426  1.00  0.00    -0.055 C 
ATOM     14  C   UNL     1       7.333  31.330  20.347  1.00  0.00     0.012 C 
BRANCH  13  15
ATOM     15  C   UNL     1       7.921  31.174  22.725  1.00  0.00     0.039 C 
BRANCH  15  16
ATOM     16  C   UNL     1       7.350  31.931  23.927  1.00  0.00     0.032 CG0
ATOM     17  G   UNL     1       8.302  31.923  25.102  1.00  0.00     0.000 G0
ENDBRANCH  15  16
ENDBRANCH  13  15
ENDBRANCH   1  13
TORSDOF 1
ENDMDL
MODEL 5
REMARK VINA RESULT:    -4.081      2.136      4.461
REMARK INTER + INTRA:          -6.513
REMARK INTER:                  -5.919
REMARK INTRA:                  -0.594
REMARK UNBOUND:                -0.523
REMARK SMILES C=C1C=C[C@H](C(C)C)CCC(C)=CCC1
REMARK SMILES IDX 3 1 4 2 5 3 9 4 10 5 11 6 12 7 13 8 6 10 7 11 8 12 2 13 1 14
REMARK SMILES IDX 15 15 14 16
REMARK H PARENT
REMARK Flexibility Score: 70.00
ROOT
ATOM      1  C   UNL     1      10.409  30.467  20.831  1.00  0.00    -0.001 C 
ATOM      2  C   UNL     1      11.498  31.159  21.230  1.00  0.00    -0.023 C 
ENDROOT
BRANCH   2   3
ATOM      3  C   UNL     1      11.631  32.574  21.793  1.00  0.00     0.014 C 
BRANCH   3   4
ATOM      4  C   UNL     1      11.589  32.713  23.333  1.00  0.00     0.012 C 
BRANCH   4   5
ATOM      5  C   UNL     1      10.373  33.530  23.808  1.00  0.00     0.031 C 
BRANCH   5   6
ATOM      6  C   UNL     1       9.497  32.719  24.740  1.00  0.00    -0.077 C 
ATOM      7  C   UNL     1       9.900  32.618  26.187  1.00  0.00     0.039 C 
ATOM      8  C   UNL     1       8.402  32.037  24.330  1.00  0.00    -0.028 CG0
ATOM      9  G   UNL     1       7.868  31.977  22.917  1.00  0.00     0.000 G0
ENDBRANCH   5   6
ENDBRANCH   4   5
ENDBRANCH   3   4
BRANCH   3  10
ATOM     10  C   UNL     1      12.792  33.389  21.146  1.00  0.00    -0.010 C 
ATOM     11  C   UNL     1      14.179  33.005  21.670  1.00  0.00     0.008 C 
ATOM     12  C   UNL     1      12.770  33.296  19.610  1.00  0.00     0.008 C 
ENDBRANCH   3  10
ENDBRANCH   2   3
BRANCH   1  13
ATOM     13  C   UNL     1       8.984  30.857  20.922  1.00  0.00    -0.055 C 
ATOM     14  C   UNL     1       8.469  31.705  20.027  1.00  0.00     0.012 C 
BRANCH  13  15
ATOM     15  C   UNL     1       8.255  30.646  22.231  1.00  0.00     0.039 C 
BRANCH  15  16
ATOM     16  C   UNL     1       7.856  31.952  22.924  1.00  0.00     0.032 CG0
ATOM     17  G   UNL     1       8.397  32.029  24.334  1.00  0.00     0.000 G0
ENDBRANCH  15  16
ENDBRANCH  13  15
ENDBRANCH   1  13
TORSDOF 1
ENDMDL
MODEL 6
REMARK VINA RESULT:    -4.013      2.531      4.616
REMARK INTER + INTRA:          -6.413
REMARK INTER:                  -5.846
REMARK INTRA:                  -0.567
REMARK UNBOUND:                -0.523
REMARK SMILES C=C1C=C[C@H](C(C)C)CCC(C)=CCC1
REMARK SMILES IDX 3 1 4 2 5 3 9 4 10 5 11 6 12 7 13 8 6 10 7 11 8 12 2 13 1 14
REMARK SMILES IDX 15 15 14 16
REMARK H PARENT
REMARK Flexibility Score: 70.00
ROOT
ATOM      1  C   UNL     1      14.791  33.520  21.185  1.00  0.00    -0.001 C 
ATOM      2  C   UNL     1      13.768  33.108  21.963  1.00  0.00    -0.023 C 
ENDROOT
BRANCH   2   3
ATOM      3  C   UNL     1      12.387  32.563  21.594  1.00  0.00     0.014 C 
BRANCH   3   4
ATOM      4  C   UNL     1      12.189  31.035  21.722  1.00  0.00     0.012 C 
BRANCH   4   5
ATOM      5  C   UNL     1      12.191  30.333  20.351  1.00  0.00     0.031 C 
BRANCH   5   6
ATOM      6  C   UNL     1      13.468  29.548  20.137  1.00  0.00    -0.077 C 
ATOM      7  C   UNL     1      13.652  28.266  20.906  1.00  0.00     0.039 C 
ATOM      8  C   UNL     1      14.475  29.964  19.335  1.00  0.00    -0.028 CG0
ATOM      9  G   UNL     1      14.497  31.239  18.523  1.00  0.00     0.000 G0
ENDBRANCH   5   6
ENDBRANCH   4   5
ENDBRANCH   3   4
BRANCH   3  10
ATOM     10  C   UNL     1      11.214  33.377  22.220  1.00  0.00    -0.010 C 
ATOM     11  C   UNL     1      10.021  33.559  21.279  1.00  0.00     0.008 C 
ATOM     12  C   UNL     1      10.742  32.768  23.552  1.00  0.00     0.008 C 
ENDBRANCH   3  10
ENDBRANCH   2   3
BRANCH   1  13
ATOM     13  C   UNL     1      14.908  33.466  19.711  1.00  0.00    -0.055 C 
ATOM     14  C   UNL     1      14.152  34.268  18.954  1.00  0.00     0.012 C 
BRANCH  13  15
ATOM     15  C   UNL     1      15.539  32.246  19.075  1.00  0.00     0.039 C 
BRANCH  15  16
ATOM     16  C   UNL     1      14.518  31.251  18.517  1.00  0.00     0.032 CG0
ATOM     17  G   UNL     1      14.479  29.973  19.323  1.00  0.00     0.000 G0
ENDBRANCH  15  16
ENDBRANCH  13  15
ENDBRANCH   1  13
TORSDOF 1
ENDMDL
MODEL 7
REMARK VINA RESULT:    -3.953      2.603      5.300
REMARK INTER + INTRA:          -6.325
REMARK INTER:                  -6.375
REMARK INTRA:                   0.049
REMARK UNBOUND:                -0.523
REMARK SMILES C=C1C=C[C@H](C(C)C)CCC(C)=CCC1
REMARK SMILES IDX 3 1 4 2 5 3 9 4 10 5 11 6 12 7 13 8 6 10 7 11 8 12 2 13 1 14
REMARK SMILES IDX 15 15 14 16
REMARK H PARENT
REMARK Flexibility Score: 70.00
ROOT
ATOM      1  C   UNL     1       9.637  34.339  23.130  1.00  0.00    -0.001 C 
ATOM      2  C   UNL     1       8.669  34.215  22.197  1.00  0.00    -0.023 C 
ENDROOT
BRANCH   2   3
ATOM      3  C   UNL     1       8.178  32.991  21.422  1.00  0.00     0.014 C 
BRANCH   3   4
ATOM      4  C   UNL     1       7.100  32.123  22.111  1.00  0.00     0.012 C 
BRANCH   4   5
ATOM      5  C   UNL     1       7.686  30.820  22.686  1.00  0.00     0.031 C 
BRANCH   5   6
ATOM      6  C   UNL     1       7.233  30.596  24.113  1.00  0.00    -0.077 C 
ATOM      7  C   UNL     1       6.358  29.404  24.403  1.00  0.00     0.039 C 
ATOM      8  C   UNL     1       7.526  31.438  25.131  1.00  0.00    -0.028 CG0
ATOM      9  G   UNL     1       8.346  32.704  25.030  1.00  0.00     0.000 G0
ENDBRANCH   5   6
ENDBRANCH   4   5
ENDBRANCH   3   4
BRANCH   3  10
ATOM     10  C   UNL     1       7.841  33.299  19.931  1.00  0.00    -0.010 C 
ATOM     11  C   UNL     1       6.396  33.754  19.709  1.00  0.00     0.008 C 
ATOM     12  C   UNL     1       8.812  34.328  19.325  1.00  0.00     0.008 C 
ENDBRANCH   3  10
ENDBRANCH   2   3
BRANCH   1  13
ATOM     13  C   UNL     1      10.452  33.276  23.758  1.00  0.00    -0.055 C 
ATOM     14  C   UNL     1      11.555  32.835  23.146  1.00  0.00     0.012 C 
BRANCH  13  15
ATOM     15  C   UNL     1       9.826  32.419  24.837  1.00  0.00     0.039 C 
BRANCH  15  16
ATOM     16  C   UNL     1       8.338  32.707  25.057  1.00  0.00     0.032 CG0
ATOM     17  G   UNL     1       7.523  31.436  25.130  1.00  0.00     0.000 G0
ENDBRANCH  15  16
ENDBRANCH  13  15
ENDBRANCH   1  13
TORSDOF 1
ENDMDL
MODEL 8
REMARK VINA RESULT:    -3.886      1.863      3.451
REMARK INTER + INTRA:          -6.227
REMARK INTER:                  -5.697
REMARK INTRA:                  -0.529
REMARK UNBOUND:                -0.523
REMARK SMILES C=C1C=C[C@H](C(C)C)CCC(C)=CCC1
REMARK SMILES IDX 3 1 4 2 5 3 9 4 10 5 11 6 12 7 13 8 6 10 7 11 8 12 2 13 1 14
REMARK SMILES IDX 15 15 14 16
REMARK H PARENT
REMARK Flexibility Score: 70.00
ROOT
ATOM      1  C   UNL     1      12.639  33.109  22.602  1.00  0.00    -0.001 C 
ATOM      2  C   UNL     1      11.391  33.175  23.115  1.00  0.00    -0.023 C 
ENDROOT
BRANCH   2   3
ATOM      3  C   UNL     1      10.026  32.979  22.453  1.00  0.00     0.014 C 
BRANCH   3   4
ATOM      4  C   UNL     1       9.564  31.519  22.241  1.00  0.00     0.012 C 
BRANCH   4   5
ATOM      5  C   UNL     1       9.655  31.090  20.765  1.00  0.00     0.031 C 
BRANCH   5   6
ATOM      6  C   UNL     1      10.339  29.747  20.623  1.00  0.00    -0.077 C 
ATOM      7  C   UNL     1       9.580  28.515  21.042  1.00  0.00     0.039 C 
ATOM      8  C   UNL     1      11.613  29.599  20.193  1.00  0.00    -0.028 CG0
ATOM      9  G   UNL     1      12.546  30.713  19.776  1.00  0.00     0.000 G0
ENDBRANCH   5   6
ENDBRANCH   4   5
ENDBRANCH   3   4
BRANCH   3  10
ATOM     10  C   UNL     1       8.910  33.883  23.060  1.00  0.00    -0.010 C 
ATOM     11  C   UNL     1       7.536  33.211  23.111  1.00  0.00     0.008 C 
ATOM     12  C   UNL     1       9.291  34.402  24.457  1.00  0.00     0.008 C 
ENDBRANCH   3  10
ENDBRANCH   2   3
BRANCH   1  13
ATOM     13  C   UNL     1      13.054  32.716  21.238  1.00  0.00    -0.055 C 
ATOM     14  C   UNL     1      12.818  33.537  20.209  1.00  0.00     0.012 C 
BRANCH  13  15
ATOM     15  C   UNL     1      13.341  31.258  20.955  1.00  0.00     0.039 C 
BRANCH  15  16
ATOM     16  C   UNL     1      12.548  30.698  19.771  1.00  0.00     0.032 CG0
ATOM     17  G   UNL     1      11.603  29.597  20.195  1.00  0.00     0.000 G0
ENDBRANCH  15  16
ENDBRANCH  13  15
ENDBRANCH   1  13
TORSDOF 1
ENDMDL
MODEL 9
REMARK VINA RESULT:    -3.845      2.140      3.446
REMARK INTER + INTRA:          -6.166
REMARK INTER:                  -5.569
REMARK INTRA:                  -0.597
REMARK UNBOUND:                -0.523
REMARK SMILES C=C1C=C[C@H](C(C)C)CCC(C)=CCC1
REMARK SMILES IDX 3 1 4 2 5 3 9 4 10 5 11 6 12 7 13 8 6 10 7 11 8 12 2 13 1 14
REMARK SMILES IDX 15 15 14 16
REMARK H PARENT
REMARK Flexibility Score: 70.00
ROOT
ATOM      1  C   UNL     1       9.973  33.492  21.424  1.00  0.00    -0.001 C 
ATOM      2  C   UNL     1       8.853  33.788  22.118  1.00  0.00    -0.023 C 
ENDROOT
BRANCH   2   3
ATOM      3  C   UNL     1       8.279  33.177  23.397  1.00  0.00     0.014 C 
BRANCH   3   4
ATOM      4  C   UNL     1       8.133  31.637  23.423  1.00  0.00     0.012 C 
BRANCH   4   5
ATOM      5  C   UNL     1       7.406  31.103  22.175  1.00  0.00     0.031 C 
BRANCH   5   6
ATOM      6  C   UNL     1       8.008  29.795  21.706  1.00  0.00    -0.077 C 
ATOM      7  C   UNL     1       7.425  28.512  22.239  1.00  0.00     0.039 C 
ATOM      8  C   UNL     1       9.075  29.718  20.878  1.00  0.00    -0.028 CG0
ATOM      9  G   UNL     1       9.824  30.888  20.280  1.00  0.00     0.000 G0
ENDBRANCH   5   6
ENDBRANCH   4   5
ENDBRANCH   3   4
BRANCH   3  10
ATOM     10  C   UNL     1       8.927  33.742  24.697  1.00  0.00    -0.010 C 
ATOM     11  C   UNL     1       9.933  32.789  25.348  1.00  0.00     0.008 C 
ATOM     12  C   UNL     1       9.585  35.113  24.459  1.00  0.00     0.008 C 
ENDBRANCH   3  10
ENDBRANCH   2   3
BRANCH   1  13
ATOM     13  C   UNL     1      11.044  32.532  21.769  1.00  0.00    -0.055 C 
ATOM     14  C   UNL     1      12.128  32.953  22.428  1.00  0.00     0.012 C 
BRANCH  13  15
ATOM     15  C   UNL     1      11.110  31.216  21.025  1.00  0.00     0.039 C 
BRANCH  15  16
ATOM     16  C   UNL     1       9.824  30.880  20.265  1.00  0.00     0.032 CG0
ATOM     17  G   UNL     1       9.090  29.715  20.888  1.00  0.00     0.000 G0
ENDBRANCH  15  16
ENDBRANCH  13  15
ENDBRANCH   1  13
TORSDOF 1
ENDMDL
