MODEL 1
REMARK VINA RESULT:    -3.031      0.000      0.000
REMARK INTER + INTRA:          -6.904
REMARK INTER:                  -5.245
REMARK INTRA:                  -1.659
REMARK UNBOUND:                -1.659
REMARK SMILES CCCCCCCCCCCCCCO
REMARK SMILES IDX 8 1 7 2 6 3 5 4 4 5 3 6 2 7 1 8 9 9 10 10 11 11 12 12 13 13
REMARK SMILES IDX 14 14 15 15
REMARK H PARENT 15 16
REMARK Flexibility Score: inf
ROOT
ATOM      1  C   UNL     1       8.845   3.462  -1.200  1.00  0.00     0.000 C 
ENDROOT
BRANCH   1   2
ATOM      2  C   UNL     1       8.859   2.226  -0.285  1.00  0.00    -0.000 C 
BRANCH   2   3
ATOM      3  C   UNL     1       7.755   2.273   0.784  1.00  0.00    -0.000 C 
BRANCH   3   4
ATOM      4  C   UNL     1       6.610   3.227   0.404  1.00  0.00    -0.000 C 
BRANCH   4   5
ATOM      5  C   UNL     1       5.332   2.481  -0.017  1.00  0.00    -0.000 C 
BRANCH   5   6
ATOM      6  C   UNL     1       5.550   0.963  -0.141  1.00  0.00    -0.000 C 
BRANCH   6   7
ATOM      7  C   UNL     1       5.519   0.483  -1.601  1.00  0.00    -0.003 C 
ATOM      8  C   UNL     1       6.807  -0.226  -2.019  1.00  0.00     0.004 C 
ENDBRANCH   6   7
ENDBRANCH   5   6
ENDBRANCH   4   5
ENDBRANCH   3   4
ENDBRANCH   2   3
ENDBRANCH   1   2
BRANCH   1   9
ATOM      9  C   UNL     1       8.406   3.135  -2.640  1.00  0.00     0.000 C 
BRANCH   9  10
ATOM     10  C   UNL     1       7.431   4.152  -3.263  1.00  0.00     0.000 C 
BRANCH  10  11
ATOM     11  C   UNL     1       5.986   3.629  -3.331  1.00  0.00     0.000 C 
BRANCH  11  12
ATOM     12  C   UNL     1       4.942   4.761  -3.334  1.00  0.00     0.002 C 
BRANCH  12  13
ATOM     13  C   UNL     1       5.423   6.081  -3.967  1.00  0.00     0.028 C 
BRANCH  13  14
ATOM     14  C   UNL     1       4.473   6.644  -5.033  1.00  0.00     0.156 C 
BRANCH  14  15
ATOM     15  O   UNL     1       4.136   7.977  -4.758  1.00  0.00    -0.396 OA
ATOM     16  H   UNL     1       3.491   8.258  -5.458  1.00  0.00     0.210 HD
ENDBRANCH  14  15
ENDBRANCH  13  14
ENDBRANCH  12  13
ENDBRANCH  11  12
ENDBRANCH  10  11
ENDBRANCH   9  10
ENDBRANCH   1   9
TORSDOF 13
ENDMDL
MODEL 2
REMARK VINA RESULT:    -3.024      0.968      2.475
REMARK INTER + INTRA:          -6.893
REMARK INTER:                  -5.428
REMARK INTRA:                  -1.465
REMARK UNBOUND:                -1.659
REMARK SMILES CCCCCCCCCCCCCCO
REMARK SMILES IDX 8 1 7 2 6 3 5 4 4 5 3 6 2 7 1 8 9 9 10 10 11 11 12 12 13 13
REMARK SMILES IDX 14 14 15 15
REMARK H PARENT 15 16
REMARK Flexibility Score: inf
ROOT
ATOM      1  C   UNL     1       5.604   2.170  -3.006  1.00  0.00     0.000 C 
ENDROOT
BRANCH   1   2
ATOM      2  C   UNL     1       6.149   1.100  -2.044  1.00  0.00    -0.000 C 
BRANCH   2   3
ATOM      3  C   UNL     1       5.469   1.147  -0.666  1.00  0.00    -0.000 C 
BRANCH   3   4
ATOM      4  C   UNL     1       5.185   2.586  -0.200  1.00  0.00    -0.000 C 
BRANCH   4   5
ATOM      5  C   UNL     1       6.427   3.273   0.390  1.00  0.00    -0.000 C 
BRANCH   5   6
ATOM      6  C   UNL     1       7.276   2.320   1.249  1.00  0.00    -0.000 C 
BRANCH   6   7
ATOM      7  C   UNL     1       8.630   1.993   0.599  1.00  0.00    -0.003 C 
ATOM      8  C   UNL     1       8.922   2.855  -0.629  1.00  0.00     0.004 C 
ENDBRANCH   6   7
ENDBRANCH   5   6
ENDBRANCH   4   5
ENDBRANCH   3   4
ENDBRANCH   2   3
ENDBRANCH   1   2
BRANCH   1   9
ATOM      9  C   UNL     1       6.714   2.874  -3.808  1.00  0.00     0.000 C 
BRANCH   9  10
ATOM     10  C   UNL     1       6.872   4.377  -3.509  1.00  0.00     0.000 C 
BRANCH  10  11
ATOM     11  C   UNL     1       5.619   4.990  -2.859  1.00  0.00     0.000 C 
BRANCH  11  12
ATOM     12  C   UNL     1       4.879   5.963  -3.794  1.00  0.00     0.002 C 
BRANCH  12  13
ATOM     13  C   UNL     1       5.707   6.464  -4.993  1.00  0.00     0.028 C 
BRANCH  13  14
ATOM     14  C   UNL     1       5.075   7.648  -5.737  1.00  0.00     0.156 C 
BRANCH  14  15
ATOM     15  O   UNL     1       3.997   8.181  -5.016  1.00  0.00    -0.396 OA
ATOM     16  H   UNL     1       3.728   7.491  -4.355  1.00  0.00     0.210 HD
ENDBRANCH  14  15
ENDBRANCH  13  14
ENDBRANCH  12  13
ENDBRANCH  11  12
ENDBRANCH  10  11
ENDBRANCH   9  10
ENDBRANCH   1   9
TORSDOF 13
ENDMDL
MODEL 3
REMARK VINA RESULT:    -2.931      2.847      5.874
REMARK INTER + INTRA:          -6.732
REMARK INTER:                  -5.328
REMARK INTRA:                  -1.404
REMARK UNBOUND:                -1.659
REMARK SMILES CCCCCCCCCCCCCCO
REMARK SMILES IDX 8 1 7 2 6 3 5 4 4 5 3 6 2 7 1 8 9 9 10 10 11 11 12 12 13 13
REMARK SMILES IDX 14 14 15 15
REMARK H PARENT 15 16
REMARK Flexibility Score: inf
ROOT
ATOM      1  C   UNL     1       6.483   3.367   0.456  1.00  0.00     0.000 C 
ENDROOT
BRANCH   1   2
ATOM      2  C   UNL     1       5.220   2.869  -0.266  1.00  0.00    -0.000 C 
BRANCH   2   3
ATOM      3  C   UNL     1       5.251   3.161  -1.775  1.00  0.00    -0.000 C 
BRANCH   3   4
ATOM      4  C   UNL     1       6.659   3.533  -2.272  1.00  0.00    -0.000 C 
BRANCH   4   5
ATOM      5  C   UNL     1       6.645   4.700  -3.273  1.00  0.00    -0.000 C 
BRANCH   5   6
ATOM      6  C   UNL     1       5.431   5.627  -3.081  1.00  0.00    -0.000 C 
BRANCH   6   7
ATOM      7  C   UNL     1       4.915   6.203  -4.409  1.00  0.00    -0.003 C 
ATOM      8  C   UNL     1       3.643   5.512  -4.900  1.00  0.00     0.004 C 
ENDBRANCH   6   7
ENDBRANCH   5   6
ENDBRANCH   4   5
ENDBRANCH   3   4
ENDBRANCH   2   3
ENDBRANCH   1   2
BRANCH   1   9
ATOM      9  C   UNL     1       7.191   2.258   1.256  1.00  0.00     0.000 C 
BRANCH   9  10
ATOM     10  C   UNL     1       8.502   1.748   0.630  1.00  0.00     0.000 C 
BRANCH  10  11
ATOM     11  C   UNL     1       8.271   0.661  -0.435  1.00  0.00     0.000 C 
BRANCH  11  12
ATOM     12  C   UNL     1       7.096  -0.271  -0.089  1.00  0.00     0.002 C 
BRANCH  12  13
ATOM     13  C   UNL     1       6.118  -0.536  -1.251  1.00  0.00     0.028 C 
BRANCH  13  14
ATOM     14  C   UNL     1       4.908  -1.397  -0.863  1.00  0.00     0.156 C 
BRANCH  14  15
ATOM     15  O   UNL     1       4.024  -1.543  -1.942  1.00  0.00    -0.396 OA
ATOM     16  H   UNL     1       3.368  -0.801  -1.874  1.00  0.00     0.210 HD
ENDBRANCH  14  15
ENDBRANCH  13  14
ENDBRANCH  12  13
ENDBRANCH  11  12
ENDBRANCH  10  11
ENDBRANCH   9  10
ENDBRANCH   1   9
TORSDOF 13
ENDMDL
MODEL 4
REMARK VINA RESULT:    -2.927      1.370      2.798
REMARK INTER + INTRA:          -6.725
REMARK INTER:                  -4.682
REMARK INTRA:                  -2.043
REMARK UNBOUND:                -1.659
REMARK SMILES CCCCCCCCCCCCCCO
REMARK SMILES IDX 8 1 7 2 6 3 5 4 4 5 3 6 2 7 1 8 9 9 10 10 11 11 12 12 13 13
REMARK SMILES IDX 14 14 15 15
REMARK H PARENT 15 16
REMARK Flexibility Score: inf
ROOT
ATOM      1  C   UNL     1       7.514   2.389   0.897  1.00  0.00     0.000 C 
ENDROOT
BRANCH   1   2
ATOM      2  C   UNL     1       6.429   3.341   0.368  1.00  0.00    -0.000 C 
BRANCH   2   3
ATOM      3  C   UNL     1       5.219   2.590  -0.214  1.00  0.00    -0.000 C 
BRANCH   3   4
ATOM      4  C   UNL     1       5.432   1.066  -0.239  1.00  0.00    -0.000 C 
BRANCH   4   5
ATOM      5  C   UNL     1       5.641   0.521  -1.662  1.00  0.00    -0.000 C 
BRANCH   5   6
ATOM      6  C   UNL     1       6.493  -0.760  -1.682  1.00  0.00    -0.000 C 
BRANCH   6   7
ATOM      7  C   UNL     1       6.966  -1.174  -0.280  1.00  0.00    -0.003 C 
ATOM      8  C   UNL     1       8.483  -1.343  -0.192  1.00  0.00     0.004 C 
ENDBRANCH   6   7
ENDBRANCH   5   6
ENDBRANCH   4   5
ENDBRANCH   3   4
ENDBRANCH   2   3
ENDBRANCH   1   2
BRANCH   1   9
ATOM      9  C   UNL     1       8.733   2.292  -0.040  1.00  0.00     0.000 C 
BRANCH   9  10
ATOM     10  C   UNL     1       8.694   3.243  -1.250  1.00  0.00     0.000 C 
BRANCH  10  11
ATOM     11  C   UNL     1       8.684   2.495  -2.595  1.00  0.00     0.000 C 
BRANCH  11  12
ATOM     12  C   UNL     1       8.026   3.309  -3.724  1.00  0.00     0.002 C 
BRANCH  12  13
ATOM     13  C   UNL     1       6.550   3.677  -3.481  1.00  0.00     0.028 C 
BRANCH  13  14
ATOM     14  C   UNL     1       6.248   5.175  -3.625  1.00  0.00     0.156 C 
BRANCH  14  15
ATOM     15  O   UNL     1       5.494   5.647  -2.541  1.00  0.00    -0.396 OA
ATOM     16  H   UNL     1       4.935   6.391  -2.886  1.00  0.00     0.210 HD
ENDBRANCH  14  15
ENDBRANCH  13  14
ENDBRANCH  12  13
ENDBRANCH  11  12
ENDBRANCH  10  11
ENDBRANCH   9  10
ENDBRANCH   1   9
TORSDOF 13
ENDMDL
MODEL 5
REMARK VINA RESULT:    -2.922      2.921      5.480
REMARK INTER + INTRA:          -6.716
REMARK INTER:                  -5.075
REMARK INTRA:                  -1.641
REMARK UNBOUND:                -1.659
REMARK SMILES CCCCCCCCCCCCCCO
REMARK SMILES IDX 8 1 7 2 6 3 5 4 4 5 3 6 2 7 1 8 9 9 10 10 11 11 12 12 13 13
REMARK SMILES IDX 14 14 15 15
REMARK H PARENT 15 16
REMARK Flexibility Score: inf
ROOT
ATOM      1  C   UNL     1       8.012   2.206   0.264  1.00  0.00     0.000 C 
ENDROOT
BRANCH   1   2
ATOM      2  C   UNL     1       8.853   2.967  -0.775  1.00  0.00    -0.000 C 
BRANCH   2   3
ATOM      3  C   UNL     1       9.038   2.174  -2.078  1.00  0.00    -0.000 C 
BRANCH   3   4
ATOM      4  C   UNL     1       8.591   2.969  -3.318  1.00  0.00    -0.000 C 
BRANCH   4   5
ATOM      5  C   UNL     1       7.421   3.922  -3.020  1.00  0.00    -0.000 C 
BRANCH   5   6
ATOM      6  C   UNL     1       6.121   3.499  -3.725  1.00  0.00    -0.000 C 
BRANCH   6   7
ATOM      7  C   UNL     1       4.917   4.354  -3.300  1.00  0.00    -0.003 C 
ATOM      8  C   UNL     1       5.172   5.854  -3.450  1.00  0.00     0.004 C 
ENDBRANCH   6   7
ENDBRANCH   5   6
ENDBRANCH   4   5
ENDBRANCH   3   4
ENDBRANCH   2   3
ENDBRANCH   1   2
BRANCH   1   9
ATOM      9  C   UNL     1       6.665   2.892   0.562  1.00  0.00     0.000 C 
BRANCH   9  10
ATOM     10  C   UNL     1       5.461   2.308  -0.201  1.00  0.00     0.000 C 
BRANCH  10  11
ATOM     11  C   UNL     1       5.567   0.787  -0.408  1.00  0.00     0.000 C 
BRANCH  11  12
ATOM     12  C   UNL     1       5.689   0.394  -1.891  1.00  0.00     0.002 C 
BRANCH  12  13
ATOM     13  C   UNL     1       5.150  -1.008  -2.235  1.00  0.00     0.028 C 
BRANCH  13  14
ATOM     14  C   UNL     1       4.505  -1.736  -1.047  1.00  0.00     0.156 C 
BRANCH  14  15
ATOM     15  O   UNL     1       3.193  -2.132  -1.348  1.00  0.00    -0.396 OA
ATOM     16  H   UNL     1       2.750  -1.350  -1.769  1.00  0.00     0.210 HD
ENDBRANCH  14  15
ENDBRANCH  13  14
ENDBRANCH  12  13
ENDBRANCH  11  12
ENDBRANCH  10  11
ENDBRANCH   9  10
ENDBRANCH   1   9
TORSDOF 13
ENDMDL
MODEL 6
REMARK VINA RESULT:    -2.886      0.907      2.554
REMARK INTER + INTRA:          -6.654
REMARK INTER:                  -5.138
REMARK INTRA:                  -1.516
REMARK UNBOUND:                -1.659
REMARK SMILES CCCCCCCCCCCCCCO
REMARK SMILES IDX 8 1 7 2 6 3 5 4 4 5 3 6 2 7 1 8 9 9 10 10 11 11 12 12 13 13
REMARK SMILES IDX 14 14 15 15
REMARK H PARENT 15 16
REMARK Flexibility Score: inf
ROOT
ATOM      1  C   UNL     1       8.309   0.859  -1.970  1.00  0.00     0.000 C 
ENDROOT
BRANCH   1   2
ATOM      2  C   UNL     1       7.038   0.063  -2.311  1.00  0.00    -0.000 C 
BRANCH   2   3
ATOM      3  C   UNL     1       5.752   0.847  -2.007  1.00  0.00    -0.000 C 
BRANCH   3   4
ATOM      4  C   UNL     1       5.527   1.044  -0.497  1.00  0.00    -0.000 C 
BRANCH   4   5
ATOM      5  C   UNL     1       5.363   2.523  -0.110  1.00  0.00    -0.000 C 
BRANCH   5   6
ATOM      6  C   UNL     1       6.613   3.094   0.581  1.00  0.00    -0.000 C 
BRANCH   6   7
ATOM      7  C   UNL     1       7.487   1.999   1.212  1.00  0.00    -0.003 C 
ATOM      8  C   UNL     1       7.599   2.131   2.731  1.00  0.00     0.004 C 
ENDBRANCH   6   7
ENDBRANCH   5   6
ENDBRANCH   4   5
ENDBRANCH   3   4
ENDBRANCH   2   3
ENDBRANCH   1   2
BRANCH   1   9
ATOM      9  C   UNL     1       8.656   1.917  -3.034  1.00  0.00     0.000 C 
BRANCH   9  10
ATOM     10  C   UNL     1       8.286   3.362  -2.653  1.00  0.00     0.000 C 
BRANCH  10  11
ATOM     11  C   UNL     1       7.452   4.069  -3.735  1.00  0.00     0.000 C 
BRANCH  11  12
ATOM     12  C   UNL     1       6.064   4.504  -3.228  1.00  0.00     0.002 C 
BRANCH  12  13
ATOM     13  C   UNL     1       5.683   5.960  -3.558  1.00  0.00     0.028 C 
BRANCH  13  14
ATOM     14  C   UNL     1       4.450   6.091  -4.464  1.00  0.00     0.156 C 
BRANCH  14  15
ATOM     15  O   UNL     1       4.106   7.436  -4.657  1.00  0.00    -0.396 OA
ATOM     16  H   UNL     1       4.372   7.919  -3.832  1.00  0.00     0.210 HD
ENDBRANCH  14  15
ENDBRANCH  13  14
ENDBRANCH  12  13
ENDBRANCH  11  12
ENDBRANCH  10  11
ENDBRANCH   9  10
ENDBRANCH   1   9
TORSDOF 13
ENDMDL
MODEL 7
REMARK VINA RESULT:    -2.869      1.028      2.386
REMARK INTER + INTRA:          -6.624
REMARK INTER:                  -5.181
REMARK INTRA:                  -1.443
REMARK UNBOUND:                -1.659
REMARK SMILES CCCCCCCCCCCCCCO
REMARK SMILES IDX 8 1 7 2 6 3 5 4 4 5 3 6 2 7 1 8 9 9 10 10 11 11 12 12 13 13
REMARK SMILES IDX 14 14 15 15
REMARK H PARENT 15 16
REMARK Flexibility Score: inf
ROOT
ATOM      1  C   UNL     1       7.630   4.020  -3.605  1.00  0.00     0.000 C 
ENDROOT
BRANCH   1   2
ATOM      2  C   UNL     1       8.829   3.232  -3.052  1.00  0.00    -0.000 C 
BRANCH   2   3
ATOM      3  C   UNL     1       8.419   2.212  -1.978  1.00  0.00    -0.000 C 
BRANCH   3   4
ATOM      4  C   UNL     1       8.799   2.670  -0.558  1.00  0.00    -0.000 C 
BRANCH   4   5
ATOM      5  C   UNL     1       7.685   2.401   0.468  1.00  0.00    -0.000 C 
BRANCH   5   6
ATOM      6  C   UNL     1       6.491   3.358   0.307  1.00  0.00    -0.000 C 
BRANCH   6   7
ATOM      7  C   UNL     1       5.224   2.639  -0.184  1.00  0.00    -0.003 C 
ATOM      8  C   UNL     1       5.361   1.117  -0.163  1.00  0.00     0.004 C 
ENDBRANCH   6   7
ENDBRANCH   5   6
ENDBRANCH   4   5
ENDBRANCH   3   4
ENDBRANCH   2   3
ENDBRANCH   1   2
BRANCH   1   9
ATOM      9  C   UNL     1       6.326   3.200  -3.609  1.00  0.00     0.000 C 
BRANCH   9  10
ATOM     10  C   UNL     1       5.043   4.026  -3.404  1.00  0.00     0.000 C 
BRANCH  10  11
ATOM     11  C   UNL     1       5.316   5.538  -3.310  1.00  0.00     0.000 C 
BRANCH  11  12
ATOM     12  C   UNL     1       4.651   6.335  -4.447  1.00  0.00     0.002 C 
BRANCH  12  13
ATOM     13  C   UNL     1       5.519   6.506  -5.709  1.00  0.00     0.028 C 
BRANCH  13  14
ATOM     14  C   UNL     1       5.736   7.968  -6.123  1.00  0.00     0.156 C 
BRANCH  14  15
ATOM     15  O   UNL     1       4.917   8.831  -5.379  1.00  0.00    -0.396 OA
ATOM     16  H   UNL     1       4.426   8.266  -4.728  1.00  0.00     0.210 HD
ENDBRANCH  14  15
ENDBRANCH  13  14
ENDBRANCH  12  13
ENDBRANCH  11  12
ENDBRANCH  10  11
ENDBRANCH   9  10
ENDBRANCH   1   9
TORSDOF 13
ENDMDL
MODEL 8
REMARK VINA RESULT:    -2.861      3.209      5.482
REMARK INTER + INTRA:          -6.610
REMARK INTER:                  -4.714
REMARK INTRA:                  -1.896
REMARK UNBOUND:                -1.659
REMARK SMILES CCCCCCCCCCCCCCO
REMARK SMILES IDX 8 1 7 2 6 3 5 4 4 5 3 6 2 7 1 8 9 9 10 10 11 11 12 12 13 13
REMARK SMILES IDX 14 14 15 15
REMARK H PARENT 15 16
REMARK Flexibility Score: inf
ROOT
ATOM      1  C   UNL     1       7.153   1.625   0.877  1.00  0.00     0.000 C 
ENDROOT
BRANCH   1   2
ATOM      2  C   UNL     1       6.534   3.027   0.742  1.00  0.00    -0.000 C 
BRANCH   2   3
ATOM      3  C   UNL     1       5.308   3.042  -0.185  1.00  0.00    -0.000 C 
BRANCH   3   4
ATOM      4  C   UNL     1       5.674   2.733  -1.647  1.00  0.00    -0.000 C 
BRANCH   4   5
ATOM      5  C   UNL     1       5.592   3.973  -2.554  1.00  0.00    -0.000 C 
BRANCH   5   6
ATOM      6  C   UNL     1       6.958   4.364  -3.143  1.00  0.00    -0.000 C 
BRANCH   6   7
ATOM      7  C   UNL     1       8.076   3.392  -2.731  1.00  0.00    -0.003 C 
ATOM      8  C   UNL     1       9.247   4.094  -2.043  1.00  0.00     0.004 C 
ENDBRANCH   6   7
ENDBRANCH   5   6
ENDBRANCH   4   5
ENDBRANCH   3   4
ENDBRANCH   2   3
ENDBRANCH   1   2
BRANCH   1   9
ATOM      9  C   UNL     1       8.658   1.603   0.552  1.00  0.00     0.000 C 
BRANCH   9  10
ATOM     10  C   UNL     1       9.084   0.524  -0.461  1.00  0.00     0.000 C 
BRANCH  10  11
ATOM     11  C   UNL     1       7.996  -0.540  -0.691  1.00  0.00     0.000 C 
BRANCH  11  12
ATOM     12  C   UNL     1       7.377  -0.464  -2.099  1.00  0.00     0.002 C 
BRANCH  12  13
ATOM     13  C   UNL     1       5.975  -1.090  -2.222  1.00  0.00     0.028 C 
BRANCH  13  14
ATOM     14  C   UNL     1       5.087  -0.881  -0.987  1.00  0.00     0.156 C 
BRANCH  14  15
ATOM     15  O   UNL     1       4.659  -2.107  -0.458  1.00  0.00    -0.396 OA
ATOM     16  H   UNL     1       5.277  -2.326   0.288  1.00  0.00     0.210 HD
ENDBRANCH  14  15
ENDBRANCH  13  14
ENDBRANCH  12  13
ENDBRANCH  11  12
ENDBRANCH  10  11
ENDBRANCH   9  10
ENDBRANCH   1   9
TORSDOF 13
ENDMDL
MODEL 9
REMARK VINA RESULT:    -2.708      2.211      3.376
REMARK INTER + INTRA:          -6.346
REMARK INTER:                  -4.855
REMARK INTRA:                  -1.491
REMARK UNBOUND:                -1.659
REMARK SMILES CCCCCCCCCCCCCCO
REMARK SMILES IDX 8 1 7 2 6 3 5 4 4 5 3 6 2 7 1 8 9 9 10 10 11 11 12 12 13 13
REMARK SMILES IDX 14 14 15 15
REMARK H PARENT 15 16
REMARK Flexibility Score: inf
ROOT
ATOM      1  C   UNL     1       8.559   1.935   0.458  1.00  0.00     0.000 C 
ENDROOT
BRANCH   1   2
ATOM      2  C   UNL     1       8.622   0.603  -0.308  1.00  0.00    -0.000 C 
BRANCH   2   3
ATOM      3  C   UNL     1       7.600  -0.423   0.210  1.00  0.00    -0.000 C 
BRANCH   3   4
ATOM      4  C   UNL     1       6.697  -0.969  -0.910  1.00  0.00    -0.000 C 
BRANCH   4   5
ATOM      5  C   UNL     1       5.204  -0.712  -0.646  1.00  0.00    -0.000 C 
BRANCH   5   6
ATOM      6  C   UNL     1       4.317  -1.891  -1.083  1.00  0.00    -0.000 C 
BRANCH   6   7
ATOM      7  C   UNL     1       5.096  -3.214  -1.164  1.00  0.00    -0.003 C 
ATOM      8  C   UNL     1       4.409  -4.252  -2.053  1.00  0.00     0.004 C 
ENDBRANCH   6   7
ENDBRANCH   5   6
ENDBRANCH   4   5
ENDBRANCH   3   4
ENDBRANCH   2   3
ENDBRANCH   1   2
BRANCH   1   9
ATOM      9  C   UNL     1       7.173   2.207   1.073  1.00  0.00     0.000 C 
BRANCH   9  10
ATOM     10  C   UNL     1       6.414   3.395   0.453  1.00  0.00     0.000 C 
BRANCH  10  11
ATOM     11  C   UNL     1       5.266   2.952  -0.471  1.00  0.00     0.000 C 
BRANCH  11  12
ATOM     12  C   UNL     1       5.729   2.700  -1.917  1.00  0.00     0.002 C 
BRANCH  12  13
ATOM     13  C   UNL     1       6.819   3.664  -2.424  1.00  0.00     0.028 C 
BRANCH  13  14
ATOM     14  C   UNL     1       6.292   4.767  -3.353  1.00  0.00     0.156 C 
BRANCH  14  15
ATOM     15  O   UNL     1       5.525   5.702  -2.643  1.00  0.00    -0.396 OA
ATOM     16  H   UNL     1       4.683   5.825  -3.153  1.00  0.00     0.210 HD
ENDBRANCH  14  15
ENDBRANCH  13  14
ENDBRANCH  12  13
ENDBRANCH  11  12
ENDBRANCH  10  11
ENDBRANCH   9  10
ENDBRANCH   1   9
TORSDOF 13
ENDMDL
