MODEL 1
REMARK VINA RESULT:    -4.237      0.000      0.000
REMARK INTER + INTRA:          -6.296
REMARK INTER:                  -5.723
REMARK INTRA:                  -0.573
REMARK UNBOUND:                -0.573
REMARK SMILES CCCCCCC=CC(=O)[O-]
REMARK SMILES IDX 5 1 6 2 7 3 8 4 9 5 10 6 11 7 4 8 3 9 2 10 1 11
REMARK H PARENT
REMARK Flexibility Score: inf
ROOT
ATOM      1  C   UNL     1     -19.843 -20.624  10.014  1.00  0.00     0.004 C 
ENDROOT
BRANCH   1   2
ATOM      2  C   UNL     1     -18.988 -20.981  11.240  1.00  0.00     0.027 C 
BRANCH   2   3
ATOM      3  C   UNL     1     -19.793 -21.732  12.262  1.00  0.00    -0.025 C 
ATOM      4  C   UNL     1     -19.439 -22.956  12.668  1.00  0.00     0.020 C 
BRANCH   4   5
ATOM      5  C   UNL     1     -20.210 -23.695  13.679  1.00  0.00     0.064 C 
ATOM      6  O   UNL     1     -19.615 -24.202  14.666  1.00  0.00    -0.545 OA
ATOM      7  O   UNL     1     -21.588 -23.845  13.562  1.00  0.00    -0.545 OA
ENDBRANCH   4   5
ENDBRANCH   2   3
ENDBRANCH   1   2
BRANCH   1   8
ATOM      8  C   UNL     1     -20.074 -21.825   9.083  1.00  0.00     0.000 C 
BRANCH   8   9
ATOM      9  C   UNL     1     -21.367 -21.693   8.260  1.00  0.00    -0.000 C 
BRANCH   9  10
ATOM     10  C   UNL     1     -22.509 -22.556   8.818  1.00  0.00    -0.003 C 
ATOM     11  C   UNL     1     -22.028 -23.599   9.826  1.00  0.00     0.004 C 
ENDBRANCH   9  10
ENDBRANCH   8   9
ENDBRANCH   1   8
TORSDOF 6
ENDMDL
MODEL 2
REMARK VINA RESULT:    -4.199      3.334      5.245
REMARK INTER + INTRA:          -6.245
REMARK INTER:                  -5.814
REMARK INTRA:                  -0.431
REMARK UNBOUND:                -0.573
REMARK SMILES CCCCCCC=CC(=O)[O-]
REMARK SMILES IDX 5 1 6 2 7 3 8 4 9 5 10 6 11 7 4 8 3 9 2 10 1 11
REMARK H PARENT
REMARK Flexibility Score: inf
ROOT
ATOM      1  C   UNL     1     -19.433 -21.132  10.161  1.00  0.00     0.004 C 
ENDROOT
BRANCH   1   2
ATOM      2  C   UNL     1     -19.914 -22.301   9.289  1.00  0.00     0.027 C 
BRANCH   2   3
ATOM      3  C   UNL     1     -21.342 -22.110   8.864  1.00  0.00    -0.025 C 
ATOM      4  C   UNL     1     -21.748 -20.984   8.268  1.00  0.00     0.020 C 
BRANCH   4   5
ATOM      5  C   UNL     1     -23.139 -20.790   7.833  1.00  0.00     0.064 C 
ATOM      6  O   UNL     1     -23.942 -21.759   7.866  1.00  0.00    -0.545 OA
ATOM      7  O   UNL     1     -23.584 -19.551   7.384  1.00  0.00    -0.545 OA
ENDBRANCH   4   5
ENDBRANCH   2   3
ENDBRANCH   1   2
BRANCH   1   8
ATOM      8  C   UNL     1     -19.405 -21.479  11.658  1.00  0.00     0.000 C 
BRANCH   8   9
ATOM      9  C   UNL     1     -18.909 -22.911  11.923  1.00  0.00    -0.000 C 
BRANCH   9  10
ATOM     10  C   UNL     1     -19.495 -23.507  13.212  1.00  0.00    -0.003 C 
ATOM     11  C   UNL     1     -21.018 -23.396  13.279  1.00  0.00     0.004 C 
ENDBRANCH   9  10
ENDBRANCH   8   9
ENDBRANCH   1   8
TORSDOF 6
ENDMDL
MODEL 3
REMARK VINA RESULT:    -4.178      3.545      5.346
REMARK INTER + INTRA:          -6.217
REMARK INTER:                  -5.971
REMARK INTRA:                  -0.246
REMARK UNBOUND:                -0.573
REMARK SMILES CCCCCCC=CC(=O)[O-]
REMARK SMILES IDX 5 1 6 2 7 3 8 4 9 5 10 6 11 7 4 8 3 9 2 10 1 11
REMARK H PARENT
REMARK Flexibility Score: inf
ROOT
ATOM      1  C   UNL     1     -19.626 -24.301  14.506  1.00  0.00     0.004 C 
ENDROOT
BRANCH   1   2
ATOM      2  C   UNL     1     -18.538 -25.244  13.969  1.00  0.00     0.027 C 
BRANCH   2   3
ATOM      3  C   UNL     1     -17.692 -25.787  15.085  1.00  0.00    -0.025 C 
ATOM      4  C   UNL     1     -16.357 -25.811  15.002  1.00  0.00     0.020 C 
BRANCH   4   5
ATOM      5  C   UNL     1     -15.516 -26.326  16.093  1.00  0.00     0.064 C 
ATOM      6  O   UNL     1     -14.673 -25.567  16.638  1.00  0.00    -0.545 OA
ATOM      7  O   UNL     1     -15.638 -27.639  16.532  1.00  0.00    -0.545 OA
ENDBRANCH   4   5
ENDBRANCH   2   3
ENDBRANCH   1   2
BRANCH   1   8
ATOM      8  C   UNL     1     -20.152 -23.333  13.435  1.00  0.00     0.000 C 
BRANCH   8   9
ATOM      9  C   UNL     1     -19.135 -23.087  12.309  1.00  0.00    -0.000 C 
BRANCH   9  10
ATOM     10  C   UNL     1     -19.633 -22.061  11.279  1.00  0.00    -0.003 C 
ATOM     11  C   UNL     1     -19.118 -20.647  11.551  1.00  0.00     0.004 C 
ENDBRANCH   9  10
ENDBRANCH   8   9
ENDBRANCH   1   8
TORSDOF 6
ENDMDL
MODEL 4
REMARK VINA RESULT:    -4.135     11.248     12.352
REMARK INTER + INTRA:          -6.159
REMARK INTER:                  -5.853
REMARK INTRA:                  -0.306
REMARK UNBOUND:                -0.573
REMARK SMILES CCCCCCC=CC(=O)[O-]
REMARK SMILES IDX 5 1 6 2 7 3 8 4 9 5 10 6 11 7 4 8 3 9 2 10 1 11
REMARK H PARENT
REMARK Flexibility Score: inf
ROOT
ATOM      1  C   UNL     1     -24.025 -29.127   3.829  1.00  0.00     0.004 C 
ENDROOT
BRANCH   1   2
ATOM      2  C   UNL     1     -23.100 -30.223   4.380  1.00  0.00     0.027 C 
BRANCH   2   3
ATOM      3  C   UNL     1     -22.655 -31.155   3.290  1.00  0.00    -0.025 C 
ATOM      4  C   UNL     1     -22.502 -32.465   3.510  1.00  0.00     0.020 C 
BRANCH   4   5
ATOM      5  C   UNL     1     -22.081 -33.391   2.448  1.00  0.00     0.064 C 
ATOM      6  O   UNL     1     -22.857 -34.313   2.084  1.00  0.00    -0.545 OA
ATOM      7  O   UNL     1     -20.837 -33.266   1.839  1.00  0.00    -0.545 OA
ENDBRANCH   4   5
ENDBRANCH   2   3
ENDBRANCH   1   2
BRANCH   1   8
ATOM      8  C   UNL     1     -25.171 -28.780   4.792  1.00  0.00     0.000 C 
BRANCH   8   9
ATOM      9  C   UNL     1     -25.124 -29.604   6.089  1.00  0.00    -0.000 C 
BRANCH   9  10
ATOM     10  C   UNL     1     -26.408 -29.464   6.922  1.00  0.00    -0.003 C 
ATOM     11  C   UNL     1     -27.651 -29.235   6.063  1.00  0.00     0.004 C 
ENDBRANCH   9  10
ENDBRANCH   8   9
ENDBRANCH   1   8
TORSDOF 6
ENDMDL
MODEL 5
REMARK VINA RESULT:    -4.102      7.078      9.010
REMARK INTER + INTRA:          -6.114
REMARK INTER:                  -5.776
REMARK INTRA:                  -0.338
REMARK UNBOUND:                -0.573
REMARK SMILES CCCCCCC=CC(=O)[O-]
REMARK SMILES IDX 5 1 6 2 7 3 8 4 9 5 10 6 11 7 4 8 3 9 2 10 1 11
REMARK H PARENT
REMARK Flexibility Score: inf
ROOT
ATOM      1  C   UNL     1     -27.675 -28.656   7.985  1.00  0.00     0.004 C 
ENDROOT
BRANCH   1   2
ATOM      2  C   UNL     1     -26.438 -28.420   8.865  1.00  0.00     0.027 C 
BRANCH   2   3
ATOM      3  C   UNL     1     -26.112 -26.957   8.962  1.00  0.00    -0.025 C 
ATOM      4  C   UNL     1     -26.905 -26.108   9.624  1.00  0.00     0.020 C 
BRANCH   4   5
ATOM      5  C   UNL     1     -26.590 -24.676   9.740  1.00  0.00     0.064 C 
ATOM      6  O   UNL     1     -25.568 -24.216   9.168  1.00  0.00    -0.545 OA
ATOM      7  O   UNL     1     -27.405 -23.820  10.472  1.00  0.00    -0.545 OA
ENDBRANCH   4   5
ENDBRANCH   2   3
ENDBRANCH   1   2
BRANCH   1   8
ATOM      8  C   UNL     1     -27.358 -29.479   6.726  1.00  0.00     0.000 C 
BRANCH   8   9
ATOM      9  C   UNL     1     -25.861 -29.469   6.374  1.00  0.00    -0.000 C 
BRANCH   9  10
ATOM     10  C   UNL     1     -25.537 -28.523   5.207  1.00  0.00    -0.003 C 
ATOM     11  C   UNL     1     -24.524 -29.114   4.227  1.00  0.00     0.004 C 
ENDBRANCH   9  10
ENDBRANCH   8   9
ENDBRANCH   1   8
TORSDOF 6
ENDMDL
MODEL 6
REMARK VINA RESULT:    -4.069      2.298      3.183
REMARK INTER + INTRA:          -6.070
REMARK INTER:                  -5.762
REMARK INTRA:                  -0.308
REMARK UNBOUND:                -0.573
REMARK SMILES CCCCCCC=CC(=O)[O-]
REMARK SMILES IDX 5 1 6 2 7 3 8 4 9 5 10 6 11 7 4 8 3 9 2 10 1 11
REMARK H PARENT
REMARK Flexibility Score: inf
ROOT
ATOM      1  C   UNL     1     -19.126 -22.384  11.456  1.00  0.00     0.004 C 
ENDROOT
BRANCH   1   2
ATOM      2  C   UNL     1     -19.693 -22.970  12.757  1.00  0.00     0.027 C 
BRANCH   2   3
ATOM      3  C   UNL     1     -18.978 -24.235  13.139  1.00  0.00    -0.025 C 
ATOM      4  C   UNL     1     -17.898 -24.655  12.473  1.00  0.00     0.020 C 
BRANCH   4   5
ATOM      5  C   UNL     1     -17.180 -25.883  12.845  1.00  0.00     0.064 C 
ATOM      6  O   UNL     1     -16.442 -25.886  13.865  1.00  0.00    -0.545 OA
ATOM      7  O   UNL     1     -17.303 -27.043  12.089  1.00  0.00    -0.545 OA
ENDBRANCH   4   5
ENDBRANCH   2   3
ENDBRANCH   1   2
BRANCH   1   8
ATOM      8  C   UNL     1     -19.353 -20.868  11.340  1.00  0.00     0.000 C 
BRANCH   8   9
ATOM      9  C   UNL     1     -19.852 -20.449   9.947  1.00  0.00    -0.000 C 
BRANCH   9  10
ATOM     10  C   UNL     1     -20.348 -21.643   9.117  1.00  0.00    -0.003 C 
ATOM     11  C   UNL     1     -21.531 -21.288   8.215  1.00  0.00     0.004 C 
ENDBRANCH   9  10
ENDBRANCH   8   9
ENDBRANCH   1   8
TORSDOF 6
ENDMDL
MODEL 7
REMARK VINA RESULT:    -4.054      9.452     11.132
REMARK INTER + INTRA:          -6.049
REMARK INTER:                  -5.755
REMARK INTRA:                  -0.294
REMARK UNBOUND:                -0.573
REMARK SMILES CCCCCCC=CC(=O)[O-]
REMARK SMILES IDX 5 1 6 2 7 3 8 4 9 5 10 6 11 7 4 8 3 9 2 10 1 11
REMARK H PARENT
REMARK Flexibility Score: inf
ROOT
ATOM      1  C   UNL     1     -21.379 -24.324   0.390  1.00  0.00     0.004 C 
ENDROOT
BRANCH   1   2
ATOM      2  C   UNL     1     -21.035 -25.510  -0.523  1.00  0.00     0.027 C 
BRANCH   2   3
ATOM      3  C   UNL     1     -19.684 -26.077  -0.192  1.00  0.00    -0.025 C 
ATOM      4  C   UNL     1     -19.442 -26.661   0.986  1.00  0.00     0.020 C 
BRANCH   4   5
ATOM      5  C   UNL     1     -18.128 -27.233   1.317  1.00  0.00     0.064 C 
ATOM      6  O   UNL     1     -17.741 -28.279   0.735  1.00  0.00    -0.545 OA
ATOM      7  O   UNL     1     -17.304 -26.635   2.266  1.00  0.00    -0.545 OA
ENDBRANCH   4   5
ENDBRANCH   2   3
ENDBRANCH   1   2
BRANCH   1   8
ATOM      8  C   UNL     1     -22.495 -24.652   1.394  1.00  0.00     0.000 C 
BRANCH   8   9
ATOM      9  C   UNL     1     -23.149 -23.391   1.984  1.00  0.00    -0.000 C 
BRANCH   9  10
ATOM     10  C   UNL     1     -22.457 -22.099   1.523  1.00  0.00    -0.003 C 
ATOM     11  C   UNL     1     -22.252 -21.097   2.659  1.00  0.00     0.004 C 
ENDBRANCH   9  10
ENDBRANCH   8   9
ENDBRANCH   1   8
TORSDOF 6
ENDMDL
MODEL 8
REMARK VINA RESULT:    -4.046      2.554      3.997
REMARK INTER + INTRA:          -6.039
REMARK INTER:                  -5.759
REMARK INTRA:                  -0.280
REMARK UNBOUND:                -0.573
REMARK SMILES CCCCCCC=CC(=O)[O-]
REMARK SMILES IDX 5 1 6 2 7 3 8 4 9 5 10 6 11 7 4 8 3 9 2 10 1 11
REMARK H PARENT
REMARK Flexibility Score: inf
ROOT
ATOM      1  C   UNL     1     -20.348 -23.137  12.936  1.00  0.00     0.004 C 
ENDROOT
BRANCH   1   2
ATOM      2  C   UNL     1     -19.908 -23.794  14.253  1.00  0.00     0.027 C 
BRANCH   2   3
ATOM      3  C   UNL     1     -18.850 -24.833  14.014  1.00  0.00    -0.025 C 
ATOM      4  C   UNL     1     -18.114 -25.324  15.017  1.00  0.00     0.020 C 
BRANCH   4   5
ATOM      5  C   UNL     1     -17.086 -26.353  14.799  1.00  0.00     0.064 C 
ATOM      6  O   UNL     1     -15.879 -26.086  15.038  1.00  0.00    -0.545 OA
ATOM      7  O   UNL     1     -17.425 -27.618  14.331  1.00  0.00    -0.545 OA
ENDBRANCH   4   5
ENDBRANCH   2   3
ENDBRANCH   1   2
BRANCH   1   8
ATOM      8  C   UNL     1     -19.161 -22.771  12.030  1.00  0.00     0.000 C 
BRANCH   8   9
ATOM      9  C   UNL     1     -19.111 -21.269  11.700  1.00  0.00    -0.000 C 
BRANCH   9  10
ATOM     10  C   UNL     1     -19.509 -20.973  10.246  1.00  0.00    -0.003 C 
ATOM     11  C   UNL     1     -19.711 -22.240   9.415  1.00  0.00     0.004 C 
ENDBRANCH   9  10
ENDBRANCH   8   9
ENDBRANCH   1   8
TORSDOF 6
ENDMDL
MODEL 9
REMARK VINA RESULT:    -4.034      7.505      9.845
REMARK INTER + INTRA:          -6.022
REMARK INTER:                  -5.426
REMARK INTRA:                  -0.596
REMARK UNBOUND:                -0.573
REMARK SMILES CCCCCCC=CC(=O)[O-]
REMARK SMILES IDX 5 1 6 2 7 3 8 4 9 5 10 6 11 7 4 8 3 9 2 10 1 11
REMARK H PARENT
REMARK Flexibility Score: inf
ROOT
ATOM      1  C   UNL     1     -27.748 -28.784   7.876  1.00  0.00     0.004 C 
ENDROOT
BRANCH   1   2
ATOM      2  C   UNL     1     -27.245 -29.461   6.592  1.00  0.00     0.027 C 
BRANCH   2   3
ATOM      3  C   UNL     1     -25.820 -29.085   6.303  1.00  0.00    -0.025 C 
ATOM      4  C   UNL     1     -25.503 -28.286   5.279  1.00  0.00     0.020 C 
BRANCH   4   5
ATOM      5  C   UNL     1     -24.113 -27.898   4.993  1.00  0.00     0.064 C 
ATOM      6  O   UNL     1     -23.877 -27.050   4.093  1.00  0.00    -0.545 OA
ATOM      7  O   UNL     1     -23.054 -28.454   5.702  1.00  0.00    -0.545 OA
ENDBRANCH   4   5
ENDBRANCH   2   3
ENDBRANCH   1   2
BRANCH   1   8
ATOM      8  C   UNL     1     -26.608 -28.426   8.843  1.00  0.00     0.000 C 
BRANCH   8   9
ATOM      9  C   UNL     1     -26.953 -27.230   9.746  1.00  0.00    -0.000 C 
BRANCH   9  10
ATOM     10  C   UNL     1     -26.260 -25.934   9.296  1.00  0.00    -0.003 C 
ATOM     11  C   UNL     1     -25.018 -26.190   8.443  1.00  0.00     0.004 C 
ENDBRANCH   9  10
ENDBRANCH   8   9
ENDBRANCH   1   8
TORSDOF 6
ENDMDL
