MODEL 1
REMARK VINA RESULT:    -5.232      0.000      0.000
REMARK INTER + INTRA:          -5.635
REMARK INTER:                  -5.538
REMARK INTRA:                  -0.097
REMARK UNBOUND:                -0.097
REMARK SMILES C=C(C)[C@H]1CC=C(C)C(=O)C1
REMARK SMILES IDX 8 1 7 2 6 3 5 4 4 5 11 6 9 7 10 8 2 9 1 10 3 11
REMARK H PARENT
REMARK Flexibility Score: inf
ROOT
ATOM      1  C   UNL     1      18.618   7.407 -24.125  1.00  0.00     0.048 C 
ATOM      2  C   UNL     1      19.237   8.683 -24.624  1.00  0.00    -0.012 C 
ATOM      3  C   UNL     1      20.555   8.894 -24.464  1.00  0.00    -0.019 C 
ATOM      4  C   UNL     1      21.223  10.162 -24.928  1.00  0.00     0.036 C 
ATOM      5  C   UNL     1      20.537  10.721 -26.189  1.00  0.00     0.025 C 
ATOM      6  C   UNL     1      19.030  10.914 -25.935  1.00  0.00     0.089 C 
ATOM      7  C   UNL     1      18.418   9.650 -25.397  1.00  0.00     0.158 C 
ATOM      8  O   UNL     1      17.189   9.437 -25.578  1.00  0.00    -0.295 OA
ENDROOT
BRANCH   5   9
ATOM      9  C   UNL     1      21.196  12.009 -26.663  1.00  0.00    -0.077 C 
ATOM     10  C   UNL     1      20.464  13.074 -27.034  1.00  0.00     0.008 C 
ATOM     11  C   UNL     1      22.698  12.111 -26.725  1.00  0.00     0.039 C 
ENDBRANCH   5   9
TORSDOF 1
ENDMDL
MODEL 2
REMARK VINA RESULT:    -5.094      1.853      4.738
REMARK INTER + INTRA:          -5.489
REMARK INTER:                  -5.396
REMARK INTRA:                  -0.093
REMARK UNBOUND:                -0.097
REMARK SMILES C=C(C)[C@H]1CC=C(C)C(=O)C1
REMARK SMILES IDX 8 1 7 2 6 3 5 4 4 5 11 6 9 7 10 8 2 9 1 10 3 11
REMARK H PARENT
REMARK Flexibility Score: inf
ROOT
ATOM      1  C   UNL     1      20.852  12.770 -26.249  1.00  0.00     0.048 C 
ATOM      2  C   UNL     1      20.237  11.475 -25.794  1.00  0.00    -0.012 C 
ATOM      3  C   UNL     1      18.934  11.236 -26.025  1.00  0.00    -0.019 C 
ATOM      4  C   UNL     1      18.264   9.964 -25.576  1.00  0.00     0.036 C 
ATOM      5  C   UNL     1      19.245   8.778 -25.609  1.00  0.00     0.025 C 
ATOM      6  C   UNL     1      20.502   9.100 -24.778  1.00  0.00     0.089 C 
ATOM      7  C   UNL     1      21.094  10.416 -25.204  1.00  0.00     0.158 C 
ATOM      8  O   UNL     1      22.323  10.625 -25.019  1.00  0.00    -0.295 OA
ENDROOT
BRANCH   5   9
ATOM      9  C   UNL     1      18.583   7.486 -25.147  1.00  0.00    -0.077 C 
ATOM     10  C   UNL     1      18.216   7.308 -23.866  1.00  0.00     0.008 C 
ATOM     11  C   UNL     1      18.326   6.375 -26.132  1.00  0.00     0.039 C 
ENDBRANCH   5   9
TORSDOF 1
ENDMDL
MODEL 3
REMARK VINA RESULT:    -5.086      1.352      2.066
REMARK INTER + INTRA:          -5.481
REMARK INTER:                  -5.387
REMARK INTRA:                  -0.094
REMARK UNBOUND:                -0.097
REMARK SMILES C=C(C)[C@H]1CC=C(C)C(=O)C1
REMARK SMILES IDX 8 1 7 2 6 3 5 4 4 5 11 6 9 7 10 8 2 9 1 10 3 11
REMARK H PARENT
REMARK Flexibility Score: inf
ROOT
ATOM      1  C   UNL     1      16.940   8.010 -24.610  1.00  0.00     0.048 C 
ATOM      2  C   UNL     1      17.967   8.940 -25.196  1.00  0.00    -0.012 C 
ATOM      3  C   UNL     1      17.599   9.850 -26.115  1.00  0.00    -0.019 C 
ATOM      4  C   UNL     1      18.588  10.793 -26.746  1.00  0.00     0.036 C 
ATOM      5  C   UNL     1      19.712  11.161 -25.759  1.00  0.00     0.025 C 
ATOM      6  C   UNL     1      20.385   9.885 -25.217  1.00  0.00     0.089 C 
ATOM      7  C   UNL     1      19.355   8.936 -24.669  1.00  0.00     0.158 C 
ATOM      8  O   UNL     1      19.694   8.107 -23.782  1.00  0.00    -0.295 OA
ENDROOT
BRANCH   5   9
ATOM      9  C   UNL     1      20.726  12.107 -26.388  1.00  0.00    -0.077 C 
ATOM     10  C   UNL     1      20.338  13.226 -27.023  1.00  0.00     0.008 C 
ATOM     11  C   UNL     1      22.199  11.799 -26.305  1.00  0.00     0.039 C 
ENDBRANCH   5   9
TORSDOF 1
ENDMDL
MODEL 4
REMARK VINA RESULT:    -4.916     17.229     18.628
REMARK INTER + INTRA:          -5.300
REMARK INTER:                  -5.204
REMARK INTRA:                  -0.097
REMARK UNBOUND:                -0.097
REMARK SMILES C=C(C)[C@H]1CC=C(C)C(=O)C1
REMARK SMILES IDX 8 1 7 2 6 3 5 4 4 5 11 6 9 7 10 8 2 9 1 10 3 11
REMARK H PARENT
REMARK Flexibility Score: inf
ROOT
ATOM      1  C   UNL     1       5.151  26.013 -23.383  1.00  0.00     0.048 C 
ATOM      2  C   UNL     1       6.309  25.065 -23.232  1.00  0.00    -0.012 C 
ATOM      3  C   UNL     1       6.984  25.014 -22.071  1.00  0.00    -0.019 C 
ATOM      4  C   UNL     1       8.162  24.097 -21.872  1.00  0.00     0.036 C 
ATOM      5  C   UNL     1       7.997  22.798 -22.684  1.00  0.00     0.025 C 
ATOM      6  C   UNL     1       7.756  23.125 -24.170  1.00  0.00     0.089 C 
ATOM      7  C   UNL     1       6.625  24.105 -24.319  1.00  0.00     0.158 C 
ATOM      8  O   UNL     1       5.970  24.128 -25.396  1.00  0.00    -0.295 OA
ENDROOT
BRANCH   5   9
ATOM      9  C   UNL     1       9.187  21.865 -22.500  1.00  0.00    -0.077 C 
ATOM     10  C   UNL     1       9.914  21.444 -23.550  1.00  0.00     0.008 C 
ATOM     11  C   UNL     1       9.573  21.395 -21.121  1.00  0.00     0.039 C 
ENDBRANCH   5   9
TORSDOF 1
ENDMDL
MODEL 5
REMARK VINA RESULT:    -4.907      1.764      4.300
REMARK INTER + INTRA:          -5.291
REMARK INTER:                  -5.196
REMARK INTRA:                  -0.095
REMARK UNBOUND:                -0.097
REMARK SMILES C=C(C)[C@H]1CC=C(C)C(=O)C1
REMARK SMILES IDX 8 1 7 2 6 3 5 4 4 5 11 6 9 7 10 8 2 9 1 10 3 11
REMARK H PARENT
REMARK Flexibility Score: inf
ROOT
ATOM      1  C   UNL     1      22.885  11.886 -26.381  1.00  0.00     0.048 C 
ATOM      2  C   UNL     1      21.659  11.041 -26.167  1.00  0.00    -0.012 C 
ATOM      3  C   UNL     1      21.762   9.700 -26.177  1.00  0.00    -0.019 C 
ATOM      4  C   UNL     1      20.565   8.807 -25.985  1.00  0.00     0.036 C 
ATOM      5  C   UNL     1      19.530   9.458 -25.048  1.00  0.00     0.025 C 
ATOM      6  C   UNL     1      19.140  10.853 -25.571  1.00  0.00     0.089 C 
ATOM      7  C   UNL     1      20.367  11.685 -25.825  1.00  0.00     0.158 C 
ATOM      8  O   UNL     1      20.277  12.942 -25.782  1.00  0.00    -0.295 OA
ENDROOT
BRANCH   5   9
ATOM      9  C   UNL     1      18.309   8.569 -24.854  1.00  0.00    -0.077 C 
ATOM     10  C   UNL     1      17.150   8.824 -25.487  1.00  0.00     0.008 C 
ATOM     11  C   UNL     1      18.382   7.375 -23.937  1.00  0.00     0.039 C 
ENDBRANCH   5   9
TORSDOF 1
ENDMDL
MODEL 6
REMARK VINA RESULT:    -4.857     18.120     19.498
REMARK INTER + INTRA:          -5.238
REMARK INTER:                  -5.141
REMARK INTRA:                  -0.096
REMARK UNBOUND:                -0.097
REMARK SMILES C=C(C)[C@H]1CC=C(C)C(=O)C1
REMARK SMILES IDX 8 1 7 2 6 3 5 4 4 5 11 6 9 7 10 8 2 9 1 10 3 11
REMARK H PARENT
REMARK Flexibility Score: inf
ROOT
ATOM      1  C   UNL     1       9.726  22.383 -24.143  1.00  0.00     0.048 C 
ATOM      2  C   UNL     1       8.475  23.060 -23.655  1.00  0.00    -0.012 C 
ATOM      3  C   UNL     1       8.477  23.695 -22.470  1.00  0.00    -0.019 C 
ATOM      4  C   UNL     1       7.248  24.374 -21.927  1.00  0.00     0.036 C 
ATOM      5  C   UNL     1       6.379  24.943 -23.064  1.00  0.00     0.025 C 
ATOM      6  C   UNL     1       6.034  23.835 -24.077  1.00  0.00     0.089 C 
ATOM      7  C   UNL     1       7.281  23.130 -24.534  1.00  0.00     0.158 C 
ATOM      8  O   UNL     1       7.289  22.564 -25.660  1.00  0.00    -0.295 OA
ENDROOT
BRANCH   5   9
ATOM      9  C   UNL     1       5.126  25.624 -22.528  1.00  0.00    -0.077 C 
ATOM     10  C   UNL     1       4.938  25.804 -21.209  1.00  0.00     0.008 C 
ATOM     11  C   UNL     1       4.065  26.111 -23.481  1.00  0.00     0.039 C 
ENDBRANCH   5   9
TORSDOF 1
ENDMDL
MODEL 7
REMARK VINA RESULT:    -4.856      1.673      2.818
REMARK INTER + INTRA:          -5.237
REMARK INTER:                  -5.140
REMARK INTRA:                  -0.097
REMARK UNBOUND:                -0.097
REMARK SMILES C=C(C)[C@H]1CC=C(C)C(=O)C1
REMARK SMILES IDX 8 1 7 2 6 3 5 4 4 5 11 6 9 7 10 8 2 9 1 10 3 11
REMARK H PARENT
REMARK Flexibility Score: inf
ROOT
ATOM      1  C   UNL     1      15.762   5.961 -24.747  1.00  0.00     0.048 C 
ATOM      2  C   UNL     1      16.775   7.072 -24.723  1.00  0.00    -0.012 C 
ATOM      3  C   UNL     1      17.939   6.902 -24.071  1.00  0.00    -0.019 C 
ATOM      4  C   UNL     1      18.980   7.987 -24.002  1.00  0.00     0.036 C 
ATOM      5  C   UNL     1      18.973   8.847 -25.279  1.00  0.00     0.025 C 
ATOM      6  C   UNL     1      17.562   9.409 -25.536  1.00  0.00     0.089 C 
ATOM      7  C   UNL     1      16.542   8.303 -25.518  1.00  0.00     0.158 C 
ATOM      8  O   UNL     1      15.466   8.450 -26.158  1.00  0.00    -0.295 OA
ENDROOT
BRANCH   5   9
ATOM      9  C   UNL     1      20.015   9.956 -25.217  1.00  0.00    -0.077 C 
ATOM     10  C   UNL     1      19.721  11.214 -25.588  1.00  0.00     0.008 C 
ATOM     11  C   UNL     1      21.410   9.655 -24.732  1.00  0.00     0.039 C 
ENDBRANCH   5   9
TORSDOF 1
ENDMDL
MODEL 8
REMARK VINA RESULT:    -4.719     11.696     12.965
REMARK INTER + INTRA:          -5.092
REMARK INTER:                  -4.998
REMARK INTRA:                  -0.094
REMARK UNBOUND:                -0.097
REMARK SMILES C=C(C)[C@H]1CC=C(C)C(=O)C1
REMARK SMILES IDX 8 1 7 2 6 3 5 4 4 5 11 6 9 7 10 8 2 9 1 10 3 11
REMARK H PARENT
REMARK Flexibility Score: inf
ROOT
ATOM      1  C   UNL     1      13.971  17.158 -22.954  1.00  0.00     0.048 C 
ATOM      2  C   UNL     1      12.941  17.493 -21.911  1.00  0.00    -0.012 C 
ATOM      3  C   UNL     1      11.637  17.287 -22.170  1.00  0.00    -0.019 C 
ATOM      4  C   UNL     1      10.563  17.621 -21.168  1.00  0.00     0.036 C 
ATOM      5  C   UNL     1      11.067  17.420 -19.727  1.00  0.00     0.025 C 
ATOM      6  C   UNL     1      12.355  18.233 -19.493  1.00  0.00     0.089 C 
ATOM      7  C   UNL     1      13.371  17.930 -20.560  1.00  0.00     0.158 C 
ATOM      8  O   UNL     1      14.595  18.090 -20.305  1.00  0.00    -0.295 OA
ENDROOT
BRANCH   5   9
ATOM      9  C   UNL     1       9.993  17.764 -18.702  1.00  0.00    -0.077 C 
ATOM     10  C   UNL     1       8.728  17.332 -18.843  1.00  0.00     0.008 C 
ATOM     11  C   UNL     1      10.338  18.605 -17.500  1.00  0.00     0.039 C 
ENDBRANCH   5   9
TORSDOF 1
ENDMDL
