MODEL 1
REMARK VINA RESULT:    -6.871      0.000      0.000
REMARK INTER + INTRA:          -7.649
REMARK INTER:                  -7.474
REMARK INTRA:                  -0.175
REMARK UNBOUND:                -0.175
REMARK SMILES CC1(C)CC[C@@]2(C(=O)[O-])CC[C@@]3(C)C(=CC[C@H]4[C@]5(C)CC[C@@H](O)C(C)(C)[C@@H]5CC[C@@]43C)[C@H]2C1
REMARK SMILES IDX 6 1 5 2 10 3 32 4 4 5 11 6 14 7 33 8 2 9 12 10 15 11 1 12
REMARK SMILES IDX 3 13 13 14 30 15 16 16 17 17 29 18 31 19 18 20 28 21 27 22
REMARK SMILES IDX 20 23 19 24 24 25 21 26 22 27 25 28 26 29 7 30 8 31 9 32
REMARK SMILES IDX 23 33
REMARK H PARENT 23 34
REMARK Flexibility Score: inf
ROOT
ATOM      1  C   UNL     1       0.331  26.942  26.532  1.00  0.00     0.017 C 
ATOM      2  C   UNL     1       1.573  26.431  25.718  1.00  0.00     0.014 C 
ATOM      3  C   UNL     1      -0.909  26.124  26.092  1.00  0.00     0.014 C 
ATOM      4  C   UNL     1       0.564  26.749  28.072  1.00  0.00     0.028 C 
ATOM      5  C   UNL     1       2.878  26.488  26.521  1.00  0.00     0.007 C 
ATOM      6  C   UNL     1      -2.168  26.534  26.866  1.00  0.00     0.013 C 
ATOM      7  C   UNL     1      -0.712  26.868  28.921  1.00  0.00    -0.064 C 
ATOM      8  C   UNL     1       1.378  25.462  28.360  1.00  0.00     0.015 C 
ATOM      9  C   UNL     1       2.823  25.555  27.774  1.00  0.00    -0.035 C 
ATOM     10  C   UNL     1      -2.080  26.346  28.427  1.00  0.00    -0.006 C 
ATOM     11  C   UNL     1      -0.562  27.346  30.175  1.00  0.00    -0.027 C 
ATOM     12  C   UNL     1       3.302  24.136  27.382  1.00  0.00     0.011 C 
ATOM     13  C   UNL     1       3.781  26.114  28.857  1.00  0.00     0.011 C 
ATOM     14  C   UNL     1      -2.099  24.810  28.704  1.00  0.00     0.017 C 
ATOM     15  C   UNL     1      -3.304  27.100  29.183  1.00  0.00    -0.020 C 
ATOM     16  C   UNL     1      -1.690  27.831  31.026  1.00  0.00     0.032 C 
ATOM     17  C   UNL     1      -3.041  27.141  30.727  1.00  0.00     0.006 C 
ATOM     18  C   UNL     1      -4.629  26.317  28.972  1.00  0.00     0.008 C 
ATOM     19  C   UNL     1      -3.476  28.544  28.624  1.00  0.00     0.012 C 
ATOM     20  C   UNL     1      -4.229  27.637  31.695  1.00  0.00    -0.025 C 
ATOM     21  C   UNL     1      -5.836  26.981  29.619  1.00  0.00     0.005 C 
ATOM     22  C   UNL     1      -5.705  27.307  31.146  1.00  0.00     0.003 C 
ATOM     23  C   UNL     1      -3.979  26.934  33.083  1.00  0.00     0.010 C 
ATOM     24  C   UNL     1      -4.134  29.176  31.990  1.00  0.00     0.012 C 
ATOM     25  C   UNL     1      -6.564  26.363  32.077  1.00  0.00    -0.006 C 
ATOM     26  C   UNL     1      -5.100  27.103  34.118  1.00  0.00     0.033 C 
ATOM     27  C   UNL     1      -6.519  26.913  33.551  1.00  0.00     0.120 C 
ATOM     28  C   UNL     1      -8.067  26.382  31.652  1.00  0.00     0.014 C 
ATOM     29  C   UNL     1      -6.066  24.885  32.025  1.00  0.00     0.014 C 
ENDROOT
BRANCH   1  30
ATOM     30  C   UNL     1       0.097  28.416  26.195  1.00  0.00     0.048 C 
ATOM     31  O   UNL     1      -0.384  28.762  25.082  1.00  0.00    -0.550 OA
ATOM     32  O   UNL     1       0.421  29.401  27.115  1.00  0.00    -0.550 OA
ENDBRANCH   1  30
BRANCH  27  33
ATOM     33  O   UNL     1      -7.192  28.152  33.620  1.00  0.00    -0.393 OA
ATOM     34  H   UNL     1      -7.579  28.327  32.722  1.00  0.00     0.210 HD
ENDBRANCH  27  33
TORSDOF 2
ENDMDL
MODEL 2
REMARK VINA RESULT:    -6.823      1.716      2.514
REMARK INTER + INTRA:          -7.596
REMARK INTER:                  -7.421
REMARK INTRA:                  -0.175
REMARK UNBOUND:                -0.175
REMARK SMILES CC1(C)CC[C@@]2(C(=O)[O-])CC[C@@]3(C)C(=CC[C@H]4[C@]5(C)CC[C@@H](O)C(C)(C)[C@@H]5CC[C@@]43C)[C@H]2C1
REMARK SMILES IDX 6 1 5 2 10 3 32 4 4 5 11 6 14 7 33 8 2 9 12 10 15 11 1 12
REMARK SMILES IDX 3 13 13 14 30 15 16 16 17 17 29 18 31 19 18 20 28 21 27 22
REMARK SMILES IDX 20 23 19 24 24 25 21 26 22 27 25 28 26 29 7 30 8 31 9 32
REMARK SMILES IDX 23 33
REMARK H PARENT 23 34
REMARK Flexibility Score: inf
ROOT
ATOM      1  C   UNL     1       0.719  24.658  27.733  1.00  0.00     0.017 C 
ATOM      2  C   UNL     1       2.201  24.309  27.346  1.00  0.00     0.014 C 
ATOM      3  C   UNL     1       0.214  23.588  28.734  1.00  0.00     0.014 C 
ATOM      4  C   UNL     1       0.642  26.075  28.400  1.00  0.00     0.028 C 
ATOM      5  C   UNL     1       3.060  25.554  27.093  1.00  0.00     0.007 C 
ATOM      6  C   UNL     1      -1.221  23.871  29.195  1.00  0.00     0.013 C 
ATOM      7  C   UNL     1      -0.677  26.351  29.140  1.00  0.00    -0.064 C 
ATOM      8  C   UNL     1       1.901  26.362  29.258  1.00  0.00     0.015 C 
ATOM      9  C   UNL     1       3.189  26.434  28.379  1.00  0.00    -0.035 C 
ATOM     10  C   UNL     1      -1.426  25.251  29.924  1.00  0.00    -0.006 C 
ATOM     11  C   UNL     1      -1.095  27.635  29.172  1.00  0.00    -0.027 C 
ATOM     12  C   UNL     1       4.401  25.952  29.214  1.00  0.00     0.011 C 
ATOM     13  C   UNL     1       3.440  27.904  27.956  1.00  0.00     0.011 C 
ATOM     14  C   UNL     1      -0.728  25.141  31.316  1.00  0.00     0.017 C 
ATOM     15  C   UNL     1      -3.003  25.610  30.079  1.00  0.00    -0.020 C 
ATOM     16  C   UNL     1      -2.478  28.055  29.549  1.00  0.00     0.032 C 
ATOM     17  C   UNL     1      -3.174  27.096  30.542  1.00  0.00     0.006 C 
ATOM     18  C   UNL     1      -3.651  24.719  31.174  1.00  0.00     0.008 C 
ATOM     19  C   UNL     1      -3.745  25.373  28.729  1.00  0.00     0.012 C 
ATOM     20  C   UNL     1      -4.641  27.599  30.979  1.00  0.00    -0.025 C 
ATOM     21  C   UNL     1      -5.142  24.966  31.354  1.00  0.00     0.005 C 
ATOM     22  C   UNL     1      -5.564  26.451  31.626  1.00  0.00     0.003 C 
ATOM     23  C   UNL     1      -4.409  28.773  32.005  1.00  0.00     0.010 C 
ATOM     24  C   UNL     1      -5.415  28.250  29.778  1.00  0.00     0.012 C 
ATOM     25  C   UNL     1      -6.018  26.724  33.115  1.00  0.00    -0.006 C 
ATOM     26  C   UNL     1      -5.670  29.287  32.714  1.00  0.00     0.033 C 
ATOM     27  C   UNL     1      -6.612  28.177  33.214  1.00  0.00     0.120 C 
ATOM     28  C   UNL     1      -7.170  25.754  33.530  1.00  0.00     0.014 C 
ATOM     29  C   UNL     1      -4.843  26.539  34.124  1.00  0.00     0.014 C 
ENDROOT
BRANCH   1  30
ATOM     30  C   UNL     1      -0.143  24.601  26.469  1.00  0.00     0.048 C 
ATOM     31  O   UNL     1      -0.499  25.655  25.876  1.00  0.00    -0.550 OA
ATOM     32  O   UNL     1      -0.553  23.380  25.959  1.00  0.00    -0.550 OA
ENDBRANCH   1  30
BRANCH  27  33
ATOM     33  O   UNL     1      -7.815  28.254  32.479  1.00  0.00    -0.393 OA
ATOM     34  H   UNL     1      -8.521  27.815  33.023  1.00  0.00     0.210 HD
ENDBRANCH  27  33
TORSDOF 2
ENDMDL
MODEL 3
REMARK VINA RESULT:    -6.700      1.882      8.228
REMARK INTER + INTRA:          -7.462
REMARK INTER:                  -7.342
REMARK INTRA:                  -0.120
REMARK UNBOUND:                -0.175
REMARK SMILES CC1(C)CC[C@@]2(C(=O)[O-])CC[C@@]3(C)C(=CC[C@H]4[C@]5(C)CC[C@@H](O)C(C)(C)[C@@H]5CC[C@@]43C)[C@H]2C1
REMARK SMILES IDX 6 1 5 2 10 3 32 4 4 5 11 6 14 7 33 8 2 9 12 10 15 11 1 12
REMARK SMILES IDX 3 13 13 14 30 15 16 16 17 17 29 18 31 19 18 20 28 21 27 22
REMARK SMILES IDX 20 23 19 24 24 25 21 26 22 27 25 28 26 29 7 30 8 31 9 32
REMARK SMILES IDX 23 33
REMARK H PARENT 23 34
REMARK Flexibility Score: inf
ROOT
ATOM      1  C   UNL     1      -5.136  25.365  32.113  1.00  0.00     0.017 C 
ATOM      2  C   UNL     1      -6.664  25.216  32.446  1.00  0.00     0.014 C 
ATOM      3  C   UNL     1      -4.647  24.042  31.472  1.00  0.00     0.014 C 
ATOM      4  C   UNL     1      -4.902  26.548  31.110  1.00  0.00     0.028 C 
ATOM      5  C   UNL     1      -7.439  26.530  32.291  1.00  0.00     0.007 C 
ATOM      6  C   UNL     1      -3.165  24.110  31.081  1.00  0.00     0.013 C 
ATOM      7  C   UNL     1      -3.517  26.543  30.443  1.00  0.00    -0.064 C 
ATOM      8  C   UNL     1      -6.072  26.669  30.101  1.00  0.00     0.015 C 
ATOM      9  C   UNL     1      -7.409  27.044  30.814  1.00  0.00    -0.035 C 
ATOM     10  C   UNL     1      -2.803  25.235  30.040  1.00  0.00    -0.006 C 
ATOM     11  C   UNL     1      -2.999  27.747  30.116  1.00  0.00    -0.027 C 
ATOM     12  C   UNL     1      -8.593  26.428  30.030  1.00  0.00     0.011 C 
ATOM     13  C   UNL     1      -7.573  28.586  30.818  1.00  0.00     0.011 C 
ATOM     14  C   UNL     1      -3.409  24.799  28.669  1.00  0.00     0.017 C 
ATOM     15  C   UNL     1      -1.196  25.449  29.936  1.00  0.00    -0.020 C 
ATOM     16  C   UNL     1      -1.565  27.973  29.766  1.00  0.00     0.032 C 
ATOM     17  C   UNL     1      -0.878  26.747  29.120  1.00  0.00     0.006 C 
ATOM     18  C   UNL     1      -0.545  24.265  29.171  1.00  0.00     0.008 C 
ATOM     19  C   UNL     1      -0.571  25.537  31.361  1.00  0.00     0.012 C 
ATOM     20  C   UNL     1       0.650  27.033  28.698  1.00  0.00    -0.025 C 
ATOM     21  C   UNL     1       0.970  24.371  29.064  1.00  0.00     0.005 C 
ATOM     22  C   UNL     1       1.524  25.704  28.455  1.00  0.00     0.003 C 
ATOM     23  C   UNL     1       0.582  27.904  27.387  1.00  0.00     0.010 C 
ATOM     24  C   UNL     1       1.386  27.933  29.752  1.00  0.00     0.012 C 
ATOM     25  C   UNL     1       2.100  25.546  26.992  1.00  0.00    -0.006 C 
ATOM     26  C   UNL     1       1.926  28.140  26.682  1.00  0.00     0.033 C 
ATOM     27  C   UNL     1       2.811  26.885  26.571  1.00  0.00     0.120 C 
ATOM     28  C   UNL     1       3.199  24.437  26.945  1.00  0.00     0.014 C 
ATOM     29  C   UNL     1       0.988  25.168  25.966  1.00  0.00     0.014 C 
ENDROOT
BRANCH   1  30
ATOM     30  C   UNL     1      -4.371  25.596  33.419  1.00  0.00     0.048 C 
ATOM     31  O   UNL     1      -3.980  24.627  34.125  1.00  0.00    -0.550 OA
ATOM     32  O   UNL     1      -4.102  26.884  33.850  1.00  0.00    -0.550 OA
ENDBRANCH   1  30
BRANCH  27  33
ATOM     33  O   UNL     1       3.963  27.086  27.364  1.00  0.00    -0.393 OA
ATOM     34  H   UNL     1       4.180  26.216  27.792  1.00  0.00     0.210 HD
ENDBRANCH  27  33
TORSDOF 2
ENDMDL
MODEL 4
REMARK VINA RESULT:    -6.610      1.574      2.227
REMARK INTER + INTRA:          -7.364
REMARK INTER:                  -7.331
REMARK INTRA:                  -0.033
REMARK UNBOUND:                -0.175
REMARK SMILES CC1(C)CC[C@@]2(C(=O)[O-])CC[C@@]3(C)C(=CC[C@H]4[C@]5(C)CC[C@@H](O)C(C)(C)[C@@H]5CC[C@@]43C)[C@H]2C1
REMARK SMILES IDX 6 1 5 2 10 3 32 4 4 5 11 6 14 7 33 8 2 9 12 10 15 11 1 12
REMARK SMILES IDX 3 13 13 14 30 15 16 16 17 17 29 18 31 19 18 20 28 21 27 22
REMARK SMILES IDX 20 23 19 24 24 25 21 26 22 27 25 28 26 29 7 30 8 31 9 32
REMARK SMILES IDX 23 33
REMARK H PARENT 23 34
REMARK Flexibility Score: inf
ROOT
ATOM      1  C   UNL     1       1.477  25.594  27.506  1.00  0.00     0.017 C 
ATOM      2  C   UNL     1       3.009  25.317  27.304  1.00  0.00     0.014 C 
ATOM      3  C   UNL     1       0.839  24.346  28.167  1.00  0.00     0.014 C 
ATOM      4  C   UNL     1       1.259  26.842  28.432  1.00  0.00     0.028 C 
ATOM      5  C   UNL     1       3.870  26.576  27.459  1.00  0.00     0.007 C 
ATOM      6  C   UNL     1      -0.657  24.543  28.434  1.00  0.00     0.013 C 
ATOM      7  C   UNL     1      -0.168  26.974  28.986  1.00  0.00    -0.064 C 
ATOM      8  C   UNL     1       2.355  26.929  29.525  1.00  0.00     0.015 C 
ATOM      9  C   UNL     1       3.767  27.168  28.903  1.00  0.00    -0.035 C 
ATOM     10  C   UNL     1      -1.010  25.744  29.390  1.00  0.00    -0.006 C 
ATOM     11  C   UNL     1      -0.615  28.228  29.214  1.00  0.00    -0.027 C 
ATOM     12  C   UNL     1       4.837  26.508  29.808  1.00  0.00     0.011 C 
ATOM     13  C   UNL     1       4.050  28.690  28.842  1.00  0.00     0.011 C 
ATOM     14  C   UNL     1      -0.546  25.337  30.824  1.00  0.00     0.017 C 
ATOM     15  C   UNL     1      -2.599  26.081  29.356  1.00  0.00    -0.020 C 
ATOM     16  C   UNL     1      -2.050  28.577  29.438  1.00  0.00     0.032 C 
ATOM     17  C   UNL     1      -2.877  27.440  30.083  1.00  0.00     0.006 C 
ATOM     18  C   UNL     1      -3.396  24.989  30.121  1.00  0.00     0.008 C 
ATOM     19  C   UNL     1      -3.106  26.140  27.883  1.00  0.00     0.012 C 
ATOM     20  C   UNL     1      -4.406  27.858  30.368  1.00  0.00    -0.025 C 
ATOM     21  C   UNL     1      -4.902  25.211  30.101  1.00  0.00     0.005 C 
ATOM     22  C   UNL     1      -5.396  26.611  30.602  1.00  0.00     0.003 C 
ATOM     23  C   UNL     1      -4.371  28.789  31.639  1.00  0.00     0.010 C 
ATOM     24  C   UNL     1      -4.988  28.753  29.218  1.00  0.00     0.012 C 
ATOM     25  C   UNL     1      -6.092  26.573  32.020  1.00  0.00    -0.006 C 
ATOM     26  C   UNL     1      -5.742  29.159  32.223  1.00  0.00     0.033 C 
ATOM     27  C   UNL     1      -6.727  27.981  32.320  1.00  0.00     0.120 C 
ATOM     28  C   UNL     1      -7.274  25.551  32.030  1.00  0.00     0.014 C 
ATOM     29  C   UNL     1      -5.094  26.168  33.147  1.00  0.00     0.014 C 
ENDROOT
BRANCH   1  30
ATOM     30  C   UNL     1       0.834  25.812  26.135  1.00  0.00     0.048 C 
ATOM     31  O   UNL     1       0.275  24.865  25.518  1.00  0.00    -0.550 OA
ATOM     32  O   UNL     1       0.863  27.064  25.542  1.00  0.00    -0.550 OA
ENDBRANCH   1  30
BRANCH  27  33
ATOM     33  O   UNL     1      -7.796  28.224  31.429  1.00  0.00    -0.393 OA
ATOM     34  H   UNL     1      -7.431  28.160  30.508  1.00  0.00     0.210 HD
ENDBRANCH  27  33
TORSDOF 2
ENDMDL
MODEL 5
REMARK VINA RESULT:    -6.512      1.663      2.485
REMARK INTER + INTRA:          -7.258
REMARK INTER:                  -7.071
REMARK INTRA:                  -0.187
REMARK UNBOUND:                -0.175
REMARK SMILES CC1(C)CC[C@@]2(C(=O)[O-])CC[C@@]3(C)C(=CC[C@H]4[C@]5(C)CC[C@@H](O)C(C)(C)[C@@H]5CC[C@@]43C)[C@H]2C1
REMARK SMILES IDX 6 1 5 2 10 3 32 4 4 5 11 6 14 7 33 8 2 9 12 10 15 11 1 12
REMARK SMILES IDX 3 13 13 14 30 15 16 16 17 17 29 18 31 19 18 20 28 21 27 22
REMARK SMILES IDX 20 23 19 24 24 25 21 26 22 27 25 28 26 29 7 30 8 31 9 32
REMARK SMILES IDX 23 33
REMARK H PARENT 23 34
REMARK Flexibility Score: inf
ROOT
ATOM      1  C   UNL     1       2.172  26.623  27.340  1.00  0.00     0.017 C 
ATOM      2  C   UNL     1       3.720  26.357  27.355  1.00  0.00     0.014 C 
ATOM      3  C   UNL     1       1.444  25.262  27.481  1.00  0.00     0.014 C 
ATOM      4  C   UNL     1       1.760  27.560  28.528  1.00  0.00     0.028 C 
ATOM      5  C   UNL     1       4.512  27.487  28.026  1.00  0.00     0.007 C 
ATOM      6  C   UNL     1      -0.080  25.430  27.510  1.00  0.00     0.013 C 
ATOM      7  C   UNL     1       0.251  27.581  28.820  1.00  0.00    -0.064 C 
ATOM      8  C   UNL     1       2.627  27.288  29.784  1.00  0.00     0.015 C 
ATOM      9  C   UNL     1       4.127  27.642  29.533  1.00  0.00    -0.035 C 
ATOM     10  C   UNL     1      -0.629  26.319  28.688  1.00  0.00    -0.006 C 
ATOM     11  C   UNL     1      -0.253  28.732  29.314  1.00  0.00    -0.027 C 
ATOM     12  C   UNL     1       5.018  26.711  30.392  1.00  0.00     0.011 C 
ATOM     13  C   UNL     1       4.389  29.107  29.967  1.00  0.00     0.011 C 
ATOM     14  C   UNL     1      -0.437  25.501  30.004  1.00  0.00     0.017 C 
ATOM     15  C   UNL     1      -2.189  26.711  28.457  1.00  0.00    -0.020 C 
ATOM     16  C   UNL     1      -1.711  29.056  29.357  1.00  0.00     0.032 C 
ATOM     17  C   UNL     1      -2.624  27.814  29.480  1.00  0.00     0.006 C 
ATOM     18  C   UNL     1      -3.096  25.476  28.711  1.00  0.00     0.008 C 
ATOM     19  C   UNL     1      -2.408  27.208  26.996  1.00  0.00     0.012 C 
ATOM     20  C   UNL     1      -4.187  28.190  29.583  1.00  0.00    -0.025 C 
ATOM     21  C   UNL     1      -4.575  25.751  28.476  1.00  0.00     0.005 C 
ATOM     22  C   UNL     1      -5.180  26.967  29.258  1.00  0.00     0.003 C 
ATOM     23  C   UNL     1      -4.410  28.716  31.052  1.00  0.00     0.010 C 
ATOM     24  C   UNL     1      -4.557  29.399  28.653  1.00  0.00     0.012 C 
ATOM     25  C   UNL     1      -6.132  26.549  30.449  1.00  0.00    -0.006 C 
ATOM     26  C   UNL     1      -5.874  28.954  31.451  1.00  0.00     0.033 C 
ATOM     27  C   UNL     1      -6.838  27.835  31.019  1.00  0.00     0.120 C 
ATOM     28  C   UNL     1      -7.275  25.613  29.943  1.00  0.00     0.014 C 
ATOM     29  C   UNL     1      -5.357  25.801  31.577  1.00  0.00     0.014 C 
ENDROOT
BRANCH   1  30
ATOM     30  C   UNL     1       1.796  27.249  25.995  1.00  0.00     0.048 C 
ATOM     31  O   UNL     1       1.507  28.473  25.903  1.00  0.00    -0.550 OA
ATOM     32  O   UNL     1       1.762  26.471  24.849  1.00  0.00    -0.550 OA
ENDBRANCH   1  30
BRANCH  27  33
ATOM     33  O   UNL     1      -7.723  28.363  30.053  1.00  0.00    -0.393 OA
ATOM     34  H   UNL     1      -7.360  28.124  29.160  1.00  0.00     0.210 HD
ENDBRANCH  27  33
TORSDOF 2
ENDMDL
MODEL 6
REMARK VINA RESULT:    -5.750      2.231      8.019
REMARK INTER + INTRA:          -6.429
REMARK INTER:                  -6.262
REMARK INTRA:                  -0.167
REMARK UNBOUND:                -0.175
REMARK SMILES CC1(C)CC[C@@]2(C(=O)[O-])CC[C@@]3(C)C(=CC[C@H]4[C@]5(C)CC[C@@H](O)C(C)(C)[C@@H]5CC[C@@]43C)[C@H]2C1
REMARK SMILES IDX 6 1 5 2 10 3 32 4 4 5 11 6 14 7 33 8 2 9 12 10 15 11 1 12
REMARK SMILES IDX 3 13 13 14 30 15 16 16 17 17 29 18 31 19 18 20 28 21 27 22
REMARK SMILES IDX 20 23 19 24 24 25 21 26 22 27 25 28 26 29 7 30 8 31 9 32
REMARK SMILES IDX 23 33
REMARK H PARENT 23 34
REMARK Flexibility Score: inf
ROOT
ATOM      1  C   UNL     1      -5.635  26.196  30.559  1.00  0.00     0.017 C 
ATOM      2  C   UNL     1      -7.195  26.301  30.404  1.00  0.00     0.014 C 
ATOM      3  C   UNL     1      -5.089  25.326  29.399  1.00  0.00     0.014 C 
ATOM      4  C   UNL     1      -4.978  27.619  30.499  1.00  0.00     0.028 C 
ATOM      5  C   UNL     1      -7.751  27.652  30.869  1.00  0.00     0.007 C 
ATOM      6  C   UNL     1      -3.562  25.199  29.451  1.00  0.00     0.013 C 
ATOM      7  C   UNL     1      -3.458  27.601  30.270  1.00  0.00    -0.064 C 
ATOM      8  C   UNL     1      -5.737  28.548  29.517  1.00  0.00     0.015 C 
ATOM      9  C   UNL     1      -7.193  28.831  30.006  1.00  0.00    -0.035 C 
ATOM     10  C   UNL     1      -2.777  26.560  29.355  1.00  0.00    -0.006 C 
ATOM     11  C   UNL     1      -2.752  28.614  30.816  1.00  0.00    -0.027 C 
ATOM     12  C   UNL     1      -8.108  29.047  28.776  1.00  0.00     0.011 C 
ATOM     13  C   UNL     1      -7.206  30.125  30.859  1.00  0.00     0.011 C 
ATOM     14  C   UNL     1      -2.939  27.078  27.891  1.00  0.00     0.017 C 
ATOM     15  C   UNL     1      -1.211  26.369  29.745  1.00  0.00    -0.020 C 
ATOM     16  C   UNL     1      -1.267  28.606  30.981  1.00  0.00     0.032 C 
ATOM     17  C   UNL     1      -0.524  27.766  29.916  1.00  0.00     0.006 C 
ATOM     18  C   UNL     1      -0.458  25.634  28.601  1.00  0.00     0.008 C 
ATOM     19  C   UNL     1      -1.079  25.536  31.055  1.00  0.00     0.012 C 
ATOM     20  C   UNL     1       1.077  27.819  30.079  1.00  0.00    -0.025 C 
ATOM     21  C   UNL     1       1.011  25.381  28.907  1.00  0.00     0.005 C 
ATOM     22  C   UNL     1       1.855  26.637  29.313  1.00  0.00     0.003 C 
ATOM     23  C   UNL     1       1.523  29.228  29.531  1.00  0.00     0.010 C 
ATOM     24  C   UNL     1       1.509  27.810  31.588  1.00  0.00     0.012 C 
ATOM     25  C   UNL     1       2.860  27.120  28.193  1.00  0.00    -0.006 C 
ATOM     26  C   UNL     1       3.038  29.436  29.402  1.00  0.00     0.033 C 
ATOM     27  C   UNL     1       3.790  28.243  28.785  1.00  0.00     0.120 C 
ATOM     28  C   UNL     1       3.806  25.956  27.757  1.00  0.00     0.014 C 
ATOM     29  C   UNL     1       2.113  27.637  26.925  1.00  0.00     0.014 C 
ENDROOT
BRANCH   1  30
ATOM     30  C   UNL     1      -5.321  25.505  31.888  1.00  0.00     0.048 C 
ATOM     31  O   UNL     1      -4.671  26.096  32.792  1.00  0.00    -0.550 OA
ATOM     32  O   UNL     1      -5.744  24.205  32.114  1.00  0.00    -0.550 OA
ENDBRANCH   1  30
BRANCH  27  33
ATOM     33  O   UNL     1       4.633  27.692  29.776  1.00  0.00    -0.393 OA
ATOM     34  H   UNL     1       5.530  28.105  29.661  1.00  0.00     0.210 HD
ENDBRANCH  27  33
TORSDOF 2
ENDMDL
MODEL 7
REMARK VINA RESULT:    -5.731      1.837      3.536
REMARK INTER + INTRA:          -6.408
REMARK INTER:                  -6.221
REMARK INTRA:                  -0.188
REMARK UNBOUND:                -0.175
REMARK SMILES CC1(C)CC[C@@]2(C(=O)[O-])CC[C@@]3(C)C(=CC[C@H]4[C@]5(C)CC[C@@H](O)C(C)(C)[C@@H]5CC[C@@]43C)[C@H]2C1
REMARK SMILES IDX 6 1 5 2 10 3 32 4 4 5 11 6 14 7 33 8 2 9 12 10 15 11 1 12
REMARK SMILES IDX 3 13 13 14 30 15 16 16 17 17 29 18 31 19 18 20 28 21 27 22
REMARK SMILES IDX 20 23 19 24 24 25 21 26 22 27 25 28 26 29 7 30 8 31 9 32
REMARK SMILES IDX 23 33
REMARK H PARENT 23 34
REMARK Flexibility Score: inf
ROOT
ATOM      1  C   UNL     1       1.120  26.389  26.903  1.00  0.00     0.017 C 
ATOM      2  C   UNL     1       2.372  26.866  26.084  1.00  0.00     0.014 C 
ATOM      3  C   UNL     1       1.459  26.490  28.412  1.00  0.00     0.014 C 
ATOM      4  C   UNL     1      -0.124  27.291  26.587  1.00  0.00     0.028 C 
ATOM      5  C   UNL     1       1.995  27.584  24.782  1.00  0.00     0.007 C 
ATOM      6  C   UNL     1       0.275  26.074  29.292  1.00  0.00     0.013 C 
ATOM      7  C   UNL     1      -1.277  27.148  27.592  1.00  0.00    -0.064 C 
ATOM      8  C   UNL     1       0.297  28.762  26.338  1.00  0.00     0.015 C 
ATOM      9  C   UNL     1       1.188  28.895  25.062  1.00  0.00    -0.035 C 
ATOM     10  C   UNL     1      -1.030  26.934  29.102  1.00  0.00    -0.006 C 
ATOM     11  C   UNL     1      -2.526  27.335  27.112  1.00  0.00    -0.027 C 
ATOM     12  C   UNL     1       2.172  30.075  25.252  1.00  0.00     0.011 C 
ATOM     13  C   UNL     1       0.288  29.199  23.837  1.00  0.00     0.011 C 
ATOM     14  C   UNL     1      -0.742  28.343  29.711  1.00  0.00     0.017 C 
ATOM     15  C   UNL     1      -2.311  26.232  29.814  1.00  0.00    -0.020 C 
ATOM     16  C   UNL     1      -3.769  26.931  27.834  1.00  0.00     0.032 C 
ATOM     17  C   UNL     1      -3.632  26.949  29.374  1.00  0.00     0.006 C 
ATOM     18  C   UNL     1      -2.213  26.376  31.358  1.00  0.00     0.008 C 
ATOM     19  C   UNL     1      -2.368  24.718  29.449  1.00  0.00     0.012 C 
ATOM     20  C   UNL     1      -5.001  26.567  30.132  1.00  0.00    -0.025 C 
ATOM     21  C   UNL     1      -3.359  25.707  32.104  1.00  0.00     0.005 C 
ATOM     22  C   UNL     1      -4.803  26.134  31.669  1.00  0.00     0.003 C 
ATOM     23  C   UNL     1      -5.925  27.839  30.025  1.00  0.00     0.010 C 
ATOM     24  C   UNL     1      -5.781  25.429  29.385  1.00  0.00     0.012 C 
ATOM     25  C   UNL     1      -5.540  27.056  32.719  1.00  0.00    -0.006 C 
ATOM     26  C   UNL     1      -7.220  27.784  30.849  1.00  0.00     0.033 C 
ATOM     27  C   UNL     1      -7.038  27.244  32.278  1.00  0.00     0.120 C 
ATOM     28  C   UNL     1      -5.582  26.373  34.124  1.00  0.00     0.014 C 
ATOM     29  C   UNL     1      -4.834  28.439  32.875  1.00  0.00     0.014 C 
ENDROOT
BRANCH   1  30
ATOM     30  C   UNL     1       0.837  24.926  26.556  1.00  0.00     0.048 C 
ATOM     31  O   UNL     1      -0.166  24.603  25.862  1.00  0.00    -0.550 OA
ATOM     32  O   UNL     1       1.682  23.925  27.008  1.00  0.00    -0.550 OA
ENDBRANCH   1  30
BRANCH  27  33
ATOM     33  O   UNL     1      -7.724  26.013  32.376  1.00  0.00    -0.393 OA
ATOM     34  H   UNL     1      -8.604  26.199  32.796  1.00  0.00     0.210 HD
ENDBRANCH  27  33
TORSDOF 2
ENDMDL
MODEL 8
REMARK VINA RESULT:    -5.619      1.583      8.196
REMARK INTER + INTRA:          -6.286
REMARK INTER:                  -6.107
REMARK INTRA:                  -0.179
REMARK UNBOUND:                -0.175
REMARK SMILES CC1(C)CC[C@@]2(C(=O)[O-])CC[C@@]3(C)C(=CC[C@H]4[C@]5(C)CC[C@@H](O)C(C)(C)[C@@H]5CC[C@@]43C)[C@H]2C1
REMARK SMILES IDX 6 1 5 2 10 3 32 4 4 5 11 6 14 7 33 8 2 9 12 10 15 11 1 12
REMARK SMILES IDX 3 13 13 14 30 15 16 16 17 17 29 18 31 19 18 20 28 21 27 22
REMARK SMILES IDX 20 23 19 24 24 25 21 26 22 27 25 28 26 29 7 30 8 31 9 32
REMARK SMILES IDX 23 33
REMARK H PARENT 23 34
REMARK Flexibility Score: inf
ROOT
ATOM      1  C   UNL     1      -3.897  27.303  33.103  1.00  0.00     0.017 C 
ATOM      2  C   UNL     1      -4.998  26.821  34.114  1.00  0.00     0.014 C 
ATOM      3  C   UNL     1      -2.527  26.757  33.577  1.00  0.00     0.014 C 
ATOM      4  C   UNL     1      -4.201  26.767  31.660  1.00  0.00     0.028 C 
ATOM      5  C   UNL     1      -6.348  26.545  33.442  1.00  0.00     0.007 C 
ATOM      6  C   UNL     1      -1.394  27.152  32.623  1.00  0.00     0.013 C 
ATOM      7  C   UNL     1      -3.014  26.866  30.689  1.00  0.00    -0.064 C 
ATOM      8  C   UNL     1      -4.842  25.356  31.708  1.00  0.00     0.015 C 
ATOM      9  C   UNL     1      -6.243  25.386  32.397  1.00  0.00    -0.035 C 
ATOM     10  C   UNL     1      -1.557  26.635  31.145  1.00  0.00    -0.006 C 
ATOM     11  C   UNL     1      -3.313  27.050  29.385  1.00  0.00    -0.027 C 
ATOM     12  C   UNL     1      -6.489  24.031  33.104  1.00  0.00     0.011 C 
ATOM     13  C   UNL     1      -7.340  25.582  31.320  1.00  0.00     0.011 C 
ATOM     14  C   UNL     1      -1.337  25.090  31.175  1.00  0.00     0.017 C 
ATOM     15  C   UNL     1      -0.505  27.364  30.144  1.00  0.00    -0.020 C 
ATOM     16  C   UNL     1      -2.325  27.486  28.353  1.00  0.00     0.032 C 
ATOM     17  C   UNL     1      -0.872  27.049  28.655  1.00  0.00     0.006 C 
ATOM     18  C   UNL     1       0.929  26.814  30.380  1.00  0.00     0.008 C 
ATOM     19  C   UNL     1      -0.504  28.902  30.389  1.00  0.00     0.012 C 
ATOM     20  C   UNL     1       0.166  27.479  27.501  1.00  0.00    -0.025 C 
ATOM     21  C   UNL     1       1.984  27.476  29.505  1.00  0.00     0.005 C 
ATOM     22  C   UNL     1       1.707  27.459  27.963  1.00  0.00     0.003 C 
ATOM     23  C   UNL     1      -0.072  26.477  26.308  1.00  0.00     0.010 C 
ATOM     24  C   UNL     1      -0.166  28.898  26.919  1.00  0.00     0.012 C 
ATOM     25  C   UNL     1       2.629  26.457  27.160  1.00  0.00    -0.006 C 
ATOM     26  C   UNL     1       0.943  26.567  25.159  1.00  0.00     0.033 C 
ATOM     27  C   UNL     1       2.408  26.679  25.618  1.00  0.00     0.120 C 
ATOM     28  C   UNL     1       4.138  26.754  27.430  1.00  0.00     0.014 C 
ATOM     29  C   UNL     1       2.350  24.972  27.548  1.00  0.00     0.014 C 
ENDROOT
BRANCH   1  30
ATOM     30  C   UNL     1      -3.854  28.833  33.119  1.00  0.00     0.048 C 
ATOM     31  O   UNL     1      -3.406  29.461  34.116  1.00  0.00    -0.550 OA
ATOM     32  O   UNL     1      -4.318  29.555  32.032  1.00  0.00    -0.550 OA
ENDBRANCH   1  30
BRANCH  27  33
ATOM     33  O   UNL     1       2.892  27.952  25.242  1.00  0.00    -0.393 OA
ATOM     34  H   UNL     1       3.765  28.080  25.699  1.00  0.00     0.210 HD
ENDBRANCH  27  33
TORSDOF 2
ENDMDL
MODEL 9
REMARK VINA RESULT:    -5.362      1.883      8.283
REMARK INTER + INTRA:          -6.007
REMARK INTER:                  -5.829
REMARK INTRA:                  -0.178
REMARK UNBOUND:                -0.175
REMARK SMILES CC1(C)CC[C@@]2(C(=O)[O-])CC[C@@]3(C)C(=CC[C@H]4[C@]5(C)CC[C@@H](O)C(C)(C)[C@@H]5CC[C@@]43C)[C@H]2C1
REMARK SMILES IDX 6 1 5 2 10 3 32 4 4 5 11 6 14 7 33 8 2 9 12 10 15 11 1 12
REMARK SMILES IDX 3 13 13 14 30 15 16 16 17 17 29 18 31 19 18 20 28 21 27 22
REMARK SMILES IDX 20 23 19 24 24 25 21 26 22 27 25 28 26 29 7 30 8 31 9 32
REMARK SMILES IDX 23 33
REMARK H PARENT 23 34
REMARK Flexibility Score: inf
ROOT
ATOM      1  C   UNL     1      -7.016  26.947  31.536  1.00  0.00     0.017 C 
ATOM      2  C   UNL     1      -8.559  27.157  31.742  1.00  0.00     0.014 C 
ATOM      3  C   UNL     1      -6.761  25.441  31.272  1.00  0.00     0.014 C 
ATOM      4  C   UNL     1      -6.503  27.785  30.313  1.00  0.00     0.028 C 
ATOM      5  C   UNL     1      -9.054  28.507  31.209  1.00  0.00     0.007 C 
ATOM      6  C   UNL     1      -5.277  25.148  31.024  1.00  0.00     0.013 C 
ATOM      7  C   UNL     1      -5.113  27.370  29.805  1.00  0.00    -0.064 C 
ATOM      8  C   UNL     1      -7.572  27.856  29.193  1.00  0.00     0.015 C 
ATOM      9  C   UNL     1      -8.846  28.627  29.664  1.00  0.00    -0.035 C 
ATOM     10  C   UNL     1      -4.648  25.898  29.791  1.00  0.00    -0.006 C 
ATOM     11  C   UNL     1      -4.353  28.345  29.259  1.00  0.00    -0.027 C 
ATOM     12  C   UNL     1     -10.084  28.055  28.931  1.00  0.00     0.011 C 
ATOM     13  C   UNL     1      -8.706  30.125  29.292  1.00  0.00     0.011 C 
ATOM     14  C   UNL     1      -5.254  25.250  28.506  1.00  0.00     0.017 C 
ATOM     15  C   UNL     1      -3.026  25.793  29.799  1.00  0.00    -0.020 C 
ATOM     16  C   UNL     1      -2.886  28.220  29.009  1.00  0.00     0.032 C 
ATOM     17  C   UNL     1      -2.418  26.771  28.738  1.00  0.00     0.006 C 
ATOM     18  C   UNL     1      -2.579  24.359  29.398  1.00  0.00     0.008 C 
ATOM     19  C   UNL     1      -2.472  26.118  31.218  1.00  0.00     0.012 C 
ATOM     20  C   UNL     1      -0.844  26.669  28.414  1.00  0.00    -0.025 C 
ATOM     21  C   UNL     1      -1.070  24.167  29.420  1.00  0.00     0.005 C 
ATOM     22  C   UNL     1      -0.234  25.188  28.575  1.00  0.00     0.003 C 
ATOM     23  C   UNL     1      -0.670  27.187  26.936  1.00  0.00     0.010 C 
ATOM     24  C   UNL     1      -0.003  27.657  29.297  1.00  0.00     0.012 C 
ATOM     25  C   UNL     1       0.376  24.574  27.253  1.00  0.00    -0.006 C 
ATOM     26  C   UNL     1       0.728  27.000  26.331  1.00  0.00     0.033 C 
ATOM     27  C   UNL     1       1.356  25.621  26.604  1.00  0.00     0.120 C 
ATOM     28  C   UNL     1       1.239  23.312  27.574  1.00  0.00     0.014 C 
ATOM     29  C   UNL     1      -0.733  24.157  26.239  1.00  0.00     0.014 C 
ENDROOT
BRANCH   1  30
ATOM     30  C   UNL     1      -6.291  27.355  32.820  1.00  0.00     0.048 C 
ATOM     31  O   UNL     1      -6.355  26.643  33.859  1.00  0.00    -0.550 OA
ATOM     32  O   UNL     1      -5.554  28.526  32.863  1.00  0.00    -0.550 OA
ENDBRANCH   1  30
BRANCH  27  33
ATOM     33  O   UNL     1       2.481  25.805  27.438  1.00  0.00    -0.393 OA
ATOM     34  H   UNL     1       2.167  25.727  28.377  1.00  0.00     0.210 HD
ENDBRANCH  27  33
TORSDOF 2
ENDMDL
