MODEL 1
REMARK VINA RESULT:    -2.988      0.000      0.000
REMARK INTER + INTRA:         -11.291
REMARK INTER:                  -6.830
REMARK INTRA:                  -4.461
REMARK UNBOUND:                -4.461
REMARK SMILES CCCCCCCCCCCCCCCCCCCCCCCC(=O)[O-]
REMARK SMILES IDX 13 1 14 2 15 3 16 4 17 5 18 6 19 7 20 8 21 9 22 10 23 11
REMARK SMILES IDX 24 12 25 13 26 14 12 15 11 16 10 17 9 18 8 19 7 20 6 21 5 22
REMARK SMILES IDX 4 23 3 24 2 25 1 26
REMARK H PARENT
REMARK Flexibility Score: inf
ROOT
ATOM      1  C   UNL     1      57.907  27.274  49.814  1.00  0.00     0.000 C 
ENDROOT
BRANCH   1   2
ATOM      2  C   UNL     1      57.886  28.800  50.001  1.00  0.00     0.000 C 
BRANCH   2   3
ATOM      3  C   UNL     1      59.188  29.501  49.558  1.00  0.00     0.000 C 
BRANCH   3   4
ATOM      4  C   UNL     1      60.251  28.502  49.075  1.00  0.00     0.000 C 
BRANCH   4   5
ATOM      5  C   UNL     1      61.469  28.498  50.011  1.00  0.00     0.000 C 
BRANCH   5   6
ATOM      6  C   UNL     1      61.110  28.838  51.469  1.00  0.00     0.000 C 
BRANCH   6   7
ATOM      7  C   UNL     1      60.834  27.622  52.372  1.00  0.00     0.000 C 
BRANCH   7   8
ATOM      8  C   UNL     1      61.156  26.255  51.736  1.00  0.00     0.000 C 
BRANCH   8   9
ATOM      9  C   UNL     1      60.494  25.063  52.458  1.00  0.00     0.000 C 
BRANCH   9  10
ATOM     10  C   UNL     1      60.053  23.957  51.485  1.00  0.00     0.006 C 
BRANCH  10  11
ATOM     11  C   UNL     1      60.552  24.207  50.055  1.00  0.00     0.053 C 
BRANCH  11  12
ATOM     12  C   UNL     1      61.566  23.189  49.634  1.00  0.00     0.041 C 
ATOM     13  O   UNL     1      61.254  22.282  48.817  1.00  0.00    -0.550 OA
ATOM     14  O   UNL     1      62.869  23.265  50.110  1.00  0.00    -0.550 OA
ENDBRANCH  11  12
ENDBRANCH  10  11
ENDBRANCH   9  10
ENDBRANCH   8   9
ENDBRANCH   7   8
ENDBRANCH   6   7
ENDBRANCH   5   6
ENDBRANCH   4   5
ENDBRANCH   3   4
ENDBRANCH   2   3
ENDBRANCH   1   2
BRANCH   1  15
ATOM     15  C   UNL     1      57.418  26.513  51.058  1.00  0.00     0.000 C 
BRANCH  15  16
ATOM     16  C   UNL     1      55.955  26.057  50.935  1.00  0.00     0.000 C 
BRANCH  16  17
ATOM     17  C   UNL     1      55.450  26.076  49.484  1.00  0.00     0.000 C 
BRANCH  17  18
ATOM     18  C   UNL     1      54.135  26.858  49.371  1.00  0.00    -0.000 C 
BRANCH  18  19
ATOM     19  C   UNL     1      53.993  27.864  50.524  1.00  0.00    -0.000 C 
BRANCH  19  20
ATOM     20  C   UNL     1      54.048  29.324  50.048  1.00  0.00    -0.000 C 
BRANCH  20  21
ATOM     21  C   UNL     1      54.393  30.301  51.184  1.00  0.00    -0.000 C 
BRANCH  21  22
ATOM     22  C   UNL     1      55.167  29.632  52.334  1.00  0.00    -0.000 C 
BRANCH  22  23
ATOM     23  C   UNL     1      56.440  30.374  52.785  1.00  0.00    -0.000 C 
BRANCH  23  24
ATOM     24  C   UNL     1      57.405  29.549  53.661  1.00  0.00    -0.000 C 
BRANCH  24  25
ATOM     25  C   UNL     1      56.890  28.151  54.050  1.00  0.00    -0.003 C 
ATOM     26  C   UNL     1      57.962  27.285  54.713  1.00  0.00     0.004 C 
ENDBRANCH  24  25
ENDBRANCH  23  24
ENDBRANCH  22  23
ENDBRANCH  21  22
ENDBRANCH  20  21
ENDBRANCH  19  20
ENDBRANCH  18  19
ENDBRANCH  17  18
ENDBRANCH  16  17
ENDBRANCH  15  16
ENDBRANCH   1  15
TORSDOF 22
ENDMDL
MODEL 2
REMARK VINA RESULT:    -2.983     10.082     11.970
REMARK INTER + INTRA:         -11.281
REMARK INTER:                  -6.914
REMARK INTRA:                  -4.368
REMARK UNBOUND:                -4.461
REMARK SMILES CCCCCCCCCCCCCCCCCCCCCCCC(=O)[O-]
REMARK SMILES IDX 13 1 14 2 15 3 16 4 17 5 18 6 19 7 20 8 21 9 22 10 23 11
REMARK SMILES IDX 24 12 25 13 26 14 12 15 11 16 10 17 9 18 8 19 7 20 6 21 5 22
REMARK SMILES IDX 4 23 3 24 2 25 1 26
REMARK H PARENT
REMARK Flexibility Score: inf
ROOT
ATOM      1  C   UNL     1      62.681  31.755  58.879  1.00  0.00     0.000 C 
ENDROOT
BRANCH   1   2
ATOM      2  C   UNL     1      61.214  31.630  59.326  1.00  0.00     0.000 C 
BRANCH   2   3
ATOM      3  C   UNL     1      61.009  31.800  60.846  1.00  0.00     0.000 C 
BRANCH   3   4
ATOM      4  C   UNL     1      60.859  30.451  61.567  1.00  0.00     0.000 C 
BRANCH   4   5
ATOM      5  C   UNL     1      60.249  29.393  60.635  1.00  0.00     0.000 C 
BRANCH   5   6
ATOM      6  C   UNL     1      61.084  28.101  60.563  1.00  0.00     0.000 C 
BRANCH   6   7
ATOM      7  C   UNL     1      62.542  28.240  61.038  1.00  0.00     0.000 C 
BRANCH   7   8
ATOM      8  C   UNL     1      63.591  28.269  59.910  1.00  0.00     0.000 C 
BRANCH   8   9
ATOM      9  C   UNL     1      65.047  28.187  60.415  1.00  0.00     0.000 C 
BRANCH   9  10
ATOM     10  C   UNL     1      65.843  29.471  60.126  1.00  0.00     0.006 C 
BRANCH  10  11
ATOM     11  C   UNL     1      65.910  29.790  58.626  1.00  0.00     0.053 C 
BRANCH  11  12
ATOM     12  C   UNL     1      67.217  29.370  58.026  1.00  0.00     0.041 C 
ATOM     13  O   UNL     1      68.274  29.421  58.710  1.00  0.00    -0.550 OA
ATOM     14  O   UNL     1      67.262  28.883  56.727  1.00  0.00    -0.550 OA
ENDBRANCH  11  12
ENDBRANCH  10  11
ENDBRANCH   9  10
ENDBRANCH   8   9
ENDBRANCH   7   8
ENDBRANCH   6   7
ENDBRANCH   5   6
ENDBRANCH   4   5
ENDBRANCH   3   4
ENDBRANCH   2   3
ENDBRANCH   1   2
BRANCH   1  15
ATOM     15  C   UNL     1      63.579  32.394  59.951  1.00  0.00     0.000 C 
BRANCH  15  16
ATOM     16  C   UNL     1      64.728  33.217  59.345  1.00  0.00     0.000 C 
BRANCH  16  17
ATOM     17  C   UNL     1      64.935  34.560  60.062  1.00  0.00     0.000 C 
BRANCH  17  18
ATOM     18  C   UNL     1      63.782  34.848  61.032  1.00  0.00    -0.000 C 
BRANCH  18  19
ATOM     19  C   UNL     1      63.493  36.356  61.111  1.00  0.00    -0.000 C 
BRANCH  19  20
ATOM     20  C   UNL     1      62.027  36.695  60.799  1.00  0.00    -0.000 C 
BRANCH  20  21
ATOM     21  C   UNL     1      61.217  35.462  60.365  1.00  0.00    -0.000 C 
BRANCH  21  22
ATOM     22  C   UNL     1      60.176  35.785  59.277  1.00  0.00    -0.000 C 
BRANCH  22  23
ATOM     23  C   UNL     1      60.303  34.957  57.983  1.00  0.00    -0.000 C 
BRANCH  23  24
ATOM     24  C   UNL     1      61.723  34.889  57.386  1.00  0.00    -0.000 C 
BRANCH  24  25
ATOM     25  C   UNL     1      62.244  36.215  56.803  1.00  0.00    -0.003 C 
ATOM     26  C   UNL     1      63.599  36.627  57.379  1.00  0.00     0.004 C 
ENDBRANCH  24  25
ENDBRANCH  23  24
ENDBRANCH  22  23
ENDBRANCH  21  22
ENDBRANCH  20  21
ENDBRANCH  19  20
ENDBRANCH  18  19
ENDBRANCH  17  18
ENDBRANCH  16  17
ENDBRANCH  15  16
ENDBRANCH   1  15
TORSDOF 22
ENDMDL
MODEL 3
REMARK VINA RESULT:    -2.944      1.347      2.833
REMARK INTER + INTRA:         -11.191
REMARK INTER:                  -7.539
REMARK INTRA:                  -3.652
REMARK UNBOUND:                -4.461
REMARK SMILES CCCCCCCCCCCCCCCCCCCCCCCC(=O)[O-]
REMARK SMILES IDX 13 1 14 2 15 3 16 4 17 5 18 6 19 7 20 8 21 9 22 10 23 11
REMARK SMILES IDX 24 12 25 13 26 14 12 15 11 16 10 17 9 18 8 19 7 20 6 21 5 22
REMARK SMILES IDX 4 23 3 24 2 25 1 26
REMARK H PARENT
REMARK Flexibility Score: inf
ROOT
ATOM      1  C   UNL     1      55.674  25.904  50.768  1.00  0.00     0.000 C 
ENDROOT
BRANCH   1   2
ATOM      2  C   UNL     1      57.163  26.290  50.772  1.00  0.00     0.000 C 
BRANCH   2   3
ATOM      3  C   UNL     1      57.573  27.179  51.965  1.00  0.00     0.000 C 
BRANCH   3   4
ATOM      4  C   UNL     1      58.048  28.570  51.517  1.00  0.00     0.000 C 
BRANCH   4   5
ATOM      5  C   UNL     1      57.915  28.734  49.995  1.00  0.00     0.000 C 
BRANCH   5   6
ATOM      6  C   UNL     1      59.185  29.305  49.337  1.00  0.00     0.000 C 
BRANCH   6   7
ATOM      7  C   UNL     1      60.493  28.585  49.715  1.00  0.00     0.000 C 
BRANCH   7   8
ATOM      8  C   UNL     1      60.561  27.103  49.300  1.00  0.00     0.000 C 
BRANCH   8   9
ATOM      9  C   UNL     1      60.837  26.142  50.475  1.00  0.00     0.000 C 
BRANCH   9  10
ATOM     10  C   UNL     1      60.769  24.664  50.054  1.00  0.00     0.006 C 
BRANCH  10  11
ATOM     11  C   UNL     1      62.160  24.057  49.830  1.00  0.00     0.053 C 
BRANCH  11  12
ATOM     12  C   UNL     1      62.087  22.590  49.534  1.00  0.00     0.041 C 
ATOM     13  O   UNL     1      61.316  22.163  48.634  1.00  0.00    -0.550 OA
ATOM     14  O   UNL     1      62.900  21.699  50.222  1.00  0.00    -0.550 OA
ENDBRANCH  11  12
ENDBRANCH  10  11
ENDBRANCH   9  10
ENDBRANCH   8   9
ENDBRANCH   7   8
ENDBRANCH   6   7
ENDBRANCH   5   6
ENDBRANCH   4   5
ENDBRANCH   3   4
ENDBRANCH   2   3
ENDBRANCH   1   2
BRANCH   1  15
ATOM     15  C   UNL     1      55.037  25.999  49.371  1.00  0.00     0.000 C 
BRANCH  15  16
ATOM     16  C   UNL     1      53.802  26.914  49.346  1.00  0.00     0.000 C 
BRANCH  16  17
ATOM     17  C   UNL     1      53.809  27.948  50.483  1.00  0.00     0.000 C 
BRANCH  17  18
ATOM     18  C   UNL     1      54.249  29.326  49.970  1.00  0.00    -0.000 C 
BRANCH  18  19
ATOM     19  C   UNL     1      54.279  30.353  51.112  1.00  0.00    -0.000 C 
BRANCH  19  20
ATOM     20  C   UNL     1      54.205  29.699  52.501  1.00  0.00    -0.000 C 
BRANCH  20  21
ATOM     21  C   UNL     1      55.454  29.984  53.353  1.00  0.00    -0.000 C 
BRANCH  21  22
ATOM     22  C   UNL     1      55.810  31.480  53.408  1.00  0.00    -0.000 C 
BRANCH  22  23
ATOM     23  C   UNL     1      57.255  31.793  53.846  1.00  0.00    -0.000 C 
BRANCH  23  24
ATOM     24  C   UNL     1      58.254  32.022  52.694  1.00  0.00    -0.000 C 
BRANCH  24  25
ATOM     25  C   UNL     1      59.727  32.131  53.128  1.00  0.00    -0.003 C 
ATOM     26  C   UNL     1      60.651  31.202  52.341  1.00  0.00     0.004 C 
ENDBRANCH  24  25
ENDBRANCH  23  24
ENDBRANCH  22  23
ENDBRANCH  21  22
ENDBRANCH  20  21
ENDBRANCH  19  20
ENDBRANCH  18  19
ENDBRANCH  17  18
ENDBRANCH  16  17
ENDBRANCH  15  16
ENDBRANCH   1  15
TORSDOF 22
ENDMDL
MODEL 4
REMARK VINA RESULT:    -2.898      9.511     11.498
REMARK INTER + INTRA:         -11.086
REMARK INTER:                  -7.159
REMARK INTRA:                  -3.927
REMARK UNBOUND:                -4.461
REMARK SMILES CCCCCCCCCCCCCCCCCCCCCCCC(=O)[O-]
REMARK SMILES IDX 13 1 14 2 15 3 16 4 17 5 18 6 19 7 20 8 21 9 22 10 23 11
REMARK SMILES IDX 24 12 25 13 26 14 12 15 11 16 10 17 9 18 8 19 7 20 6 21 5 22
REMARK SMILES IDX 4 23 3 24 2 25 1 26
REMARK H PARENT
REMARK Flexibility Score: inf
ROOT
ATOM      1  C   UNL     1      60.811  31.579  58.475  1.00  0.00     0.000 C 
ENDROOT
BRANCH   1   2
ATOM      2  C   UNL     1      60.389  30.591  59.577  1.00  0.00     0.000 C 
BRANCH   2   3
ATOM      3  C   UNL     1      60.923  30.954  60.978  1.00  0.00     0.000 C 
BRANCH   3   4
ATOM      4  C   UNL     1      61.791  29.837  61.578  1.00  0.00     0.000 C 
BRANCH   4   5
ATOM      5  C   UNL     1      63.285  30.125  61.364  1.00  0.00     0.000 C 
BRANCH   5   6
ATOM      6  C   UNL     1      64.031  28.961  60.685  1.00  0.00     0.000 C 
BRANCH   6   7
ATOM      7  C   UNL     1      63.153  28.046  59.811  1.00  0.00     0.000 C 
BRANCH   7   8
ATOM      8  C   UNL     1      63.125  26.568  60.245  1.00  0.00     0.000 C 
BRANCH   8   9
ATOM      9  C   UNL     1      62.015  26.242  61.267  1.00  0.00     0.000 C 
BRANCH   9  10
ATOM     10  C   UNL     1      60.606  26.363  60.663  1.00  0.00     0.006 C 
BRANCH  10  11
ATOM     11  C   UNL     1      59.515  25.890  61.632  1.00  0.00     0.053 C 
BRANCH  11  12
ATOM     12  C   UNL     1      58.219  26.607  61.403  1.00  0.00     0.041 C 
ATOM     13  O   UNL     1      57.128  26.063  61.721  1.00  0.00    -0.550 OA
ATOM     14  O   UNL     1      58.218  27.892  60.877  1.00  0.00    -0.550 OA
ENDBRANCH  11  12
ENDBRANCH  10  11
ENDBRANCH   9  10
ENDBRANCH   8   9
ENDBRANCH   7   8
ENDBRANCH   6   7
ENDBRANCH   5   6
ENDBRANCH   4   5
ENDBRANCH   3   4
ENDBRANCH   2   3
ENDBRANCH   1   2
BRANCH   1  15
ATOM     15  C   UNL     1      62.275  31.399  58.041  1.00  0.00     0.000 C 
BRANCH  15  16
ATOM     16  C   UNL     1      62.782  32.563  57.174  1.00  0.00     0.000 C 
BRANCH  16  17
ATOM     17  C   UNL     1      63.797  33.451  57.911  1.00  0.00     0.000 C 
BRANCH  17  18
ATOM     18  C   UNL     1      64.432  32.699  59.088  1.00  0.00    -0.000 C 
BRANCH  18  19
ATOM     19  C   UNL     1      64.272  33.489  60.396  1.00  0.00    -0.000 C 
BRANCH  19  20
ATOM     20  C   UNL     1      62.851  34.045  60.582  1.00  0.00    -0.000 C 
BRANCH  20  21
ATOM     21  C   UNL     1      62.842  35.560  60.846  1.00  0.00    -0.000 C 
BRANCH  21  22
ATOM     22  C   UNL     1      61.940  36.332  59.865  1.00  0.00    -0.000 C 
BRANCH  22  23
ATOM     23  C   UNL     1      60.465  35.886  59.843  1.00  0.00    -0.000 C 
BRANCH  23  24
ATOM     24  C   UNL     1      60.019  35.156  58.560  1.00  0.00    -0.000 C 
BRANCH  24  25
ATOM     25  C   UNL     1      60.655  35.684  57.262  1.00  0.00    -0.003 C 
ATOM     26  C   UNL     1      60.124  34.983  56.011  1.00  0.00     0.004 C 
ENDBRANCH  24  25
ENDBRANCH  23  24
ENDBRANCH  22  23
ENDBRANCH  21  22
ENDBRANCH  20  21
ENDBRANCH  19  20
ENDBRANCH  18  19
ENDBRANCH  17  18
ENDBRANCH  16  17
ENDBRANCH  15  16
ENDBRANCH   1  15
TORSDOF 22
ENDMDL
MODEL 5
REMARK VINA RESULT:    -2.894      9.601     12.333
REMARK INTER + INTRA:         -11.077
REMARK INTER:                  -7.333
REMARK INTRA:                  -3.744
REMARK UNBOUND:                -4.461
REMARK SMILES CCCCCCCCCCCCCCCCCCCCCCCC(=O)[O-]
REMARK SMILES IDX 13 1 14 2 15 3 16 4 17 5 18 6 19 7 20 8 21 9 22 10 23 11
REMARK SMILES IDX 24 12 25 13 26 14 12 15 11 16 10 17 9 18 8 19 7 20 6 21 5 22
REMARK SMILES IDX 4 23 3 24 2 25 1 26
REMARK H PARENT
REMARK Flexibility Score: inf
ROOT
ATOM      1  C   UNL     1      63.835  31.992  57.430  1.00  0.00     0.000 C 
ENDROOT
BRANCH   1   2
ATOM      2  C   UNL     1      64.750  32.319  58.622  1.00  0.00     0.000 C 
BRANCH   2   3
ATOM      3  C   UNL     1      64.619  33.770  59.132  1.00  0.00     0.000 C 
BRANCH   3   4
ATOM      4  C   UNL     1      64.337  33.833  60.641  1.00  0.00     0.000 C 
BRANCH   4   5
ATOM      5  C   UNL     1      63.375  34.984  60.974  1.00  0.00     0.000 C 
BRANCH   5   6
ATOM      6  C   UNL     1      62.401  35.306  59.825  1.00  0.00     0.000 C 
BRANCH   6   7
ATOM      7  C   UNL     1      60.931  35.482  60.248  1.00  0.00     0.000 C 
BRANCH   7   8
ATOM      8  C   UNL     1      60.048  36.227  59.228  1.00  0.00     0.000 C 
BRANCH   8   9
ATOM      9  C   UNL     1      59.966  35.531  57.853  1.00  0.00     0.000 C 
BRANCH   9  10
ATOM     10  C   UNL     1      58.784  34.551  57.760  1.00  0.00     0.006 C 
BRANCH  10  11
ATOM     11  C   UNL     1      57.431  35.273  57.724  1.00  0.00     0.053 C 
BRANCH  11  12
ATOM     12  C   UNL     1      57.074  35.717  56.338  1.00  0.00     0.041 C 
ATOM     13  O   UNL     1      57.013  36.944  56.060  1.00  0.00    -0.550 OA
ATOM     14  O   UNL     1      56.849  34.775  55.342  1.00  0.00    -0.550 OA
ENDBRANCH  11  12
ENDBRANCH  10  11
ENDBRANCH   9  10
ENDBRANCH   8   9
ENDBRANCH   7   8
ENDBRANCH   6   7
ENDBRANCH   5   6
ENDBRANCH   4   5
ENDBRANCH   3   4
ENDBRANCH   2   3
ENDBRANCH   1   2
BRANCH   1  15
ATOM     15  C   UNL     1      62.600  31.169  57.834  1.00  0.00     0.000 C 
BRANCH  15  16
ATOM     16  C   UNL     1      61.364  32.045  58.094  1.00  0.00     0.000 C 
BRANCH  16  17
ATOM     17  C   UNL     1      60.501  31.521  59.253  1.00  0.00     0.000 C 
BRANCH  17  18
ATOM     18  C   UNL     1      61.145  31.846  60.607  1.00  0.00    -0.000 C 
BRANCH  18  19
ATOM     19  C   UNL     1      60.966  30.681  61.593  1.00  0.00    -0.000 C 
BRANCH  19  20
ATOM     20  C   UNL     1      62.056  29.607  61.446  1.00  0.00    -0.000 C 
BRANCH  20  21
ATOM     21  C   UNL     1      63.459  30.212  61.267  1.00  0.00    -0.000 C 
BRANCH  21  22
ATOM     22  C   UNL     1      64.484  29.196  60.730  1.00  0.00    -0.000 C 
BRANCH  22  23
ATOM     23  C   UNL     1      63.914  28.140  59.763  1.00  0.00    -0.000 C 
BRANCH  23  24
ATOM     24  C   UNL     1      64.050  26.678  60.234  1.00  0.00    -0.000 C 
BRANCH  24  25
ATOM     25  C   UNL     1      62.739  26.028  60.712  1.00  0.00    -0.003 C 
ATOM     26  C   UNL     1      62.959  24.679  61.396  1.00  0.00     0.004 C 
ENDBRANCH  24  25
ENDBRANCH  23  24
ENDBRANCH  22  23
ENDBRANCH  21  22
ENDBRANCH  20  21
ENDBRANCH  19  20
ENDBRANCH  18  19
ENDBRANCH  17  18
ENDBRANCH  16  17
ENDBRANCH  15  16
ENDBRANCH   1  15
TORSDOF 22
ENDMDL
MODEL 6
REMARK VINA RESULT:    -2.882      8.271     11.292
REMARK INTER + INTRA:         -11.050
REMARK INTER:                  -6.818
REMARK INTRA:                  -4.231
REMARK UNBOUND:                -4.461
REMARK SMILES CCCCCCCCCCCCCCCCCCCCCCCC(=O)[O-]
REMARK SMILES IDX 13 1 14 2 15 3 16 4 17 5 18 6 19 7 20 8 21 9 22 10 23 11
REMARK SMILES IDX 24 12 25 13 26 14 12 15 11 16 10 17 9 18 8 19 7 20 6 21 5 22
REMARK SMILES IDX 4 23 3 24 2 25 1 26
REMARK H PARENT
REMARK Flexibility Score: inf
ROOT
ATOM      1  C   UNL     1      64.420  32.582  59.315  1.00  0.00     0.000 C 
ENDROOT
BRANCH   1   2
ATOM      2  C   UNL     1      64.574  31.054  59.226  1.00  0.00     0.000 C 
BRANCH   2   3
ATOM      3  C   UNL     1      64.427  30.332  60.582  1.00  0.00     0.000 C 
BRANCH   3   4
ATOM      4  C   UNL     1      63.902  28.897  60.424  1.00  0.00     0.000 C 
BRANCH   4   5
ATOM      5  C   UNL     1      62.436  28.795  60.870  1.00  0.00     0.000 C 
BRANCH   5   6
ATOM      6  C   UNL     1      61.970  30.011  61.693  1.00  0.00     0.000 C 
BRANCH   6   7
ATOM      7  C   UNL     1      60.673  30.675  61.196  1.00  0.00     0.000 C 
BRANCH   7   8
ATOM      8  C   UNL     1      60.813  31.471  59.884  1.00  0.00     0.000 C 
BRANCH   8   9
ATOM      9  C   UNL     1      60.222  30.749  58.655  1.00  0.00     0.000 C 
BRANCH   9  10
ATOM     10  C   UNL     1      61.309  30.221  57.704  1.00  0.00     0.006 C 
BRANCH  10  11
ATOM     11  C   UNL     1      60.929  30.401  56.228  1.00  0.00     0.053 C 
BRANCH  11  12
ATOM     12  C   UNL     1      61.922  31.253  55.498  1.00  0.00     0.041 C 
ATOM     13  O   UNL     1      62.854  31.822  56.127  1.00  0.00    -0.550 OA
ATOM     14  O   UNL     1      61.844  31.386  54.117  1.00  0.00    -0.550 OA
ENDBRANCH  11  12
ENDBRANCH  10  11
ENDBRANCH   9  10
ENDBRANCH   8   9
ENDBRANCH   7   8
ENDBRANCH   6   7
ENDBRANCH   5   6
ENDBRANCH   4   5
ENDBRANCH   3   4
ENDBRANCH   2   3
ENDBRANCH   1   2
BRANCH   1  15
ATOM     15  C   UNL     1      64.026  33.061  60.722  1.00  0.00     0.000 C 
BRANCH  15  16
ATOM     16  C   UNL     1      64.525  34.484  61.023  1.00  0.00     0.000 C 
BRANCH  16  17
ATOM     17  C   UNL     1      63.813  35.552  60.179  1.00  0.00     0.000 C 
BRANCH  17  18
ATOM     18  C   UNL     1      63.036  36.529  61.071  1.00  0.00    -0.000 C 
BRANCH  18  19
ATOM     19  C   UNL     1      61.541  36.528  60.716  1.00  0.00    -0.000 C 
BRANCH  19  20
ATOM     20  C   UNL     1      61.093  35.222  60.041  1.00  0.00    -0.000 C 
BRANCH  20  21
ATOM     21  C   UNL     1      60.374  35.467  58.703  1.00  0.00    -0.000 C 
BRANCH  21  22
ATOM     22  C   UNL     1      60.835  34.505  57.593  1.00  0.00    -0.000 C 
BRANCH  22  23
ATOM     23  C   UNL     1      59.700  33.846  56.785  1.00  0.00    -0.000 C 
BRANCH  23  24
ATOM     24  C   UNL     1      58.327  33.817  57.486  1.00  0.00    -0.000 C 
BRANCH  24  25
ATOM     25  C   UNL     1      57.256  32.970  56.775  1.00  0.00    -0.003 C 
ATOM     26  C   UNL     1      56.867  31.718  57.562  1.00  0.00     0.004 C 
ENDBRANCH  24  25
ENDBRANCH  23  24
ENDBRANCH  22  23
ENDBRANCH  21  22
ENDBRANCH  20  21
ENDBRANCH  19  20
ENDBRANCH  18  19
ENDBRANCH  17  18
ENDBRANCH  16  17
ENDBRANCH  15  16
ENDBRANCH   1  15
TORSDOF 22
ENDMDL
MODEL 7
REMARK VINA RESULT:    -2.849      1.347      2.898
REMARK INTER + INTRA:         -10.975
REMARK INTER:                  -6.840
REMARK INTRA:                  -4.135
REMARK UNBOUND:                -4.461
REMARK SMILES CCCCCCCCCCCCCCCCCCCCCCCC(=O)[O-]
REMARK SMILES IDX 13 1 14 2 15 3 16 4 17 5 18 6 19 7 20 8 21 9 22 10 23 11
REMARK SMILES IDX 24 12 25 13 26 14 12 15 11 16 10 17 9 18 8 19 7 20 6 21 5 22
REMARK SMILES IDX 4 23 3 24 2 25 1 26
REMARK H PARENT
REMARK Flexibility Score: inf
ROOT
ATOM      1  C   UNL     1      58.544  25.223  53.688  1.00  0.00     0.000 C 
ENDROOT
BRANCH   1   2
ATOM      2  C   UNL     1      59.117  26.634  53.899  1.00  0.00     0.000 C 
BRANCH   2   3
ATOM      3  C   UNL     1      60.553  26.813  53.360  1.00  0.00     0.000 C 
BRANCH   3   4
ATOM      4  C   UNL     1      60.793  28.224  52.801  1.00  0.00     0.000 C 
BRANCH   4   5
ATOM      5  C   UNL     1      59.463  28.937  52.515  1.00  0.00     0.000 C 
BRANCH   5   6
ATOM      6  C   UNL     1      59.470  29.712  51.185  1.00  0.00     0.000 C 
BRANCH   6   7
ATOM      7  C   UNL     1      58.823  28.975  49.997  1.00  0.00     0.000 C 
BRANCH   7   8
ATOM      8  C   UNL     1      59.783  28.080  49.189  1.00  0.00     0.000 C 
BRANCH   8   9
ATOM      9  C   UNL     1      59.545  26.570  49.395  1.00  0.00     0.000 C 
BRANCH   9  10
ATOM     10  C   UNL     1      60.828  25.821  49.792  1.00  0.00     0.006 C 
BRANCH  10  11
ATOM     11  C   UNL     1      60.561  24.350  50.138  1.00  0.00     0.053 C 
BRANCH  11  12
ATOM     12  C   UNL     1      61.655  23.454  49.641  1.00  0.00     0.041 C 
ATOM     13  O   UNL     1      62.843  23.635  50.019  1.00  0.00    -0.550 OA
ATOM     14  O   UNL     1      61.356  22.395  48.795  1.00  0.00    -0.550 OA
ENDBRANCH  11  12
ENDBRANCH  10  11
ENDBRANCH   9  10
ENDBRANCH   8   9
ENDBRANCH   7   8
ENDBRANCH   6   7
ENDBRANCH   5   6
ENDBRANCH   4   5
ENDBRANCH   3   4
ENDBRANCH   2   3
ENDBRANCH   1   2
BRANCH   1  15
ATOM     15  C   UNL     1      57.743  25.093  52.381  1.00  0.00     0.000 C 
BRANCH  15  16
ATOM     16  C   UNL     1      56.990  26.384  52.020  1.00  0.00     0.000 C 
BRANCH  16  17
ATOM     17  C   UNL     1      55.685  26.112  51.254  1.00  0.00     0.000 C 
BRANCH  17  18
ATOM     18  C   UNL     1      55.672  26.855  49.912  1.00  0.00    -0.000 C 
BRANCH  18  19
ATOM     19  C   UNL     1      54.233  27.085  49.425  1.00  0.00    -0.000 C 
BRANCH  19  20
ATOM     20  C   UNL     1      53.688  28.467  49.817  1.00  0.00    -0.000 C 
BRANCH  20  21
ATOM     21  C   UNL     1      54.806  29.463  50.168  1.00  0.00    -0.000 C 
BRANCH  21  22
ATOM     22  C   UNL     1      54.636  30.085  51.566  1.00  0.00    -0.000 C 
BRANCH  22  23
ATOM     23  C   UNL     1      55.922  30.152  52.413  1.00  0.00    -0.000 C 
BRANCH  23  24
ATOM     24  C   UNL     1      56.144  31.480  53.164  1.00  0.00    -0.000 C 
BRANCH  24  25
ATOM     25  C   UNL     1      57.588  31.720  53.641  1.00  0.00    -0.003 C 
ATOM     26  C   UNL     1      58.253  32.910  52.948  1.00  0.00     0.004 C 
ENDBRANCH  24  25
ENDBRANCH  23  24
ENDBRANCH  22  23
ENDBRANCH  21  22
ENDBRANCH  20  21
ENDBRANCH  19  20
ENDBRANCH  18  19
ENDBRANCH  17  18
ENDBRANCH  16  17
ENDBRANCH  15  16
ENDBRANCH   1  15
TORSDOF 22
ENDMDL
MODEL 8
REMARK VINA RESULT:    -2.836      1.258      3.535
REMARK INTER + INTRA:         -10.945
REMARK INTER:                  -6.371
REMARK INTRA:                  -4.574
REMARK UNBOUND:                -4.461
REMARK SMILES CCCCCCCCCCCCCCCCCCCCCCCC(=O)[O-]
REMARK SMILES IDX 13 1 14 2 15 3 16 4 17 5 18 6 19 7 20 8 21 9 22 10 23 11
REMARK SMILES IDX 24 12 25 13 26 14 12 15 11 16 10 17 9 18 8 19 7 20 6 21 5 22
REMARK SMILES IDX 4 23 3 24 2 25 1 26
REMARK H PARENT
REMARK Flexibility Score: inf
ROOT
ATOM      1  C   UNL     1      59.499  29.111  53.555  1.00  0.00     0.000 C 
ENDROOT
BRANCH   1   2
ATOM      2  C   UNL     1      60.664  29.358  52.581  1.00  0.00     0.000 C 
BRANCH   2   3
ATOM      3  C   UNL     1      60.257  30.124  51.304  1.00  0.00     0.000 C 
BRANCH   3   4
ATOM      4  C   UNL     1      60.707  29.402  50.025  1.00  0.00     0.000 C 
BRANCH   4   5
ATOM      5  C   UNL     1      59.509  29.106  49.109  1.00  0.00     0.000 C 
BRANCH   5   6
ATOM      6  C   UNL     1      58.156  29.202  49.838  1.00  0.00     0.000 C 
BRANCH   6   7
ATOM      7  C   UNL     1      57.513  27.850  50.199  1.00  0.00     0.000 C 
BRANCH   7   8
ATOM      8  C   UNL     1      58.483  26.652  50.203  1.00  0.00     0.000 C 
BRANCH   8   9
ATOM      9  C   UNL     1      58.765  26.087  51.611  1.00  0.00     0.000 C 
BRANCH   9  10
ATOM     10  C   UNL     1      60.235  25.672  51.793  1.00  0.00     0.006 C 
BRANCH  10  11
ATOM     11  C   UNL     1      61.040  25.792  50.493  1.00  0.00     0.053 C 
BRANCH  11  12
ATOM     12  C   UNL     1      61.609  24.473  50.067  1.00  0.00     0.041 C 
ATOM     13  O   UNL     1      62.853  24.336  49.920  1.00  0.00    -0.550 OA
ATOM     14  O   UNL     1      60.770  23.383  49.874  1.00  0.00    -0.550 OA
ENDBRANCH  11  12
ENDBRANCH  10  11
ENDBRANCH   9  10
ENDBRANCH   8   9
ENDBRANCH   7   8
ENDBRANCH   6   7
ENDBRANCH   5   6
ENDBRANCH   4   5
ENDBRANCH   3   4
ENDBRANCH   2   3
ENDBRANCH   1   2
BRANCH   1  15
ATOM     15  C   UNL     1      58.396  30.177  53.449  1.00  0.00     0.000 C 
BRANCH  15  16
ATOM     16  C   UNL     1      56.994  29.563  53.303  1.00  0.00     0.000 C 
BRANCH  16  17
ATOM     17  C   UNL     1      55.997  30.519  52.628  1.00  0.00     0.000 C 
BRANCH  17  18
ATOM     18  C   UNL     1      54.789  29.751  52.075  1.00  0.00    -0.000 C 
BRANCH  18  19
ATOM     19  C   UNL     1      54.345  30.328  50.721  1.00  0.00    -0.000 C 
BRANCH  19  20
ATOM     20  C   UNL     1      53.621  29.293  49.845  1.00  0.00    -0.000 C 
BRANCH  20  21
ATOM     21  C   UNL     1      53.678  27.876  50.439  1.00  0.00    -0.000 C 
BRANCH  21  22
ATOM     22  C   UNL     1      54.330  26.855  49.488  1.00  0.00    -0.000 C 
BRANCH  22  23
ATOM     23  C   UNL     1      54.156  25.379  49.893  1.00  0.00    -0.000 C 
BRANCH  23  24
ATOM     24  C   UNL     1      53.887  25.137  51.392  1.00  0.00    -0.000 C 
BRANCH  24  25
ATOM     25  C   UNL     1      55.150  24.997  52.261  1.00  0.00    -0.003 C 
ATOM     26  C   UNL     1      55.442  26.246  53.093  1.00  0.00     0.004 C 
ENDBRANCH  24  25
ENDBRANCH  23  24
ENDBRANCH  22  23
ENDBRANCH  21  22
ENDBRANCH  20  21
ENDBRANCH  19  20
ENDBRANCH  18  19
ENDBRANCH  17  18
ENDBRANCH  16  17
ENDBRANCH  15  16
ENDBRANCH   1  15
TORSDOF 22
ENDMDL
MODEL 9
REMARK VINA RESULT:    -2.834      8.865     11.629
REMARK INTER + INTRA:         -10.939
REMARK INTER:                  -6.894
REMARK INTRA:                  -4.046
REMARK UNBOUND:                -4.461
REMARK SMILES CCCCCCCCCCCCCCCCCCCCCCCC(=O)[O-]
REMARK SMILES IDX 13 1 14 2 15 3 16 4 17 5 18 6 19 7 20 8 21 9 22 10 23 11
REMARK SMILES IDX 24 12 25 13 26 14 12 15 11 16 10 17 9 18 8 19 7 20 6 21 5 22
REMARK SMILES IDX 4 23 3 24 2 25 1 26
REMARK H PARENT
REMARK Flexibility Score: inf
ROOT
ATOM      1  C   UNL     1      64.158  32.902  60.062  1.00  0.00     0.000 C 
ENDROOT
BRANCH   1   2
ATOM      2  C   UNL     1      63.392  32.270  58.888  1.00  0.00     0.000 C 
BRANCH   2   3
ATOM      3  C   UNL     1      61.882  32.090  59.152  1.00  0.00     0.000 C 
BRANCH   3   4
ATOM      4  C   UNL     1      61.545  32.125  60.651  1.00  0.00     0.000 C 
BRANCH   4   5
ATOM      5  C   UNL     1      60.798  30.852  61.077  1.00  0.00     0.000 C 
BRANCH   5   6
ATOM      6  C   UNL     1      61.738  29.745  61.590  1.00  0.00     0.000 C 
BRANCH   6   7
ATOM      7  C   UNL     1      61.747  28.456  60.748  1.00  0.00     0.000 C 
BRANCH   7   8
ATOM      8  C   UNL     1      63.029  27.610  60.872  1.00  0.00     0.000 C 
BRANCH   8   9
ATOM      9  C   UNL     1      63.857  27.545  59.571  1.00  0.00     0.000 C 
BRANCH   9  10
ATOM     10  C   UNL     1      64.504  28.895  59.219  1.00  0.00     0.006 C 
BRANCH  10  11
ATOM     11  C   UNL     1      65.456  29.389  60.317  1.00  0.00     0.053 C 
BRANCH  11  12
ATOM     12  C   UNL     1      66.735  28.608  60.337  1.00  0.00     0.041 C 
ATOM     13  O   UNL     1      67.218  28.211  61.430  1.00  0.00    -0.550 OA
ATOM     14  O   UNL     1      67.370  28.282  59.146  1.00  0.00    -0.550 OA
ENDBRANCH  11  12
ENDBRANCH  10  11
ENDBRANCH   9  10
ENDBRANCH   8   9
ENDBRANCH   7   8
ENDBRANCH   6   7
ENDBRANCH   5   6
ENDBRANCH   4   5
ENDBRANCH   3   4
ENDBRANCH   2   3
ENDBRANCH   1   2
BRANCH   1  15
ATOM     15  C   UNL     1      64.476  34.390  59.835  1.00  0.00     0.000 C 
BRANCH  15  16
ATOM     16  C   UNL     1      64.091  35.266  61.038  1.00  0.00     0.000 C 
BRANCH  16  17
ATOM     17  C   UNL     1      62.985  36.279  60.702  1.00  0.00     0.000 C 
BRANCH  17  18
ATOM     18  C   UNL     1      61.610  35.599  60.665  1.00  0.00    -0.000 C 
BRANCH  18  19
ATOM     19  C   UNL     1      60.673  36.310  59.676  1.00  0.00    -0.000 C 
BRANCH  19  20
ATOM     20  C   UNL     1      60.268  35.414  58.494  1.00  0.00    -0.000 C 
BRANCH  20  21
ATOM     21  C   UNL     1      60.867  35.892  57.161  1.00  0.00    -0.000 C 
BRANCH  21  22
ATOM     22  C   UNL     1      62.327  35.444  56.967  1.00  0.00    -0.000 C 
BRANCH  22  23
ATOM     23  C   UNL     1      62.525  34.247  56.018  1.00  0.00    -0.000 C 
BRANCH  23  24
ATOM     24  C   UNL     1      61.270  33.820  55.230  1.00  0.00    -0.000 C 
BRANCH  24  25
ATOM     25  C   UNL     1      60.737  32.417  55.572  1.00  0.00    -0.003 C 
ATOM     26  C   UNL     1      59.426  32.454  56.358  1.00  0.00     0.004 C 
ENDBRANCH  24  25
ENDBRANCH  23  24
ENDBRANCH  22  23
ENDBRANCH  21  22
ENDBRANCH  20  21
ENDBRANCH  19  20
ENDBRANCH  18  19
ENDBRANCH  17  18
ENDBRANCH  16  17
ENDBRANCH  15  16
ENDBRANCH   1  15
TORSDOF 22
ENDMDL
