MODEL 1
REMARK VINA RESULT:    -4.650      0.000      0.000
REMARK INTER + INTRA:         -10.366
REMARK INTER:                  -8.184
REMARK INTRA:                  -2.182
REMARK UNBOUND:                -2.182
REMARK SMILES CCCCCCCCCCCCCCC(=O)[O-]
REMARK SMILES IDX 9 1 10 2 11 3 12 4 13 5 14 6 15 7 16 8 17 9 8 10 7 11 6 12
REMARK SMILES IDX 5 13 4 14 3 15 2 16 1 17
REMARK H PARENT
REMARK Flexibility Score: inf
ROOT
ATOM      1  C   UNL     1      17.148  -1.168  19.937  1.00  0.00     0.000 C 
ENDROOT
BRANCH   1   2
ATOM      2  C   UNL     1      17.764  -0.694  18.608  1.00  0.00     0.000 C 
BRANCH   2   3
ATOM      3  C   UNL     1      18.801  -1.654  17.988  1.00  0.00     0.000 C 
BRANCH   3   4
ATOM      4  C   UNL     1      18.233  -2.668  16.975  1.00  0.00     0.000 C 
BRANCH   4   5
ATOM      5  C   UNL     1      17.817  -4.022  17.576  1.00  0.00     0.006 C 
BRANCH   5   6
ATOM      6  C   UNL     1      16.311  -4.112  17.854  1.00  0.00     0.053 C 
BRANCH   6   7
ATOM      7  C   UNL     1      15.692  -5.195  17.028  1.00  0.00     0.041 C 
ATOM      8  O   UNL     1      16.283  -5.628  16.003  1.00  0.00    -0.550 OA
ATOM      9  O   UNL     1      14.439  -5.692  17.360  1.00  0.00    -0.550 OA
ENDBRANCH   6   7
ENDBRANCH   5   6
ENDBRANCH   4   5
ENDBRANCH   3   4
ENDBRANCH   2   3
ENDBRANCH   1   2
BRANCH   1  10
ATOM     10  C   UNL     1      18.195  -1.733  20.912  1.00  0.00     0.000 C 
BRANCH  10  11
ATOM     11  C   UNL     1      18.086  -3.258  21.077  1.00  0.00    -0.000 C 
BRANCH  11  12
ATOM     12  C   UNL     1      19.453  -3.934  21.271  1.00  0.00    -0.000 C 
BRANCH  12  13
ATOM     13  C   UNL     1      20.584  -2.894  21.264  1.00  0.00    -0.000 C 
BRANCH  13  14
ATOM     14  C   UNL     1      21.493  -3.013  20.030  1.00  0.00    -0.000 C 
BRANCH  14  15
ATOM     15  C   UNL     1      21.240  -4.303  19.231  1.00  0.00    -0.000 C 
BRANCH  15  16
ATOM     16  C   UNL     1      21.606  -4.156  17.746  1.00  0.00    -0.003 C 
ATOM     17  C   UNL     1      21.592  -5.487  16.996  1.00  0.00     0.004 C 
ENDBRANCH  15  16
ENDBRANCH  14  15
ENDBRANCH  13  14
ENDBRANCH  12  13
ENDBRANCH  11  12
ENDBRANCH  10  11
ENDBRANCH   1  10
TORSDOF 13
ENDMDL
MODEL 2
REMARK VINA RESULT:    -4.635      2.302      3.957
REMARK INTER + INTRA:         -10.339
REMARK INTER:                  -8.287
REMARK INTRA:                  -2.052
REMARK UNBOUND:                -2.182
REMARK SMILES CCCCCCCCCCCCCCC(=O)[O-]
REMARK SMILES IDX 9 1 10 2 11 3 12 4 13 5 14 6 15 7 16 8 17 9 8 10 7 11 6 12
REMARK SMILES IDX 5 13 4 14 3 15 2 16 1 17
REMARK H PARENT
REMARK Flexibility Score: inf
ROOT
ATOM      1  C   UNL     1      17.435  -3.420  20.779  1.00  0.00     0.000 C 
ENDROOT
BRANCH   1   2
ATOM      2  C   UNL     1      17.503  -1.889  20.923  1.00  0.00     0.000 C 
BRANCH   2   3
ATOM      3  C   UNL     1      16.513  -1.103  20.041  1.00  0.00     0.000 C 
BRANCH   3   4
ATOM      4  C   UNL     1      17.150  -0.319  18.876  1.00  0.00     0.000 C 
BRANCH   4   5
ATOM      5  C   UNL     1      18.591  -0.733  18.527  1.00  0.00     0.006 C 
BRANCH   5   6
ATOM      6  C   UNL     1      18.707  -1.365  17.134  1.00  0.00     0.053 C 
BRANCH   6   7
ATOM      7  C   UNL     1      18.805  -2.853  17.242  1.00  0.00     0.041 C 
ATOM      8  O   UNL     1      17.762  -3.560  17.231  1.00  0.00    -0.550 OA
ATOM      9  O   UNL     1      20.044  -3.458  17.408  1.00  0.00    -0.550 OA
ENDBRANCH   6   7
ENDBRANCH   5   6
ENDBRANCH   4   5
ENDBRANCH   3   4
ENDBRANCH   2   3
ENDBRANCH   1   2
BRANCH   1  10
ATOM     10  C   UNL     1      18.804  -4.099  20.963  1.00  0.00     0.000 C 
BRANCH  10  11
ATOM     11  C   UNL     1      19.915  -3.098  21.320  1.00  0.00    -0.000 C 
BRANCH  11  12
ATOM     12  C   UNL     1      20.717  -3.519  22.563  1.00  0.00    -0.000 C 
BRANCH  12  13
ATOM     13  C   UNL     1      21.139  -2.290  23.383  1.00  0.00    -0.000 C 
BRANCH  13  14
ATOM     14  C   UNL     1      20.119  -1.144  23.304  1.00  0.00    -0.000 C 
BRANCH  14  15
ATOM     15  C   UNL     1      20.762   0.194  22.895  1.00  0.00    -0.000 C 
BRANCH  15  16
ATOM     16  C   UNL     1      20.655   0.461  21.386  1.00  0.00    -0.003 C 
ATOM     17  C   UNL     1      21.921   0.072  20.623  1.00  0.00     0.004 C 
ENDBRANCH  15  16
ENDBRANCH  14  15
ENDBRANCH  13  14
ENDBRANCH  12  13
ENDBRANCH  11  12
ENDBRANCH  10  11
ENDBRANCH   1  10
TORSDOF 13
ENDMDL
MODEL 3
REMARK VINA RESULT:    -4.615      2.545      4.088
REMARK INTER + INTRA:         -10.304
REMARK INTER:                  -8.116
REMARK INTRA:                  -2.188
REMARK UNBOUND:                -2.182
REMARK SMILES CCCCCCCCCCCCCCC(=O)[O-]
REMARK SMILES IDX 9 1 10 2 11 3 12 4 13 5 14 6 15 7 16 8 17 9 8 10 7 11 6 12
REMARK SMILES IDX 5 13 4 14 3 15 2 16 1 17
REMARK H PARENT
REMARK Flexibility Score: inf
ROOT
ATOM      1  C   UNL     1      17.591  -0.835  20.153  1.00  0.00     0.000 C 
ENDROOT
BRANCH   1   2
ATOM      2  C   UNL     1      17.795  -1.997  21.142  1.00  0.00     0.000 C 
BRANCH   2   3
ATOM      3  C   UNL     1      17.410  -3.390  20.604  1.00  0.00     0.000 C 
BRANCH   3   4
ATOM      4  C   UNL     1      18.505  -4.468  20.729  1.00  0.00     0.000 C 
BRANCH   4   5
ATOM      5  C   UNL     1      19.531  -4.486  19.581  1.00  0.00     0.006 C 
BRANCH   5   6
ATOM      6  C   UNL     1      18.876  -4.393  18.197  1.00  0.00     0.053 C 
BRANCH   6   7
ATOM      7  C   UNL     1      19.463  -3.261  17.415  1.00  0.00     0.041 C 
ATOM      8  O   UNL     1      20.696  -3.013  17.488  1.00  0.00    -0.550 OA
ATOM      9  O   UNL     1      18.642  -2.447  16.646  1.00  0.00    -0.550 OA
ENDBRANCH   6   7
ENDBRANCH   5   6
ENDBRANCH   4   5
ENDBRANCH   3   4
ENDBRANCH   2   3
ENDBRANCH   1   2
BRANCH   1  10
ATOM     10  C   UNL     1      18.903  -0.377  19.493  1.00  0.00     0.000 C 
BRANCH  10  11
ATOM     11  C   UNL     1      20.127  -0.594  20.397  1.00  0.00    -0.000 C 
BRANCH  11  12
ATOM     12  C   UNL     1      20.604   0.702  21.072  1.00  0.00    -0.000 C 
BRANCH  12  13
ATOM     13  C   UNL     1      21.147   0.418  22.481  1.00  0.00    -0.000 C 
BRANCH  13  14
ATOM     14  C   UNL     1      20.297  -0.606  23.250  1.00  0.00    -0.000 C 
BRANCH  14  15
ATOM     15  C   UNL     1      21.139  -1.750  23.841  1.00  0.00    -0.000 C 
BRANCH  15  16
ATOM     16  C   UNL     1      20.995  -3.057  23.046  1.00  0.00    -0.003 C 
ATOM     17  C   UNL     1      22.102  -3.246  22.008  1.00  0.00     0.004 C 
ENDBRANCH  15  16
ENDBRANCH  14  15
ENDBRANCH  13  14
ENDBRANCH  12  13
ENDBRANCH  11  12
ENDBRANCH  10  11
ENDBRANCH   1  10
TORSDOF 13
ENDMDL
MODEL 4
REMARK VINA RESULT:    -4.552      2.702      5.112
REMARK INTER + INTRA:         -10.194
REMARK INTER:                  -7.851
REMARK INTRA:                  -2.343
REMARK UNBOUND:                -2.182
REMARK SMILES CCCCCCCCCCCCCCC(=O)[O-]
REMARK SMILES IDX 9 1 10 2 11 3 12 4 13 5 14 6 15 7 16 8 17 9 8 10 7 11 6 12
REMARK SMILES IDX 5 13 4 14 3 15 2 16 1 17
REMARK H PARENT
REMARK Flexibility Score: inf
ROOT
ATOM      1  C   UNL     1      20.379  -1.131  23.298  1.00  0.00     0.000 C 
ENDROOT
BRANCH   1   2
ATOM      2  C   UNL     1      21.008  -2.535  23.346  1.00  0.00     0.000 C 
BRANCH   2   3
ATOM      3  C   UNL     1      21.080  -3.266  21.990  1.00  0.00     0.000 C 
BRANCH   3   4
ATOM      4  C   UNL     1      19.720  -3.680  21.394  1.00  0.00     0.000 C 
BRANCH   4   5
ATOM      5  C   UNL     1      19.756  -4.068  19.904  1.00  0.00     0.006 C 
BRANCH   5   6
ATOM      6  C   UNL     1      21.183  -4.255  19.373  1.00  0.00     0.053 C 
BRANCH   6   7
ATOM      7  C   UNL     1      21.223  -4.033  17.895  1.00  0.00     0.041 C 
ATOM      8  O   UNL     1      22.206  -4.440  17.219  1.00  0.00    -0.550 OA
ATOM      9  O   UNL     1      20.201  -3.331  17.269  1.00  0.00    -0.550 OA
ENDBRANCH   6   7
ENDBRANCH   5   6
ENDBRANCH   4   5
ENDBRANCH   3   4
ENDBRANCH   2   3
ENDBRANCH   1   2
BRANCH   1  10
ATOM     10  C   UNL     1      21.402  -0.029  22.970  1.00  0.00     0.000 C 
BRANCH  10  11
ATOM     11  C   UNL     1      21.084   0.699  21.655  1.00  0.00    -0.000 C 
BRANCH  11  12
ATOM     12  C   UNL     1      21.773   0.059  20.439  1.00  0.00    -0.000 C 
BRANCH  12  13
ATOM     13  C   UNL     1      20.739  -0.575  19.496  1.00  0.00    -0.000 C 
BRANCH  13  14
ATOM     14  C   UNL     1      19.291  -0.259  19.902  1.00  0.00    -0.000 C 
BRANCH  14  15
ATOM     15  C   UNL     1      18.260  -0.818  18.905  1.00  0.00    -0.000 C 
BRANCH  15  16
ATOM     16  C   UNL     1      17.045  -1.446  19.605  1.00  0.00    -0.003 C 
ATOM     17  C   UNL     1      17.001  -1.143  21.102  1.00  0.00     0.004 C 
ENDBRANCH  15  16
ENDBRANCH  14  15
ENDBRANCH  13  14
ENDBRANCH  12  13
ENDBRANCH  11  12
ENDBRANCH  10  11
ENDBRANCH   1  10
TORSDOF 13
ENDMDL
MODEL 5
REMARK VINA RESULT:    -4.546      4.403      7.000
REMARK INTER + INTRA:         -10.183
REMARK INTER:                  -7.811
REMARK INTRA:                  -2.372
REMARK UNBOUND:                -2.182
REMARK SMILES CCCCCCCCCCCCCCC(=O)[O-]
REMARK SMILES IDX 9 1 10 2 11 3 12 4 13 5 14 6 15 7 16 8 17 9 8 10 7 11 6 12
REMARK SMILES IDX 5 13 4 14 3 15 2 16 1 17
REMARK H PARENT
REMARK Flexibility Score: inf
ROOT
ATOM      1  C   UNL     1      19.905  -3.203  21.845  1.00  0.00     0.000 C 
ENDROOT
BRANCH   1   2
ATOM      2  C   UNL     1      20.987  -3.142  22.939  1.00  0.00     0.000 C 
BRANCH   2   3
ATOM      3  C   UNL     1      21.073  -1.803  23.699  1.00  0.00     0.000 C 
BRANCH   3   4
ATOM      4  C   UNL     1      20.237  -0.653  23.102  1.00  0.00     0.000 C 
BRANCH   4   5
ATOM      5  C   UNL     1      21.058   0.480  22.460  1.00  0.00     0.006 C 
BRANCH   5   6
ATOM      6  C   UNL     1      22.540   0.437  22.854  1.00  0.00     0.053 C 
BRANCH   6   7
ATOM      7  C   UNL     1      23.406   0.622  21.649  1.00  0.00     0.041 C 
ATOM      8  O   UNL     1      22.929   1.120  20.595  1.00  0.00    -0.550 OA
ATOM      9  O   UNL     1      24.728   0.196  21.671  1.00  0.00    -0.550 OA
ENDBRANCH   6   7
ENDBRANCH   5   6
ENDBRANCH   4   5
ENDBRANCH   3   4
ENDBRANCH   2   3
ENDBRANCH   1   2
BRANCH   1  10
ATOM     10  C   UNL     1      20.479  -3.533  20.456  1.00  0.00     0.000 C 
BRANCH  10  11
ATOM     11  C   UNL     1      21.450  -2.456  19.947  1.00  0.00    -0.000 C 
BRANCH  11  12
ATOM     12  C   UNL     1      20.726  -1.247  19.331  1.00  0.00    -0.000 C 
BRANCH  12  13
ATOM     13  C   UNL     1      19.642  -1.705  18.343  1.00  0.00    -0.000 C 
BRANCH  13  14
ATOM     14  C   UNL     1      18.258  -1.119  18.666  1.00  0.00    -0.000 C 
BRANCH  14  15
ATOM     15  C   UNL     1      18.239  -0.344  19.996  1.00  0.00    -0.000 C 
BRANCH  15  16
ATOM     16  C   UNL     1      17.166  -0.865  20.964  1.00  0.00    -0.003 C 
ATOM     17  C   UNL     1      16.630  -2.242  20.571  1.00  0.00     0.004 C 
ENDBRANCH  15  16
ENDBRANCH  14  15
ENDBRANCH  13  14
ENDBRANCH  12  13
ENDBRANCH  11  12
ENDBRANCH  10  11
ENDBRANCH   1  10
TORSDOF 13
ENDMDL
MODEL 6
REMARK VINA RESULT:    -4.531      3.614      5.802
REMARK INTER + INTRA:         -10.156
REMARK INTER:                  -8.021
REMARK INTRA:                  -2.136
REMARK UNBOUND:                -2.182
REMARK SMILES CCCCCCCCCCCCCCC(=O)[O-]
REMARK SMILES IDX 9 1 10 2 11 3 12 4 13 5 14 6 15 7 16 8 17 9 8 10 7 11 6 12
REMARK SMILES IDX 5 13 4 14 3 15 2 16 1 17
REMARK H PARENT
REMARK Flexibility Score: inf
ROOT
ATOM      1  C   UNL     1      20.128  -1.582  18.457  1.00  0.00     0.000 C 
ENDROOT
BRANCH   1   2
ATOM      2  C   UNL     1      20.562  -3.013  18.088  1.00  0.00     0.000 C 
BRANCH   2   3
ATOM      3  C   UNL     1      21.127  -3.847  19.256  1.00  0.00     0.000 C 
BRANCH   3   4
ATOM      4  C   UNL     1      21.389  -3.063  20.557  1.00  0.00     0.000 C 
BRANCH   4   5
ATOM      5  C   UNL     1      20.465  -3.429  21.732  1.00  0.00     0.006 C 
BRANCH   5   6
ATOM      6  C   UNL     1      21.024  -2.983  23.089  1.00  0.00     0.053 C 
BRANCH   6   7
ATOM      7  C   UNL     1      21.132  -1.492  23.145  1.00  0.00     0.041 C 
ATOM      8  O   UNL     1      22.260  -0.941  23.244  1.00  0.00    -0.550 OA
ATOM      9  O   UNL     1      19.983  -0.711  23.138  1.00  0.00    -0.550 OA
ENDBRANCH   6   7
ENDBRANCH   5   6
ENDBRANCH   4   5
ENDBRANCH   3   4
ENDBRANCH   2   3
ENDBRANCH   1   2
BRANCH   1  10
ATOM     10  C   UNL     1      18.849  -1.139  17.725  1.00  0.00     0.000 C 
BRANCH  10  11
ATOM     11  C   UNL     1      17.790  -0.568  18.682  1.00  0.00    -0.000 C 
BRANCH  11  12
ATOM     12  C   UNL     1      17.927  -1.111  20.113  1.00  0.00    -0.000 C 
BRANCH  12  13
ATOM     13  C   UNL     1      16.689  -1.930  20.509  1.00  0.00    -0.000 C 
BRANCH  13  14
ATOM     14  C   UNL     1      17.002  -3.421  20.709  1.00  0.00    -0.000 C 
BRANCH  14  15
ATOM     15  C   UNL     1      17.296  -4.147  19.384  1.00  0.00    -0.000 C 
BRANCH  15  16
ATOM     16  C   UNL     1      16.016  -4.487  18.604  1.00  0.00    -0.003 C 
ATOM     17  C   UNL     1      15.835  -3.623  17.356  1.00  0.00     0.004 C 
ENDBRANCH  15  16
ENDBRANCH  14  15
ENDBRANCH  13  14
ENDBRANCH  12  13
ENDBRANCH  11  12
ENDBRANCH  10  11
ENDBRANCH   1  10
TORSDOF 13
ENDMDL
MODEL 7
REMARK VINA RESULT:    -4.526      2.616      3.937
REMARK INTER + INTRA:         -10.147
REMARK INTER:                  -8.042
REMARK INTRA:                  -2.105
REMARK UNBOUND:                -2.182
REMARK SMILES CCCCCCCCCCCCCCC(=O)[O-]
REMARK SMILES IDX 9 1 10 2 11 3 12 4 13 5 14 6 15 7 16 8 17 9 8 10 7 11 6 12
REMARK SMILES IDX 5 13 4 14 3 15 2 16 1 17
REMARK H PARENT
REMARK Flexibility Score: inf
ROOT
ATOM      1  C   UNL     1      20.834  -2.868  20.299  1.00  0.00     0.000 C 
ENDROOT
BRANCH   1   2
ATOM      2  C   UNL     1      20.631  -1.620  19.420  1.00  0.00     0.000 C 
BRANCH   2   3
ATOM      3  C   UNL     1      19.188  -1.078  19.376  1.00  0.00     0.000 C 
BRANCH   3   4
ATOM      4  C   UNL     1      18.556  -1.007  17.972  1.00  0.00     0.000 C 
BRANCH   4   5
ATOM      5  C   UNL     1      18.792  -2.246  17.091  1.00  0.00     0.006 C 
BRANCH   5   6
ATOM      6  C   UNL     1      17.762  -3.356  17.335  1.00  0.00     0.053 C 
BRANCH   6   7
ATOM      7  C   UNL     1      18.353  -4.442  18.176  1.00  0.00     0.041 C 
ATOM      8  O   UNL     1      19.405  -5.029  17.805  1.00  0.00    -0.550 OA
ATOM      9  O   UNL     1      17.717  -4.844  19.343  1.00  0.00    -0.550 OA
ENDBRANCH   6   7
ENDBRANCH   5   6
ENDBRANCH   4   5
ENDBRANCH   3   4
ENDBRANCH   2   3
ENDBRANCH   1   2
BRANCH   1  10
ATOM     10  C   UNL     1      20.021  -2.817  21.604  1.00  0.00     0.000 C 
BRANCH  10  11
ATOM     11  C   UNL     1      20.914  -2.813  22.856  1.00  0.00    -0.000 C 
BRANCH  11  12
ATOM     12  C   UNL     1      20.723  -1.554  23.717  1.00  0.00    -0.000 C 
BRANCH  12  13
ATOM     13  C   UNL     1      19.825  -0.533  23.002  1.00  0.00    -0.000 C 
BRANCH  13  14
ATOM     14  C   UNL     1      20.619   0.636  22.398  1.00  0.00    -0.000 C 
BRANCH  14  15
ATOM     15  C   UNL     1      22.099   0.628  22.819  1.00  0.00    -0.000 C 
BRANCH  15  16
ATOM     16  C   UNL     1      23.035   0.230  21.668  1.00  0.00    -0.003 C 
ATOM     17  C   UNL     1      24.022  -0.870  22.059  1.00  0.00     0.004 C 
ENDBRANCH  15  16
ENDBRANCH  14  15
ENDBRANCH  13  14
ENDBRANCH  12  13
ENDBRANCH  11  12
ENDBRANCH  10  11
ENDBRANCH   1  10
TORSDOF 13
ENDMDL
MODEL 8
REMARK VINA RESULT:    -4.493      3.007      4.678
REMARK INTER + INTRA:         -10.090
REMARK INTER:                  -7.719
REMARK INTRA:                  -2.370
REMARK UNBOUND:                -2.182
REMARK SMILES CCCCCCCCCCCCCCC(=O)[O-]
REMARK SMILES IDX 9 1 10 2 11 3 12 4 13 5 14 6 15 7 16 8 17 9 8 10 7 11 6 12
REMARK SMILES IDX 5 13 4 14 3 15 2 16 1 17
REMARK H PARENT
REMARK Flexibility Score: inf
ROOT
ATOM      1  C   UNL     1      20.412  -3.481  20.538  1.00  0.00     0.000 C 
ENDROOT
BRANCH   1   2
ATOM      2  C   UNL     1      21.325  -2.363  20.002  1.00  0.00     0.000 C 
BRANCH   2   3
ATOM      3  C   UNL     1      20.597  -1.218  19.270  1.00  0.00     0.000 C 
BRANCH   3   4
ATOM      4  C   UNL     1      19.110  -1.479  18.956  1.00  0.00     0.000 C 
BRANCH   4   5
ATOM      5  C   UNL     1      18.116  -0.625  19.763  1.00  0.00     0.006 C 
BRANCH   5   6
ATOM      6  C   UNL     1      17.223  -1.465  20.685  1.00  0.00     0.053 C 
BRANCH   6   7
ATOM      7  C   UNL     1      15.790  -1.348  20.273  1.00  0.00     0.041 C 
ATOM      8  O   UNL     1      14.954  -0.799  21.039  1.00  0.00    -0.550 OA
ATOM      9  O   UNL     1      15.367  -1.890  19.067  1.00  0.00    -0.550 OA
ENDBRANCH   6   7
ENDBRANCH   5   6
ENDBRANCH   4   5
ENDBRANCH   3   4
ENDBRANCH   2   3
ENDBRANCH   1   2
BRANCH   1  10
ATOM     10  C   UNL     1      20.153  -3.366  22.050  1.00  0.00     0.000 C 
BRANCH  10  11
ATOM     11  C   UNL     1      21.363  -2.810  22.816  1.00  0.00    -0.000 C 
BRANCH  11  12
ATOM     12  C   UNL     1      20.984  -1.682  23.790  1.00  0.00    -0.000 C 
BRANCH  12  13
ATOM     13  C   UNL     1      19.910  -0.769  23.177  1.00  0.00    -0.000 C 
BRANCH  13  14
ATOM     14  C   UNL     1      20.508   0.412  22.397  1.00  0.00    -0.000 C 
BRANCH  14  15
ATOM     15  C   UNL     1      21.937   0.759  22.852  1.00  0.00    -0.000 C 
BRANCH  15  16
ATOM     16  C   UNL     1      22.973   0.568  21.733  1.00  0.00    -0.003 C 
ATOM     17  C   UNL     1      24.117  -0.362  22.136  1.00  0.00     0.004 C 
ENDBRANCH  15  16
ENDBRANCH  14  15
ENDBRANCH  13  14
ENDBRANCH  12  13
ENDBRANCH  11  12
ENDBRANCH  10  11
ENDBRANCH   1  10
TORSDOF 13
ENDMDL
MODEL 9
REMARK VINA RESULT:    -4.439      3.707      5.896
REMARK INTER + INTRA:          -9.995
REMARK INTER:                  -7.735
REMARK INTRA:                  -2.260
REMARK UNBOUND:                -2.182
REMARK SMILES CCCCCCCCCCCCCCC(=O)[O-]
REMARK SMILES IDX 9 1 10 2 11 3 12 4 13 5 14 6 15 7 16 8 17 9 8 10 7 11 6 12
REMARK SMILES IDX 5 13 4 14 3 15 2 16 1 17
REMARK H PARENT
REMARK Flexibility Score: inf
ROOT
ATOM      1  C   UNL     1      20.289  -3.250  17.946  1.00  0.00     0.000 C 
ENDROOT
BRANCH   1   2
ATOM      2  C   UNL     1      19.871  -1.792  18.208  1.00  0.00     0.000 C 
BRANCH   2   3
ATOM      3  C   UNL     1      20.445  -1.167  19.496  1.00  0.00     0.000 C 
BRANCH   3   4
ATOM      4  C   UNL     1      19.403  -0.529  20.436  1.00  0.00     0.000 C 
BRANCH   4   5
ATOM      5  C   UNL     1      19.988   0.142  21.692  1.00  0.00     0.006 C 
BRANCH   5   6
ATOM      6  C   UNL     1      19.782  -0.693  22.963  1.00  0.00     0.053 C 
BRANCH   6   7
ATOM      7  C   UNL     1      20.944  -1.610  23.179  1.00  0.00     0.041 C 
ATOM      8  O   UNL     1      22.084  -1.139  23.438  1.00  0.00    -0.550 OA
ATOM      9  O   UNL     1      20.781  -2.983  23.045  1.00  0.00    -0.550 OA
ENDBRANCH   6   7
ENDBRANCH   5   6
ENDBRANCH   4   5
ENDBRANCH   3   4
ENDBRANCH   2   3
ENDBRANCH   1   2
BRANCH   1  10
ATOM     10  C   UNL     1      20.346  -4.094  19.231  1.00  0.00     0.000 C 
BRANCH  10  11
ATOM     11  C   UNL     1      18.991  -4.730  19.581  1.00  0.00    -0.000 C 
BRANCH  11  12
ATOM     12  C   UNL     1      18.323  -4.072  20.799  1.00  0.00    -0.000 C 
BRANCH  12  13
ATOM     13  C   UNL     1      17.046  -3.324  20.387  1.00  0.00    -0.000 C 
BRANCH  13  14
ATOM     14  C   UNL     1      16.548  -3.725  18.989  1.00  0.00    -0.000 C 
BRANCH  14  15
ATOM     15  C   UNL     1      16.034  -2.523  18.177  1.00  0.00    -0.000 C 
BRANCH  15  16
ATOM     16  C   UNL     1      16.113  -1.205  18.962  1.00  0.00    -0.003 C 
ATOM     17  C   UNL     1      16.526  -0.019  18.091  1.00  0.00     0.004 C 
ENDBRANCH  15  16
ENDBRANCH  14  15
ENDBRANCH  13  14
ENDBRANCH  12  13
ENDBRANCH  11  12
ENDBRANCH  10  11
ENDBRANCH   1  10
TORSDOF 13
ENDMDL
