MODEL 1
REMARK VINA RESULT:    -3.741      0.000      0.000
REMARK INTER + INTRA:          -9.620
REMARK INTER:                  -7.021
REMARK INTRA:                  -2.599
REMARK UNBOUND:                -2.599
REMARK SMILES CCCCCCCCC=CCCCCCCCC(=O)[O-]
REMARK SMILES IDX 10 1 9 2 11 3 12 4 13 5 14 6 15 7 16 8 17 9 18 10 19 11
REMARK SMILES IDX 20 12 8 13 7 14 6 15 5 16 4 17 3 18 2 19 1 20
REMARK H PARENT
REMARK Flexibility Score: inf
ROOT
ATOM      1  C   UNL     1       3.162 -57.248 -30.362  1.00  0.00    -0.031 C 
ATOM      2  C   UNL     1       4.076 -57.640 -29.454  1.00  0.00    -0.031 C 
ENDROOT
BRANCH   1   3
ATOM      3  C   UNL     1       3.073 -57.752 -31.783  1.00  0.00     0.027 C 
BRANCH   3   4
ATOM      4  C   UNL     1       1.994 -58.833 -31.924  1.00  0.00     0.004 C 
BRANCH   4   5
ATOM      5  C   UNL     1       1.108 -58.930 -30.669  1.00  0.00     0.000 C 
BRANCH   5   6
ATOM      6  C   UNL     1       1.071 -60.351 -30.085  1.00  0.00     0.000 C 
BRANCH   6   7
ATOM      7  C   UNL     1       1.056 -60.354 -28.547  1.00  0.00     0.000 C 
BRANCH   7   8
ATOM      8  C   UNL     1       1.032 -58.936 -27.955  1.00  0.00     0.006 C 
BRANCH   8   9
ATOM      9  C   UNL     1       0.068 -58.808 -26.769  1.00  0.00     0.053 C 
BRANCH   9  10
ATOM     10  C   UNL     1      -0.449 -57.409 -26.662  1.00  0.00     0.041 C 
ATOM     11  O   UNL     1      -0.220 -56.577 -27.580  1.00  0.00    -0.550 OA
ATOM     12  O   UNL     1      -1.152 -57.011 -25.531  1.00  0.00    -0.550 OA
ENDBRANCH   9  10
ENDBRANCH   8   9
ENDBRANCH   7   8
ENDBRANCH   6   7
ENDBRANCH   5   6
ENDBRANCH   4   5
ENDBRANCH   3   4
ENDBRANCH   1   3
BRANCH   2  13
ATOM     13  C   UNL     1       5.201 -58.609 -29.724  1.00  0.00     0.027 C 
BRANCH  13  14
ATOM     14  C   UNL     1       4.719 -60.068 -29.733  1.00  0.00     0.004 C 
BRANCH  14  15
ATOM     15  C   UNL     1       4.818 -60.719 -28.343  1.00  0.00     0.000 C 
BRANCH  15  16
ATOM     16  C   UNL     1       5.589 -59.851 -27.337  1.00  0.00     0.000 C 
BRANCH  16  17
ATOM     17  C   UNL     1       4.930 -59.829 -25.947  1.00  0.00    -0.000 C 
BRANCH  17  18
ATOM     18  C   UNL     1       3.674 -60.711 -25.875  1.00  0.00    -0.000 C 
BRANCH  18  19
ATOM     19  C   UNL     1       2.840 -60.448 -24.614  1.00  0.00    -0.003 C 
ATOM     20  C   UNL     1       1.634 -61.382 -24.548  1.00  0.00     0.004 C 
ENDBRANCH  18  19
ENDBRANCH  17  18
ENDBRANCH  16  17
ENDBRANCH  15  16
ENDBRANCH  14  15
ENDBRANCH  13  14
ENDBRANCH   2  13
TORSDOF 15
ENDMDL
MODEL 2
REMARK VINA RESULT:    -3.740      2.661      5.633
REMARK INTER + INTRA:          -9.619
REMARK INTER:                  -6.855
REMARK INTRA:                  -2.763
REMARK UNBOUND:                -2.599
REMARK SMILES CCCCCCCCC=CCCCCCCCC(=O)[O-]
REMARK SMILES IDX 10 1 9 2 11 3 12 4 13 5 14 6 15 7 16 8 17 9 18 10 19 11
REMARK SMILES IDX 20 12 8 13 7 14 6 15 5 16 4 17 3 18 2 19 1 20
REMARK H PARENT
REMARK Flexibility Score: inf
ROOT
ATOM      1  C   UNL     1       2.644 -57.456 -29.543  1.00  0.00    -0.031 C 
ATOM      2  C   UNL     1       1.519 -58.066 -29.125  1.00  0.00    -0.031 C 
ENDROOT
BRANCH   1   3
ATOM      3  C   UNL     1       4.032 -57.728 -29.012  1.00  0.00     0.027 C 
BRANCH   3   4
ATOM      4  C   UNL     1       4.793 -58.705 -29.916  1.00  0.00     0.004 C 
BRANCH   4   5
ATOM      5  C   UNL     1       5.140 -60.015 -29.187  1.00  0.00     0.000 C 
BRANCH   5   6
ATOM      6  C   UNL     1       5.529 -59.785 -27.718  1.00  0.00     0.000 C 
BRANCH   6   7
ATOM      7  C   UNL     1       4.572 -60.486 -26.739  1.00  0.00     0.000 C 
BRANCH   7   8
ATOM      8  C   UNL     1       4.752 -60.001 -25.291  1.00  0.00     0.006 C 
BRANCH   8   9
ATOM      9  C   UNL     1       5.780 -58.869 -25.174  1.00  0.00     0.053 C 
BRANCH   9  10
ATOM     10  C   UNL     1       5.650 -58.180 -23.852  1.00  0.00     0.041 C 
ATOM     11  O   UNL     1       5.440 -58.849 -22.806  1.00  0.00    -0.550 OA
ATOM     12  O   UNL     1       5.726 -56.794 -23.780  1.00  0.00    -0.550 OA
ENDBRANCH   9  10
ENDBRANCH   8   9
ENDBRANCH   7   8
ENDBRANCH   6   7
ENDBRANCH   5   6
ENDBRANCH   4   5
ENDBRANCH   3   4
ENDBRANCH   1   3
BRANCH   2  13
ATOM     13  C   UNL     1       1.450 -59.084 -28.013  1.00  0.00     0.027 C 
BRANCH  13  14
ATOM     14  C   UNL     1       0.865 -60.423 -28.488  1.00  0.00     0.004 C 
BRANCH  14  15
ATOM     15  C   UNL     1       1.737 -61.083 -29.570  1.00  0.00     0.000 C 
BRANCH  15  16
ATOM     16  C   UNL     1       0.904 -61.720 -30.692  1.00  0.00     0.000 C 
BRANCH  16  17
ATOM     17  C   UNL     1       1.501 -61.470 -32.088  1.00  0.00    -0.000 C 
BRANCH  17  18
ATOM     18  C   UNL     1       2.459 -60.269 -32.114  1.00  0.00    -0.000 C 
BRANCH  18  19
ATOM     19  C   UNL     1       1.851 -59.046 -32.815  1.00  0.00    -0.003 C 
ATOM     20  C   UNL     1       2.930 -58.028 -33.177  1.00  0.00     0.004 C 
ENDBRANCH  18  19
ENDBRANCH  17  18
ENDBRANCH  16  17
ENDBRANCH  15  16
ENDBRANCH  14  15
ENDBRANCH  13  14
ENDBRANCH   2  13
TORSDOF 15
ENDMDL
MODEL 3
REMARK VINA RESULT:    -3.733      2.184      4.608
REMARK INTER + INTRA:          -9.604
REMARK INTER:                  -7.141
REMARK INTRA:                  -2.463
REMARK UNBOUND:                -2.599
REMARK SMILES CCCCCCCCC=CCCCCCCCC(=O)[O-]
REMARK SMILES IDX 10 1 9 2 11 3 12 4 13 5 14 6 15 7 16 8 17 9 18 10 19 11
REMARK SMILES IDX 20 12 8 13 7 14 6 15 5 16 4 17 3 18 2 19 1 20
REMARK H PARENT
REMARK Flexibility Score: inf
ROOT
ATOM      1  C   UNL     1       5.192 -59.983 -27.640  1.00  0.00    -0.031 C 
ATOM      2  C   UNL     1       4.875 -59.875 -26.336  1.00  0.00    -0.031 C 
ENDROOT
BRANCH   1   3
ATOM      3  C   UNL     1       4.888 -61.177 -28.514  1.00  0.00     0.027 C 
BRANCH   3   4
ATOM      4  C   UNL     1       4.683 -60.758 -29.976  1.00  0.00     0.004 C 
BRANCH   4   5
ATOM      5  C   UNL     1       3.273 -61.109 -30.484  1.00  0.00     0.000 C 
BRANCH   5   6
ATOM      6  C   UNL     1       2.253 -61.244 -29.341  1.00  0.00     0.000 C 
BRANCH   6   7
ATOM      7  C   UNL     1       1.271 -60.061 -29.286  1.00  0.00     0.000 C 
BRANCH   7   8
ATOM      8  C   UNL     1       1.892 -58.811 -28.641  1.00  0.00     0.006 C 
BRANCH   8   9
ATOM      9  C   UNL     1       1.828 -57.582 -29.557  1.00  0.00     0.053 C 
BRANCH   9  10
ATOM     10  C   UNL     1       3.153 -57.344 -30.208  1.00  0.00     0.041 C 
ATOM     11  O   UNL     1       4.081 -56.783 -29.568  1.00  0.00    -0.550 OA
ATOM     12  O   UNL     1       3.353 -57.710 -31.533  1.00  0.00    -0.550 OA
ENDBRANCH   9  10
ENDBRANCH   8   9
ENDBRANCH   7   8
ENDBRANCH   6   7
ENDBRANCH   5   6
ENDBRANCH   4   5
ENDBRANCH   3   4
ENDBRANCH   1   3
BRANCH   2  13
ATOM     13  C   UNL     1       4.210 -60.953 -25.515  1.00  0.00     0.027 C 
BRANCH  13  14
ATOM     14  C   UNL     1       2.686 -60.970 -25.707  1.00  0.00     0.004 C 
BRANCH  14  15
ATOM     15  C   UNL     1       1.958 -60.149 -24.629  1.00  0.00     0.000 C 
BRANCH  15  16
ATOM     16  C   UNL     1       0.544 -59.731 -25.060  1.00  0.00     0.000 C 
BRANCH  16  17
ATOM     17  C   UNL     1      -0.071 -58.673 -24.126  1.00  0.00    -0.000 C 
BRANCH  17  18
ATOM     18  C   UNL     1      -0.457 -57.384 -24.867  1.00  0.00    -0.000 C 
BRANCH  18  19
ATOM     19  C   UNL     1      -1.047 -57.657 -26.257  1.00  0.00    -0.003 C 
ATOM     20  C   UNL     1      -0.670 -56.554 -27.242  1.00  0.00     0.004 C 
ENDBRANCH  18  19
ENDBRANCH  17  18
ENDBRANCH  16  17
ENDBRANCH  15  16
ENDBRANCH  14  15
ENDBRANCH  13  14
ENDBRANCH   2  13
TORSDOF 15
ENDMDL
MODEL 4
REMARK VINA RESULT:    -3.732      2.936      5.350
REMARK INTER + INTRA:          -9.604
REMARK INTER:                  -7.388
REMARK INTRA:                  -2.215
REMARK UNBOUND:                -2.599
REMARK SMILES CCCCCCCCC=CCCCCCCCC(=O)[O-]
REMARK SMILES IDX 10 1 9 2 11 3 12 4 13 5 14 6 15 7 16 8 17 9 18 10 19 11
REMARK SMILES IDX 20 12 8 13 7 14 6 15 5 16 4 17 3 18 2 19 1 20
REMARK H PARENT
REMARK Flexibility Score: inf
ROOT
ATOM      1  C   UNL     1       5.073 -59.023 -27.637  1.00  0.00    -0.031 C 
ATOM      2  C   UNL     1       4.756 -58.112 -28.577  1.00  0.00    -0.031 C 
ENDROOT
BRANCH   1   3
ATOM      3  C   UNL     1       5.218 -60.508 -27.876  1.00  0.00     0.027 C 
BRANCH   3   4
ATOM      4  C   UNL     1       3.924 -61.255 -27.527  1.00  0.00     0.004 C 
BRANCH   4   5
ATOM      5  C   UNL     1       3.370 -60.838 -26.153  1.00  0.00     0.000 C 
BRANCH   5   6
ATOM      6  C   UNL     1       3.802 -61.795 -25.031  1.00  0.00     0.000 C 
BRANCH   6   7
ATOM      7  C   UNL     1       4.490 -61.062 -23.865  1.00  0.00     0.000 C 
BRANCH   7   8
ATOM      8  C   UNL     1       4.326 -59.536 -23.952  1.00  0.00     0.006 C 
BRANCH   8   9
ATOM      9  C   UNL     1       5.573 -58.782 -23.471  1.00  0.00     0.053 C 
BRANCH   9  10
ATOM     10  C   UNL     1       5.394 -58.323 -22.059  1.00  0.00     0.041 C 
ATOM     11  O   UNL     1       4.254 -57.992 -21.639  1.00  0.00    -0.550 OA
ATOM     12  O   UNL     1       6.494 -58.227 -21.214  1.00  0.00    -0.550 OA
ENDBRANCH   9  10
ENDBRANCH   8   9
ENDBRANCH   7   8
ENDBRANCH   6   7
ENDBRANCH   5   6
ENDBRANCH   4   5
ENDBRANCH   3   4
ENDBRANCH   1   3
BRANCH   2  13
ATOM     13  C   UNL     1       4.437 -58.431 -30.017  1.00  0.00     0.027 C 
BRANCH  13  14
ATOM     14  C   UNL     1       2.937 -58.682 -30.236  1.00  0.00     0.004 C 
BRANCH  14  15
ATOM     15  C   UNL     1       2.109 -57.393 -30.101  1.00  0.00     0.000 C 
BRANCH  15  16
ATOM     16  C   UNL     1       1.067 -57.474 -28.975  1.00  0.00     0.000 C 
BRANCH  16  17
ATOM     17  C   UNL     1       1.083 -58.833 -28.251  1.00  0.00    -0.000 C 
BRANCH  17  18
ATOM     18  C   UNL     1       0.326 -58.798 -26.914  1.00  0.00    -0.000 C 
BRANCH  18  19
ATOM     19  C   UNL     1      -0.513 -57.524 -26.745  1.00  0.00    -0.003 C 
ATOM     20  C   UNL     1      -0.612 -57.122 -25.276  1.00  0.00     0.004 C 
ENDBRANCH  18  19
ENDBRANCH  17  18
ENDBRANCH  16  17
ENDBRANCH  15  16
ENDBRANCH  14  15
ENDBRANCH  13  14
ENDBRANCH   2  13
TORSDOF 15
ENDMDL
MODEL 5
REMARK VINA RESULT:    -3.728      2.478      4.866
REMARK INTER + INTRA:          -9.595
REMARK INTER:                  -6.945
REMARK INTRA:                  -2.650
REMARK UNBOUND:                -2.599
REMARK SMILES CCCCCCCCC=CCCCCCCCC(=O)[O-]
REMARK SMILES IDX 10 1 9 2 11 3 12 4 13 5 14 6 15 7 16 8 17 9 18 10 19 11
REMARK SMILES IDX 20 12 8 13 7 14 6 15 5 16 4 17 3 18 2 19 1 20
REMARK H PARENT
REMARK Flexibility Score: inf
ROOT
ATOM      1  C   UNL     1       0.506 -56.883 -28.405  1.00  0.00    -0.031 C 
ATOM      2  C   UNL     1      -0.513 -56.455 -27.636  1.00  0.00    -0.031 C 
ENDROOT
BRANCH   1   3
ATOM      3  C   UNL     1       1.099 -58.272 -28.372  1.00  0.00     0.027 C 
BRANCH   3   4
ATOM      4  C   UNL     1       1.290 -58.829 -29.789  1.00  0.00     0.004 C 
BRANCH   4   5
ATOM      5  C   UNL     1       1.481 -60.357 -29.787  1.00  0.00     0.000 C 
BRANCH   5   6
ATOM      6  C   UNL     1       2.872 -60.775 -30.290  1.00  0.00     0.000 C 
BRANCH   6   7
ATOM      7  C   UNL     1       3.886 -60.945 -29.144  1.00  0.00     0.000 C 
BRANCH   7   8
ATOM      8  C   UNL     1       5.051 -59.947 -29.237  1.00  0.00     0.006 C 
BRANCH   8   9
ATOM      9  C   UNL     1       4.786 -58.657 -28.451  1.00  0.00     0.053 C 
BRANCH   9  10
ATOM     10  C   UNL     1       4.802 -57.474 -29.366  1.00  0.00     0.041 C 
ATOM     11  O   UNL     1       5.132 -56.340 -28.929  1.00  0.00    -0.550 OA
ATOM     12  O   UNL     1       4.418 -57.616 -30.694  1.00  0.00    -0.550 OA
ENDBRANCH   9  10
ENDBRANCH   8   9
ENDBRANCH   7   8
ENDBRANCH   6   7
ENDBRANCH   5   6
ENDBRANCH   4   5
ENDBRANCH   3   4
ENDBRANCH   1   3
BRANCH   2  13
ATOM     13  C   UNL     1      -1.195 -57.276 -26.570  1.00  0.00     0.027 C 
BRANCH  13  14
ATOM     14  C   UNL     1      -0.562 -57.071 -25.186  1.00  0.00     0.004 C 
BRANCH  14  15
ATOM     15  C   UNL     1      -0.196 -58.406 -24.513  1.00  0.00     0.000 C 
BRANCH  15  16
ATOM     16  C   UNL     1      -0.600 -59.623 -25.359  1.00  0.00     0.000 C 
BRANCH  16  17
ATOM     17  C   UNL     1       0.256 -60.866 -25.054  1.00  0.00    -0.000 C 
BRANCH  17  18
ATOM     18  C   UNL     1       1.336 -61.113 -26.118  1.00  0.00    -0.000 C 
BRANCH  18  19
ATOM     19  C   UNL     1       2.685 -60.482 -25.748  1.00  0.00    -0.003 C 
ATOM     20  C   UNL     1       3.725 -61.553 -25.430  1.00  0.00     0.004 C 
ENDBRANCH  18  19
ENDBRANCH  17  18
ENDBRANCH  16  17
ENDBRANCH  15  16
ENDBRANCH  14  15
ENDBRANCH  13  14
ENDBRANCH   2  13
TORSDOF 15
ENDMDL
MODEL 6
REMARK VINA RESULT:    -3.677      2.497      4.846
REMARK INTER + INTRA:          -9.500
REMARK INTER:                  -7.109
REMARK INTRA:                  -2.392
REMARK UNBOUND:                -2.599
REMARK SMILES CCCCCCCCC=CCCCCCCCC(=O)[O-]
REMARK SMILES IDX 10 1 9 2 11 3 12 4 13 5 14 6 15 7 16 8 17 9 18 10 19 11
REMARK SMILES IDX 20 12 8 13 7 14 6 15 5 16 4 17 3 18 2 19 1 20
REMARK H PARENT
REMARK Flexibility Score: inf
ROOT
ATOM      1  C   UNL     1       4.756 -57.830 -29.223  1.00  0.00    -0.031 C 
ATOM      2  C   UNL     1       3.873 -57.091 -29.920  1.00  0.00    -0.031 C 
ENDROOT
BRANCH   1   3
ATOM      3  C   UNL     1       4.901 -59.331 -29.313  1.00  0.00     0.027 C 
BRANCH   3   4
ATOM      4  C   UNL     1       5.083 -59.957 -27.925  1.00  0.00     0.004 C 
BRANCH   4   5
ATOM      5  C   UNL     1       4.359 -61.310 -27.803  1.00  0.00     0.000 C 
BRANCH   5   6
ATOM      6  C   UNL     1       3.769 -61.536 -26.402  1.00  0.00     0.000 C 
BRANCH   6   7
ATOM      7  C   UNL     1       3.755 -60.251 -25.555  1.00  0.00     0.000 C 
BRANCH   7   8
ATOM      8  C   UNL     1       4.698 -60.335 -24.344  1.00  0.00     0.006 C 
BRANCH   8   9
ATOM      9  C   UNL     1       5.663 -59.145 -24.268  1.00  0.00     0.053 C 
BRANCH   9  10
ATOM     10  C   UNL     1       5.294 -58.244 -23.132  1.00  0.00     0.041 C 
ATOM     11  O   UNL     1       6.167 -57.513 -22.593  1.00  0.00    -0.550 OA
ATOM     12  O   UNL     1       3.993 -58.237 -22.644  1.00  0.00    -0.550 OA
ENDBRANCH   9  10
ENDBRANCH   8   9
ENDBRANCH   7   8
ENDBRANCH   6   7
ENDBRANCH   5   6
ENDBRANCH   4   5
ENDBRANCH   3   4
ENDBRANCH   1   3
BRANCH   2  13
ATOM     13  C   UNL     1       2.841 -57.647 -30.870  1.00  0.00     0.027 C 
BRANCH  13  14
ATOM     14  C   UNL     1       1.531 -58.010 -30.155  1.00  0.00     0.004 C 
BRANCH  14  15
ATOM     15  C   UNL     1       1.221 -59.515 -30.242  1.00  0.00     0.000 C 
BRANCH  15  16
ATOM     16  C   UNL     1       1.125 -60.179 -28.860  1.00  0.00     0.000 C 
BRANCH  16  17
ATOM     17  C   UNL     1       1.130 -59.156 -27.710  1.00  0.00    -0.000 C 
BRANCH  17  18
ATOM     18  C   UNL     1      -0.060 -59.337 -26.755  1.00  0.00    -0.000 C 
BRANCH  18  19
ATOM     19  C   UNL     1      -0.511 -58.015 -26.119  1.00  0.00    -0.003 C 
ATOM     20  C   UNL     1      -0.440 -56.869 -27.125  1.00  0.00     0.004 C 
ENDBRANCH  18  19
ENDBRANCH  17  18
ENDBRANCH  16  17
ENDBRANCH  15  16
ENDBRANCH  14  15
ENDBRANCH  13  14
ENDBRANCH   2  13
TORSDOF 15
ENDMDL
MODEL 7
REMARK VINA RESULT:    -3.663      1.242      4.841
REMARK INTER + INTRA:          -9.475
REMARK INTER:                  -7.107
REMARK INTRA:                  -2.368
REMARK UNBOUND:                -2.599
REMARK SMILES CCCCCCCCC=CCCCCCCCC(=O)[O-]
REMARK SMILES IDX 10 1 9 2 11 3 12 4 13 5 14 6 15 7 16 8 17 9 18 10 19 11
REMARK SMILES IDX 20 12 8 13 7 14 6 15 5 16 4 17 3 18 2 19 1 20
REMARK H PARENT
REMARK Flexibility Score: inf
ROOT
ATOM      1  C   UNL     1       4.815 -59.852 -26.070  1.00  0.00    -0.031 C 
ATOM      2  C   UNL     1       5.109 -59.908 -27.383  1.00  0.00    -0.031 C 
ENDROOT
BRANCH   1   3
ATOM      3  C   UNL     1       4.263 -60.994 -25.250  1.00  0.00     0.027 C 
BRANCH   3   4
ATOM      4  C   UNL     1       3.911 -60.539 -23.828  1.00  0.00     0.004 C 
BRANCH   4   5
ATOM      5  C   UNL     1       2.527 -59.869 -23.764  1.00  0.00     0.000 C 
BRANCH   5   6
ATOM      6  C   UNL     1       1.496 -60.563 -24.668  1.00  0.00     0.000 C 
BRANCH   6   7
ATOM      7  C   UNL     1       0.660 -59.561 -25.484  1.00  0.00     0.000 C 
BRANCH   7   8
ATOM      8  C   UNL     1      -0.346 -58.789 -24.615  1.00  0.00     0.006 C 
BRANCH   8   9
ATOM      9  C   UNL     1      -0.396 -57.295 -24.958  1.00  0.00     0.053 C 
BRANCH   9  10
ATOM     10  C   UNL     1      -1.062 -57.084 -26.281  1.00  0.00     0.041 C 
ATOM     11  O   UNL     1      -2.262 -57.426 -26.448  1.00  0.00    -0.550 OA
ATOM     12  O   UNL     1      -0.346 -56.542 -27.342  1.00  0.00    -0.550 OA
ENDBRANCH   9  10
ENDBRANCH   8   9
ENDBRANCH   7   8
ENDBRANCH   6   7
ENDBRANCH   5   6
ENDBRANCH   4   5
ENDBRANCH   3   4
ENDBRANCH   1   3
BRANCH   2  13
ATOM     13  C   UNL     1       4.884 -61.110 -28.268  1.00  0.00     0.027 C 
BRANCH  13  14
ATOM     14  C   UNL     1       3.770 -60.870 -29.298  1.00  0.00     0.004 C 
BRANCH  14  15
ATOM     15  C   UNL     1       2.375 -60.860 -28.650  1.00  0.00     0.000 C 
BRANCH  15  16
ATOM     16  C   UNL     1       1.520 -59.669 -29.107  1.00  0.00     0.000 C 
BRANCH  16  17
ATOM     17  C   UNL     1       2.215 -58.316 -28.871  1.00  0.00    -0.000 C 
BRANCH  17  18
ATOM     18  C   UNL     1       2.482 -57.554 -30.178  1.00  0.00    -0.000 C 
BRANCH  18  19
ATOM     19  C   UNL     1       3.977 -57.468 -30.516  1.00  0.00    -0.003 C 
ATOM     20  C   UNL     1       4.756 -56.786 -29.394  1.00  0.00     0.004 C 
ENDBRANCH  18  19
ENDBRANCH  17  18
ENDBRANCH  16  17
ENDBRANCH  15  16
ENDBRANCH  14  15
ENDBRANCH  13  14
ENDBRANCH   2  13
TORSDOF 15
ENDMDL
MODEL 8
REMARK VINA RESULT:    -3.655      1.344      4.402
REMARK INTER + INTRA:          -9.459
REMARK INTER:                  -6.543
REMARK INTRA:                  -2.916
REMARK UNBOUND:                -2.599
REMARK SMILES CCCCCCCCC=CCCCCCCCC(=O)[O-]
REMARK SMILES IDX 10 1 9 2 11 3 12 4 13 5 14 6 15 7 16 8 17 9 18 10 19 11
REMARK SMILES IDX 20 12 8 13 7 14 6 15 5 16 4 17 3 18 2 19 1 20
REMARK H PARENT
REMARK Flexibility Score: inf
ROOT
ATOM      1  C   UNL     1       5.021 -59.368 -28.261  1.00  0.00    -0.031 C 
ATOM      2  C   UNL     1       4.808 -59.908 -29.476  1.00  0.00    -0.031 C 
ENDROOT
BRANCH   1   3
ATOM      3  C   UNL     1       5.486 -60.126 -27.039  1.00  0.00     0.027 C 
BRANCH   3   4
ATOM      4  C   UNL     1       4.357 -60.267 -26.010  1.00  0.00     0.004 C 
BRANCH   4   5
ATOM      5  C   UNL     1       3.440 -61.463 -26.322  1.00  0.00     0.000 C 
BRANCH   5   6
ATOM      6  C   UNL     1       1.954 -61.139 -26.096  1.00  0.00     0.000 C 
BRANCH   6   7
ATOM      7  C   UNL     1       1.514 -59.859 -26.828  1.00  0.00     0.000 C 
BRANCH   7   8
ATOM      8  C   UNL     1      -0.001 -59.819 -27.084  1.00  0.00     0.006 C 
BRANCH   8   9
ATOM      9  C   UNL     1      -0.794 -59.362 -25.853  1.00  0.00     0.053 C 
BRANCH   9  10
ATOM     10  C   UNL     1      -0.480 -57.936 -25.528  1.00  0.00     0.041 C 
ATOM     11  O   UNL     1      -0.177 -57.606 -24.351  1.00  0.00    -0.550 OA
ATOM     12  O   UNL     1      -0.557 -56.963 -26.518  1.00  0.00    -0.550 OA
ENDBRANCH   9  10
ENDBRANCH   8   9
ENDBRANCH   7   8
ENDBRANCH   6   7
ENDBRANCH   5   6
ENDBRANCH   4   5
ENDBRANCH   3   4
ENDBRANCH   1   3
BRANCH   2  13
ATOM     13  C   UNL     1       4.944 -61.375 -29.805  1.00  0.00     0.027 C 
BRANCH  13  14
ATOM     14  C   UNL     1       3.776 -61.887 -30.661  1.00  0.00     0.004 C 
BRANCH  14  15
ATOM     15  C   UNL     1       2.507 -62.125 -29.824  1.00  0.00     0.000 C 
BRANCH  15  16
ATOM     16  C   UNL     1       1.323 -61.263 -30.289  1.00  0.00     0.000 C 
BRANCH  16  17
ATOM     17  C   UNL     1       1.655 -60.425 -31.537  1.00  0.00    -0.000 C 
BRANCH  17  18
ATOM     18  C   UNL     1       1.122 -58.988 -31.441  1.00  0.00    -0.000 C 
BRANCH  18  19
ATOM     19  C   UNL     1       2.204 -57.985 -31.014  1.00  0.00    -0.003 C 
ATOM     20  C   UNL     1       1.937 -57.454 -29.608  1.00  0.00     0.004 C 
ENDBRANCH  18  19
ENDBRANCH  17  18
ENDBRANCH  16  17
ENDBRANCH  15  16
ENDBRANCH  14  15
ENDBRANCH  13  14
ENDBRANCH   2  13
TORSDOF 15
ENDMDL
MODEL 9
REMARK VINA RESULT:    -3.631      2.169      4.399
REMARK INTER + INTRA:          -9.414
REMARK INTER:                  -6.385
REMARK INTRA:                  -3.029
REMARK UNBOUND:                -2.599
REMARK SMILES CCCCCCCCC=CCCCCCCCC(=O)[O-]
REMARK SMILES IDX 10 1 9 2 11 3 12 4 13 5 14 6 15 7 16 8 17 9 18 10 19 11
REMARK SMILES IDX 20 12 8 13 7 14 6 15 5 16 4 17 3 18 2 19 1 20
REMARK H PARENT
REMARK Flexibility Score: inf
ROOT
ATOM      1  C   UNL     1       3.158 -57.114 -29.954  1.00  0.00    -0.031 C 
ATOM      2  C   UNL     1       2.411 -57.673 -30.924  1.00  0.00    -0.031 C 
ENDROOT
BRANCH   1   3
ATOM      3  C   UNL     1       4.609 -57.432 -29.678  1.00  0.00     0.027 C 
BRANCH   3   4
ATOM      4  C   UNL     1       4.751 -58.419 -28.513  1.00  0.00     0.004 C 
BRANCH   4   5
ATOM      5  C   UNL     1       5.104 -59.837 -28.998  1.00  0.00     0.000 C 
BRANCH   5   6
ATOM      6  C   UNL     1       4.884 -60.901 -27.912  1.00  0.00     0.000 C 
BRANCH   6   7
ATOM      7  C   UNL     1       4.515 -60.286 -26.551  1.00  0.00     0.000 C 
BRANCH   7   8
ATOM      8  C   UNL     1       3.596 -61.198 -25.722  1.00  0.00     0.006 C 
BRANCH   8   9
ATOM      9  C   UNL     1       2.660 -60.408 -24.798  1.00  0.00     0.053 C 
BRANCH   9  10
ATOM     10  C   UNL     1       3.307 -60.182 -23.468  1.00  0.00     0.041 C 
ATOM     11  O   UNL     1       4.280 -60.895 -23.107  1.00  0.00    -0.550 OA
ATOM     12  O   UNL     1       2.812 -59.207 -22.610  1.00  0.00    -0.550 OA
ENDBRANCH   9  10
ENDBRANCH   8   9
ENDBRANCH   7   8
ENDBRANCH   6   7
ENDBRANCH   5   6
ENDBRANCH   4   5
ENDBRANCH   3   4
ENDBRANCH   1   3
BRANCH   2  13
ATOM     13  C   UNL     1       2.884 -58.755 -31.864  1.00  0.00     0.027 C 
BRANCH  13  14
ATOM     14  C   UNL     1       2.430 -60.152 -31.415  1.00  0.00     0.004 C 
BRANCH  14  15
ATOM     15  C   UNL     1       1.202 -60.093 -30.491  1.00  0.00     0.000 C 
BRANCH  15  16
ATOM     16  C   UNL     1       1.378 -60.935 -29.219  1.00  0.00     0.000 C 
BRANCH  16  17
ATOM     17  C   UNL     1       0.637 -60.341 -28.008  1.00  0.00    -0.000 C 
BRANCH  17  18
ATOM     18  C   UNL     1       1.119 -58.924 -27.658  1.00  0.00    -0.000 C 
BRANCH  18  19
ATOM     19  C   UNL     1      -0.012 -58.028 -27.137  1.00  0.00    -0.003 C 
ATOM     20  C   UNL     1      -0.055 -56.702 -27.891  1.00  0.00     0.004 C 
ENDBRANCH  18  19
ENDBRANCH  17  18
ENDBRANCH  16  17
ENDBRANCH  15  16
ENDBRANCH  14  15
ENDBRANCH  13  14
ENDBRANCH   2  13
TORSDOF 15
ENDMDL
