MODEL 1
REMARK VINA RESULT:    -1.541      0.000      0.000
REMARK INTER + INTRA:          -1.861
REMARK INTER:                  -2.081
REMARK INTRA:                   0.219
REMARK UNBOUND:                 0.219
REMARK SMILES CCCCCCCC(=O)[O-]
REMARK SMILES IDX 5 1 6 2 7 3 8 4 9 5 10 6 4 7 3 8 2 9 1 10
REMARK H PARENT
REMARK Flexibility Score: inf
ROOT
ATOM      1  C   UNL     1      16.291  -8.715  27.718  1.00  0.00     0.000 C 
ENDROOT
BRANCH   1   2
ATOM      2  C   UNL     1      15.900  -9.715  28.812  1.00  0.00     0.006 C 
BRANCH   2   3
ATOM      3  C   UNL     1      16.707  -9.471  30.091  1.00  0.00     0.053 C 
BRANCH   3   4
ATOM      4  C   UNL     1      17.363  -8.128  30.049  1.00  0.00     0.041 C 
ATOM      5  O   UNL     1      18.611  -8.037  29.899  1.00  0.00    -0.550 OA
ATOM      6  O   UNL     1      16.593  -6.974  30.125  1.00  0.00    -0.550 OA
ENDBRANCH   3   4
ENDBRANCH   2   3
ENDBRANCH   1   2
BRANCH   1   7
ATOM      7  C   UNL     1      16.416  -9.410  26.357  1.00  0.00     0.000 C 
BRANCH   7   8
ATOM      8  C   UNL     1      16.541  -8.384  25.224  1.00  0.00    -0.000 C 
BRANCH   8   9
ATOM      9  C   UNL     1      17.915  -7.705  25.246  1.00  0.00    -0.003 C 
ATOM     10  C   UNL     1      18.814  -8.244  24.137  1.00  0.00     0.004 C 
ENDBRANCH   8   9
ENDBRANCH   7   8
ENDBRANCH   1   7
TORSDOF 6
ENDMDL
MODEL 2
REMARK VINA RESULT:    -1.286      2.589      4.656
REMARK INTER + INTRA:          -1.517
REMARK INTER:                  -1.179
REMARK INTRA:                  -0.338
REMARK UNBOUND:                 0.219
REMARK SMILES CCCCCCCC(=O)[O-]
REMARK SMILES IDX 5 1 6 2 7 3 8 4 9 5 10 6 4 7 3 8 2 9 1 10
REMARK H PARENT
REMARK Flexibility Score: inf
ROOT
ATOM      1  C   UNL     1      15.946  -7.786  27.328  1.00  0.00     0.000 C 
ENDROOT
BRANCH   1   2
ATOM      2  C   UNL     1      16.617  -8.854  26.456  1.00  0.00     0.006 C 
BRANCH   2   3
ATOM      3  C   UNL     1      16.695  -8.400  24.996  1.00  0.00     0.053 C 
BRANCH   3   4
ATOM      4  C   UNL     1      18.093  -8.002  24.645  1.00  0.00     0.041 C 
ATOM      5  O   UNL     1      18.783  -8.721  23.875  1.00  0.00    -0.550 OA
ATOM      6  O   UNL     1      18.619  -6.809  25.128  1.00  0.00    -0.550 OA
ENDBRANCH   3   4
ENDBRANCH   2   3
ENDBRANCH   1   2
BRANCH   1   7
ATOM      7  C   UNL     1      15.923  -8.213  28.801  1.00  0.00     0.000 C 
BRANCH   7   8
ATOM      8  C   UNL     1      16.572  -9.591  28.985  1.00  0.00    -0.000 C 
BRANCH   8   9
ATOM      9  C   UNL     1      17.649  -9.550  30.074  1.00  0.00    -0.003 C 
ATOM     10  C   UNL     1      18.331  -8.186  30.125  1.00  0.00     0.004 C 
ENDBRANCH   8   9
ENDBRANCH   7   8
ENDBRANCH   1   7
TORSDOF 6
ENDMDL
MODEL 3
REMARK VINA RESULT:    -0.362     10.077     10.768
REMARK INTER + INTRA:          -0.269
REMARK INTER:                  -0.076
REMARK INTRA:                  -0.194
REMARK UNBOUND:                 0.219
REMARK SMILES CCCCCCCC(=O)[O-]
REMARK SMILES IDX 5 1 6 2 7 3 8 4 9 5 10 6 4 7 3 8 2 9 1 10
REMARK H PARENT
REMARK Flexibility Score: inf
ROOT
ATOM      1  C   UNL     1      18.085 -19.405  27.000  1.00  0.00     0.000 C 
ENDROOT
BRANCH   1   2
ATOM      2  C   UNL     1      16.635 -19.869  27.178  1.00  0.00     0.006 C 
BRANCH   2   3
ATOM      3  C   UNL     1      16.160 -19.647  28.616  1.00  0.00     0.053 C 
BRANCH   3   4
ATOM      4  C   UNL     1      16.718 -18.370  29.161  1.00  0.00     0.041 C 
ATOM      5  O   UNL     1      16.228 -17.264  28.809  1.00  0.00    -0.550 OA
ATOM      6  O   UNL     1      17.746 -18.402  30.094  1.00  0.00    -0.550 OA
ENDBRANCH   3   4
ENDBRANCH   2   3
ENDBRANCH   1   2
BRANCH   1   7
ATOM      7  C   UNL     1      18.276 -18.704  25.649  1.00  0.00     0.000 C 
BRANCH   7   8
ATOM      8  C   UNL     1      17.138 -19.052  24.682  1.00  0.00    -0.000 C 
BRANCH   8   9
ATOM      9  C   UNL     1      17.678 -19.329  23.274  1.00  0.00    -0.003 C 
ATOM     10  C   UNL     1      16.907 -20.460  22.601  1.00  0.00     0.004 C 
ENDBRANCH   8   9
ENDBRANCH   7   8
ENDBRANCH   1   7
TORSDOF 6
ENDMDL
MODEL 4
REMARK VINA RESULT:    -0.330     11.188     11.871
REMARK INTER + INTRA:          -0.226
REMARK INTER:                  -0.010
REMARK INTRA:                  -0.216
REMARK UNBOUND:                 0.219
REMARK SMILES CCCCCCCC(=O)[O-]
REMARK SMILES IDX 5 1 6 2 7 3 8 4 9 5 10 6 4 7 3 8 2 9 1 10
REMARK H PARENT
REMARK Flexibility Score: inf
ROOT
ATOM      1  C   UNL     1      18.027 -19.087  27.124  1.00  0.00     0.000 C 
ENDROOT
BRANCH   1   2
ATOM      2  C   UNL     1      17.222 -19.121  28.428  1.00  0.00     0.006 C 
BRANCH   2   3
ATOM      3  C   UNL     1      15.914 -19.896  28.245  1.00  0.00     0.053 C 
BRANCH   3   4
ATOM      4  C   UNL     1      16.021 -21.256  28.859  1.00  0.00     0.041 C 
ATOM      5  O   UNL     1      16.199 -21.379  30.100  1.00  0.00    -0.550 OA
ATOM      6  O   UNL     1      15.875 -22.390  28.069  1.00  0.00    -0.550 OA
ENDBRANCH   3   4
ENDBRANCH   2   3
ENDBRANCH   1   2
BRANCH   1   7
ATOM      7  C   UNL     1      17.128 -18.743  25.930  1.00  0.00     0.000 C 
BRANCH   7   8
ATOM      8  C   UNL     1      17.832 -19.049  24.603  1.00  0.00    -0.000 C 
BRANCH   8   9
ATOM      9  C   UNL     1      16.826 -19.501  23.538  1.00  0.00    -0.003 C 
ATOM     10  C   UNL     1      17.534 -20.143  22.348  1.00  0.00     0.004 C 
ENDBRANCH   8   9
ENDBRANCH   7   8
ENDBRANCH   1   7
TORSDOF 6
ENDMDL
MODEL 5
REMARK VINA RESULT:    -0.088     11.103     12.419
REMARK INTER + INTRA:           0.101
REMARK INTER:                   0.455
REMARK INTRA:                  -0.354
REMARK UNBOUND:                 0.219
REMARK SMILES CCCCCCCC(=O)[O-]
REMARK SMILES IDX 5 1 6 2 7 3 8 4 9 5 10 6 4 7 3 8 2 9 1 10
REMARK H PARENT
REMARK Flexibility Score: inf
ROOT
ATOM      1  C   UNL     1      18.091 -19.210  26.920  1.00  0.00     0.000 C 
ENDROOT
BRANCH   1   2
ATOM      2  C   UNL     1      18.193 -18.812  25.443  1.00  0.00     0.006 C 
BRANCH   2   3
ATOM      3  C   UNL     1      16.935 -19.225  24.675  1.00  0.00     0.053 C 
BRANCH   3   4
ATOM      4  C   UNL     1      17.291 -19.703  23.304  1.00  0.00     0.041 C 
ATOM      5  O   UNL     1      18.255 -19.182  22.681  1.00  0.00    -0.550 OA
ATOM      6  O   UNL     1      16.592 -20.758  22.730  1.00  0.00    -0.550 OA
ENDBRANCH   3   4
ENDBRANCH   2   3
ENDBRANCH   1   2
BRANCH   1   7
ATOM      7  C   UNL     1      17.021 -18.380  27.641  1.00  0.00     0.000 C 
BRANCH   7   8
ATOM      8  C   UNL     1      16.211 -19.249  28.611  1.00  0.00    -0.000 C 
BRANCH   8   9
ATOM      9  C   UNL     1      15.878 -20.608  27.984  1.00  0.00    -0.003 C 
ATOM     10  C   UNL     1      15.995 -21.732  29.010  1.00  0.00     0.004 C 
ENDBRANCH   8   9
ENDBRANCH   7   8
ENDBRANCH   1   7
TORSDOF 6
ENDMDL
MODEL 6
REMARK VINA RESULT:     0.266     10.579     11.875
REMARK INTER + INTRA:           0.578
REMARK INTER:                   0.945
REMARK INTRA:                  -0.367
REMARK UNBOUND:                 0.219
REMARK SMILES CCCCCCCC(=O)[O-]
REMARK SMILES IDX 5 1 6 2 7 3 8 4 9 5 10 6 4 7 3 8 2 9 1 10
REMARK H PARENT
REMARK Flexibility Score: inf
ROOT
ATOM      1  C   UNL     1      18.071 -19.314  26.994  1.00  0.00     0.000 C 
ENDROOT
BRANCH   1   2
ATOM      2  C   UNL     1      18.165 -18.725  25.581  1.00  0.00     0.006 C 
BRANCH   2   3
ATOM      3  C   UNL     1      16.939 -19.105  24.745  1.00  0.00     0.053 C 
BRANCH   3   4
ATOM      4  C   UNL     1      17.356 -19.566  23.385  1.00  0.00     0.041 C 
ATOM      5  O   UNL     1      18.410 -19.120  22.859  1.00  0.00    -0.550 OA
ATOM      6  O   UNL     1      16.606 -20.525  22.715  1.00  0.00    -0.550 OA
ENDBRANCH   3   4
ENDBRANCH   2   3
ENDBRANCH   1   2
BRANCH   1   7
ATOM      7  C   UNL     1      16.670 -19.878  27.262  1.00  0.00     0.000 C 
BRANCH   7   8
ATOM      8  C   UNL     1      16.242 -19.620  28.712  1.00  0.00    -0.000 C 
BRANCH   8   9
ATOM      9  C   UNL     1      16.870 -18.329  29.250  1.00  0.00    -0.003 C 
ATOM     10  C   UNL     1      15.963 -17.128  28.998  1.00  0.00     0.004 C 
ENDBRANCH   8   9
ENDBRANCH   7   8
ENDBRANCH   1   7
TORSDOF 6
ENDMDL
MODEL 7
REMARK VINA RESULT:     0.276     11.563     12.111
REMARK INTER + INTRA:           0.592
REMARK INTER:                   0.683
REMARK INTRA:                  -0.092
REMARK UNBOUND:                 0.219
REMARK SMILES CCCCCCCC(=O)[O-]
REMARK SMILES IDX 5 1 6 2 7 3 8 4 9 5 10 6 4 7 3 8 2 9 1 10
REMARK H PARENT
REMARK Flexibility Score: inf
ROOT
ATOM      1  C   UNL     1      19.592 -19.792  25.791  1.00  0.00     0.000 C 
ENDROOT
BRANCH   1   2
ATOM      2  C   UNL     1      18.811 -19.455  27.067  1.00  0.00     0.006 C 
BRANCH   2   3
ATOM      3  C   UNL     1      17.367 -19.064  26.740  1.00  0.00     0.053 C 
BRANCH   3   4
ATOM      4  C   UNL     1      16.550 -18.987  27.990  1.00  0.00     0.041 C 
ATOM      5  O   UNL     1      16.404 -17.886  28.586  1.00  0.00    -0.550 OA
ATOM      6  O   UNL     1      15.907 -20.121  28.473  1.00  0.00    -0.550 OA
ENDBRANCH   3   4
ENDBRANCH   2   3
ENDBRANCH   1   2
BRANCH   1   7
ATOM      7  C   UNL     1      21.008 -20.277  26.125  1.00  0.00     0.000 C 
BRANCH   7   8
ATOM      8  C   UNL     1      21.610 -21.064  24.954  1.00  0.00    -0.000 C 
BRANCH   8   9
ATOM      9  C   UNL     1      23.140 -20.979  24.964  1.00  0.00    -0.003 C 
ATOM     10  C   UNL     1      23.704 -21.022  23.546  1.00  0.00     0.004 C 
ENDBRANCH   8   9
ENDBRANCH   7   8
ENDBRANCH   1   7
TORSDOF 6
ENDMDL
MODEL 8
REMARK VINA RESULT:     0.567     11.059     11.776
REMARK INTER + INTRA:           0.985
REMARK INTER:                   1.138
REMARK INTRA:                  -0.153
REMARK UNBOUND:                 0.219
REMARK SMILES CCCCCCCC(=O)[O-]
REMARK SMILES IDX 5 1 6 2 7 3 8 4 9 5 10 6 4 7 3 8 2 9 1 10
REMARK H PARENT
REMARK Flexibility Score: inf
ROOT
ATOM      1  C   UNL     1      18.129 -19.094  24.702  1.00  0.00     0.000 C 
ENDROOT
BRANCH   1   2
ATOM      2  C   UNL     1      17.600 -18.468  25.998  1.00  0.00     0.006 C 
BRANCH   2   3
ATOM      3  C   UNL     1      17.680 -19.461  27.161  1.00  0.00     0.053 C 
BRANCH   3   4
ATOM      4  C   UNL     1      16.569 -19.220  28.133  1.00  0.00     0.041 C 
ATOM      5  O   UNL     1      15.875 -20.184  28.554  1.00  0.00    -0.550 OA
ATOM      6  O   UNL     1      16.330 -17.938  28.613  1.00  0.00    -0.550 OA
ENDBRANCH   3   4
ENDBRANCH   2   3
ENDBRANCH   1   2
BRANCH   1   7
ATOM      7  C   UNL     1      17.029 -19.162  23.636  1.00  0.00     0.000 C 
BRANCH   7   8
ATOM      8  C   UNL     1      17.324 -20.265  22.611  1.00  0.00    -0.000 C 
BRANCH   8   9
ATOM      9  C   UNL     1      16.249 -21.356  22.652  1.00  0.00    -0.003 C 
ATOM     10  C   UNL     1      16.704 -22.606  21.904  1.00  0.00     0.004 C 
ENDBRANCH   8   9
ENDBRANCH   7   8
ENDBRANCH   1   7
TORSDOF 6
ENDMDL
