MODEL 1
REMARK VINA RESULT:    -5.131      0.000      0.000
REMARK INTER + INTRA:         -10.758
REMARK INTER:                  -9.630
REMARK INTRA:                  -1.128
REMARK UNBOUND:                -1.128
REMARK SMILES O=C([O-])CCCCCCCCCCCCCCC(=O)[O-]
REMARK SMILES IDX 10 1 9 2 8 3 7 4 6 5 5 6 4 7 2 8 1 9 3 10 11 11 12 12 13 13
REMARK SMILES IDX 14 14 15 15 16 16 17 17 18 18 19 19 20 20
REMARK H PARENT
REMARK Flexibility Score: inf
ROOT
ATOM      1  C   UNL     1      21.047  16.555  -7.909  1.00  0.00     0.000 C 
ENDROOT
BRANCH   1   2
ATOM      2  C   UNL     1      19.677  17.110  -8.333  1.00  0.00     0.000 C 
BRANCH   2   3
ATOM      3  C   UNL     1      18.634  17.034  -7.206  1.00  0.00     0.000 C 
BRANCH   3   4
ATOM      4  C   UNL     1      19.274  16.794  -5.829  1.00  0.00     0.000 C 
BRANCH   4   5
ATOM      5  C   UNL     1      19.248  18.049  -4.938  1.00  0.00     0.000 C 
BRANCH   5   6
ATOM      6  C   UNL     1      20.316  19.083  -5.337  1.00  0.00     0.006 C 
BRANCH   6   7
ATOM      7  C   UNL     1      19.752  20.481  -5.637  1.00  0.00     0.053 C 
BRANCH   7   8
ATOM      8  C   UNL     1      19.199  20.574  -7.027  1.00  0.00     0.041 C 
ATOM      9  O   UNL     1      19.966  20.802  -7.999  1.00  0.00    -0.550 OA
ATOM     10  O   UNL     1      17.832  20.449  -7.242  1.00  0.00    -0.550 OA
ENDBRANCH   7   8
ENDBRANCH   6   7
ENDBRANCH   5   6
ENDBRANCH   4   5
ENDBRANCH   3   4
ENDBRANCH   2   3
ENDBRANCH   1   2
BRANCH   1  11
ATOM     11  C   UNL     1      22.206  17.514  -8.234  1.00  0.00     0.000 C 
BRANCH  11  12
ATOM     12  C   UNL     1      22.931  17.141  -9.536  1.00  0.00     0.000 C 
BRANCH  12  13
ATOM     13  C   UNL     1      24.462  17.197  -9.400  1.00  0.00     0.000 C 
BRANCH  13  14
ATOM     14  C   UNL     1      25.092  15.809  -9.188  1.00  0.00     0.000 C 
BRANCH  14  15
ATOM     15  C   UNL     1      26.496  15.636  -9.797  1.00  0.00     0.000 C 
BRANCH  15  16
ATOM     16  C   UNL     1      27.497  14.995  -8.822  1.00  0.00     0.006 C 
BRANCH  16  17
ATOM     17  C   UNL     1      28.807  14.641  -9.532  1.00  0.00     0.053 C 
BRANCH  17  18
ATOM     18  C   UNL     1      28.707  13.294 -10.177  1.00  0.00     0.041 C 
ATOM     19  O   UNL     1      29.350  13.047 -11.231  1.00  0.00    -0.550 OA
ATOM     20  O   UNL     1      27.869  12.325  -9.639  1.00  0.00    -0.550 OA
ENDBRANCH  17  18
ENDBRANCH  16  17
ENDBRANCH  15  16
ENDBRANCH  14  15
ENDBRANCH  13  14
ENDBRANCH  12  13
ENDBRANCH  11  12
ENDBRANCH   1  11
TORSDOF 15
ENDMDL
MODEL 2
REMARK VINA RESULT:    -5.101      5.005      6.868
REMARK INTER + INTRA:         -10.702
REMARK INTER:                  -8.752
REMARK INTRA:                  -1.949
REMARK UNBOUND:                -1.128
REMARK SMILES O=C([O-])CCCCCCCCCCCCCCC(=O)[O-]
REMARK SMILES IDX 10 1 9 2 8 3 7 4 6 5 5 6 4 7 2 8 1 9 3 10 11 11 12 12 13 13
REMARK SMILES IDX 14 14 15 15 16 16 17 17 18 18 19 19 20 20
REMARK H PARENT
REMARK Flexibility Score: inf
ROOT
ATOM      1  C   UNL     1      27.687  17.441 -11.995  1.00  0.00     0.000 C 
ENDROOT
BRANCH   1   2
ATOM      2  C   UNL     1      26.349  17.966 -12.540  1.00  0.00     0.000 C 
BRANCH   2   3
ATOM      3  C   UNL     1      25.642  18.916 -11.559  1.00  0.00     0.000 C 
BRANCH   3   4
ATOM      4  C   UNL     1      24.750  18.167 -10.556  1.00  0.00     0.000 C 
BRANCH   4   5
ATOM      5  C   UNL     1      23.670  17.315 -11.246  1.00  0.00     0.000 C 
BRANCH   5   6
ATOM      6  C   UNL     1      23.587  15.886 -10.680  1.00  0.00     0.006 C 
BRANCH   6   7
ATOM      7  C   UNL     1      24.358  15.689  -9.365  1.00  0.00     0.053 C 
BRANCH   7   8
ATOM      8  C   UNL     1      24.334  14.261  -8.912  1.00  0.00     0.041 C 
ATOM      9  O   UNL     1      23.256  13.738  -8.527  1.00  0.00    -0.550 OA
ATOM     10  O   UNL     1      25.510  13.521  -8.878  1.00  0.00    -0.550 OA
ENDBRANCH   7   8
ENDBRANCH   6   7
ENDBRANCH   5   6
ENDBRANCH   4   5
ENDBRANCH   3   4
ENDBRANCH   2   3
ENDBRANCH   1   2
BRANCH   1  11
ATOM     11  C   UNL     1      27.523  16.189 -11.114  1.00  0.00     0.000 C 
BRANCH  11  12
ATOM     12  C   UNL     1      28.865  15.671 -10.574  1.00  0.00     0.000 C 
BRANCH  12  13
ATOM     13  C   UNL     1      28.789  14.209 -10.102  1.00  0.00     0.000 C 
BRANCH  13  14
ATOM     14  C   UNL     1      28.863  13.204 -11.266  1.00  0.00     0.000 C 
BRANCH  14  15
ATOM     15  C   UNL     1      27.511  12.599 -11.685  1.00  0.00     0.000 C 
BRANCH  15  16
ATOM     16  C   UNL     1      27.072  13.032 -13.093  1.00  0.00     0.006 C 
BRANCH  16  17
ATOM     17  C   UNL     1      25.698  13.710 -13.057  1.00  0.00     0.053 C 
BRANCH  17  18
ATOM     18  C   UNL     1      25.583  14.720 -14.154  1.00  0.00     0.041 C 
ATOM     19  O   UNL     1      26.516  14.860 -14.987  1.00  0.00    -0.550 OA
ATOM     20  O   UNL     1      24.463  15.540 -14.231  1.00  0.00    -0.550 OA
ENDBRANCH  17  18
ENDBRANCH  16  17
ENDBRANCH  15  16
ENDBRANCH  14  15
ENDBRANCH  13  14
ENDBRANCH  12  13
ENDBRANCH  11  12
ENDBRANCH   1  11
TORSDOF 15
ENDMDL
MODEL 3
REMARK VINA RESULT:    -5.086      5.681      7.648
REMARK INTER + INTRA:         -10.674
REMARK INTER:                  -8.413
REMARK INTRA:                  -2.261
REMARK UNBOUND:                -1.128
REMARK SMILES O=C([O-])CCCCCCCCCCCCCCC(=O)[O-]
REMARK SMILES IDX 10 1 9 2 8 3 7 4 6 5 5 6 4 7 2 8 1 9 3 10 11 11 12 12 13 13
REMARK SMILES IDX 14 14 15 15 16 16 17 17 18 18 19 19 20 20
REMARK H PARENT
REMARK Flexibility Score: inf
ROOT
ATOM      1  C   UNL     1      28.988  14.202 -10.261  1.00  0.00     0.000 C 
ENDROOT
BRANCH   1   2
ATOM      2  C   UNL     1      27.757  15.114 -10.381  1.00  0.00     0.000 C 
BRANCH   2   3
ATOM      3  C   UNL     1      26.962  15.211  -9.068  1.00  0.00     0.000 C 
BRANCH   3   4
ATOM      4  C   UNL     1      25.556  14.599  -9.188  1.00  0.00     0.000 C 
BRANCH   4   5
ATOM      5  C   UNL     1      25.524  13.111  -8.795  1.00  0.00     0.000 C 
BRANCH   5   6
ATOM      6  C   UNL     1      24.441  12.320  -9.551  1.00  0.00     0.006 C 
BRANCH   6   7
ATOM      7  C   UNL     1      23.003  12.709  -9.173  1.00  0.00     0.053 C 
BRANCH   7   8
ATOM      8  C   UNL     1      22.205  13.129 -10.369  1.00  0.00     0.041 C 
ATOM      9  O   UNL     1      22.255  14.319 -10.777  1.00  0.00    -0.550 OA
ATOM     10  O   UNL     1      21.377  12.215 -11.009  1.00  0.00    -0.550 OA
ENDBRANCH   7   8
ENDBRANCH   6   7
ENDBRANCH   5   6
ENDBRANCH   4   5
ENDBRANCH   3   4
ENDBRANCH   2   3
ENDBRANCH   1   2
BRANCH   1  11
ATOM     11  C   UNL     1      28.955  13.022 -11.249  1.00  0.00     0.000 C 
BRANCH  11  12
ATOM     12  C   UNL     1      27.545  12.756 -11.800  1.00  0.00     0.000 C 
BRANCH  12  13
ATOM     13  C   UNL     1      27.500  12.749 -13.337  1.00  0.00     0.000 C 
BRANCH  13  14
ATOM     14  C   UNL     1      26.162  13.267 -13.896  1.00  0.00     0.000 C 
BRANCH  14  15
ATOM     15  C   UNL     1      25.167  13.767 -12.832  1.00  0.00     0.000 C 
BRANCH  15  16
ATOM     16  C   UNL     1      24.997  15.295 -12.842  1.00  0.00     0.006 C 
BRANCH  16  17
ATOM     17  C   UNL     1      24.663  15.801 -14.249  1.00  0.00     0.053 C 
BRANCH  17  18
ATOM     18  C   UNL     1      25.471  17.017 -14.575  1.00  0.00     0.041 C 
ATOM     19  O   UNL     1      26.630  17.154 -14.100  1.00  0.00    -0.550 OA
ATOM     20  O   UNL     1      24.930  18.022 -15.367  1.00  0.00    -0.550 OA
ENDBRANCH  17  18
ENDBRANCH  16  17
ENDBRANCH  15  16
ENDBRANCH  14  15
ENDBRANCH  13  14
ENDBRANCH  12  13
ENDBRANCH  11  12
ENDBRANCH   1  11
TORSDOF 15
ENDMDL
MODEL 4
REMARK VINA RESULT:    -5.017      5.820      7.579
REMARK INTER + INTRA:         -10.544
REMARK INTER:                  -8.793
REMARK INTRA:                  -1.751
REMARK UNBOUND:                -1.128
REMARK SMILES O=C([O-])CCCCCCCCCCCCCCC(=O)[O-]
REMARK SMILES IDX 10 1 9 2 8 3 7 4 6 5 5 6 4 7 2 8 1 9 3 10 11 11 12 12 13 13
REMARK SMILES IDX 14 14 15 15 16 16 17 17 18 18 19 19 20 20
REMARK H PARENT
REMARK Flexibility Score: inf
ROOT
ATOM      1  C   UNL     1      27.805  15.176 -10.317  1.00  0.00     0.000 C 
ENDROOT
BRANCH   1   2
ATOM      2  C   UNL     1      26.729  15.167  -9.220  1.00  0.00     0.000 C 
BRANCH   2   3
ATOM      3  C   UNL     1      25.461  15.935  -9.628  1.00  0.00     0.000 C 
BRANCH   3   4
ATOM      4  C   UNL     1      25.717  16.920 -10.781  1.00  0.00     0.000 C 
BRANCH   4   5
ATOM      5  C   UNL     1      24.876  18.203 -10.660  1.00  0.00     0.000 C 
BRANCH   5   6
ATOM      6  C   UNL     1      25.084  19.164 -11.845  1.00  0.00     0.006 C 
BRANCH   6   7
ATOM      7  C   UNL     1      24.015  19.044 -12.943  1.00  0.00     0.053 C 
BRANCH   7   8
ATOM      8  C   UNL     1      24.600  19.210 -14.312  1.00  0.00     0.041 C 
ATOM      9  O   UNL     1      23.854  19.466 -15.293  1.00  0.00    -0.550 OA
ATOM     10  O   UNL     1      25.966  19.043 -14.512  1.00  0.00    -0.550 OA
ENDBRANCH   7   8
ENDBRANCH   6   7
ENDBRANCH   5   6
ENDBRANCH   4   5
ENDBRANCH   3   4
ENDBRANCH   2   3
ENDBRANCH   1   2
BRANCH   1  11
ATOM     11  C   UNL     1      28.848  14.059 -10.139  1.00  0.00     0.000 C 
BRANCH  11  12
ATOM     12  C   UNL     1      28.928  13.129 -11.360  1.00  0.00     0.000 C 
BRANCH  12  13
ATOM     13  C   UNL     1      27.544  12.660 -11.840  1.00  0.00     0.000 C 
BRANCH  13  14
ATOM     14  C   UNL     1      27.393  12.718 -13.371  1.00  0.00     0.000 C 
BRANCH  14  15
ATOM     15  C   UNL     1      26.086  13.363 -13.869  1.00  0.00     0.000 C 
BRANCH  15  16
ATOM     16  C   UNL     1      26.088  14.895 -13.742  1.00  0.00     0.006 C 
BRANCH  16  17
ATOM     17  C   UNL     1      24.967  15.518 -14.579  1.00  0.00     0.053 C 
BRANCH  17  18
ATOM     18  C   UNL     1      25.492  15.975 -15.903  1.00  0.00     0.041 C 
ATOM     19  O   UNL     1      24.696  16.317 -16.817  1.00  0.00    -0.550 OA
ATOM     20  O   UNL     1      26.861  15.981 -16.145  1.00  0.00    -0.550 OA
ENDBRANCH  17  18
ENDBRANCH  16  17
ENDBRANCH  15  16
ENDBRANCH  14  15
ENDBRANCH  13  14
ENDBRANCH  12  13
ENDBRANCH  11  12
ENDBRANCH   1  11
TORSDOF 15
ENDMDL
MODEL 5
REMARK VINA RESULT:    -5.006      5.127      6.635
REMARK INTER + INTRA:         -10.524
REMARK INTER:                  -8.259
REMARK INTRA:                  -2.266
REMARK UNBOUND:                -1.128
REMARK SMILES O=C([O-])CCCCCCCCCCCCCCC(=O)[O-]
REMARK SMILES IDX 10 1 9 2 8 3 7 4 6 5 5 6 4 7 2 8 1 9 3 10 11 11 12 12 13 13
REMARK SMILES IDX 14 14 15 15 16 16 17 17 18 18 19 19 20 20
REMARK H PARENT
REMARK Flexibility Score: inf
ROOT
ATOM      1  C   UNL     1      25.514  14.106 -12.629  1.00  0.00     0.000 C 
ENDROOT
BRANCH   1   2
ATOM      2  C   UNL     1      25.157  15.585 -12.843  1.00  0.00     0.000 C 
BRANCH   2   3
ATOM      3  C   UNL     1      26.390  16.454 -13.143  1.00  0.00     0.000 C 
BRANCH   3   4
ATOM      4  C   UNL     1      26.752  17.382 -11.971  1.00  0.00     0.000 C 
BRANCH   4   5
ATOM      5  C   UNL     1      25.519  17.822 -11.162  1.00  0.00     0.000 C 
BRANCH   5   6
ATOM      6  C   UNL     1      25.077  19.260 -11.486  1.00  0.00     0.006 C 
BRANCH   6   7
ATOM      7  C   UNL     1      24.178  19.373 -12.728  1.00  0.00     0.053 C 
BRANCH   7   8
ATOM      8  C   UNL     1      22.884  18.640 -12.550  1.00  0.00     0.041 C 
ATOM      9  O   UNL     1      22.236  18.752 -11.476  1.00  0.00    -0.550 OA
ATOM     10  O   UNL     1      22.413  17.803 -13.554  1.00  0.00    -0.550 OA
ENDBRANCH   7   8
ENDBRANCH   6   7
ENDBRANCH   5   6
ENDBRANCH   4   5
ENDBRANCH   3   4
ENDBRANCH   2   3
ENDBRANCH   1   2
BRANCH   1  11
ATOM     11  C   UNL     1      26.413  13.541 -13.744  1.00  0.00     0.000 C 
BRANCH  11  12
ATOM     12  C   UNL     1      27.544  12.657 -13.196  1.00  0.00     0.000 C 
BRANCH  12  13
ATOM     13  C   UNL     1      27.592  12.640 -11.659  1.00  0.00     0.000 C 
BRANCH  13  14
ATOM     14  C   UNL     1      28.913  13.198 -11.098  1.00  0.00     0.000 C 
BRANCH  14  15
ATOM     15  C   UNL     1      28.782  14.534 -10.342  1.00  0.00     0.000 C 
BRANCH  15  16
ATOM     16  C   UNL     1      28.015  14.399  -9.017  1.00  0.00     0.006 C 
BRANCH  16  17
ATOM     17  C   UNL     1      26.697  15.178  -9.063  1.00  0.00     0.053 C 
BRANCH  17  18
ATOM     18  C   UNL     1      25.533  14.247  -8.937  1.00  0.00     0.041 C 
ATOM     19  O   UNL     1      25.723  13.018  -8.742  1.00  0.00    -0.550 OA
ATOM     20  O   UNL     1      24.237  14.729  -9.079  1.00  0.00    -0.550 OA
ENDBRANCH  17  18
ENDBRANCH  16  17
ENDBRANCH  15  16
ENDBRANCH  14  15
ENDBRANCH  13  14
ENDBRANCH  12  13
ENDBRANCH  11  12
ENDBRANCH   1  11
TORSDOF 15
ENDMDL
MODEL 6
REMARK VINA RESULT:    -4.993      5.109      7.678
REMARK INTER + INTRA:         -10.500
REMARK INTER:                  -8.340
REMARK INTRA:                  -2.159
REMARK UNBOUND:                -1.128
REMARK SMILES O=C([O-])CCCCCCCCCCCCCCC(=O)[O-]
REMARK SMILES IDX 10 1 9 2 8 3 7 4 6 5 5 6 4 7 2 8 1 9 3 10 11 11 12 12 13 13
REMARK SMILES IDX 14 14 15 15 16 16 17 17 18 18 19 19 20 20
REMARK H PARENT
REMARK Flexibility Score: inf
ROOT
ATOM      1  C   UNL     1      28.385  14.285 -10.059  1.00  0.00     0.000 C 
ENDROOT
BRANCH   1   2
ATOM      2  C   UNL     1      28.624  15.696 -10.619  1.00  0.00     0.000 C 
BRANCH   2   3
ATOM      3  C   UNL     1      27.317  16.412 -10.998  1.00  0.00     0.000 C 
BRANCH   3   4
ATOM      4  C   UNL     1      27.523  17.462 -12.104  1.00  0.00     0.000 C 
BRANCH   4   5
ATOM      5  C   UNL     1      26.275  18.333 -12.330  1.00  0.00     0.000 C 
BRANCH   5   6
ATOM      6  C   UNL     1      25.282  18.266 -11.156  1.00  0.00     0.006 C 
BRANCH   6   7
ATOM      7  C   UNL     1      23.806  18.244 -11.584  1.00  0.00     0.053 C 
BRANCH   7   8
ATOM      8  C   UNL     1      23.174  16.908 -11.344  1.00  0.00     0.041 C 
ATOM      9  O   UNL     1      23.841  15.977 -10.823  1.00  0.00    -0.550 OA
ATOM     10  O   UNL     1      21.859  16.679 -11.731  1.00  0.00    -0.550 OA
ENDBRANCH   7   8
ENDBRANCH   6   7
ENDBRANCH   5   6
ENDBRANCH   4   5
ENDBRANCH   3   4
ENDBRANCH   2   3
ENDBRANCH   1   2
BRANCH   1  11
ATOM     11  C   UNL     1      28.882  13.176 -11.003  1.00  0.00     0.000 C 
BRANCH  11  12
ATOM     12  C   UNL     1      27.836  12.791 -12.061  1.00  0.00     0.000 C 
BRANCH  12  13
ATOM     13  C   UNL     1      26.393  13.010 -11.575  1.00  0.00     0.000 C 
BRANCH  13  14
ATOM     14  C   UNL     1      25.431  13.383 -12.717  1.00  0.00     0.000 C 
BRANCH  14  15
ATOM     15  C   UNL     1      26.089  13.503 -14.105  1.00  0.00     0.000 C 
BRANCH  15  16
ATOM     16  C   UNL     1      26.092  14.943 -14.644  1.00  0.00     0.006 C 
BRANCH  16  17
ATOM     17  C   UNL     1      24.759  15.641 -14.355  1.00  0.00     0.053 C 
BRANCH  17  18
ATOM     18  C   UNL     1      24.439  16.626 -15.434  1.00  0.00     0.041 C 
ATOM     19  O   UNL     1      23.870  17.713 -15.151  1.00  0.00    -0.550 OA
ATOM     20  O   UNL     1      24.727  16.326 -16.760  1.00  0.00    -0.550 OA
ENDBRANCH  17  18
ENDBRANCH  16  17
ENDBRANCH  15  16
ENDBRANCH  14  15
ENDBRANCH  13  14
ENDBRANCH  12  13
ENDBRANCH  11  12
ENDBRANCH   1  11
TORSDOF 15
ENDMDL
MODEL 7
REMARK VINA RESULT:    -4.992      5.291      8.416
REMARK INTER + INTRA:         -10.498
REMARK INTER:                  -8.304
REMARK INTRA:                  -2.194
REMARK UNBOUND:                -1.128
REMARK SMILES O=C([O-])CCCCCCCCCCCCCCC(=O)[O-]
REMARK SMILES IDX 10 1 9 2 8 3 7 4 6 5 5 6 4 7 2 8 1 9 3 10 11 11 12 12 13 13
REMARK SMILES IDX 14 14 15 15 16 16 17 17 18 18 19 19 20 20
REMARK H PARENT
REMARK Flexibility Score: inf
ROOT
ATOM      1  C   UNL     1      27.493  12.816 -11.812  1.00  0.00     0.000 C 
ENDROOT
BRANCH   1   2
ATOM      2  C   UNL     1      27.377  12.662 -13.337  1.00  0.00     0.000 C 
BRANCH   2   3
ATOM      3  C   UNL     1      26.194  13.450 -13.924  1.00  0.00     0.000 C 
BRANCH   3   4
ATOM      4  C   UNL     1      26.292  14.957 -13.635  1.00  0.00     0.000 C 
BRANCH   4   5
ATOM      5  C   UNL     1      24.979  15.703 -13.931  1.00  0.00     0.000 C 
BRANCH   5   6
ATOM      6  C   UNL     1      25.103  17.224 -13.738  1.00  0.00     0.006 C 
BRANCH   6   7
ATOM      7  C   UNL     1      26.538  17.707 -13.475  1.00  0.00     0.053 C 
BRANCH   7   8
ATOM      8  C   UNL     1      27.167  18.286 -14.705  1.00  0.00     0.041 C 
ATOM      9  O   UNL     1      28.420  18.337 -14.810  1.00  0.00    -0.550 OA
ATOM     10  O   UNL     1      26.370  18.805 -15.717  1.00  0.00    -0.550 OA
ENDBRANCH   7   8
ENDBRANCH   6   7
ENDBRANCH   5   6
ENDBRANCH   4   5
ENDBRANCH   3   4
ENDBRANCH   2   3
ENDBRANCH   1   2
BRANCH   1  11
ATOM     11  C   UNL     1      28.937  13.073 -11.347  1.00  0.00     0.000 C 
BRANCH  11  12
ATOM     12  C   UNL     1      29.015  14.119 -10.223  1.00  0.00     0.000 C 
BRANCH  12  13
ATOM     13  C   UNL     1      28.106  15.333 -10.478  1.00  0.00     0.000 C 
BRANCH  13  14
ATOM     14  C   UNL     1      26.963  15.447  -9.454  1.00  0.00     0.000 C 
BRANCH  14  15
ATOM     15  C   UNL     1      25.637  15.989 -10.022  1.00  0.00     0.000 C 
BRANCH  15  16
ATOM     16  C   UNL     1      24.645  14.875 -10.392  1.00  0.00     0.006 C 
BRANCH  16  17
ATOM     17  C   UNL     1      24.763  13.691  -9.428  1.00  0.00     0.053 C 
BRANCH  17  18
ATOM     18  C   UNL     1      23.563  13.617  -8.537  1.00  0.00     0.041 C 
ATOM     19  O   UNL     1      23.369  12.603  -7.817  1.00  0.00    -0.550 OA
ATOM     20  O   UNL     1      22.634  14.650  -8.534  1.00  0.00    -0.550 OA
ENDBRANCH  17  18
ENDBRANCH  16  17
ENDBRANCH  15  16
ENDBRANCH  14  15
ENDBRANCH  13  14
ENDBRANCH  12  13
ENDBRANCH  11  12
ENDBRANCH   1  11
TORSDOF 15
ENDMDL
MODEL 8
REMARK VINA RESULT:    -4.974      2.927      9.043
REMARK INTER + INTRA:         -10.463
REMARK INTER:                  -9.106
REMARK INTRA:                  -1.356
REMARK UNBOUND:                -1.128
REMARK SMILES O=C([O-])CCCCCCCCCCCCCCC(=O)[O-]
REMARK SMILES IDX 10 1 9 2 8 3 7 4 6 5 5 6 4 7 2 8 1 9 3 10 11 11 12 12 13 13
REMARK SMILES IDX 14 14 15 15 16 16 17 17 18 18 19 19 20 20
REMARK H PARENT
REMARK Flexibility Score: inf
ROOT
ATOM      1  C   UNL     1      27.790  15.280 -10.390  1.00  0.00     0.000 C 
ENDROOT
BRANCH   1   2
ATOM      2  C   UNL     1      29.073  14.437 -10.467  1.00  0.00     0.000 C 
BRANCH   2   3
ATOM      3  C   UNL     1      28.825  13.034 -11.046  1.00  0.00     0.000 C 
BRANCH   3   4
ATOM      4  C   UNL     1      27.448  12.912 -11.720  1.00  0.00     0.000 C 
BRANCH   4   5
ATOM      5  C   UNL     1      27.553  12.649 -13.233  1.00  0.00     0.000 C 
BRANCH   5   6
ATOM      6  C   UNL     1      26.470  13.388 -14.040  1.00  0.00     0.006 C 
BRANCH   6   7
ATOM      7  C   UNL     1      25.445  14.136 -13.174  1.00  0.00     0.053 C 
BRANCH   7   8
ATOM      8  C   UNL     1      25.069  15.458 -13.769  1.00  0.00     0.041 C 
ATOM      9  O   UNL     1      25.896  16.092 -14.476  1.00  0.00    -0.550 OA
ATOM     10  O   UNL     1      23.820  16.009 -13.511  1.00  0.00    -0.550 OA
ENDBRANCH   7   8
ENDBRANCH   6   7
ENDBRANCH   5   6
ENDBRANCH   4   5
ENDBRANCH   3   4
ENDBRANCH   2   3
ENDBRANCH   1   2
BRANCH   1  11
ATOM     11  C   UNL     1      27.065  15.143  -9.040  1.00  0.00     0.000 C 
BRANCH  11  12
ATOM     12  C   UNL     1      25.587  15.558  -9.121  1.00  0.00     0.000 C 
BRANCH  12  13
ATOM     13  C   UNL     1      25.302  16.508 -10.296  1.00  0.00     0.000 C 
BRANCH  13  14
ATOM     14  C   UNL     1      24.355  17.660  -9.914  1.00  0.00     0.000 C 
BRANCH  14  15
ATOM     15  C   UNL     1      23.535  17.425  -8.631  1.00  0.00     0.000 C 
BRANCH  15  16
ATOM     16  C   UNL     1      22.034  17.234  -8.906  1.00  0.00     0.006 C 
BRANCH  16  17
ATOM     17  C   UNL     1      21.260  17.020  -7.602  1.00  0.00     0.053 C 
BRANCH  17  18
ATOM     18  C   UNL     1      20.901  18.333  -6.982  1.00  0.00     0.041 C 
ATOM     19  O   UNL     1      20.390  19.246  -7.683  1.00  0.00    -0.550 OA
ATOM     20  O   UNL     1      21.172  18.568  -5.640  1.00  0.00    -0.550 OA
ENDBRANCH  17  18
ENDBRANCH  16  17
ENDBRANCH  15  16
ENDBRANCH  14  15
ENDBRANCH  13  14
ENDBRANCH  12  13
ENDBRANCH  11  12
ENDBRANCH   1  11
TORSDOF 15
ENDMDL
MODEL 9
REMARK VINA RESULT:    -4.940      1.925      9.005
REMARK INTER + INTRA:         -10.400
REMARK INTER:                  -8.756
REMARK INTRA:                  -1.643
REMARK UNBOUND:                -1.128
REMARK SMILES O=C([O-])CCCCCCCCCCCCCCC(=O)[O-]
REMARK SMILES IDX 10 1 9 2 8 3 7 4 6 5 5 6 4 7 2 8 1 9 3 10 11 11 12 12 13 13
REMARK SMILES IDX 14 14 15 15 16 16 17 17 18 18 19 19 20 20
REMARK H PARENT
REMARK Flexibility Score: inf
ROOT
ATOM      1  C   UNL     1      24.022  17.846 -10.571  1.00  0.00     0.000 C 
ENDROOT
BRANCH   1   2
ATOM      2  C   UNL     1      25.287  18.588 -11.032  1.00  0.00     0.000 C 
BRANCH   2   3
ATOM      3  C   UNL     1      25.958  17.918 -12.242  1.00  0.00     0.000 C 
BRANCH   3   4
ATOM      4  C   UNL     1      27.262  17.196 -11.865  1.00  0.00     0.000 C 
BRANCH   4   5
ATOM      5  C   UNL     1      27.020  15.756 -11.377  1.00  0.00     0.000 C 
BRANCH   5   6
ATOM      6  C   UNL     1      27.682  15.471 -10.017  1.00  0.00     0.006 C 
BRANCH   6   7
ATOM      7  C   UNL     1      27.125  14.231  -9.298  1.00  0.00     0.053 C 
BRANCH   7   8
ATOM      8  C   UNL     1      27.551  12.960  -9.965  1.00  0.00     0.041 C 
ATOM      9  O   UNL     1      28.759  12.778 -10.269  1.00  0.00    -0.550 OA
ATOM     10  O   UNL     1      26.607  11.992 -10.287  1.00  0.00    -0.550 OA
ENDBRANCH   7   8
ENDBRANCH   6   7
ENDBRANCH   5   6
ENDBRANCH   4   5
ENDBRANCH   3   4
ENDBRANCH   2   3
ENDBRANCH   1   2
BRANCH   1  11
ATOM     11  C   UNL     1      24.177  17.211  -9.177  1.00  0.00     0.000 C 
BRANCH  11  12
ATOM     12  C   UNL     1      23.704  15.749  -9.141  1.00  0.00     0.000 C 
BRANCH  12  13
ATOM     13  C   UNL     1      22.171  15.622  -9.134  1.00  0.00     0.000 C 
BRANCH  13  14
ATOM     14  C   UNL     1      21.521  16.324  -7.928  1.00  0.00     0.000 C 
BRANCH  14  15
ATOM     15  C   UNL     1      20.475  17.395  -8.290  1.00  0.00     0.000 C 
BRANCH  15  16
ATOM     16  C   UNL     1      20.821  18.784  -7.728  1.00  0.00     0.006 C 
BRANCH  16  17
ATOM     17  C   UNL     1      21.430  18.674  -6.327  1.00  0.00     0.053 C 
BRANCH  17  18
ATOM     18  C   UNL     1      20.448  19.123  -5.291  1.00  0.00     0.041 C 
ATOM     19  O   UNL     1      19.943  20.275  -5.354  1.00  0.00    -0.550 OA
ATOM     20  O   UNL     1      20.122  18.287  -4.230  1.00  0.00    -0.550 OA
ENDBRANCH  17  18
ENDBRANCH  16  17
ENDBRANCH  15  16
ENDBRANCH  14  15
ENDBRANCH  13  14
ENDBRANCH  12  13
ENDBRANCH  11  12
ENDBRANCH   1  11
TORSDOF 15
ENDMDL
