MODEL 1
REMARK VINA RESULT:    24.404      0.000      0.000
REMARK INTER + INTRA:          33.702
REMARK INTER:                  32.250
REMARK INTRA:                   1.452
REMARK UNBOUND:                 1.452
REMARK SMILES CC[C@H](C=C[C@H](C)[C@@H]1CC[C@H]2C3=CC[C@H]4C[C@@H](O)CC[C@@]4(C)[C@H]3CC[C@]21C)C(C)C
REMARK SMILES IDX 6 1 7 2 5 3 4 4 3 5 2 6 1 7 28 8 29 9 30 10 8 11 9 12 26 13
REMARK SMILES IDX 10 14 11 15 25 16 27 17 12 18 24 19 23 20 13 21 21 22 14 23
REMARK SMILES IDX 15 24 20 25 22 26 16 27 19 28 17 29 18 30
REMARK H PARENT 18 31
REMARK Flexibility Score: inf
ROOT
ATOM      1  C   UNL     1      15.802  13.871  40.221  1.00  0.00     0.012 C 
ATOM      2  C   UNL     1      14.544  13.871  41.119  1.00  0.00     0.012 C 
ENDROOT
BRANCH   1   3
ATOM      3  C   UNL     1      16.963  13.649  41.172  1.00  0.00    -0.028 C 
ATOM      4  C   UNL     1      17.331  12.416  41.564  1.00  0.00    -0.027 C 
BRANCH   4   5
ATOM      5  C   UNL     1      18.625  12.175  42.314  1.00  0.00     0.014 C 
BRANCH   5   6
ATOM      6  C   UNL     1      19.803  12.631  41.415  1.00  0.00     0.004 C 
ATOM      7  C   UNL     1      19.767  14.121  41.063  1.00  0.00     0.004 C 
ENDBRANCH   5   6
BRANCH   5   8
ATOM      8  C   UNL     1      18.522  12.854  43.725  1.00  0.00    -0.011 C 
ATOM      9  C   UNL     1      19.794  13.633  44.096  1.00  0.00     0.008 C 
ATOM     10  C   UNL     1      17.268  13.723  43.916  1.00  0.00     0.008 C 
ENDBRANCH   5   8
ENDBRANCH   4   5
ENDBRANCH   1   3
BRANCH   1  11
ATOM     11  C   UNL     1      15.807  12.761  39.089  1.00  0.00     0.002 C 
ATOM     12  C   UNL     1      17.097  12.876  38.245  1.00  0.00     0.005 C 
ATOM     13  C   UNL     1      14.666  12.783  37.996  1.00  0.00    -0.023 C 
ATOM     14  C   UNL     1      16.741  13.639  36.977  1.00  0.00     0.009 C 
ATOM     15  C   UNL     1      15.206  13.762  36.914  1.00  0.00     0.021 C 
ATOM     16  C   UNL     1      14.520  11.347  37.387  1.00  0.00     0.008 C 
ATOM     17  C   UNL     1      13.297  13.215  38.576  1.00  0.00     0.012 C 
ATOM     18  C   UNL     1      14.671  13.520  35.494  1.00  0.00    -0.067 C 
ATOM     19  C   UNL     1      13.807  11.238  36.007  1.00  0.00     0.009 C 
ATOM     20  C   UNL     1      13.491  12.582  35.312  1.00  0.00     0.021 C 
ATOM     21  C   UNL     1      15.277  14.124  34.449  1.00  0.00    -0.027 C 
ATOM     22  C   UNL     1      12.903  12.532  33.831  1.00  0.00    -0.023 C 
ATOM     23  C   UNL     1      14.896  13.930  33.009  1.00  0.00     0.031 C 
ATOM     24  C   UNL     1      14.015  12.690  32.750  1.00  0.00     0.002 C 
ATOM     25  C   UNL     1      12.047  11.253  33.529  1.00  0.00     0.010 C 
ATOM     26  C   UNL     1      11.922  13.741  33.680  1.00  0.00     0.012 C 
ATOM     27  C   UNL     1      14.856  11.414  32.564  1.00  0.00     0.036 C 
ATOM     28  C   UNL     1      12.835   9.979  33.149  1.00  0.00     0.032 C 
ATOM     29  C   UNL     1      13.968  10.232  32.145  1.00  0.00     0.114 C 
BRANCH  29  30
ATOM     30  O   UNL     1      14.740   9.065  32.039  1.00  0.00    -0.393 OA
ATOM     31  H   UNL     1      15.183   9.088  31.152  1.00  0.00     0.210 HD
ENDBRANCH  29  30
ENDBRANCH   1  11
TORSDOF 6
ENDMDL
