MODEL 1
REMARK VINA RESULT:    -3.726      0.000      0.000
REMARK INTER + INTRA:          -6.211
REMARK INTER:                  -5.359
REMARK INTRA:                  -0.852
REMARK UNBOUND:                -0.852
REMARK SMILES CCCCCCCCCO
REMARK SMILES IDX 6 1 5 2 4 3 3 4 2 5 1 6 7 7 8 8 9 9 10 10
REMARK H PARENT 10 11
REMARK Flexibility Score: inf
ROOT
ATOM      1  C   UNL     1     120.192 118.952 118.541  1.00  0.00     0.000 C 
ENDROOT
BRANCH   1   2
ATOM      2  C   UNL     1     119.407 118.002 117.629  1.00  0.00     0.000 C 
BRANCH   2   3
ATOM      3  C   UNL     1     117.895 118.204 117.792  1.00  0.00    -0.000 C 
BRANCH   3   4
ATOM      4  C   UNL     1     117.421 117.715 119.169  1.00  0.00    -0.000 C 
BRANCH   4   5
ATOM      5  C   UNL     1     116.524 118.738 119.881  1.00  0.00    -0.003 C 
ATOM      6  C   UNL     1     116.310 120.010 119.061  1.00  0.00     0.004 C 
ENDBRANCH   4   5
ENDBRANCH   3   4
ENDBRANCH   2   3
ENDBRANCH   1   2
BRANCH   1   7
ATOM      7  C   UNL     1     119.864 120.418 118.221  1.00  0.00     0.002 C 
BRANCH   7   8
ATOM      8  C   UNL     1     119.844 121.310 119.474  1.00  0.00     0.028 C 
BRANCH   8   9
ATOM      9  C   UNL     1     119.637 120.538 120.783  1.00  0.00     0.156 C 
BRANCH   9  10
ATOM     10  O   UNL     1     118.801 121.248 121.657  1.00  0.00    -0.396 OA
ATOM     11  H   UNL     1     118.551 120.624 122.387  1.00  0.00     0.210 HD
ENDBRANCH   9  10
ENDBRANCH   8   9
ENDBRANCH   7   8
ENDBRANCH   1   7
TORSDOF 8
ENDMDL
MODEL 2
REMARK VINA RESULT:    -3.724      2.046      4.051
REMARK INTER + INTRA:          -6.209
REMARK INTER:                  -5.322
REMARK INTRA:                  -0.887
REMARK UNBOUND:                -0.852
REMARK SMILES CCCCCCCCCO
REMARK SMILES IDX 6 1 5 2 4 3 3 4 2 5 1 6 7 7 8 8 9 9 10 10
REMARK H PARENT 10 11
REMARK Flexibility Score: inf
ROOT
ATOM      1  C   UNL     1     117.502 118.658 118.566  1.00  0.00     0.000 C 
ENDROOT
BRANCH   1   2
ATOM      2  C   UNL     1     118.235 119.550 117.558  1.00  0.00     0.000 C 
BRANCH   2   3
ATOM      3  C   UNL     1     119.753 119.485 117.765  1.00  0.00    -0.000 C 
BRANCH   3   4
ATOM      4  C   UNL     1     120.119 119.748 119.234  1.00  0.00    -0.000 C 
BRANCH   4   5
ATOM      5  C   UNL     1     121.187 118.777 119.758  1.00  0.00    -0.003 C 
ATOM      6  C   UNL     1     121.264 117.485 118.945  1.00  0.00     0.004 C 
ENDBRANCH   4   5
ENDBRANCH   3   4
ENDBRANCH   2   3
ENDBRANCH   1   2
BRANCH   1   7
ATOM      7  C   UNL     1     117.613 117.177 118.174  1.00  0.00     0.002 C 
BRANCH   7   8
ATOM      8  C   UNL     1     117.812 116.254 119.388  1.00  0.00     0.028 C 
BRANCH   8   9
ATOM      9  C   UNL     1     117.936 117.001 120.723  1.00  0.00     0.156 C 
BRANCH   9  10
ATOM     10  O   UNL     1     118.951 116.444 121.515  1.00  0.00    -0.396 OA
ATOM     11  H   UNL     1     119.805 116.583 121.028  1.00  0.00     0.210 HD
ENDBRANCH   9  10
ENDBRANCH   8   9
ENDBRANCH   7   8
ENDBRANCH   1   7
TORSDOF 8
ENDMDL
MODEL 3
REMARK VINA RESULT:    -3.714      1.901      2.661
REMARK INTER + INTRA:          -6.195
REMARK INTER:                  -5.431
REMARK INTRA:                  -0.764
REMARK UNBOUND:                -0.852
REMARK SMILES CCCCCCCCCO
REMARK SMILES IDX 6 1 5 2 4 3 3 4 2 5 1 6 7 7 8 8 9 9 10 10
REMARK H PARENT 10 11
REMARK Flexibility Score: inf
ROOT
ATOM      1  C   UNL     1     119.384 119.508 117.578  1.00  0.00     0.000 C 
ENDROOT
BRANCH   1   2
ATOM      2  C   UNL     1     117.858 119.643 117.630  1.00  0.00     0.000 C 
BRANCH   2   3
ATOM      3  C   UNL     1     117.387 120.052 119.030  1.00  0.00    -0.000 C 
BRANCH   3   4
ATOM      4  C   UNL     1     116.452 118.989 119.628  1.00  0.00    -0.000 C 
BRANCH   4   5
ATOM      5  C   UNL     1     117.218 117.859 120.331  1.00  0.00    -0.003 C 
ATOM      6  C   UNL     1     117.077 116.514 119.618  1.00  0.00     0.004 C 
ENDBRANCH   4   5
ENDBRANCH   3   4
ENDBRANCH   2   3
ENDBRANCH   1   2
BRANCH   1   7
ATOM      7  C   UNL     1     119.808 118.032 117.595  1.00  0.00     0.002 C 
BRANCH   7   8
ATOM      8  C   UNL     1     120.776 117.704 118.744  1.00  0.00     0.028 C 
BRANCH   8   9
ATOM      9  C   UNL     1     121.003 118.869 119.717  1.00  0.00     0.156 C 
BRANCH   9  10
ATOM     10  O   UNL     1     121.330 118.396 120.996  1.00  0.00    -0.396 OA
ATOM     11  H   UNL     1     120.502 118.446 121.541  1.00  0.00     0.210 HD
ENDBRANCH   9  10
ENDBRANCH   8   9
ENDBRANCH   7   8
ENDBRANCH   1   7
TORSDOF 8
ENDMDL
MODEL 4
REMARK VINA RESULT:    -3.682      1.756      2.745
REMARK INTER + INTRA:          -6.149
REMARK INTER:                  -5.359
REMARK INTRA:                  -0.790
REMARK UNBOUND:                -0.852
REMARK SMILES CCCCCCCCCO
REMARK SMILES IDX 6 1 5 2 4 3 3 4 2 5 1 6 7 7 8 8 9 9 10 10
REMARK H PARENT 10 11
REMARK Flexibility Score: inf
ROOT
ATOM      1  C   UNL     1     118.960 117.537 118.437  1.00  0.00     0.000 C 
ENDROOT
BRANCH   1   2
ATOM      2  C   UNL     1     118.163 118.250 117.339  1.00  0.00     0.000 C 
BRANCH   2   3
ATOM      3  C   UNL     1     117.971 119.734 117.672  1.00  0.00    -0.000 C 
BRANCH   3   4
ATOM      4  C   UNL     1     117.498 119.916 119.122  1.00  0.00    -0.000 C 
BRANCH   4   5
ATOM      5  C   UNL     1     118.334 120.950 119.890  1.00  0.00    -0.003 C 
ATOM      6  C   UNL     1     119.684 121.230 119.229  1.00  0.00     0.004 C 
ENDBRANCH   4   5
ENDBRANCH   3   4
ENDBRANCH   2   3
ENDBRANCH   1   2
BRANCH   1   7
ATOM      7  C   UNL     1     120.468 117.778 118.269  1.00  0.00     0.002 C 
BRANCH   7   8
ATOM      8  C   UNL     1     121.255 117.554 119.571  1.00  0.00     0.028 C 
BRANCH   8   9
ATOM      9  C   UNL     1     120.487 117.954 120.838  1.00  0.00     0.156 C 
BRANCH   9  10
ATOM     10  O   UNL     1     121.181 118.940 121.554  1.00  0.00    -0.396 OA
ATOM     11  H   UNL     1     122.146 118.714 121.492  1.00  0.00     0.210 HD
ENDBRANCH   9  10
ENDBRANCH   8   9
ENDBRANCH   7   8
ENDBRANCH   1   7
TORSDOF 8
ENDMDL
MODEL 5
REMARK VINA RESULT:    -3.676      1.822      2.408
REMARK INTER + INTRA:          -6.140
REMARK INTER:                  -5.471
REMARK INTRA:                  -0.669
REMARK UNBOUND:                -0.852
REMARK SMILES CCCCCCCCCO
REMARK SMILES IDX 6 1 5 2 4 3 3 4 2 5 1 6 7 7 8 8 9 9 10 10
REMARK H PARENT 10 11
REMARK Flexibility Score: inf
ROOT
ATOM      1  C   UNL     1     118.215 120.094 118.227  1.00  0.00     0.000 C 
ENDROOT
BRANCH   1   2
ATOM      2  C   UNL     1     119.320 119.420 117.406  1.00  0.00     0.000 C 
BRANCH   2   3
ATOM      3  C   UNL     1     119.341 117.906 117.646  1.00  0.00    -0.000 C 
BRANCH   3   4
ATOM      4  C   UNL     1     117.953 117.396 118.061  1.00  0.00    -0.000 C 
BRANCH   4   5
ATOM      5  C   UNL     1     118.005 116.480 119.293  1.00  0.00    -0.003 C 
ATOM      6  C   UNL     1     119.250 116.711 120.151  1.00  0.00     0.004 C 
ENDBRANCH   4   5
ENDBRANCH   3   4
ENDBRANCH   2   3
ENDBRANCH   1   2
BRANCH   1   7
ATOM      7  C   UNL     1     118.796 120.788 119.468  1.00  0.00     0.002 C 
BRANCH   7   8
ATOM      8  C   UNL     1     120.190 121.387 119.217  1.00  0.00     0.028 C 
BRANCH   8   9
ATOM      9  C   UNL     1     121.226 121.019 120.288  1.00  0.00     0.156 C 
BRANCH   9  10
ATOM     10  O   UNL     1     121.591 119.669 120.189  1.00  0.00    -0.396 OA
ATOM     11  H   UNL     1     121.691 119.469 119.221  1.00  0.00     0.210 HD
ENDBRANCH   9  10
ENDBRANCH   8   9
ENDBRANCH   7   8
ENDBRANCH   1   7
TORSDOF 8
ENDMDL
MODEL 6
REMARK VINA RESULT:    -3.676      2.065      3.456
REMARK INTER + INTRA:          -6.139
REMARK INTER:                  -5.394
REMARK INTRA:                  -0.745
REMARK UNBOUND:                -0.852
REMARK SMILES CCCCCCCCCO
REMARK SMILES IDX 6 1 5 2 4 3 3 4 2 5 1 6 7 7 8 8 9 9 10 10
REMARK H PARENT 10 11
REMARK Flexibility Score: inf
ROOT
ATOM      1  C   UNL     1     119.394 118.205 117.521  1.00  0.00     0.000 C 
ENDROOT
BRANCH   1   2
ATOM      2  C   UNL     1     119.582 119.726 117.565  1.00  0.00     0.000 C 
BRANCH   2   3
ATOM      3  C   UNL     1     120.045 120.185 118.953  1.00  0.00    -0.000 C 
BRANCH   3   4
ATOM      4  C   UNL     1     119.079 121.227 119.538  1.00  0.00    -0.000 C 
BRANCH   4   5
ATOM      5  C   UNL     1     117.961 120.588 120.375  1.00  0.00    -0.003 C 
ATOM      6  C   UNL     1     116.598 120.646 119.685  1.00  0.00     0.004 C 
ENDBRANCH   4   5
ENDBRANCH   3   4
ENDBRANCH   2   3
ENDBRANCH   1   2
BRANCH   1   7
ATOM      7  C   UNL     1     117.925 117.824 117.758  1.00  0.00     0.002 C 
BRANCH   7   8
ATOM      8  C   UNL     1     117.760 116.718 118.814  1.00  0.00     0.028 C 
BRANCH   8   9
ATOM      9  C   UNL     1     118.609 116.931 120.074  1.00  0.00     0.156 C 
BRANCH   9  10
ATOM     10  O   UNL     1     119.515 115.874 120.252  1.00  0.00    -0.396 OA
ATOM     11  H   UNL     1     120.325 116.099 119.723  1.00  0.00     0.210 HD
ENDBRANCH   9  10
ENDBRANCH   8   9
ENDBRANCH   7   8
ENDBRANCH   1   7
TORSDOF 8
ENDMDL
MODEL 7
REMARK VINA RESULT:    -3.671      1.446      2.550
REMARK INTER + INTRA:          -6.132
REMARK INTER:                  -5.374
REMARK INTRA:                  -0.758
REMARK UNBOUND:                -0.852
REMARK SMILES CCCCCCCCCO
REMARK SMILES IDX 6 1 5 2 4 3 3 4 2 5 1 6 7 7 8 8 9 9 10 10
REMARK H PARENT 10 11
REMARK Flexibility Score: inf
ROOT
ATOM      1  C   UNL     1     118.043 119.376 117.699  1.00  0.00     0.000 C 
ENDROOT
BRANCH   1   2
ATOM      2  C   UNL     1     117.954 117.846 117.734  1.00  0.00     0.000 C 
BRANCH   2   3
ATOM      3  C   UNL     1     117.663 117.342 119.153  1.00  0.00    -0.000 C 
BRANCH   3   4
ATOM      4  C   UNL     1     118.774 116.401 119.641  1.00  0.00    -0.000 C 
BRANCH   4   5
ATOM      5  C   UNL     1     119.921 117.152 120.333  1.00  0.00    -0.003 C 
ATOM      6  C   UNL     1     121.228 117.098 119.541  1.00  0.00     0.004 C 
ENDBRANCH   4   5
ENDBRANCH   3   4
ENDBRANCH   2   3
ENDBRANCH   1   2
BRANCH   1   7
ATOM      7  C   UNL     1     119.507 119.842 117.706  1.00  0.00     0.002 C 
BRANCH   7   8
ATOM      8  C   UNL     1     119.829 120.770 118.889  1.00  0.00     0.028 C 
BRANCH   8   9
ATOM      9  C   UNL     1     118.655 120.978 119.854  1.00  0.00     0.156 C 
BRANCH   9  10
ATOM     10  O   UNL     1     119.112 121.347 121.128  1.00  0.00    -0.396 OA
ATOM     11  H   UNL     1     120.075 121.568 121.034  1.00  0.00     0.210 HD
ENDBRANCH   9  10
ENDBRANCH   8   9
ENDBRANCH   7   8
ENDBRANCH   1   7
TORSDOF 8
ENDMDL
MODEL 8
REMARK VINA RESULT:    -3.669      2.109      3.359
REMARK INTER + INTRA:          -6.130
REMARK INTER:                  -5.303
REMARK INTRA:                  -0.827
REMARK UNBOUND:                -0.852
REMARK SMILES CCCCCCCCCO
REMARK SMILES IDX 6 1 5 2 4 3 3 4 2 5 1 6 7 7 8 8 9 9 10 10
REMARK H PARENT 10 11
REMARK Flexibility Score: inf
ROOT
ATOM      1  C   UNL     1     119.575 117.820 118.039  1.00  0.00     0.000 C 
ENDROOT
BRANCH   1   2
ATOM      2  C   UNL     1     118.234 118.187 117.394  1.00  0.00     0.000 C 
BRANCH   2   3
ATOM      3  C   UNL     1     117.931 119.681 117.561  1.00  0.00    -0.000 C 
BRANCH   3   4
ATOM      4  C   UNL     1     116.925 119.914 118.698  1.00  0.00    -0.000 C 
BRANCH   4   5
ATOM      5  C   UNL     1     117.577 120.527 119.946  1.00  0.00    -0.003 C 
ATOM      6  C   UNL     1     118.971 121.091 119.670  1.00  0.00     0.004 C 
ENDBRANCH   4   5
ENDBRANCH   3   4
ENDBRANCH   2   3
ENDBRANCH   1   2
BRANCH   1   7
ATOM      7  C   UNL     1     119.362 117.085 119.371  1.00  0.00     0.002 C 
BRANCH   7   8
ATOM      8  C   UNL     1     117.994 116.390 119.456  1.00  0.00     0.028 C 
BRANCH   8   9
ATOM      9  C   UNL     1     117.211 116.711 120.736  1.00  0.00     0.156 C 
BRANCH   9  10
ATOM     10  O   UNL     1     115.869 116.995 120.445  1.00  0.00    -0.396 OA
ATOM     11  H   UNL     1     115.319 116.425 121.043  1.00  0.00     0.210 HD
ENDBRANCH   9  10
ENDBRANCH   8   9
ENDBRANCH   7   8
ENDBRANCH   1   7
TORSDOF 8
ENDMDL
MODEL 9
REMARK VINA RESULT:    -3.668      1.929      3.975
REMARK INTER + INTRA:          -6.128
REMARK INTER:                  -5.334
REMARK INTRA:                  -0.795
REMARK UNBOUND:                -0.852
REMARK SMILES CCCCCCCCCO
REMARK SMILES IDX 6 1 5 2 4 3 3 4 2 5 1 6 7 7 8 8 9 9 10 10
REMARK H PARENT 10 11
REMARK Flexibility Score: inf
ROOT
ATOM      1  C   UNL     1     118.234 119.377 117.713  1.00  0.00     0.000 C 
ENDROOT
BRANCH   1   2
ATOM      2  C   UNL     1     119.726 119.731 117.715  1.00  0.00     0.000 C 
BRANCH   2   3
ATOM      3  C   UNL     1     120.140 120.371 119.046  1.00  0.00    -0.000 C 
BRANCH   3   4
ATOM      4  C   UNL     1     120.815 119.341 119.964  1.00  0.00    -0.000 C 
BRANCH   4   5
ATOM      5  C   UNL     1     121.278 118.089 119.205  1.00  0.00    -0.003 C 
ATOM      6  C   UNL     1     121.060 116.800 119.998  1.00  0.00     0.004 C 
ENDBRANCH   4   5
ENDBRANCH   3   4
ENDBRANCH   2   3
ENDBRANCH   1   2
BRANCH   1   7
ATOM      7  C   UNL     1     118.022 117.883 117.426  1.00  0.00     0.002 C 
BRANCH   7   8
ATOM      8  C   UNL     1     117.568 117.097 118.667  1.00  0.00     0.028 C 
BRANCH   8   9
ATOM      9  C   UNL     1     117.336 117.972 119.906  1.00  0.00     0.156 C 
BRANCH   9  10
ATOM     10  O   UNL     1     115.968 118.074 120.198  1.00  0.00    -0.396 OA
ATOM     11  H   UNL     1     115.560 117.197 119.974  1.00  0.00     0.210 HD
ENDBRANCH   9  10
ENDBRANCH   8   9
ENDBRANCH   7   8
ENDBRANCH   1   7
TORSDOF 8
ENDMDL
