MODEL 1
REMARK VINA RESULT:    -4.056      0.000      0.000
REMARK INTER + INTRA:          -5.010
REMARK INTER:                  -4.886
REMARK INTRA:                  -0.123
REMARK UNBOUND:                -0.123
REMARK SMILES CC[C@H](C)[C@@H]([NH3+])C(=O)[O-]
REMARK SMILES IDX 3 1 4 2 5 3 6 4 7 8 8 9 9 10 2 11 1 12
REMARK H PARENT 6 5 6 6 6 7
REMARK Flexibility Score: inf
ROOT
ATOM      1  C   UNL     1      23.671   6.020  15.813  1.00  0.00     0.050 C 
ATOM      2  C   UNL     1      22.271   6.527  15.414  1.00  0.00     0.014 C 
ENDROOT
BRANCH   1   3
ATOM      3  C   UNL     1      24.641   6.007  14.586  1.00  0.00     0.230 C 
BRANCH   3   4
ATOM      4  N   UNL     1      24.124   6.801  13.460  1.00  0.00    -0.350 N 
ATOM      5  H   UNL     1      24.879   7.411  13.070  1.00  0.00     0.345 HD
ATOM      6  H   UNL     1      23.358   7.435  13.786  1.00  0.00     0.345 HD
ATOM      7  H   UNL     1      23.751   6.176  12.708  1.00  0.00     0.345 HD
ENDBRANCH   3   4
BRANCH   3   8
ATOM      8  C   UNL     1      26.006   6.522  14.971  1.00  0.00     0.099 C 
ATOM      9  O   UNL     1      26.356   7.693  14.666  1.00  0.00    -0.544 OA
ATOM     10  O   UNL     1      26.889   5.702  15.663  1.00  0.00    -0.544 OA
ENDBRANCH   3   8
ENDBRANCH   1   3
BRANCH   1  11
ATOM     11  C   UNL     1      23.569   4.605  16.447  1.00  0.00     0.006 C 
ATOM     12  C   UNL     1      24.085   3.494  15.530  1.00  0.00     0.004 C 
ENDBRANCH   1  11
TORSDOF 4
ENDMDL
MODEL 2
REMARK VINA RESULT:    -3.784      2.697      3.865
REMARK INTER + INTRA:          -4.681
REMARK INTER:                  -4.617
REMARK INTRA:                  -0.065
REMARK UNBOUND:                -0.123
REMARK SMILES CC[C@H](C)[C@@H]([NH3+])C(=O)[O-]
REMARK SMILES IDX 3 1 4 2 5 3 6 4 7 8 8 9 9 10 2 11 1 12
REMARK H PARENT 6 5 6 6 6 7
REMARK Flexibility Score: inf
ROOT
ATOM      1  C   UNL     1      25.556   5.966  15.638  1.00  0.00     0.050 C 
ATOM      2  C   UNL     1      26.866   5.336  16.154  1.00  0.00     0.014 C 
ENDROOT
BRANCH   1   3
ATOM      3  C   UNL     1      24.446   4.883  15.438  1.00  0.00     0.230 C 
BRANCH   3   4
ATOM      4  N   UNL     1      24.903   3.538  15.825  1.00  0.00    -0.350 N 
ATOM      5  H   UNL     1      24.341   2.809  15.330  1.00  0.00     0.345 HD
ATOM      6  H   UNL     1      24.760   3.390  16.851  1.00  0.00     0.345 HD
ATOM      7  H   UNL     1      25.918   3.415  15.603  1.00  0.00     0.345 HD
ENDBRANCH   3   4
BRANCH   3   8
ATOM      8  C   UNL     1      23.205   5.231  16.224  1.00  0.00     0.099 C 
ATOM      9  O   UNL     1      23.008   4.726  17.361  1.00  0.00    -0.544 OA
ATOM     10  O   UNL     1      22.269   6.109  15.693  1.00  0.00    -0.544 OA
ENDBRANCH   3   8
ENDBRANCH   1   3
BRANCH   1  11
ATOM     11  C   UNL     1      25.817   6.735  14.314  1.00  0.00     0.006 C 
ATOM     12  C   UNL     1      24.689   6.577  13.292  1.00  0.00     0.004 C 
ENDBRANCH   1  11
TORSDOF 4
ENDMDL
MODEL 3
REMARK VINA RESULT:    -3.624      2.176      3.344
REMARK INTER + INTRA:          -4.489
REMARK INTER:                  -4.362
REMARK INTRA:                  -0.127
REMARK UNBOUND:                -0.123
REMARK SMILES CC[C@H](C)[C@@H]([NH3+])C(=O)[O-]
REMARK SMILES IDX 3 1 4 2 5 3 6 4 7 8 8 9 9 10 2 11 1 12
REMARK H PARENT 6 5 6 6 6 7
REMARK Flexibility Score: inf
ROOT
ATOM      1  C   UNL     1      25.047   6.039  14.411  1.00  0.00     0.050 C 
ATOM      2  C   UNL     1      24.671   6.641  13.042  1.00  0.00     0.014 C 
ENDROOT
BRANCH   1   3
ATOM      3  C   UNL     1      23.852   6.124  15.416  1.00  0.00     0.230 C 
BRANCH   3   4
ATOM      4  N   UNL     1      22.593   6.505  14.753  1.00  0.00    -0.350 N 
ATOM      5  H   UNL     1      22.416   7.528  14.872  1.00  0.00     0.345 HD
ATOM      6  H   UNL     1      21.787   6.003  15.193  1.00  0.00     0.345 HD
ATOM      7  H   UNL     1      22.626   6.267  13.735  1.00  0.00     0.345 HD
ENDBRANCH   3   4
BRANCH   3   8
ATOM      8  C   UNL     1      23.656   4.813  16.136  1.00  0.00     0.099 C 
ATOM      9  O   UNL     1      24.137   3.748  15.665  1.00  0.00    -0.544 OA
ATOM     10  O   UNL     1      22.939   4.773  17.325  1.00  0.00    -0.544 OA
ENDBRANCH   3   8
ENDBRANCH   1   3
BRANCH   1  11
ATOM     11  C   UNL     1      26.299   6.754  14.987  1.00  0.00     0.006 C 
ATOM     12  C   UNL     1      27.201   5.828  15.806  1.00  0.00     0.004 C 
ENDBRANCH   1  11
TORSDOF 4
ENDMDL
MODEL 4
REMARK VINA RESULT:    -3.578      1.662      2.525
REMARK INTER + INTRA:          -4.433
REMARK INTER:                  -4.314
REMARK INTRA:                  -0.119
REMARK UNBOUND:                -0.123
REMARK SMILES CC[C@H](C)[C@@H]([NH3+])C(=O)[O-]
REMARK SMILES IDX 3 1 4 2 5 3 6 4 7 8 8 9 9 10 2 11 1 12
REMARK H PARENT 6 5 6 6 6 7
REMARK Flexibility Score: inf
ROOT
ATOM      1  C   UNL     1      24.041   4.930  15.421  1.00  0.00     0.050 C 
ATOM      2  C   UNL     1      24.262   3.429  15.694  1.00  0.00     0.014 C 
ENDROOT
BRANCH   1   3
ATOM      3  C   UNL     1      25.345   5.752  15.679  1.00  0.00     0.230 C 
BRANCH   3   4
ATOM      4  N   UNL     1      26.521   4.887  15.868  1.00  0.00    -0.350 N 
ATOM      5  H   UNL     1      27.086   4.846  14.990  1.00  0.00     0.345 HD
ATOM      6  H   UNL     1      26.218   3.909  16.083  1.00  0.00     0.345 HD
ATOM      7  H   UNL     1      27.114   5.239  16.655  1.00  0.00     0.345 HD
ENDBRANCH   3   4
BRANCH   3   8
ATOM      8  C   UNL     1      25.613   6.711  14.545  1.00  0.00     0.099 C 
ATOM      9  O   UNL     1      26.453   7.640  14.680  1.00  0.00    -0.544 OA
ATOM     10  O   UNL     1      24.930   6.575  13.343  1.00  0.00    -0.544 OA
ENDBRANCH   3   8
ENDBRANCH   1   3
BRANCH   1  11
ATOM     11  C   UNL     1      22.872   5.467  16.291  1.00  0.00     0.006 C 
ATOM     12  C   UNL     1      22.111   6.622  15.636  1.00  0.00     0.004 C 
ENDBRANCH   1  11
TORSDOF 4
ENDMDL
MODEL 5
REMARK VINA RESULT:    -3.434      2.169      3.069
REMARK INTER + INTRA:          -4.259
REMARK INTER:                  -4.208
REMARK INTRA:                  -0.052
REMARK UNBOUND:                -0.123
REMARK SMILES CC[C@H](C)[C@@H]([NH3+])C(=O)[O-]
REMARK SMILES IDX 3 1 4 2 5 3 6 4 7 8 8 9 9 10 2 11 1 12
REMARK H PARENT 6 5 6 6 6 7
REMARK Flexibility Score: inf
ROOT
ATOM      1  C   UNL     1      23.118   6.046  15.309  1.00  0.00     0.050 C 
ATOM      2  C   UNL     1      21.815   6.764  15.714  1.00  0.00     0.014 C 
ENDROOT
BRANCH   1   3
ATOM      3  C   UNL     1      23.765   5.314  16.530  1.00  0.00     0.230 C 
BRANCH   3   4
ATOM      4  N   UNL     1      22.776   4.557  17.315  1.00  0.00    -0.350 N 
ATOM      5  H   UNL     1      22.621   5.016  18.241  1.00  0.00     0.345 HD
ATOM      6  H   UNL     1      23.131   3.592  17.508  1.00  0.00     0.345 HD
ATOM      7  H   UNL     1      21.869   4.488  16.797  1.00  0.00     0.345 HD
ENDBRANCH   3   4
BRANCH   3   8
ATOM      8  C   UNL     1      24.862   4.380  16.081  1.00  0.00     0.099 C 
ATOM      9  O   UNL     1      24.584   3.225  15.661  1.00  0.00    -0.544 OA
ATOM     10  O   UNL     1      26.189   4.789  16.131  1.00  0.00    -0.544 OA
ENDBRANCH   3   8
ENDBRANCH   1   3
BRANCH   1  11
ATOM     11  C   UNL     1      24.116   7.058  14.683  1.00  0.00     0.006 C 
ATOM     12  C   UNL     1      24.651   6.613  13.320  1.00  0.00     0.004 C 
ENDBRANCH   1  11
TORSDOF 4
ENDMDL
MODEL 6
REMARK VINA RESULT:    -3.290      2.192      2.873
REMARK INTER + INTRA:          -4.087
REMARK INTER:                  -4.066
REMARK INTRA:                  -0.021
REMARK UNBOUND:                -0.123
REMARK SMILES CC[C@H](C)[C@@H]([NH3+])C(=O)[O-]
REMARK SMILES IDX 3 1 4 2 5 3 6 4 7 8 8 9 9 10 2 11 1 12
REMARK H PARENT 6 5 6 6 6 7
REMARK Flexibility Score: inf
ROOT
ATOM      1  C   UNL     1      26.013   5.436  15.502  1.00  0.00     0.050 C 
ATOM      2  C   UNL     1      27.371   5.541  16.224  1.00  0.00     0.014 C 
ENDROOT
BRANCH   1   3
ATOM      3  C   UNL     1      25.477   6.846  15.093  1.00  0.00     0.230 C 
BRANCH   3   4
ATOM      4  N   UNL     1      26.527   7.692  14.503  1.00  0.00    -0.350 N 
ATOM      5  H   UNL     1      27.356   7.737  15.139  1.00  0.00     0.345 HD
ATOM      6  H   UNL     1      26.179   8.671  14.386  1.00  0.00     0.345 HD
ATOM      7  H   UNL     1      26.818   7.321  13.569  1.00  0.00     0.345 HD
ENDBRANCH   3   4
BRANCH   3   8
ATOM      8  C   UNL     1      24.331   6.727  14.119  1.00  0.00     0.099 C 
ATOM      9  O   UNL     1      23.140   6.759  14.528  1.00  0.00    -0.544 OA
ATOM     10  O   UNL     1      24.584   6.578  12.761  1.00  0.00    -0.544 OA
ENDBRANCH   3   8
ENDBRANCH   1   3
BRANCH   1  11
ATOM     11  C   UNL     1      24.984   4.697  16.402  1.00  0.00     0.006 C 
ATOM     12  C   UNL     1      24.294   3.528  15.695  1.00  0.00     0.004 C 
ENDBRANCH   1  11
TORSDOF 4
ENDMDL
MODEL 7
REMARK VINA RESULT:    -3.261      2.696      3.597
REMARK INTER + INTRA:          -4.052
REMARK INTER:                  -4.128
REMARK INTRA:                   0.077
REMARK UNBOUND:                -0.123
REMARK SMILES CC[C@H](C)[C@@H]([NH3+])C(=O)[O-]
REMARK SMILES IDX 3 1 4 2 5 3 6 4 7 8 8 9 9 10 2 11 1 12
REMARK H PARENT 6 5 6 6 6 7
REMARK Flexibility Score: inf
ROOT
ATOM      1  C   UNL     1      24.993   6.431  15.362  1.00  0.00     0.050 C 
ATOM      2  C   UNL     1      26.037   7.137  14.474  1.00  0.00     0.014 C 
ENDROOT
BRANCH   1   3
ATOM      3  C   UNL     1      25.432   4.970  15.702  1.00  0.00     0.230 C 
BRANCH   3   4
ATOM      4  N   UNL     1      26.451   4.927  16.763  1.00  0.00    -0.350 N 
ATOM      5  H   UNL     1      26.437   3.998  17.242  1.00  0.00     0.345 HD
ATOM      6  H   UNL     1      26.244   5.649  17.492  1.00  0.00     0.345 HD
ATOM      7  H   UNL     1      27.404   5.107  16.368  1.00  0.00     0.345 HD
ENDBRANCH   3   4
BRANCH   3   8
ATOM      8  C   UNL     1      24.248   4.132  16.116  1.00  0.00     0.099 C 
ATOM      9  O   UNL     1      23.937   3.100  15.464  1.00  0.00    -0.544 OA
ATOM     10  O   UNL     1      23.491   4.497  17.222  1.00  0.00    -0.544 OA
ENDBRANCH   3   8
ENDBRANCH   1   3
BRANCH   1  11
ATOM     11  C   UNL     1      23.604   6.439  14.667  1.00  0.00     0.006 C 
ATOM     12  C   UNL     1      22.551   7.245  15.431  1.00  0.00     0.004 C 
ENDBRANCH   1  11
TORSDOF 4
ENDMDL
MODEL 8
REMARK VINA RESULT:    -3.207      2.113      2.576
REMARK INTER + INTRA:          -3.986
REMARK INTER:                  -3.922
REMARK INTRA:                  -0.064
REMARK UNBOUND:                -0.123
REMARK SMILES CC[C@H](C)[C@@H]([NH3+])C(=O)[O-]
REMARK SMILES IDX 3 1 4 2 5 3 6 4 7 8 8 9 9 10 2 11 1 12
REMARK H PARENT 6 5 6 6 6 7
REMARK Flexibility Score: inf
ROOT
ATOM      1  C   UNL     1      23.839   5.052  16.540  1.00  0.00     0.050 C 
ATOM      2  C   UNL     1      23.030   4.522  17.741  1.00  0.00     0.014 C 
ENDROOT
BRANCH   1   3
ATOM      3  C   UNL     1      22.916   5.784  15.513  1.00  0.00     0.230 C 
BRANCH   3   4
ATOM      4  N   UNL     1      21.734   6.384  16.154  1.00  0.00    -0.350 N 
ATOM      5  H   UNL     1      21.202   5.658  16.685  1.00  0.00     0.345 HD
ATOM      6  H   UNL     1      21.086   6.768  15.429  1.00  0.00     0.345 HD
ATOM      7  H   UNL     1      22.018   7.158  16.799  1.00  0.00     0.345 HD
ENDBRANCH   3   4
BRANCH   3   8
ATOM      8  C   UNL     1      23.676   6.857  14.772  1.00  0.00     0.099 C 
ATOM      9  O   UNL     1      24.330   6.573  13.733  1.00  0.00    -0.544 OA
ATOM     10  O   UNL     1      23.659   8.167  15.234  1.00  0.00    -0.544 OA
ENDBRANCH   3   8
ENDBRANCH   1   3
BRANCH   1  11
ATOM     11  C   UNL     1      24.608   3.888  15.856  1.00  0.00     0.006 C 
ATOM     12  C   UNL     1      23.702   2.725  15.446  1.00  0.00     0.004 C 
ENDBRANCH   1  11
TORSDOF 4
ENDMDL
MODEL 9
REMARK VINA RESULT:    -3.184      2.615      3.533
REMARK INTER + INTRA:          -3.959
REMARK INTER:                  -4.135
REMARK INTRA:                   0.176
REMARK UNBOUND:                -0.123
REMARK SMILES CC[C@H](C)[C@@H]([NH3+])C(=O)[O-]
REMARK SMILES IDX 3 1 4 2 5 3 6 4 7 8 8 9 9 10 2 11 1 12
REMARK H PARENT 6 5 6 6 6 7
REMARK Flexibility Score: inf
ROOT
ATOM      1  C   UNL     1      24.291   5.415  15.010  1.00  0.00     0.050 C 
ATOM      2  C   UNL     1      23.341   6.623  15.133  1.00  0.00     0.014 C 
ENDROOT
BRANCH   1   3
ATOM      3  C   UNL     1      23.785   4.206  15.863  1.00  0.00     0.230 C 
BRANCH   3   4
ATOM      4  N   UNL     1      24.689   3.047  15.777  1.00  0.00    -0.350 N 
ATOM      5  H   UNL     1      25.244   2.955  16.658  1.00  0.00     0.345 HD
ATOM      6  H   UNL     1      25.374   3.180  14.997  1.00  0.00     0.345 HD
ATOM      7  H   UNL     1      24.147   2.169  15.607  1.00  0.00     0.345 HD
ENDBRANCH   3   4
BRANCH   3   8
ATOM      8  C   UNL     1      23.618   4.599  17.310  1.00  0.00     0.099 C 
ATOM      9  O   UNL     1      22.495   4.969  17.744  1.00  0.00    -0.544 OA
ATOM     10  O   UNL     1      24.705   4.556  18.173  1.00  0.00    -0.544 OA
ENDBRANCH   3   8
ENDBRANCH   1   3
BRANCH   1  11
ATOM     11  C   UNL     1      25.731   5.820  15.430  1.00  0.00     0.006 C 
ATOM     12  C   UNL     1      26.243   7.066  14.705  1.00  0.00     0.004 C 
ENDBRANCH   1  11
TORSDOF 4
ENDMDL
