MODEL 1
REMARK VINA RESULT:    -4.011      0.000      0.000
REMARK INTER + INTRA:          -4.335
REMARK INTER:                  -4.245
REMARK INTRA:                  -0.090
REMARK UNBOUND:                -0.090
REMARK SMILES C=C(C)[C@H]1CC=C(C)C(=O)C1
REMARK SMILES IDX 8 1 7 2 6 3 5 4 4 5 11 6 9 7 10 8 2 9 1 10 3 11
REMARK H PARENT
REMARK Flexibility Score: inf
ROOT
ATOM      1  C   UNL     1     -34.024  -3.212  61.587  1.00  0.00     0.048 C 
ATOM      2  C   UNL     1     -33.502  -1.926  61.007  1.00  0.00    -0.012 C 
ATOM      3  C   UNL     1     -32.450  -1.948  60.170  1.00  0.00    -0.019 C 
ATOM      4  C   UNL     1     -31.876  -0.689  59.576  1.00  0.00     0.036 C 
ATOM      5  C   UNL     1     -32.974   0.367  59.347  1.00  0.00     0.025 C 
ATOM      6  C   UNL     1     -33.737   0.635  60.657  1.00  0.00     0.089 C 
ATOM      7  C   UNL     1     -34.223  -0.654  61.261  1.00  0.00     0.158 C 
ATOM      8  O   UNL     1     -35.231  -0.637  62.018  1.00  0.00    -0.295 OA
ENDROOT
BRANCH   5   9
ATOM      9  C   UNL     1     -32.400   1.651  58.765  1.00  0.00    -0.077 C 
ATOM     10  C   UNL     1     -32.078   1.715  57.463  1.00  0.00     0.008 C 
ATOM     11  C   UNL     1     -32.180   2.874  59.622  1.00  0.00     0.039 C 
ENDBRANCH   5   9
TORSDOF 1
ENDMDL
MODEL 2
REMARK VINA RESULT:    -3.705      2.075      3.116
REMARK INTER + INTRA:          -4.011
REMARK INTER:                  -3.918
REMARK INTRA:                  -0.093
REMARK UNBOUND:                -0.090
REMARK SMILES C=C(C)[C@H]1CC=C(C)C(=O)C1
REMARK SMILES IDX 8 1 7 2 6 3 5 4 4 5 11 6 9 7 10 8 2 9 1 10 3 11
REMARK H PARENT
REMARK Flexibility Score: inf
ROOT
ATOM      1  C   UNL     1     -31.876  -0.949  59.883  1.00  0.00     0.048 C 
ATOM      2  C   UNL     1     -32.317   0.285  59.143  1.00  0.00    -0.012 C 
ATOM      3  C   UNL     1     -31.876   0.510  57.893  1.00  0.00    -0.019 C 
ATOM      4  C   UNL     1     -32.272   1.736  57.116  1.00  0.00     0.036 C 
ATOM      5  C   UNL     1     -33.696   2.192  57.485  1.00  0.00     0.025 C 
ATOM      6  C   UNL     1     -33.813   2.402  59.005  1.00  0.00     0.089 C 
ATOM      7  C   UNL     1     -33.331   1.185  59.747  1.00  0.00     0.158 C 
ATOM      8  O   UNL     1     -33.772   0.957  60.905  1.00  0.00    -0.295 OA
ENDROOT
BRANCH   5   9
ATOM      9  C   UNL     1     -34.098   3.444  56.717  1.00  0.00    -0.077 C 
ATOM     10  C   UNL     1     -34.159   3.422  55.377  1.00  0.00     0.008 C 
ATOM     11  C   UNL     1     -34.434   4.730  57.432  1.00  0.00     0.039 C 
ENDBRANCH   5   9
TORSDOF 1
ENDMDL
MODEL 3
REMARK VINA RESULT:    -3.654      2.253      4.412
REMARK INTER + INTRA:          -3.957
REMARK INTER:                  -3.860
REMARK INTRA:                  -0.097
REMARK UNBOUND:                -0.090
REMARK SMILES C=C(C)[C@H]1CC=C(C)C(=O)C1
REMARK SMILES IDX 8 1 7 2 6 3 5 4 4 5 11 6 9 7 10 8 2 9 1 10 3 11
REMARK H PARENT
REMARK Flexibility Score: inf
ROOT
ATOM      1  C   UNL     1     -33.932   3.012  55.678  1.00  0.00     0.048 C 
ATOM      2  C   UNL     1     -33.553   2.192  56.881  1.00  0.00    -0.012 C 
ATOM      3  C   UNL     1     -32.308   1.695  56.987  1.00  0.00    -0.019 C 
ATOM      4  C   UNL     1     -31.882   0.854  58.160  1.00  0.00     0.036 C 
ATOM      5  C   UNL     1     -32.611   1.285  59.447  1.00  0.00     0.025 C 
ATOM      6  C   UNL     1     -34.135   1.256  59.232  1.00  0.00     0.089 C 
ATOM      7  C   UNL     1     -34.512   2.040  58.004  1.00  0.00     0.158 C 
ATOM      8  O   UNL     1     -35.668   2.535  57.922  1.00  0.00    -0.295 OA
ENDROOT
BRANCH   5   9
ATOM      9  C   UNL     1     -32.201   0.427  60.635  1.00  0.00    -0.077 C 
ATOM     10  C   UNL     1     -32.038  -0.897  60.486  1.00  0.00     0.008 C 
ATOM     11  C   UNL     1     -31.968   1.032  61.998  1.00  0.00     0.039 C 
ENDBRANCH   5   9
TORSDOF 1
ENDMDL
MODEL 4
REMARK VINA RESULT:    -3.653      4.566      5.451
REMARK INTER + INTRA:          -3.956
REMARK INTER:                  -3.867
REMARK INTRA:                  -0.089
REMARK UNBOUND:                -0.090
REMARK SMILES C=C(C)[C@H]1CC=C(C)C(=O)C1
REMARK SMILES IDX 8 1 7 2 6 3 5 4 4 5 11 6 9 7 10 8 2 9 1 10 3 11
REMARK H PARENT
REMARK Flexibility Score: inf
ROOT
ATOM      1  C   UNL     1     -33.546   1.998  55.367  1.00  0.00     0.048 C 
ATOM      2  C   UNL     1     -33.305   2.699  56.677  1.00  0.00    -0.012 C 
ATOM      3  C   UNL     1     -32.219   2.394  57.408  1.00  0.00    -0.019 C 
ATOM      4  C   UNL     1     -31.939   3.051  58.733  1.00  0.00     0.036 C 
ATOM      5  C   UNL     1     -32.451   4.503  58.752  1.00  0.00     0.025 C 
ATOM      6  C   UNL     1     -33.945   4.547  58.383  1.00  0.00     0.089 C 
ATOM      7  C   UNL     1     -34.195   3.810  57.096  1.00  0.00     0.158 C 
ATOM      8  O   UNL     1     -35.194   4.121  56.393  1.00  0.00    -0.295 OA
ENDROOT
BRANCH   5   9
ATOM      9  C   UNL     1     -32.189   5.170  60.095  1.00  0.00    -0.077 C 
ATOM     10  C   UNL     1     -31.875   6.474  60.149  1.00  0.00     0.008 C 
ATOM     11  C   UNL     1     -32.275   4.396  61.387  1.00  0.00     0.039 C 
ENDBRANCH   5   9
TORSDOF 1
ENDMDL
MODEL 5
REMARK VINA RESULT:    -3.632     23.200     23.804
REMARK INTER + INTRA:          -3.934
REMARK INTER:                  -3.836
REMARK INTRA:                  -0.098
REMARK UNBOUND:                -0.090
REMARK SMILES C=C(C)[C@H]1CC=C(C)C(=O)C1
REMARK SMILES IDX 8 1 7 2 6 3 5 4 4 5 11 6 9 7 10 8 2 9 1 10 3 11
REMARK H PARENT
REMARK Flexibility Score: inf
ROOT
ATOM      1  C   UNL     1     -51.678   3.598  46.737  1.00  0.00     0.048 C 
ATOM      2  C   UNL     1     -51.250   2.365  45.989  1.00  0.00    -0.012 C 
ATOM      3  C   UNL     1     -51.755   1.167  46.329  1.00  0.00    -0.019 C 
ATOM      4  C   UNL     1     -51.348  -0.100  45.625  1.00  0.00     0.036 C 
ATOM      5  C   UNL     1     -51.028   0.167  44.143  1.00  0.00     0.025 C 
ATOM      6  C   UNL     1     -49.965   1.272  44.016  1.00  0.00     0.089 C 
ATOM      7  C   UNL     1     -50.371   2.491  44.800  1.00  0.00     0.158 C 
ATOM      8  O   UNL     1     -49.924   3.618  44.458  1.00  0.00    -0.295 OA
ENDROOT
BRANCH   5   9
ATOM      9  C   UNL     1     -50.597  -1.105  43.427  1.00  0.00    -0.077 C 
ATOM     10  C   UNL     1     -49.893  -2.041  44.083  1.00  0.00     0.008 C 
ATOM     11  C   UNL     1     -50.943  -1.349  41.978  1.00  0.00     0.039 C 
ENDBRANCH   5   9
TORSDOF 1
ENDMDL
MODEL 6
REMARK VINA RESULT:    -3.614      4.604      5.675
REMARK INTER + INTRA:          -3.916
REMARK INTER:                  -3.818
REMARK INTRA:                  -0.098
REMARK UNBOUND:                -0.090
REMARK SMILES C=C(C)[C@H]1CC=C(C)C(=O)C1
REMARK SMILES IDX 8 1 7 2 6 3 5 4 4 5 11 6 9 7 10 8 2 9 1 10 3 11
REMARK H PARENT
REMARK Flexibility Score: inf
ROOT
ATOM      1  C   UNL     1     -34.380   2.333  55.370  1.00  0.00     0.048 C 
ATOM      2  C   UNL     1     -33.764   3.118  56.495  1.00  0.00    -0.012 C 
ATOM      3  C   UNL     1     -34.321   4.277  56.887  1.00  0.00    -0.019 C 
ATOM      4  C   UNL     1     -33.735   5.110  57.995  1.00  0.00     0.036 C 
ATOM      5  C   UNL     1     -33.062   4.224  59.059  1.00  0.00     0.025 C 
ATOM      6  C   UNL     1     -32.015   3.305  58.405  1.00  0.00     0.089 C 
ATOM      7  C   UNL     1     -32.619   2.551  57.251  1.00  0.00     0.158 C 
ATOM      8  O   UNL     1     -32.117   1.447  56.908  1.00  0.00    -0.295 OA
ENDROOT
BRANCH   5   9
ATOM      9  C   UNL     1     -32.449   5.059  60.175  1.00  0.00    -0.077 C 
ATOM     10  C   UNL     1     -31.895   6.250  59.898  1.00  0.00     0.008 C 
ATOM     11  C   UNL     1     -32.448   4.580  61.606  1.00  0.00     0.039 C 
ENDBRANCH   5   9
TORSDOF 1
ENDMDL
MODEL 7
REMARK VINA RESULT:    -3.597     22.803     23.596
REMARK INTER + INTRA:          -3.897
REMARK INTER:                  -3.799
REMARK INTRA:                  -0.098
REMARK UNBOUND:                -0.090
REMARK SMILES C=C(C)[C@H]1CC=C(C)C(=O)C1
REMARK SMILES IDX 8 1 7 2 6 3 5 4 4 5 11 6 9 7 10 8 2 9 1 10 3 11
REMARK H PARENT
REMARK Flexibility Score: inf
ROOT
ATOM      1  C   UNL     1     -50.548  -2.112  42.677  1.00  0.00     0.048 C 
ATOM      2  C   UNL     1     -50.711  -0.873  43.514  1.00  0.00    -0.012 C 
ATOM      3  C   UNL     1     -51.277  -0.957  44.731  1.00  0.00    -0.019 C 
ATOM      4  C   UNL     1     -51.480   0.253  45.602  1.00  0.00     0.036 C 
ATOM      5  C   UNL     1     -50.361   1.288  45.384  1.00  0.00     0.025 C 
ATOM      6  C   UNL     1     -50.255   1.654  43.892  1.00  0.00     0.089 C 
ATOM      7  C   UNL     1     -50.136   0.414  43.050  1.00  0.00     0.158 C 
ATOM      8  O   UNL     1     -49.573   0.487  41.924  1.00  0.00    -0.295 OA
ENDROOT
BRANCH   5   9
ATOM      9  C   UNL     1     -50.568   2.525  46.247  1.00  0.00    -0.077 C 
ATOM     10  C   UNL     1     -51.349   2.462  47.337  1.00  0.00     0.008 C 
ATOM     11  C   UNL     1     -49.911   3.840  45.906  1.00  0.00     0.039 C 
ENDBRANCH   5   9
TORSDOF 1
ENDMDL
MODEL 8
REMARK VINA RESULT:    -3.566     13.781     14.925
REMARK INTER + INTRA:          -3.864
REMARK INTER:                  -3.769
REMARK INTRA:                  -0.095
REMARK UNBOUND:                -0.090
REMARK SMILES C=C(C)[C@H]1CC=C(C)C(=O)C1
REMARK SMILES IDX 8 1 7 2 6 3 5 4 4 5 11 6 9 7 10 8 2 9 1 10 3 11
REMARK H PARENT
REMARK Flexibility Score: inf
ROOT
ATOM      1  C   UNL     1     -36.000  -3.645  49.005  1.00  0.00     0.048 C 
ATOM      2  C   UNL     1     -35.625  -4.773  48.084  1.00  0.00    -0.012 C 
ATOM      3  C   UNL     1     -35.188  -4.505  46.841  1.00  0.00    -0.019 C 
ATOM      4  C   UNL     1     -34.817  -5.596  45.872  1.00  0.00     0.036 C 
ATOM      5  C   UNL     1     -34.231  -6.816  46.608  1.00  0.00     0.025 C 
ATOM      6  C   UNL     1     -35.208  -7.306  47.692  1.00  0.00     0.089 C 
ATOM      7  C   UNL     1     -35.618  -6.169  48.588  1.00  0.00     0.158 C 
ATOM      8  O   UNL     1     -35.994  -6.419  49.765  1.00  0.00    -0.295 OA
ENDROOT
BRANCH   5   9
ATOM      9  C   UNL     1     -33.870  -7.932  45.638  1.00  0.00    -0.077 C 
ATOM     10  C   UNL     1     -33.344  -9.079  46.097  1.00  0.00     0.008 C 
ATOM     11  C   UNL     1     -34.091  -7.785  44.153  1.00  0.00     0.039 C 
ENDBRANCH   5   9
TORSDOF 1
ENDMDL
MODEL 9
REMARK VINA RESULT:    -3.555      1.615      2.383
REMARK INTER + INTRA:          -3.853
REMARK INTER:                  -3.765
REMARK INTRA:                  -0.087
REMARK UNBOUND:                -0.090
REMARK SMILES C=C(C)[C@H]1CC=C(C)C(=O)C1
REMARK SMILES IDX 8 1 7 2 6 3 5 4 4 5 11 6 9 7 10 8 2 9 1 10 3 11
REMARK H PARENT
REMARK Flexibility Score: inf
ROOT
ATOM      1  C   UNL     1     -34.828  -1.309  62.028  1.00  0.00     0.048 C 
ATOM      2  C   UNL     1     -34.153  -0.404  61.033  1.00  0.00    -0.012 C 
ATOM      3  C   UNL     1     -34.891   0.415  60.264  1.00  0.00    -0.019 C 
ATOM      4  C   UNL     1     -34.269   1.327  59.241  1.00  0.00     0.036 C 
ATOM      5  C   UNL     1     -32.878   1.805  59.698  1.00  0.00     0.025 C 
ATOM      6  C   UNL     1     -31.980   0.599  60.028  1.00  0.00     0.089 C 
ATOM      7  C   UNL     1     -32.671  -0.328  60.990  1.00  0.00     0.158 C 
ATOM      8  O   UNL     1     -31.977  -1.070  61.734  1.00  0.00    -0.295 OA
ENDROOT
BRANCH   5   9
ATOM      9  C   UNL     1     -32.232   2.713  58.660  1.00  0.00    -0.077 C 
ATOM     10  C   UNL     1     -31.875   3.964  58.989  1.00  0.00     0.008 C 
ATOM     11  C   UNL     1     -31.975   2.238  57.251  1.00  0.00     0.039 C 
ENDBRANCH   5   9
TORSDOF 1
ENDMDL
