MODEL 1
REMARK VINA RESULT:    -7.514      0.000      0.000
REMARK INTER + INTRA:          -8.903
REMARK INTER:                  -9.051
REMARK INTRA:                   0.148
REMARK UNBOUND:                 0.148
REMARK SMILES Oc1cc(O)c2c(c1)O[C@@H](c1ccc(O)c(O)c1)[C@H](O)C2
REMARK SMILES IDX 21 1 19 2 10 3 9 4 7 5 8 6 2 7 3 8 4 9 6 10 20 11 11 13
REMARK SMILES IDX 18 14 12 15 16 16 13 17 14 18 17 19 15 21 5 23 1 25
REMARK H PARENT 20 12 17 20 15 22 5 24 1 26
REMARK Flexibility Score: inf
ROOT
ATOM      1  C   UNL     1      -5.650  -3.375   8.047  1.00  0.00     0.079 C 
ATOM      2  C   UNL     1      -4.853  -4.580   7.512  1.00  0.00     0.164 C 
ATOM      3  C   UNL     1      -5.806  -5.570   6.822  1.00  0.00     0.232 C 
ATOM      4  O   UNL     1      -6.525  -4.905   5.783  1.00  0.00    -0.482 OA
ATOM      5  C   UNL     1      -6.991  -3.594   5.916  1.00  0.00     0.131 A 
ATOM      6  C   UNL     1      -7.841  -3.072   4.938  1.00  0.00     0.093 A 
ATOM      7  C   UNL     1      -8.335  -1.771   5.052  1.00  0.00     0.122 A 
ATOM      8  C   UNL     1      -7.983  -0.989   6.159  1.00  0.00     0.092 A 
ATOM      9  C   UNL     1      -7.133  -1.496   7.149  1.00  0.00     0.126 A 
ATOM     10  C   UNL     1      -6.595  -2.797   7.014  1.00  0.00     0.039 A 
ENDROOT
BRANCH   2  11
ATOM     11  O   UNL     1      -4.189  -5.220   8.571  1.00  0.00    -0.389 OA
ATOM     12  H   UNL     1      -4.520  -6.156   8.591  1.00  0.00     0.211 HD
ENDBRANCH   2  11
BRANCH   3  13
ATOM     13  C   UNL     1      -5.051  -6.744   6.245  1.00  0.00    -0.001 A 
ATOM     14  C   UNL     1      -3.646  -6.754   6.233  1.00  0.00     0.057 A 
ATOM     15  C   UNL     1      -5.747  -7.862   5.757  1.00  0.00     0.012 A 
ATOM     16  C   UNL     1      -2.945  -7.852   5.719  1.00  0.00     0.157 A 
ATOM     17  C   UNL     1      -5.052  -8.961   5.246  1.00  0.00     0.050 A 
ATOM     18  C   UNL     1      -3.650  -8.961   5.222  1.00  0.00     0.157 A 
BRANCH  16  19
ATOM     19  O   UNL     1      -1.550  -7.823   5.714  1.00  0.00    -0.504 OA
ATOM     20  H   UNL     1      -1.027  -7.028   6.059  1.00  0.00     0.293 HD
ENDBRANCH  16  19
BRANCH  18  21
ATOM     21  O   UNL     1      -2.958 -10.057   4.710  1.00  0.00    -0.504 OA
ATOM     22  H   UNL     1      -3.445 -10.857   4.322  1.00  0.00     0.293 HD
ENDBRANCH  18  21
ENDBRANCH   3  13
BRANCH   9  23
ATOM     23  O   UNL     1      -6.854  -0.686   8.252  1.00  0.00    -0.507 OA
ATOM     24  H   UNL     1      -5.965  -0.226   8.394  1.00  0.00     0.293 HD
ENDBRANCH   9  23
BRANCH   7  25
ATOM     25  O   UNL     1      -9.181  -1.268   4.067  1.00  0.00    -0.508 OA
ATOM     26  H   UNL     1      -9.889  -1.847   3.630  1.00  0.00     0.293 HD
ENDBRANCH   7  25
TORSDOF 6
ENDMDL
MODEL 2
REMARK VINA RESULT:    -7.373     11.274     12.508
REMARK INTER + INTRA:          -8.734
REMARK INTER:                  -8.363
REMARK INTRA:                  -0.371
REMARK UNBOUND:                 0.148
REMARK SMILES Oc1cc(O)c2c(c1)O[C@@H](c1ccc(O)c(O)c1)[C@H](O)C2
REMARK SMILES IDX 21 1 19 2 10 3 9 4 7 5 8 6 2 7 3 8 4 9 6 10 20 11 11 13
REMARK SMILES IDX 18 14 12 15 16 16 13 17 14 18 17 19 15 21 5 23 1 25
REMARK H PARENT 20 12 17 20 15 22 5 24 1 26
REMARK Flexibility Score: inf
ROOT
ATOM      1  C   UNL     1      -4.048  -7.223  -4.622  1.00  0.00     0.079 C 
ATOM      2  C   UNL     1      -2.533  -7.025  -4.817  1.00  0.00     0.164 C 
ATOM      3  C   UNL     1      -2.279  -6.105  -6.023  1.00  0.00     0.232 C 
ATOM      4  O   UNL     1      -2.956  -4.863  -5.834  1.00  0.00    -0.482 OA
ATOM      5  C   UNL     1      -4.228  -4.784  -5.258  1.00  0.00     0.131 A 
ATOM      6  C   UNL     1      -4.906  -3.563  -5.273  1.00  0.00     0.093 A 
ATOM      7  C   UNL     1      -6.183  -3.458  -4.718  1.00  0.00     0.122 A 
ATOM      8  C   UNL     1      -6.790  -4.585  -4.153  1.00  0.00     0.092 A 
ATOM      9  C   UNL     1      -6.126  -5.817  -4.130  1.00  0.00     0.126 A 
ATOM     10  C   UNL     1      -4.814  -5.917  -4.651  1.00  0.00     0.039 A 
ENDROOT
BRANCH   2  11
ATOM     11  O   UNL     1      -1.913  -8.267  -5.029  1.00  0.00    -0.389 OA
ATOM     12  H   UNL     1      -1.384  -8.183  -5.865  1.00  0.00     0.211 HD
ENDBRANCH   2  11
BRANCH   3  13
ATOM     13  C   UNL     1      -0.802  -5.852  -6.216  1.00  0.00    -0.001 A 
ATOM     14  C   UNL     1      -0.036  -5.269  -5.192  1.00  0.00     0.057 A 
ATOM     15  C   UNL     1      -0.167  -6.242  -7.407  1.00  0.00     0.012 A 
ATOM     16  C   UNL     1       1.337  -5.055  -5.361  1.00  0.00     0.157 A 
ATOM     17  C   UNL     1       1.203  -6.031  -7.580  1.00  0.00     0.050 A 
ATOM     18  C   UNL     1       1.961  -5.437  -6.561  1.00  0.00     0.157 A 
BRANCH  16  19
ATOM     19  O   UNL     1       2.064  -4.466  -4.327  1.00  0.00    -0.504 OA
ATOM     20  H   UNL     1       2.823  -3.818  -4.504  1.00  0.00     0.293 HD
ENDBRANCH  16  19
BRANCH  18  21
ATOM     21  O   UNL     1       3.327  -5.228  -6.736  1.00  0.00    -0.504 OA
ATOM     22  H   UNL     1       3.691  -4.334  -7.047  1.00  0.00     0.293 HD
ENDBRANCH  18  21
ENDBRANCH   3  13
BRANCH   9  23
ATOM     23  O   UNL     1      -6.800  -6.917  -3.595  1.00  0.00    -0.507 OA
ATOM     24  H   UNL     1      -6.552  -7.876  -3.800  1.00  0.00     0.293 HD
ENDBRANCH   9  23
BRANCH   7  25
ATOM     25  O   UNL     1      -6.843  -2.232  -4.742  1.00  0.00    -0.508 OA
ATOM     26  H   UNL     1      -6.657  -1.543  -5.461  1.00  0.00     0.293 HD
ENDBRANCH   7  25
TORSDOF 6
ENDMDL
MODEL 3
REMARK VINA RESULT:    -7.313      2.293      7.085
REMARK INTER + INTRA:          -8.662
REMARK INTER:                  -8.317
REMARK INTRA:                  -0.345
REMARK UNBOUND:                 0.148
REMARK SMILES Oc1cc(O)c2c(c1)O[C@@H](c1ccc(O)c(O)c1)[C@H](O)C2
REMARK SMILES IDX 21 1 19 2 10 3 9 4 7 5 8 6 2 7 3 8 4 9 6 10 20 11 11 13
REMARK SMILES IDX 18 14 12 15 16 16 13 17 14 18 17 19 15 21 5 23 1 25
REMARK H PARENT 20 12 17 20 15 22 5 24 1 26
REMARK Flexibility Score: inf
ROOT
ATOM      1  C   UNL     1      -6.055  -8.222   5.115  1.00  0.00     0.079 C 
ATOM      2  C   UNL     1      -6.294  -6.911   5.889  1.00  0.00     0.164 C 
ATOM      3  C   UNL     1      -5.291  -6.803   7.050  1.00  0.00     0.232 C 
ATOM      4  O   UNL     1      -3.958  -6.886   6.547  1.00  0.00    -0.482 OA
ATOM      5  C   UNL     1      -3.603  -7.751   5.507  1.00  0.00     0.131 A 
ATOM      6  C   UNL     1      -2.252  -7.915   5.190  1.00  0.00     0.093 A 
ATOM      7  C   UNL     1      -1.868  -8.783   4.167  1.00  0.00     0.122 A 
ATOM      8  C   UNL     1      -2.841  -9.500   3.461  1.00  0.00     0.092 A 
ATOM      9  C   UNL     1      -4.199  -9.349   3.765  1.00  0.00     0.126 A 
ATOM     10  C   UNL     1      -4.595  -8.436   4.771  1.00  0.00     0.039 A 
ENDROOT
BRANCH   2  11
ATOM     11  O   UNL     1      -7.605  -6.887   6.391  1.00  0.00    -0.389 OA
ATOM     12  H   UNL     1      -7.701  -7.682   6.978  1.00  0.00     0.211 HD
ENDBRANCH   2  11
BRANCH   3  13
ATOM     13  C   UNL     1      -5.467  -5.506   7.806  1.00  0.00    -0.001 A 
ATOM     14  C   UNL     1      -5.486  -4.278   7.123  1.00  0.00     0.057 A 
ATOM     15  C   UNL     1      -5.663  -5.519   9.196  1.00  0.00     0.012 A 
ATOM     16  C   UNL     1      -5.672  -3.078   7.819  1.00  0.00     0.157 A 
ATOM     17  C   UNL     1      -5.851  -4.324   9.895  1.00  0.00     0.050 A 
ATOM     18  C   UNL     1      -5.855  -3.099   9.212  1.00  0.00     0.157 A 
BRANCH  16  19
ATOM     19  O   UNL     1      -5.675  -1.876   7.111  1.00  0.00    -0.504 OA
ATOM     20  H   UNL     1      -5.120  -1.744   6.274  1.00  0.00     0.293 HD
ENDBRANCH  16  19
BRANCH  18  21
ATOM     21  O   UNL     1      -6.041  -1.909   9.912  1.00  0.00    -0.504 OA
ATOM     22  H   UNL     1      -6.875  -1.346   9.789  1.00  0.00     0.293 HD
ENDBRANCH  18  21
ENDBRANCH   3  13
BRANCH   9  23
ATOM     23  O   UNL     1      -5.120 -10.125   3.059  1.00  0.00    -0.507 OA
ATOM     24  H   UNL     1      -5.538 -10.968   3.430  1.00  0.00     0.293 HD
ENDBRANCH   9  23
BRANCH   7  25
ATOM     25  O   UNL     1      -0.516  -8.933   3.865  1.00  0.00    -0.508 OA
ATOM     26  H   UNL     1       0.152  -9.238   4.563  1.00  0.00     0.293 HD
ENDBRANCH   7  25
TORSDOF 6
ENDMDL
MODEL 4
REMARK VINA RESULT:    -7.145      1.543      7.245
REMARK INTER + INTRA:          -8.459
REMARK INTER:                  -8.293
REMARK INTRA:                  -0.166
REMARK UNBOUND:                 0.148
REMARK SMILES Oc1cc(O)c2c(c1)O[C@@H](c1ccc(O)c(O)c1)[C@H](O)C2
REMARK SMILES IDX 21 1 19 2 10 3 9 4 7 5 8 6 2 7 3 8 4 9 6 10 20 11 11 13
REMARK SMILES IDX 18 14 12 15 16 16 13 17 14 18 17 19 15 21 5 23 1 25
REMARK H PARENT 20 12 17 20 15 22 5 24 1 26
REMARK Flexibility Score: inf
ROOT
ATOM      1  C   UNL     1      -7.184  -6.862   4.436  1.00  0.00     0.079 C 
ATOM      2  C   UNL     1      -7.587  -5.383   4.593  1.00  0.00     0.164 C 
ATOM      3  C   UNL     1      -7.142  -4.865   5.970  1.00  0.00     0.232 C 
ATOM      4  O   UNL     1      -5.735  -5.050   6.125  1.00  0.00    -0.482 OA
ATOM      5  C   UNL     1      -5.074  -6.187   5.652  1.00  0.00     0.131 A 
ATOM      6  C   UNL     1      -3.735  -6.388   5.998  1.00  0.00     0.093 A 
ATOM      7  C   UNL     1      -3.053  -7.522   5.554  1.00  0.00     0.122 A 
ATOM      8  C   UNL     1      -3.718  -8.469   4.765  1.00  0.00     0.092 A 
ATOM      9  C   UNL     1      -5.059  -8.284   4.410  1.00  0.00     0.126 A 
ATOM     10  C   UNL     1      -5.741  -7.114   4.821  1.00  0.00     0.039 A 
ENDROOT
BRANCH   2  11
ATOM     11  O   UNL     1      -8.980  -5.254   4.465  1.00  0.00    -0.389 OA
ATOM     12  H   UNL     1      -9.286  -4.694   5.226  1.00  0.00     0.211 HD
ENDBRANCH   2  11
BRANCH   3  13
ATOM     13  C   UNL     1      -7.483  -3.403   6.141  1.00  0.00    -0.001 A 
ATOM     14  C   UNL     1      -7.497  -2.538   5.033  1.00  0.00     0.057 A 
ATOM     15  C   UNL     1      -7.837  -2.902   7.405  1.00  0.00     0.012 A 
ATOM     16  C   UNL     1      -7.835  -1.188   5.187  1.00  0.00     0.157 A 
ATOM     17  C   UNL     1      -8.177  -1.556   7.562  1.00  0.00     0.050 A 
ATOM     18  C   UNL     1      -8.176  -0.693   6.457  1.00  0.00     0.157 A 
BRANCH  16  19
ATOM     19  O   UNL     1      -7.829  -0.357   4.067  1.00  0.00    -0.504 OA
ATOM     20  H   UNL     1      -7.288   0.498   4.035  1.00  0.00     0.293 HD
ENDBRANCH  16  19
BRANCH  18  21
ATOM     21  O   UNL     1      -8.514   0.649   6.616  1.00  0.00    -0.504 OA
ATOM     22  H   UNL     1      -7.966   1.388   6.191  1.00  0.00     0.293 HD
ENDBRANCH  18  21
ENDBRANCH   3  13
BRANCH   9  23
ATOM     23  O   UNL     1      -5.683  -9.284   3.660  1.00  0.00    -0.507 OA
ATOM     24  H   UNL     1      -6.107 -10.105   4.071  1.00  0.00     0.293 HD
ENDBRANCH   9  23
BRANCH   7  25
ATOM     25  O   UNL     1      -1.719  -7.705   5.908  1.00  0.00    -0.508 OA
ATOM     26  H   UNL     1      -1.416  -7.660   6.875  1.00  0.00     0.293 HD
ENDBRANCH   7  25
TORSDOF 6
ENDMDL
MODEL 5
REMARK VINA RESULT:    -6.984      1.210      1.406
REMARK INTER + INTRA:          -8.265
REMARK INTER:                  -7.965
REMARK INTRA:                  -0.300
REMARK UNBOUND:                 0.148
REMARK SMILES Oc1cc(O)c2c(c1)O[C@@H](c1ccc(O)c(O)c1)[C@H](O)C2
REMARK SMILES IDX 21 1 19 2 10 3 9 4 7 5 8 6 2 7 3 8 4 9 6 10 20 11 11 13
REMARK SMILES IDX 18 14 12 15 16 16 13 17 14 18 17 19 15 21 5 23 1 25
REMARK H PARENT 20 12 17 20 15 22 5 24 1 26
REMARK Flexibility Score: inf
ROOT
ATOM      1  C   UNL     1      -6.791  -3.005   8.896  1.00  0.00     0.079 C 
ATOM      2  C   UNL     1      -5.937  -4.146   8.311  1.00  0.00     0.164 C 
ATOM      3  C   UNL     1      -6.676  -4.797   7.129  1.00  0.00     0.232 C 
ATOM      4  O   UNL     1      -6.984  -3.808   6.148  1.00  0.00    -0.482 OA
ATOM      5  C   UNL     1      -7.390  -2.515   6.490  1.00  0.00     0.131 A 
ATOM      6  C   UNL     1      -7.851  -1.659   5.487  1.00  0.00     0.093 A 
ATOM      7  C   UNL     1      -8.278  -0.368   5.801  1.00  0.00     0.122 A 
ATOM      8  C   UNL     1      -8.253   0.068   7.131  1.00  0.00     0.092 A 
ATOM      9  C   UNL     1      -7.795  -0.776   8.150  1.00  0.00     0.126 A 
ATOM     10  C   UNL     1      -7.320  -2.069   7.829  1.00  0.00     0.039 A 
ENDROOT
BRANCH   2  11
ATOM     11  O   UNL     1      -5.686  -5.109   9.302  1.00  0.00    -0.389 OA
ATOM     12  H   UNL     1      -4.885  -5.618   9.009  1.00  0.00     0.211 HD
ENDBRANCH   2  11
BRANCH   3  13
ATOM     13  C   UNL     1      -5.846  -5.893   6.502  1.00  0.00    -0.001 A 
ATOM     14  C   UNL     1      -4.479  -5.695   6.242  1.00  0.00     0.057 A 
ATOM     15  C   UNL     1      -6.423  -7.141   6.215  1.00  0.00     0.012 A 
ATOM     16  C   UNL     1      -3.704  -6.717   5.683  1.00  0.00     0.157 A 
ATOM     17  C   UNL     1      -5.653  -8.164   5.658  1.00  0.00     0.050 A 
ATOM     18  C   UNL     1      -4.293  -7.959   5.387  1.00  0.00     0.157 A 
BRANCH  16  19
ATOM     19  O   UNL     1      -2.353  -6.483   5.430  1.00  0.00    -0.504 OA
ATOM     20  H   UNL     1      -1.668  -6.429   6.173  1.00  0.00     0.293 HD
ENDBRANCH  16  19
BRANCH  18  21
ATOM     21  O   UNL     1      -3.527  -8.981   4.830  1.00  0.00    -0.504 OA
ATOM     22  H   UNL     1      -3.865  -9.936   4.791  1.00  0.00     0.293 HD
ENDBRANCH  18  21
ENDBRANCH   3  13
BRANCH   9  23
ATOM     23  O   UNL     1      -7.837  -0.303   9.463  1.00  0.00    -0.507 OA
ATOM     24  H   UNL     1      -8.656  -0.369  10.053  1.00  0.00     0.293 HD
ENDBRANCH   9  23
BRANCH   7  25
ATOM     25  O   UNL     1      -8.733   0.472   4.787  1.00  0.00    -0.508 OA
ATOM     26  H   UNL     1      -8.200   1.281   4.490  1.00  0.00     0.293 HD
ENDBRANCH   7  25
TORSDOF 6
ENDMDL
MODEL 6
REMARK VINA RESULT:    -6.921      1.852      6.673
REMARK INTER + INTRA:          -8.189
REMARK INTER:                  -7.818
REMARK INTRA:                  -0.371
REMARK UNBOUND:                 0.148
REMARK SMILES Oc1cc(O)c2c(c1)O[C@@H](c1ccc(O)c(O)c1)[C@H](O)C2
REMARK SMILES IDX 21 1 19 2 10 3 9 4 7 5 8 6 2 7 3 8 4 9 6 10 20 11 11 13
REMARK SMILES IDX 18 14 12 15 16 16 13 17 14 18 17 19 15 21 5 23 1 25
REMARK H PARENT 20 12 17 20 15 22 5 24 1 26
REMARK Flexibility Score: inf
ROOT
ATOM      1  C   UNL     1      -3.767  -6.419   6.331  1.00  0.00     0.079 C 
ATOM      2  C   UNL     1      -4.412  -5.479   7.368  1.00  0.00     0.164 C 
ATOM      3  C   UNL     1      -5.640  -4.788   6.751  1.00  0.00     0.232 C 
ATOM      4  O   UNL     1      -6.562  -5.770   6.280  1.00  0.00    -0.482 OA
ATOM      5  C   UNL     1      -6.144  -6.951   5.659  1.00  0.00     0.131 A 
ATOM      6  C   UNL     1      -7.099  -7.778   5.060  1.00  0.00     0.093 A 
ATOM      7  C   UNL     1      -6.710  -8.955   4.419  1.00  0.00     0.122 A 
ATOM      8  C   UNL     1      -5.355  -9.304   4.368  1.00  0.00     0.092 A 
ATOM      9  C   UNL     1      -4.386  -8.488   4.962  1.00  0.00     0.126 A 
ATOM     10  C   UNL     1      -4.780  -7.317   5.651  1.00  0.00     0.039 A 
ENDROOT
BRANCH   2  11
ATOM     11  O   UNL     1      -3.479  -4.512   7.779  1.00  0.00    -0.389 OA
ATOM     12  H   UNL     1      -2.857  -4.964   8.406  1.00  0.00     0.211 HD
ENDBRANCH   2  11
BRANCH   3  13
ATOM     13  C   UNL     1      -6.324  -3.890   7.756  1.00  0.00    -0.001 A 
ATOM     14  C   UNL     1      -6.404  -2.504   7.538  1.00  0.00     0.057 A 
ATOM     15  C   UNL     1      -6.930  -4.439   8.898  1.00  0.00     0.012 A 
ATOM     16  C   UNL     1      -7.057  -1.674   8.457  1.00  0.00     0.157 A 
ATOM     17  C   UNL     1      -7.584  -3.615   9.817  1.00  0.00     0.050 A 
ATOM     18  C   UNL     1      -7.650  -2.231   9.603  1.00  0.00     0.157 A 
BRANCH  16  19
ATOM     19  O   UNL     1      -7.109  -0.302   8.213  1.00  0.00    -0.504 OA
ATOM     20  H   UNL     1      -6.295   0.224   7.921  1.00  0.00     0.293 HD
ENDBRANCH  16  19
BRANCH  18  21
ATOM     21  O   UNL     1      -8.302  -1.410  10.521  1.00  0.00    -0.504 OA
ATOM     22  H   UNL     1      -8.465  -1.708  11.476  1.00  0.00     0.293 HD
ENDBRANCH  18  21
ENDBRANCH   3  13
BRANCH   9  23
ATOM     23  O   UNL     1      -3.046  -8.863   4.839  1.00  0.00    -0.507 OA
ATOM     24  H   UNL     1      -2.745  -9.705   4.366  1.00  0.00     0.293 HD
ENDBRANCH   9  23
BRANCH   7  25
ATOM     25  O   UNL     1      -7.675  -9.767   3.829  1.00  0.00    -0.508 OA
ATOM     26  H   UNL     1      -8.651  -9.712   4.098  1.00  0.00     0.293 HD
ENDBRANCH   7  25
TORSDOF 6
ENDMDL
MODEL 7
REMARK VINA RESULT:    -6.819     11.483     14.047
REMARK INTER + INTRA:          -8.066
REMARK INTER:                  -7.770
REMARK INTRA:                  -0.296
REMARK UNBOUND:                 0.148
REMARK SMILES Oc1cc(O)c2c(c1)O[C@@H](c1ccc(O)c(O)c1)[C@H](O)C2
REMARK SMILES IDX 21 1 19 2 10 3 9 4 7 5 8 6 2 7 3 8 4 9 6 10 20 11 11 13
REMARK SMILES IDX 18 14 12 15 16 16 13 17 14 18 17 19 15 21 5 23 1 25
REMARK H PARENT 20 12 17 20 15 22 5 24 1 26
REMARK Flexibility Score: inf
ROOT
ATOM      1  C   UNL     1      -3.795  -6.414  -4.886  1.00  0.00     0.079 C 
ATOM      2  C   UNL     1      -5.028  -5.600  -5.325  1.00  0.00     0.164 C 
ATOM      3  C   UNL     1      -4.682  -4.102  -5.346  1.00  0.00     0.232 C 
ATOM      4  O   UNL     1      -3.564  -3.875  -6.203  1.00  0.00    -0.482 OA
ATOM      5  C   UNL     1      -2.481  -4.757  -6.269  1.00  0.00     0.131 A 
ATOM      6  C   UNL     1      -1.342  -4.382  -6.988  1.00  0.00     0.093 A 
ATOM      7  C   UNL     1      -0.240  -5.235  -7.058  1.00  0.00     0.122 A 
ATOM      8  C   UNL     1      -0.272  -6.469  -6.398  1.00  0.00     0.092 A 
ATOM      9  C   UNL     1      -1.404  -6.860  -5.673  1.00  0.00     0.126 A 
ATOM     10  C   UNL     1      -2.540  -6.018  -5.636  1.00  0.00     0.039 A 
ENDROOT
BRANCH   2  11
ATOM     11  O   UNL     1      -6.091  -5.830  -4.437  1.00  0.00    -0.389 OA
ATOM     12  H   UNL     1      -6.004  -6.768  -4.125  1.00  0.00     0.211 HD
ENDBRANCH   2  11
BRANCH   3  13
ATOM     13  C   UNL     1      -5.857  -3.276  -5.816  1.00  0.00    -0.001 A 
ATOM     14  C   UNL     1      -6.671  -2.600  -4.890  1.00  0.00     0.057 A 
ATOM     15  C   UNL     1      -6.121  -3.137  -7.188  1.00  0.00     0.012 A 
ATOM     16  C   UNL     1      -7.746  -1.816  -5.325  1.00  0.00     0.157 A 
ATOM     17  C   UNL     1      -7.192  -2.354  -7.626  1.00  0.00     0.050 A 
ATOM     18  C   UNL     1      -8.010  -1.692  -6.700  1.00  0.00     0.157 A 
BRANCH  16  19
ATOM     19  O   UNL     1      -8.538  -1.167  -4.378  1.00  0.00    -0.504 OA
ATOM     20  H   UNL     1      -9.309  -1.630  -3.913  1.00  0.00     0.293 HD
ENDBRANCH  16  19
BRANCH  18  21
ATOM     21  O   UNL     1      -9.078  -0.914  -7.139  1.00  0.00    -0.504 OA
ATOM     22  H   UNL     1      -8.931  -0.057  -7.661  1.00  0.00     0.293 HD
ENDBRANCH  18  21
ENDBRANCH   3  13
BRANCH   9  23
ATOM     23  O   UNL     1      -1.361  -8.081  -4.996  1.00  0.00    -0.507 OA
ATOM     24  H   UNL     1      -2.184  -8.626  -4.777  1.00  0.00     0.293 HD
ENDBRANCH   9  23
BRANCH   7  25
ATOM     25  O   UNL     1       0.885  -4.845  -7.780  1.00  0.00    -0.508 OA
ATOM     26  H   UNL     1       1.780  -4.695  -7.327  1.00  0.00     0.293 HD
ENDBRANCH   7  25
TORSDOF 6
ENDMDL
MODEL 8
REMARK VINA RESULT:    -6.726      1.683      7.060
REMARK INTER + INTRA:          -7.955
REMARK INTER:                  -7.669
REMARK INTRA:                  -0.286
REMARK UNBOUND:                 0.148
REMARK SMILES Oc1cc(O)c2c(c1)O[C@@H](c1ccc(O)c(O)c1)[C@H](O)C2
REMARK SMILES IDX 21 1 19 2 10 3 9 4 7 5 8 6 2 7 3 8 4 9 6 10 20 11 11 13
REMARK SMILES IDX 18 14 12 15 16 16 13 17 14 18 17 19 15 21 5 23 1 25
REMARK H PARENT 20 12 17 20 15 22 5 24 1 26
REMARK Flexibility Score: inf
ROOT
ATOM      1  C   UNL     1      -7.043  -7.578   5.664  1.00  0.00     0.079 C 
ATOM      2  C   UNL     1      -7.322  -6.107   6.028  1.00  0.00     0.164 C 
ATOM      3  C   UNL     1      -6.347  -5.648   7.125  1.00  0.00     0.232 C 
ATOM      4  O   UNL     1      -5.002  -5.840   6.688  1.00  0.00    -0.482 OA
ATOM      5  C   UNL     1      -4.610  -6.957   5.944  1.00  0.00     0.131 A 
ATOM      6  C   UNL     1      -3.249  -7.173   5.708  1.00  0.00     0.093 A 
ATOM      7  C   UNL     1      -2.827  -8.288   4.982  1.00  0.00     0.122 A 
ATOM      8  C   UNL     1      -3.772  -9.199   4.495  1.00  0.00     0.092 A 
ATOM      9  C   UNL     1      -5.138  -8.999   4.722  1.00  0.00     0.126 A 
ATOM     10  C   UNL     1      -5.573  -7.847   5.420  1.00  0.00     0.039 A 
ENDROOT
BRANCH   2  11
ATOM     11  O   UNL     1      -8.645  -5.972   6.482  1.00  0.00    -0.389 OA
ATOM     12  H   UNL     1      -9.175  -5.625   5.717  1.00  0.00     0.211 HD
ENDBRANCH   2  11
BRANCH   3  13
ATOM     13  C   UNL     1      -6.564  -4.195   7.476  1.00  0.00    -0.001 A 
ATOM     14  C   UNL     1      -6.530  -3.771   8.816  1.00  0.00     0.057 A 
ATOM     15  C   UNL     1      -6.754  -3.243   6.462  1.00  0.00     0.012 A 
ATOM     16  C   UNL     1      -6.708  -2.421   9.141  1.00  0.00     0.157 A 
ATOM     17  C   UNL     1      -6.930  -1.894   6.782  1.00  0.00     0.050 A 
ATOM     18  C   UNL     1      -6.910  -1.477   8.120  1.00  0.00     0.157 A 
BRANCH  16  19
ATOM     19  O   UNL     1      -6.678  -2.037  10.482  1.00  0.00    -0.504 OA
ATOM     20  H   UNL     1      -6.242  -2.608  11.195  1.00  0.00     0.293 HD
ENDBRANCH  16  19
BRANCH  18  21
ATOM     21  O   UNL     1      -7.087  -0.132   8.437  1.00  0.00    -0.504 OA
ATOM     22  H   UNL     1      -7.942   0.360   8.203  1.00  0.00     0.293 HD
ENDBRANCH  18  21
ENDBRANCH   3  13
BRANCH   9  23
ATOM     23  O   UNL     1      -6.030  -9.966   4.253  1.00  0.00    -0.507 OA
ATOM     24  H   UNL     1      -7.019  -9.959   4.462  1.00  0.00     0.293 HD
ENDBRANCH   9  23
BRANCH   7  25
ATOM     25  O   UNL     1      -1.467  -8.486   4.757  1.00  0.00    -0.508 OA
ATOM     26  H   UNL     1      -0.905  -9.059   5.375  1.00  0.00     0.293 HD
ENDBRANCH   7  25
TORSDOF 6
ENDMDL
MODEL 9
REMARK VINA RESULT:    -6.634      2.236      8.012
REMARK INTER + INTRA:          -7.844
REMARK INTER:                  -7.638
REMARK INTRA:                  -0.206
REMARK UNBOUND:                 0.148
REMARK SMILES Oc1cc(O)c2c(c1)O[C@@H](c1ccc(O)c(O)c1)[C@H](O)C2
REMARK SMILES IDX 21 1 19 2 10 3 9 4 7 5 8 6 2 7 3 8 4 9 6 10 20 11 11 13
REMARK SMILES IDX 18 14 12 15 16 16 13 17 14 18 17 19 15 21 5 23 1 25
REMARK H PARENT 20 12 17 20 15 22 5 24 1 26
REMARK Flexibility Score: inf
ROOT
ATOM      1  C   UNL     1      -7.914  -3.777   4.617  1.00  0.00     0.079 C 
ATOM      2  C   UNL     1      -8.292  -2.300   4.841  1.00  0.00     0.164 C 
ATOM      3  C   UNL     1      -8.527  -2.045   6.340  1.00  0.00     0.232 C 
ATOM      4  O   UNL     1      -7.364  -2.413   7.081  1.00  0.00    -0.482 OA
ATOM      5  C   UNL     1      -6.599  -3.539   6.762  1.00  0.00     0.131 A 
ATOM      6  C   UNL     1      -5.586  -3.943   7.636  1.00  0.00     0.093 A 
ATOM      7  C   UNL     1      -4.816  -5.071   7.351  1.00  0.00     0.122 A 
ATOM      8  C   UNL     1      -5.066  -5.808   6.187  1.00  0.00     0.092 A 
ATOM      9  C   UNL     1      -6.077  -5.418   5.300  1.00  0.00     0.126 A 
ATOM     10  C   UNL     1      -6.830  -4.249   5.563  1.00  0.00     0.039 A 
ENDROOT
BRANCH   2  11
ATOM     11  O   UNL     1      -9.456  -1.992   4.119  1.00  0.00    -0.389 OA
ATOM     12  H   UNL     1     -10.216  -2.390   4.619  1.00  0.00     0.211 HD
ENDBRANCH   2  11
BRANCH   3  13
ATOM     13  C   UNL     1      -8.857  -0.594   6.602  1.00  0.00    -0.001 A 
ATOM     14  C   UNL     1      -8.263   0.424   5.836  1.00  0.00     0.057 A 
ATOM     15  C   UNL     1      -9.799  -0.249   7.585  1.00  0.00     0.012 A 
ATOM     16  C   UNL     1      -8.585   1.767   6.063  1.00  0.00     0.157 A 
ATOM     17  C   UNL     1     -10.125   1.090   7.813  1.00  0.00     0.050 A 
ATOM     18  C   UNL     1      -9.520   2.104   7.056  1.00  0.00     0.157 A 
BRANCH  16  19
ATOM     19  O   UNL     1      -7.969   2.752   5.290  1.00  0.00    -0.504 OA
ATOM     20  H   UNL     1      -8.185   3.735   5.400  1.00  0.00     0.293 HD
ENDBRANCH  16  19
BRANCH  18  21
ATOM     21  O   UNL     1      -9.845   3.439   7.287  1.00  0.00    -0.504 OA
ATOM     22  H   UNL     1      -9.379   3.982   8.004  1.00  0.00     0.293 HD
ENDBRANCH  18  21
ENDBRANCH   3  13
BRANCH   9  23
ATOM     23  O   UNL     1      -6.310  -6.218   4.180  1.00  0.00    -0.507 OA
ATOM     24  H   UNL     1      -7.227  -6.354   3.774  1.00  0.00     0.293 HD
ENDBRANCH   9  23
BRANCH   7  25
ATOM     25  O   UNL     1      -3.811  -5.458   8.234  1.00  0.00    -0.508 OA
ATOM     26  H   UNL     1      -3.865  -6.328   8.750  1.00  0.00     0.293 HD
ENDBRANCH   7  25
TORSDOF 6
ENDMDL
