MODEL 1
REMARK VINA RESULT:    -5.965      0.000      0.000
REMARK INTER + INTRA:          -7.756
REMARK INTER:                  -7.360
REMARK INTRA:                  -0.396
REMARK UNBOUND:                -0.396
REMARK SMILES COc1cc(-c2oc3cc(O)cc(O)c3c(=O)c2O)ccc1O
REMARK SMILES IDX 6 1 18 2 16 3 17 4 15 5 13 6 12 7 10 8 9 9 8 10 7 11 5 12
REMARK SMILES IDX 3 13 22 14 4 15 21 16 20 17 2 18 1 19 23 20 19 22 14 24
REMARK SMILES IDX 11 26
REMARK H PARENT 23 21 19 23 14 25 11 27
REMARK Flexibility Score: inf
ROOT
ATOM      1  C   UNL     1      17.672  -0.153 -15.300  1.00  0.00     0.180 A 
ATOM      2  C   UNL     1      18.736   0.579 -14.743  1.00  0.00     0.208 A 
ATOM      3  C   UNL     1      19.872   0.832 -15.528  1.00  0.00     0.238 A 
ATOM      4  O   UNL     1      20.850   1.423 -15.000  1.00  0.00    -0.285 OA
ATOM      5  C   UNL     1      19.909   0.400 -16.876  1.00  0.00     0.111 A 
ATOM      6  C   UNL     1      20.991   0.640 -17.777  1.00  0.00     0.134 A 
ATOM      7  C   UNL     1      20.963   0.072 -19.057  1.00  0.00     0.093 A 
ATOM      8  C   UNL     1      19.864  -0.674 -19.491  1.00  0.00     0.123 A 
ATOM      9  C   UNL     1      18.780  -0.868 -18.638  1.00  0.00     0.094 A 
ATOM     10  C   UNL     1      18.794  -0.347 -17.342  1.00  0.00     0.146 A 
ATOM     11  O   UNL     1      17.749  -0.574 -16.557  1.00  0.00    -0.452 OA
ENDROOT
BRANCH   1  12
ATOM     12  C   UNL     1      16.447  -0.472 -14.531  1.00  0.00     0.025 A 
ATOM     13  C   UNL     1      15.261  -1.959 -12.994  1.00  0.00     0.161 A 
ATOM     14  C   UNL     1      14.165  -1.086 -13.007  1.00  0.00     0.157 A 
ATOM     15  C   UNL     1      16.405  -1.641 -13.754  1.00  0.00     0.062 A 
ATOM     16  C   UNL     1      14.212   0.092 -13.764  1.00  0.00     0.051 A 
ATOM     17  C   UNL     1      15.347   0.401 -14.515  1.00  0.00     0.016 A 
BRANCH  13  18
ATOM     18  O   UNL     1      15.180  -3.124 -12.217  1.00  0.00    -0.493 OA
ATOM     19  C   UNL     1      15.441  -4.437 -12.703  1.00  0.00     0.278 C 
ENDBRANCH  13  18
BRANCH  14  20
ATOM     20  O   UNL     1      13.030  -1.394 -12.258  1.00  0.00    -0.504 OA
ATOM     21  H   UNL     1      12.608  -2.314 -12.289  1.00  0.00     0.293 HD
ENDBRANCH  14  20
ENDBRANCH   1  12
BRANCH   2  22
ATOM     22  O   UNL     1      18.648   1.064 -13.435  1.00  0.00    -0.502 OA
ATOM     23  H   UNL     1      17.793   1.456 -13.057  1.00  0.00     0.293 HD
ENDBRANCH   2  22
BRANCH   6  24
ATOM     24  O   UNL     1      22.096   1.443 -17.478  1.00  0.00    -0.507 OA
ATOM     25  H   UNL     1      22.959   1.456 -17.999  1.00  0.00     0.293 HD
ENDBRANCH   6  24
BRANCH   8  26
ATOM     26  O   UNL     1      19.837  -1.221 -20.771  1.00  0.00    -0.508 OA
ATOM     27  H   UNL     1      19.090  -1.836 -21.070  1.00  0.00     0.293 HD
ENDBRANCH   8  26
TORSDOF 6
ENDMDL
MODEL 2
REMARK VINA RESULT:    -5.884      0.773      2.008
REMARK INTER + INTRA:          -7.656
REMARK INTER:                  -7.261
REMARK INTRA:                  -0.395
REMARK UNBOUND:                -0.396
REMARK SMILES COc1cc(-c2oc3cc(O)cc(O)c3c(=O)c2O)ccc1O
REMARK SMILES IDX 6 1 18 2 16 3 17 4 15 5 13 6 12 7 10 8 9 9 8 10 7 11 5 12
REMARK SMILES IDX 3 13 22 14 4 15 21 16 20 17 2 18 1 19 23 20 19 22 14 24
REMARK SMILES IDX 11 26
REMARK H PARENT 23 21 19 23 14 25 11 27
REMARK Flexibility Score: inf
ROOT
ATOM      1  C   UNL     1      17.954  -0.290 -15.416  1.00  0.00     0.180 A 
ATOM      2  C   UNL     1      19.027   0.473 -14.920  1.00  0.00     0.208 A 
ATOM      3  C   UNL     1      20.096   0.781 -15.776  1.00  0.00     0.238 A 
ATOM      4  O   UNL     1      21.086   1.399 -15.306  1.00  0.00    -0.285 OA
ATOM      5  C   UNL     1      20.055   0.370 -17.132  1.00  0.00     0.111 A 
ATOM      6  C   UNL     1      21.063   0.664 -18.100  1.00  0.00     0.134 A 
ATOM      7  C   UNL     1      20.967   0.115 -19.385  1.00  0.00     0.093 A 
ATOM      8  C   UNL     1      19.868  -0.665 -19.756  1.00  0.00     0.123 A 
ATOM      9  C   UNL     1      18.854  -0.911 -18.835  1.00  0.00     0.094 A 
ATOM     10  C   UNL     1      18.939  -0.411 -17.533  1.00  0.00     0.146 A 
ATOM     11  O   UNL     1      17.959  -0.688 -16.682  1.00  0.00    -0.452 OA
ENDROOT
BRANCH   1  12
ATOM     12  C   UNL     1      16.798  -0.666 -14.570  1.00  0.00     0.025 A 
ATOM     13  C   UNL     1      14.552  -0.164 -13.742  1.00  0.00     0.161 A 
ATOM     14  C   UNL     1      14.555  -1.369 -13.027  1.00  0.00     0.157 A 
ATOM     15  C   UNL     1      15.676   0.179 -14.519  1.00  0.00     0.062 A 
ATOM     16  C   UNL     1      15.662  -2.224 -13.092  1.00  0.00     0.051 A 
ATOM     17  C   UNL     1      16.773  -1.879 -13.863  1.00  0.00     0.016 A 
BRANCH  13  18
ATOM     18  O   UNL     1      13.421   0.661 -13.659  1.00  0.00    -0.493 OA
ATOM     19  C   UNL     1      13.132   1.728 -14.557  1.00  0.00     0.278 C 
ENDBRANCH  13  18
BRANCH  14  20
ATOM     20  O   UNL     1      13.446  -1.715 -12.255  1.00  0.00    -0.504 OA
ATOM     21  H   UNL     1      12.502  -1.610 -12.607  1.00  0.00     0.293 HD
ENDBRANCH  14  20
ENDBRANCH   1  12
BRANCH   2  22
ATOM     22  O   UNL     1      19.012   0.934 -13.601  1.00  0.00    -0.502 OA
ATOM     23  H   UNL     1      18.471   0.482 -12.873  1.00  0.00     0.293 HD
ENDBRANCH   2  22
BRANCH   6  24
ATOM     24  O   UNL     1      22.156   1.504 -17.863  1.00  0.00    -0.507 OA
ATOM     25  H   UNL     1      22.196   2.211 -17.145  1.00  0.00     0.293 HD
ENDBRANCH   6  24
BRANCH   8  26
ATOM     26  O   UNL     1      19.773  -1.192 -21.041  1.00  0.00    -0.508 OA
ATOM     27  H   UNL     1      19.367  -2.105 -21.211  1.00  0.00     0.293 HD
ENDBRANCH   8  26
TORSDOF 6
ENDMDL
MODEL 3
REMARK VINA RESULT:    -5.880      1.447      7.094
REMARK INTER + INTRA:          -7.651
REMARK INTER:                  -7.492
REMARK INTRA:                  -0.158
REMARK UNBOUND:                -0.396
REMARK SMILES COc1cc(-c2oc3cc(O)cc(O)c3c(=O)c2O)ccc1O
REMARK SMILES IDX 6 1 18 2 16 3 17 4 15 5 13 6 12 7 10 8 9 9 8 10 7 11 5 12
REMARK SMILES IDX 3 13 22 14 4 15 21 16 20 17 2 18 1 19 23 20 19 22 14 24
REMARK SMILES IDX 11 26
REMARK H PARENT 23 21 19 23 14 25 11 27
REMARK Flexibility Score: inf
ROOT
ATOM      1  C   UNL     1      17.372  -0.553 -15.191  1.00  0.00     0.180 A 
ATOM      2  C   UNL     1      16.426   0.420 -14.821  1.00  0.00     0.208 A 
ATOM      3  C   UNL     1      15.318   0.034 -14.051  1.00  0.00     0.238 A 
ATOM      4  O   UNL     1      14.438   0.894 -13.787  1.00  0.00    -0.285 OA
ATOM      5  C   UNL     1      15.196  -1.308 -13.613  1.00  0.00     0.111 A 
ATOM      6  C   UNL     1      14.137  -1.801 -12.792  1.00  0.00     0.134 A 
ATOM      7  C   UNL     1      14.063  -3.170 -12.509  1.00  0.00     0.093 A 
ATOM      8  C   UNL     1      15.045  -4.055 -12.964  1.00  0.00     0.123 A 
ATOM      9  C   UNL     1      16.110  -3.574 -13.720  1.00  0.00     0.094 A 
ATOM     10  C   UNL     1      16.192  -2.220 -14.052  1.00  0.00     0.146 A 
ATOM     11  O   UNL     1      17.214  -1.809 -14.792  1.00  0.00    -0.452 OA
ENDROOT
BRANCH   1  12
ATOM     12  C   UNL     1      18.560  -0.225 -16.013  1.00  0.00     0.025 A 
ATOM     13  C   UNL     1      19.820  -0.515 -18.088  1.00  0.00     0.161 A 
ATOM     14  C   UNL     1      20.767   0.413 -17.634  1.00  0.00     0.157 A 
ATOM     15  C   UNL     1      18.713  -0.825 -17.274  1.00  0.00     0.062 A 
ATOM     16  C   UNL     1      20.607   1.028 -16.386  1.00  0.00     0.051 A 
ATOM     17  C   UNL     1      19.508   0.718 -15.583  1.00  0.00     0.016 A 
BRANCH  13  18
ATOM     18  O   UNL     1      20.011  -1.104 -19.347  1.00  0.00    -0.493 OA
ATOM     19  C   UNL     1      19.501  -0.580 -20.569  1.00  0.00     0.278 C 
ENDBRANCH  13  18
BRANCH  14  20
ATOM     20  O   UNL     1      21.866   0.724 -18.434  1.00  0.00    -0.504 OA
ATOM     21  H   UNL     1      22.429   1.548 -18.264  1.00  0.00     0.293 HD
ENDBRANCH  14  20
ENDBRANCH   1  12
BRANCH   2  22
ATOM     22  O   UNL     1      16.605   1.754 -15.199  1.00  0.00    -0.502 OA
ATOM     23  H   UNL     1      16.969   2.455 -14.564  1.00  0.00     0.293 HD
ENDBRANCH   2  22
BRANCH   6  24
ATOM     24  O   UNL     1      13.155  -0.993 -12.210  1.00  0.00    -0.507 OA
ATOM     25  H   UNL     1      13.121  -0.735 -11.236  1.00  0.00     0.293 HD
ENDBRANCH   6  24
BRANCH   8  26
ATOM     26  O   UNL     1      14.972  -5.413 -12.664  1.00  0.00    -0.508 OA
ATOM     27  H   UNL     1      15.737  -5.897 -12.208  1.00  0.00     0.293 HD
ENDBRANCH   8  26
TORSDOF 6
ENDMDL
MODEL 4
REMARK VINA RESULT:    -5.807      1.531      7.166
REMARK INTER + INTRA:          -7.560
REMARK INTER:                  -7.235
REMARK INTRA:                  -0.325
REMARK UNBOUND:                -0.396
REMARK SMILES COc1cc(-c2oc3cc(O)cc(O)c3c(=O)c2O)ccc1O
REMARK SMILES IDX 6 1 18 2 16 3 17 4 15 5 13 6 12 7 10 8 9 9 8 10 7 11 5 12
REMARK SMILES IDX 3 13 22 14 4 15 21 16 20 17 2 18 1 19 23 20 19 22 14 24
REMARK SMILES IDX 11 26
REMARK H PARENT 23 21 19 23 14 25 11 27
REMARK Flexibility Score: inf
ROOT
ATOM      1  C   UNL     1      17.183  -0.415 -15.110  1.00  0.00     0.180 A 
ATOM      2  C   UNL     1      17.134  -1.465 -14.177  1.00  0.00     0.208 A 
ATOM      3  C   UNL     1      15.967  -1.649 -13.420  1.00  0.00     0.238 A 
ATOM      4  O   UNL     1      15.957  -2.543 -12.534  1.00  0.00    -0.285 OA
ATOM      5  C   UNL     1      14.843  -0.816 -13.643  1.00  0.00     0.111 A 
ATOM      6  C   UNL     1      13.593  -0.940 -12.963  1.00  0.00     0.134 A 
ATOM      7  C   UNL     1      12.587   0.007 -13.190  1.00  0.00     0.093 A 
ATOM      8  C   UNL     1      12.762   1.037 -14.118  1.00  0.00     0.123 A 
ATOM      9  C   UNL     1      13.958   1.134 -14.825  1.00  0.00     0.094 A 
ATOM     10  C   UNL     1      14.995   0.228 -14.593  1.00  0.00     0.146 A 
ATOM     11  O   UNL     1      16.125   0.370 -15.274  1.00  0.00    -0.452 OA
ENDROOT
BRANCH   1  12
ATOM     12  C   UNL     1      18.384  -0.149 -15.936  1.00  0.00     0.025 A 
ATOM     13  C   UNL     1      19.646  -0.546 -17.993  1.00  0.00     0.161 A 
ATOM     14  C   UNL     1      20.616   0.370 -17.565  1.00  0.00     0.157 A 
ATOM     15  C   UNL     1      18.526  -0.797 -17.175  1.00  0.00     0.062 A 
ATOM     16  C   UNL     1      20.467   1.033 -16.340  1.00  0.00     0.051 A 
ATOM     17  C   UNL     1      19.356   0.781 -15.534  1.00  0.00     0.016 A 
BRANCH  13  18
ATOM     18  O   UNL     1      19.827  -1.184 -19.229  1.00  0.00    -0.493 OA
ATOM     19  C   UNL     1      19.485  -0.614 -20.488  1.00  0.00     0.278 C 
ENDBRANCH  13  18
BRANCH  14  20
ATOM     20  O   UNL     1      21.728   0.623 -18.369  1.00  0.00    -0.504 OA
ATOM     21  H   UNL     1      21.714   0.439 -19.365  1.00  0.00     0.293 HD
ENDBRANCH  14  20
ENDBRANCH   1  12
BRANCH   2  22
ATOM     22  O   UNL     1      18.227  -2.324 -14.027  1.00  0.00    -0.502 OA
ATOM     23  H   UNL     1      18.723  -2.716 -14.818  1.00  0.00     0.293 HD
ENDBRANCH   2  22
BRANCH   6  24
ATOM     24  O   UNL     1      13.279  -1.981 -12.084  1.00  0.00    -0.507 OA
ATOM     25  H   UNL     1      12.387  -2.105 -11.630  1.00  0.00     0.293 HD
ENDBRANCH   6  24
BRANCH   8  26
ATOM     26  O   UNL     1      11.750   1.965 -14.350  1.00  0.00    -0.508 OA
ATOM     27  H   UNL     1      11.027   2.144 -13.663  1.00  0.00     0.293 HD
ENDBRANCH   8  26
TORSDOF 6
ENDMDL
MODEL 5
REMARK VINA RESULT:    -5.802      6.612      8.550
REMARK INTER + INTRA:          -7.555
REMARK INTER:                  -7.155
REMARK INTRA:                  -0.401
REMARK UNBOUND:                -0.396
REMARK SMILES COc1cc(-c2oc3cc(O)cc(O)c3c(=O)c2O)ccc1O
REMARK SMILES IDX 6 1 18 2 16 3 17 4 15 5 13 6 12 7 10 8 9 9 8 10 7 11 5 12
REMARK SMILES IDX 3 13 22 14 4 15 21 16 20 17 2 18 1 19 23 20 19 22 14 24
REMARK SMILES IDX 11 26
REMARK H PARENT 23 21 19 23 14 25 11 27
REMARK Flexibility Score: inf
ROOT
ATOM      1  C   UNL     1      19.174  -2.286  -8.467  1.00  0.00     0.180 A 
ATOM      2  C   UNL     1      19.088  -2.700  -7.125  1.00  0.00     0.208 A 
ATOM      3  C   UNL     1      20.265  -3.037  -6.440  1.00  0.00     0.238 A 
ATOM      4  O   UNL     1      20.173  -3.478  -5.264  1.00  0.00    -0.285 OA
ATOM      5  C   UNL     1      21.519  -2.904  -7.084  1.00  0.00     0.111 A 
ATOM      6  C   UNL     1      22.780  -3.175  -6.471  1.00  0.00     0.134 A 
ATOM      7  C   UNL     1      23.950  -3.110  -7.239  1.00  0.00     0.093 A 
ATOM      8  C   UNL     1      23.911  -2.722  -8.581  1.00  0.00     0.123 A 
ATOM      9  C   UNL     1      22.692  -2.403  -9.172  1.00  0.00     0.094 A 
ATOM     10  C   UNL     1      21.503  -2.496  -8.444  1.00  0.00     0.146 A 
ATOM     11  O   UNL     1      20.362  -2.202  -9.054  1.00  0.00    -0.452 OA
ENDROOT
BRANCH   1  12
ATOM     12  C   UNL     1      17.976  -1.928  -9.260  1.00  0.00     0.025 A 
ATOM     13  C   UNL     1      16.121  -2.626 -10.693  1.00  0.00     0.161 A 
ATOM     14  C   UNL     1      15.661  -1.303 -10.729  1.00  0.00     0.157 A 
ATOM     15  C   UNL     1      17.278  -2.934  -9.949  1.00  0.00     0.062 A 
ATOM     16  C   UNL     1      16.342  -0.301 -10.027  1.00  0.00     0.051 A 
ATOM     17  C   UNL     1      17.487  -0.611  -9.291  1.00  0.00     0.016 A 
BRANCH  13  18
ATOM     18  O   UNL     1      15.407  -3.603 -11.403  1.00  0.00    -0.493 OA
ATOM     19  C   UNL     1      14.674  -4.664 -10.800  1.00  0.00     0.278 C 
ENDBRANCH  13  18
BRANCH  14  20
ATOM     20  O   UNL     1      14.518  -0.991 -11.464  1.00  0.00    -0.504 OA
ATOM     21  H   UNL     1      14.329  -0.046 -11.776  1.00  0.00     0.293 HD
ENDBRANCH  14  20
ENDBRANCH   1  12
BRANCH   2  22
ATOM     22  O   UNL     1      17.847  -2.751  -6.484  1.00  0.00    -0.502 OA
ATOM     23  H   UNL     1      16.993  -2.433  -6.927  1.00  0.00     0.293 HD
ENDBRANCH   2  22
BRANCH   6  24
ATOM     24  O   UNL     1      22.943  -3.483  -5.117  1.00  0.00    -0.507 OA
ATOM     25  H   UNL     1      23.059  -4.414  -4.746  1.00  0.00     0.293 HD
ENDBRANCH   6  24
BRANCH   8  26
ATOM     26  O   UNL     1      25.081  -2.644  -9.332  1.00  0.00    -0.508 OA
ATOM     27  H   UNL     1      25.946  -2.299  -8.932  1.00  0.00     0.293 HD
ENDBRANCH   8  26
TORSDOF 6
ENDMDL
MODEL 6
REMARK VINA RESULT:    -5.663      6.911      8.939
REMARK INTER + INTRA:          -7.383
REMARK INTER:                  -6.985
REMARK INTRA:                  -0.398
REMARK UNBOUND:                -0.396
REMARK SMILES COc1cc(-c2oc3cc(O)cc(O)c3c(=O)c2O)ccc1O
REMARK SMILES IDX 6 1 18 2 16 3 17 4 15 5 13 6 12 7 10 8 9 9 8 10 7 11 5 12
REMARK SMILES IDX 3 13 22 14 4 15 21 16 20 17 2 18 1 19 23 20 19 22 14 24
REMARK SMILES IDX 11 26
REMARK H PARENT 23 21 19 23 14 25 11 27
REMARK Flexibility Score: inf
ROOT
ATOM      1  C   UNL     1      19.148  -2.008  -8.186  1.00  0.00     0.180 A 
ATOM      2  C   UNL     1      19.089  -2.630  -6.926  1.00  0.00     0.208 A 
ATOM      3  C   UNL     1      20.281  -3.059  -6.322  1.00  0.00     0.238 A 
ATOM      4  O   UNL     1      20.215  -3.681  -5.230  1.00  0.00    -0.285 OA
ATOM      5  C   UNL     1      21.522  -2.812  -6.959  1.00  0.00     0.111 A 
ATOM      6  C   UNL     1      22.797  -3.164  -6.418  1.00  0.00     0.134 A 
ATOM      7  C   UNL     1      23.951  -2.965  -7.185  1.00  0.00     0.093 A 
ATOM      8  C   UNL     1      23.884  -2.370  -8.448  1.00  0.00     0.123 A 
ATOM      9  C   UNL     1      22.652  -1.975  -8.961  1.00  0.00     0.094 A 
ATOM     10  C   UNL     1      21.478  -2.194  -8.236  1.00  0.00     0.146 A 
ATOM     11  O   UNL     1      20.323  -1.820  -8.773  1.00  0.00    -0.452 OA
ENDROOT
BRANCH   1  12
ATOM     12  C   UNL     1      17.932  -1.541  -8.891  1.00  0.00     0.025 A 
ATOM     13  C   UNL     1      16.417   0.288  -9.478  1.00  0.00     0.161 A 
ATOM     14  C   UNL     1      15.667  -0.597 -10.264  1.00  0.00     0.157 A 
ATOM     15  C   UNL     1      17.556  -0.191  -8.798  1.00  0.00     0.062 A 
ATOM     16  C   UNL     1      16.050  -1.939 -10.376  1.00  0.00     0.051 A 
ATOM     17  C   UNL     1      17.179  -2.407  -9.701  1.00  0.00     0.016 A 
BRANCH  13  18
ATOM     18  O   UNL     1      16.006   1.626  -9.397  1.00  0.00    -0.493 OA
ATOM     19  C   UNL     1      16.088   2.426  -8.221  1.00  0.00     0.278 C 
ENDBRANCH  13  18
BRANCH  14  20
ATOM     20  O   UNL     1      14.538  -0.131 -10.938  1.00  0.00    -0.504 OA
ATOM     21  H   UNL     1      14.196   0.814 -10.809  1.00  0.00     0.293 HD
ENDBRANCH  14  20
ENDBRANCH   1  12
BRANCH   2  22
ATOM     22  O   UNL     1      17.860  -2.795  -6.279  1.00  0.00    -0.502 OA
ATOM     23  H   UNL     1      17.026  -2.295  -6.562  1.00  0.00     0.293 HD
ENDBRANCH   2  22
BRANCH   6  24
ATOM     24  O   UNL     1      22.987  -3.681  -5.133  1.00  0.00    -0.507 OA
ATOM     25  H   UNL     1      23.871  -3.721  -4.651  1.00  0.00     0.293 HD
ENDBRANCH   6  24
BRANCH   8  26
ATOM     26  O   UNL     1      25.039  -2.162  -9.197  1.00  0.00    -0.508 OA
ATOM     27  H   UNL     1      25.618  -1.341  -9.062  1.00  0.00     0.293 HD
ENDBRANCH   8  26
TORSDOF 6
ENDMDL
MODEL 7
REMARK VINA RESULT:    -5.560      7.315     10.827
REMARK INTER + INTRA:          -7.257
REMARK INTER:                  -6.879
REMARK INTRA:                  -0.377
REMARK UNBOUND:                -0.396
REMARK SMILES COc1cc(-c2oc3cc(O)cc(O)c3c(=O)c2O)ccc1O
REMARK SMILES IDX 6 1 18 2 16 3 17 4 15 5 13 6 12 7 10 8 9 9 8 10 7 11 5 12
REMARK SMILES IDX 3 13 22 14 4 15 21 16 20 17 2 18 1 19 23 20 19 22 14 24
REMARK SMILES IDX 11 26
REMARK H PARENT 23 21 19 23 14 25 11 27
REMARK Flexibility Score: inf
ROOT
ATOM      1  C   UNL     1      10.614  -6.259 -10.447  1.00  0.00     0.180 A 
ATOM      2  C   UNL     1      10.676  -7.552 -10.996  1.00  0.00     0.208 A 
ATOM      3  C   UNL     1      11.850  -7.959 -11.649  1.00  0.00     0.238 A 
ATOM      4  O   UNL     1      11.871  -9.089 -12.203  1.00  0.00    -0.285 OA
ATOM      5  C   UNL     1      12.967  -7.090 -11.698  1.00  0.00     0.111 A 
ATOM      6  C   UNL     1      14.223  -7.414 -12.295  1.00  0.00     0.134 A 
ATOM      7  C   UNL     1      15.222  -6.436 -12.377  1.00  0.00     0.093 A 
ATOM      8  C   UNL     1      15.034  -5.165 -11.827  1.00  0.00     0.123 A 
ATOM      9  C   UNL     1      13.833  -4.857 -11.195  1.00  0.00     0.094 A 
ATOM     10  C   UNL     1      12.802  -5.798 -11.130  1.00  0.00     0.146 A 
ATOM     11  O   UNL     1      11.666  -5.455 -10.536  1.00  0.00    -0.452 OA
ENDROOT
BRANCH   1  12
ATOM     12  C   UNL     1       9.406  -5.753  -9.755  1.00  0.00     0.025 A 
ATOM     13  C   UNL     1       8.086  -5.563  -7.705  1.00  0.00     0.161 A 
ATOM     14  C   UNL     1       7.158  -4.764  -8.386  1.00  0.00     0.157 A 
ATOM     15  C   UNL     1       9.214  -6.050  -8.395  1.00  0.00     0.062 A 
ATOM     16  C   UNL     1       7.356  -4.449  -9.736  1.00  0.00     0.051 A 
ATOM     17  C   UNL     1       8.475  -4.934 -10.415  1.00  0.00     0.016 A 
BRANCH  13  18
ATOM     18  O   UNL     1       7.857  -5.849  -6.351  1.00  0.00    -0.493 OA
ATOM     19  C   UNL     1       8.406  -5.109  -5.265  1.00  0.00     0.278 C 
ENDBRANCH  13  18
BRANCH  14  20
ATOM     20  O   UNL     1       6.039  -4.279  -7.709  1.00  0.00    -0.504 OA
ATOM     21  H   UNL     1       6.066  -3.404  -7.199  1.00  0.00     0.293 HD
ENDBRANCH  14  20
ENDBRANCH   1  12
BRANCH   2  22
ATOM     22  O   UNL     1       9.589  -8.422 -10.870  1.00  0.00    -0.502 OA
ATOM     23  H   UNL     1       9.576  -9.341 -11.297  1.00  0.00     0.293 HD
ENDBRANCH   2  22
BRANCH   6  24
ATOM     24  O   UNL     1      14.550  -8.679 -12.795  1.00  0.00    -0.507 OA
ATOM     25  H   UNL     1      15.387  -8.897 -13.312  1.00  0.00     0.293 HD
ENDBRANCH   6  24
BRANCH   8  26
ATOM     26  O   UNL     1      16.039  -4.204 -11.899  1.00  0.00    -0.508 OA
ATOM     27  H   UNL     1      16.764  -4.142 -11.193  1.00  0.00     0.293 HD
ENDBRANCH   8  26
TORSDOF 6
ENDMDL
MODEL 8
REMARK VINA RESULT:    -5.519      5.970      8.364
REMARK INTER + INTRA:          -7.206
REMARK INTER:                  -6.897
REMARK INTRA:                  -0.309
REMARK UNBOUND:                -0.396
REMARK SMILES COc1cc(-c2oc3cc(O)cc(O)c3c(=O)c2O)ccc1O
REMARK SMILES IDX 6 1 18 2 16 3 17 4 15 5 13 6 12 7 10 8 9 9 8 10 7 11 5 12
REMARK SMILES IDX 3 13 22 14 4 15 21 16 20 17 2 18 1 19 23 20 19 22 14 24
REMARK SMILES IDX 11 26
REMARK H PARENT 23 21 19 23 14 25 11 27
REMARK Flexibility Score: inf
ROOT
ATOM      1  C   UNL     1      18.042  -2.202  -9.059  1.00  0.00     0.180 A 
ATOM      2  C   UNL     1      17.308  -1.002  -9.027  1.00  0.00     0.208 A 
ATOM      3  C   UNL     1      16.277  -0.810  -9.959  1.00  0.00     0.238 A 
ATOM      4  O   UNL     1      15.674   0.295  -9.973  1.00  0.00    -0.285 OA
ATOM      5  C   UNL     1      15.954  -1.841 -10.876  1.00  0.00     0.111 A 
ATOM      6  C   UNL     1      14.899  -1.772 -11.836  1.00  0.00     0.134 A 
ATOM      7  C   UNL     1      14.740  -2.810 -12.763  1.00  0.00     0.093 A 
ATOM      8  C   UNL     1      15.557  -3.943 -12.724  1.00  0.00     0.123 A 
ATOM      9  C   UNL     1      16.553  -4.043 -11.757  1.00  0.00     0.094 A 
ATOM     10  C   UNL     1      16.762  -3.007 -10.843  1.00  0.00     0.146 A 
ATOM     11  O   UNL     1      17.737  -3.136  -9.952  1.00  0.00    -0.452 OA
ENDROOT
BRANCH   1  12
ATOM     12  C   UNL     1      19.153  -2.472  -8.118  1.00  0.00     0.025 A 
ATOM     13  C   UNL     1      21.557  -2.588  -7.687  1.00  0.00     0.161 A 
ATOM     14  C   UNL     1      21.294  -2.915  -6.350  1.00  0.00     0.157 A 
ATOM     15  C   UNL     1      20.480  -2.360  -8.566  1.00  0.00     0.062 A 
ATOM     16  C   UNL     1      19.973  -3.007  -5.895  1.00  0.00     0.051 A 
ATOM     17  C   UNL     1      18.909  -2.780  -6.770  1.00  0.00     0.016 A 
BRANCH  13  18
ATOM     18  O   UNL     1      22.894  -2.498  -8.104  1.00  0.00    -0.493 OA
ATOM     19  C   UNL     1      23.647  -3.581  -8.638  1.00  0.00     0.278 C 
ENDBRANCH  13  18
BRANCH  14  20
ATOM     20  O   UNL     1      22.356  -3.143  -5.475  1.00  0.00    -0.504 OA
ATOM     21  H   UNL     1      22.255  -3.742  -4.664  1.00  0.00     0.293 HD
ENDBRANCH  14  20
ENDBRANCH   1  12
BRANCH   2  22
ATOM     22  O   UNL     1      17.593  -0.030  -8.064  1.00  0.00    -0.502 OA
ATOM     23  H   UNL     1      17.827  -0.265  -7.107  1.00  0.00     0.293 HD
ENDBRANCH   2  22
BRANCH   6  24
ATOM     24  O   UNL     1      13.969  -0.729 -11.906  1.00  0.00    -0.507 OA
ATOM     25  H   UNL     1      13.005  -0.832 -12.183  1.00  0.00     0.293 HD
ENDBRANCH   6  24
BRANCH   8  26
ATOM     26  O   UNL     1      15.380  -4.977 -13.639  1.00  0.00    -0.508 OA
ATOM     27  H   UNL     1      15.653  -4.879 -14.610  1.00  0.00     0.293 HD
ENDBRANCH   8  26
TORSDOF 6
ENDMDL
MODEL 9
REMARK VINA RESULT:    -5.471      8.172     10.467
REMARK INTER + INTRA:          -7.146
REMARK INTER:                  -6.761
REMARK INTRA:                  -0.385
REMARK UNBOUND:                -0.396
REMARK SMILES COc1cc(-c2oc3cc(O)cc(O)c3c(=O)c2O)ccc1O
REMARK SMILES IDX 6 1 18 2 16 3 17 4 15 5 13 6 12 7 10 8 9 9 8 10 7 11 5 12
REMARK SMILES IDX 3 13 22 14 4 15 21 16 20 17 2 18 1 19 23 20 19 22 14 24
REMARK SMILES IDX 11 26
REMARK H PARENT 23 21 19 23 14 25 11 27
REMARK Flexibility Score: inf
ROOT
ATOM      1  C   UNL     1      20.694  -1.506  -7.391  1.00  0.00     0.180 A 
ATOM      2  C   UNL     1      19.422  -1.935  -7.808  1.00  0.00     0.208 A 
ATOM      3  C   UNL     1      18.440  -0.974  -8.093  1.00  0.00     0.238 A 
ATOM      4  O   UNL     1      17.282  -1.365  -8.393  1.00  0.00    -0.285 OA
ATOM      5  C   UNL     1      18.757   0.405  -8.012  1.00  0.00     0.111 A 
ATOM      6  C   UNL     1      17.852   1.466  -8.321  1.00  0.00     0.134 A 
ATOM      7  C   UNL     1      18.243   2.792  -8.103  1.00  0.00     0.093 A 
ATOM      8  C   UNL     1      19.528   3.100  -7.647  1.00  0.00     0.123 A 
ATOM      9  C   UNL     1      20.435   2.074  -7.395  1.00  0.00     0.094 A 
ATOM     10  C   UNL     1      20.063   0.738  -7.565  1.00  0.00     0.146 A 
ATOM     11  O   UNL     1      20.953  -0.208  -7.293  1.00  0.00    -0.452 OA
ENDROOT
BRANCH   1  12
ATOM     12  C   UNL     1      21.778  -2.460  -7.059  1.00  0.00     0.025 A 
ATOM     13  C   UNL     1      23.854  -3.584  -7.699  1.00  0.00     0.161 A 
ATOM     14  C   UNL     1      23.888  -4.216  -6.449  1.00  0.00     0.157 A 
ATOM     15  C   UNL     1      22.798  -2.699  -7.996  1.00  0.00     0.062 A 
ATOM     16  C   UNL     1      22.884  -3.964  -5.505  1.00  0.00     0.051 A 
ATOM     17  C   UNL     1      21.841  -3.087  -5.804  1.00  0.00     0.016 A 
BRANCH  13  18
ATOM     18  O   UNL     1      24.881  -3.856  -8.614  1.00  0.00    -0.493 OA
ATOM     19  C   UNL     1      24.771  -4.766  -9.704  1.00  0.00     0.278 C 
ENDBRANCH  13  18
BRANCH  14  20
ATOM     20  O   UNL     1      24.929  -5.093  -6.148  1.00  0.00    -0.504 OA
ATOM     21  H   UNL     1      25.727  -4.800  -5.597  1.00  0.00     0.293 HD
ENDBRANCH  14  20
ENDBRANCH   1  12
BRANCH   2  22
ATOM     22  O   UNL     1      19.152  -3.299  -7.955  1.00  0.00    -0.502 OA
ATOM     23  H   UNL     1      18.378  -3.643  -8.510  1.00  0.00     0.293 HD
ENDBRANCH   2  22
BRANCH   6  24
ATOM     24  O   UNL     1      16.578   1.276  -8.866  1.00  0.00    -0.507 OA
ATOM     25  H   UNL     1      15.756   1.022  -8.339  1.00  0.00     0.293 HD
ENDBRANCH   6  24
BRANCH   8  26
ATOM     26  O   UNL     1      19.914   4.423  -7.449  1.00  0.00    -0.508 OA
ATOM     27  H   UNL     1      20.278   4.742  -6.558  1.00  0.00     0.293 HD
ENDBRANCH   8  26
TORSDOF 6
ENDMDL
