MODEL 1
REMARK VINA RESULT:    -4.402      0.000      0.000
REMARK INTER + INTRA:          -4.670
REMARK INTER:                  -4.659
REMARK INTRA:                  -0.011
REMARK UNBOUND:                -0.011
REMARK SMILES O=Cc1ccccc1
REMARK SMILES IDX 6 1 5 2 4 3 3 4 8 5 7 6 2 7 1 8
REMARK H PARENT
REMARK Flexibility Score: inf
ROOT
ATOM      1  C   UNL     1      44.974  51.486  84.157  1.00  0.00     0.000 A 
ATOM      2  C   UNL     1      44.289  52.698  84.276  1.00  0.00     0.001 A 
ATOM      3  C   UNL     1      44.085  53.267  85.538  1.00  0.00     0.011 A 
ATOM      4  C   UNL     1      44.567  52.624  86.691  1.00  0.00     0.014 A 
ATOM      5  C   UNL     1      45.255  51.406  86.563  1.00  0.00     0.011 A 
ATOM      6  C   UNL     1      45.456  50.840  85.299  1.00  0.00     0.001 A 
ENDROOT
BRANCH   4   7
ATOM      7  C   UNL     1      44.364  53.206  88.031  1.00  0.00     0.260 C 
ATOM      8  O   UNL     1      43.275  53.760  88.340  1.00  0.00    -0.298 OA
ENDBRANCH   4   7
TORSDOF 1
ENDMDL
MODEL 2
REMARK VINA RESULT:    -4.360     13.862     13.952
REMARK INTER + INTRA:          -4.626
REMARK INTER:                  -4.613
REMARK INTRA:                  -0.012
REMARK UNBOUND:                -0.011
REMARK SMILES O=Cc1ccccc1
REMARK SMILES IDX 6 1 5 2 4 3 3 4 8 5 7 6 2 7 1 8
REMARK H PARENT
REMARK Flexibility Score: inf
ROOT
ATOM      1  C   UNL     1      56.192  59.708  84.980  1.00  0.00     0.000 A 
ATOM      2  C   UNL     1      55.748  60.169  86.221  1.00  0.00     0.001 A 
ATOM      3  C   UNL     1      56.085  59.475  87.389  1.00  0.00     0.011 A 
ATOM      4  C   UNL     1      56.871  58.312  87.319  1.00  0.00     0.014 A 
ATOM      5  C   UNL     1      57.313  57.855  86.067  1.00  0.00     0.011 A 
ATOM      6  C   UNL     1      56.973  58.551  84.902  1.00  0.00     0.001 A 
ENDROOT
BRANCH   4   7
ATOM      7  C   UNL     1      57.238  57.565  88.537  1.00  0.00     0.260 C 
ATOM      8  O   UNL     1      58.346  56.974  88.627  1.00  0.00    -0.298 OA
ENDBRANCH   4   7
TORSDOF 1
ENDMDL
MODEL 3
REMARK VINA RESULT:    -4.356     12.219     12.972
REMARK INTER + INTRA:          -4.621
REMARK INTER:                  -4.609
REMARK INTRA:                  -0.013
REMARK UNBOUND:                -0.011
REMARK SMILES O=Cc1ccccc1
REMARK SMILES IDX 6 1 5 2 4 3 3 4 8 5 7 6 2 7 1 8
REMARK H PARENT
REMARK Flexibility Score: inf
ROOT
ATOM      1  C   UNL     1      48.039  59.059  75.818  1.00  0.00     0.000 A 
ATOM      2  C   UNL     1      49.339  59.125  75.312  1.00  0.00     0.001 A 
ATOM      3  C   UNL     1      50.398  59.503  76.144  1.00  0.00     0.011 A 
ATOM      4  C   UNL     1      50.160  59.817  77.494  1.00  0.00     0.014 A 
ATOM      5  C   UNL     1      48.850  59.748  77.995  1.00  0.00     0.011 A 
ATOM      6  C   UNL     1      47.794  59.371  77.159  1.00  0.00     0.001 A 
ENDROOT
BRANCH   4   7
ATOM      7  C   UNL     1      51.261  60.217  78.389  1.00  0.00     0.260 C 
ATOM      8  O   UNL     1      52.358  60.629  77.927  1.00  0.00    -0.298 OA
ENDBRANCH   4   7
TORSDOF 1
ENDMDL
MODEL 4
REMARK VINA RESULT:    -4.352     12.185     12.931
REMARK INTER + INTRA:          -4.618
REMARK INTER:                  -4.604
REMARK INTRA:                  -0.014
REMARK UNBOUND:                -0.011
REMARK SMILES O=Cc1ccccc1
REMARK SMILES IDX 6 1 5 2 4 3 3 4 8 5 7 6 2 7 1 8
REMARK H PARENT
REMARK Flexibility Score: inf
ROOT
ATOM      1  C   UNL     1      48.007  59.059  75.806  1.00  0.00     0.000 A 
ATOM      2  C   UNL     1      47.739  59.359  77.143  1.00  0.00     0.001 A 
ATOM      3  C   UNL     1      48.779  59.731  78.002  1.00  0.00     0.011 A 
ATOM      4  C   UNL     1      50.099  59.806  77.524  1.00  0.00     0.014 A 
ATOM      5  C   UNL     1      50.361  59.503  76.177  1.00  0.00     0.011 A 
ATOM      6  C   UNL     1      49.317  59.131  75.323  1.00  0.00     0.001 A 
ENDROOT
BRANCH   4   7
ATOM      7  C   UNL     1      51.210  60.196  78.410  1.00  0.00     0.260 C 
ATOM      8  O   UNL     1      52.312  60.586  77.939  1.00  0.00    -0.298 OA
ENDBRANCH   4   7
TORSDOF 1
ENDMDL
MODEL 5
REMARK VINA RESULT:    -4.343      1.043      1.946
REMARK INTER + INTRA:          -4.608
REMARK INTER:                  -4.595
REMARK INTRA:                  -0.013
REMARK UNBOUND:                -0.011
REMARK SMILES O=Cc1ccccc1
REMARK SMILES IDX 6 1 5 2 4 3 3 4 8 5 7 6 2 7 1 8
REMARK H PARENT
REMARK Flexibility Score: inf
ROOT
ATOM      1  C   UNL     1      45.420  50.955  85.474  1.00  0.00     0.000 A 
ATOM      2  C   UNL     1      44.977  51.472  84.254  1.00  0.00     0.001 A 
ATOM      3  C   UNL     1      44.268  52.678  84.218  1.00  0.00     0.011 A 
ATOM      4  C   UNL     1      43.998  53.376  85.408  1.00  0.00     0.014 A 
ATOM      5  C   UNL     1      44.447  52.850  86.631  1.00  0.00     0.011 A 
ATOM      6  C   UNL     1      45.155  51.644  86.662  1.00  0.00     0.001 A 
ENDROOT
BRANCH   4   7
ATOM      7  C   UNL     1      43.254  54.649  85.394  1.00  0.00     0.260 C 
ATOM      8  O   UNL     1      42.599  55.030  86.400  1.00  0.00    -0.298 OA
ENDBRANCH   4   7
TORSDOF 1
ENDMDL
MODEL 6
REMARK VINA RESULT:    -4.302     12.521     13.442
REMARK INTER + INTRA:          -4.564
REMARK INTER:                  -4.552
REMARK INTRA:                  -0.012
REMARK UNBOUND:                -0.011
REMARK SMILES O=Cc1ccccc1
REMARK SMILES IDX 6 1 5 2 4 3 3 4 8 5 7 6 2 7 1 8
REMARK H PARENT
REMARK Flexibility Score: inf
ROOT
ATOM      1  C   UNL     1      52.852  60.281  77.072  1.00  0.00     0.000 A 
ATOM      2  C   UNL     1      52.171  59.790  75.956  1.00  0.00     0.001 A 
ATOM      3  C   UNL     1      50.806  59.496  76.040  1.00  0.00     0.011 A 
ATOM      4  C   UNL     1      50.112  59.694  77.247  1.00  0.00     0.014 A 
ATOM      5  C   UNL     1      50.804  60.188  78.364  1.00  0.00     0.011 A 
ATOM      6  C   UNL     1      52.169  60.480  78.276  1.00  0.00     0.001 A 
ENDROOT
BRANCH   4   7
ATOM      7  C   UNL     1      48.673  59.392  77.357  1.00  0.00     0.260 C 
ATOM      8  O   UNL     1      47.940  59.337  76.335  1.00  0.00    -0.298 OA
ENDBRANCH   4   7
TORSDOF 1
ENDMDL
MODEL 7
REMARK VINA RESULT:    -4.296      1.218      2.339
REMARK INTER + INTRA:          -4.558
REMARK INTER:                  -4.545
REMARK INTRA:                  -0.012
REMARK UNBOUND:                -0.011
REMARK SMILES O=Cc1ccccc1
REMARK SMILES IDX 6 1 5 2 4 3 3 4 8 5 7 6 2 7 1 8
REMARK H PARENT
REMARK Flexibility Score: inf
ROOT
ATOM      1  C   UNL     1      45.374  51.135  85.593  1.00  0.00     0.000 A 
ATOM      2  C   UNL     1      45.072  51.895  86.725  1.00  0.00     0.001 A 
ATOM      3  C   UNL     1      44.337  53.079  86.601  1.00  0.00     0.011 A 
ATOM      4  C   UNL     1      43.899  53.511  85.337  1.00  0.00     0.014 A 
ATOM      5  C   UNL     1      44.207  52.742  84.203  1.00  0.00     0.011 A 
ATOM      6  C   UNL     1      44.942  51.559  84.332  1.00  0.00     0.001 A 
ENDROOT
BRANCH   4   7
ATOM      7  C   UNL     1      43.123  54.756  85.183  1.00  0.00     0.260 C 
ATOM      8  O   UNL     1      42.458  55.230  86.142  1.00  0.00    -0.298 OA
ENDBRANCH   4   7
TORSDOF 1
ENDMDL
MODEL 8
REMARK VINA RESULT:    -4.290     12.473     13.584
REMARK INTER + INTRA:          -4.552
REMARK INTER:                  -4.540
REMARK INTRA:                  -0.012
REMARK UNBOUND:                -0.011
REMARK SMILES O=Cc1ccccc1
REMARK SMILES IDX 6 1 5 2 4 3 3 4 8 5 7 6 2 7 1 8
REMARK H PARENT
REMARK Flexibility Score: inf
ROOT
ATOM      1  C   UNL     1      47.834  59.404  77.144  1.00  0.00     0.000 A 
ATOM      2  C   UNL     1      48.919  59.726  77.963  1.00  0.00     0.001 A 
ATOM      3  C   UNL     1      50.212  59.772  77.430  1.00  0.00     0.011 A 
ATOM      4  C   UNL     1      50.427  59.495  76.069  1.00  0.00     0.014 A 
ATOM      5  C   UNL     1      49.331  59.172  75.252  1.00  0.00     0.011 A 
ATOM      6  C   UNL     1      48.040  59.127  75.789  1.00  0.00     0.001 A 
ENDROOT
BRANCH   4   7
ATOM      7  C   UNL     1      51.780  59.537  75.486  1.00  0.00     0.260 C 
ATOM      8  O   UNL     1      52.694  60.225  76.015  1.00  0.00    -0.298 OA
ENDBRANCH   4   7
TORSDOF 1
ENDMDL
MODEL 9
REMARK VINA RESULT:    -4.289     12.409     13.462
REMARK INTER + INTRA:          -4.551
REMARK INTER:                  -4.537
REMARK INTRA:                  -0.014
REMARK UNBOUND:                -0.011
REMARK SMILES O=Cc1ccccc1
REMARK SMILES IDX 6 1 5 2 4 3 3 4 8 5 7 6 2 7 1 8
REMARK H PARENT
REMARK Flexibility Score: inf
ROOT
ATOM      1  C   UNL     1      47.756  59.385  77.106  1.00  0.00     0.000 A 
ATOM      2  C   UNL     1      48.027  59.092  75.768  1.00  0.00     0.001 A 
ATOM      3  C   UNL     1      49.340  59.149  75.288  1.00  0.00     0.011 A 
ATOM      4  C   UNL     1      50.393  59.502  76.150  1.00  0.00     0.014 A 
ATOM      5  C   UNL     1      50.113  59.795  77.495  1.00  0.00     0.011 A 
ATOM      6  C   UNL     1      48.798  59.737  77.969  1.00  0.00     0.001 A 
ENDROOT
BRANCH   4   7
ATOM      7  C   UNL     1      51.784  59.569  75.666  1.00  0.00     0.260 C 
ATOM      8  O   UNL     1      52.666  60.202  76.306  1.00  0.00    -0.298 OA
ENDBRANCH   4   7
TORSDOF 1
ENDMDL
