MODEL 1
REMARK VINA RESULT:    -4.601      0.000      0.000
REMARK INTER + INTRA:          -5.256
REMARK INTER:                  -5.004
REMARK INTRA:                  -0.252
REMARK UNBOUND:                -0.252
REMARK SMILES O=C([O-])c1ccccc1O
REMARK SMILES IDX 4 1 9 2 5 3 8 4 6 5 7 6 2 7 1 8 3 9 10 10
REMARK H PARENT 10 11
REMARK Flexibility Score: inf
ROOT
ATOM      1  C   UNL     1       2.275  -8.720  22.592  1.00  0.00     0.039 A 
ATOM      2  C   UNL     1       2.070  -7.361  22.256  1.00  0.00     0.124 A 
ATOM      3  C   UNL     1       2.207  -9.689  21.569  1.00  0.00     0.014 A 
ATOM      4  C   UNL     1       1.804  -7.000  20.926  1.00  0.00     0.047 A 
ATOM      5  C   UNL     1       1.942  -9.316  20.249  1.00  0.00     0.001 A 
ATOM      6  C   UNL     1       1.741  -7.975  19.928  1.00  0.00     0.004 A 
ENDROOT
BRANCH   1   7
ATOM      7  C   UNL     1       2.558  -9.147  23.986  1.00  0.00     0.075 C 
ATOM      8  O   UNL     1       1.886 -10.070  24.519  1.00  0.00    -0.545 OA
ATOM      9  O   UNL     1       3.565  -8.544  24.730  1.00  0.00    -0.545 OA
ENDBRANCH   1   7
BRANCH   2  10
ATOM     10  O   UNL     1       2.127  -6.368  23.233  1.00  0.00    -0.507 OA
ATOM     11  H   UNL     1       1.393  -5.678  23.336  1.00  0.00     0.293 HD
ENDBRANCH   2  10
TORSDOF 2
ENDMDL
MODEL 2
REMARK VINA RESULT:    -4.478     10.617     11.788
REMARK INTER + INTRA:          -5.123
REMARK INTER:                  -4.887
REMARK INTRA:                  -0.236
REMARK UNBOUND:                -0.252
REMARK SMILES O=C([O-])c1ccccc1O
REMARK SMILES IDX 4 1 9 2 5 3 8 4 6 5 7 6 2 7 1 8 3 9 10 10
REMARK H PARENT 10 11
REMARK Flexibility Score: inf
ROOT
ATOM      1  C   UNL     1      10.627  -4.551  29.991  1.00  0.00     0.039 A 
ATOM      2  C   UNL     1       9.507  -3.699  29.846  1.00  0.00     0.124 A 
ATOM      3  C   UNL     1      11.121  -5.223  28.853  1.00  0.00     0.014 A 
ATOM      4  C   UNL     1       8.910  -3.536  28.586  1.00  0.00     0.047 A 
ATOM      5  C   UNL     1      10.517  -5.052  27.606  1.00  0.00     0.001 A 
ATOM      6  C   UNL     1       9.414  -4.210  27.472  1.00  0.00     0.004 A 
ENDROOT
BRANCH   1   7
ATOM      7  C   UNL     1      11.291  -4.753  31.305  1.00  0.00     0.075 C 
ATOM      8  O   UNL     1      10.649  -5.241  32.274  1.00  0.00    -0.545 OA
ATOM      9  O   UNL     1      12.624  -4.412  31.495  1.00  0.00    -0.545 OA
ENDBRANCH   1   7
BRANCH   2  10
ATOM     10  O   UNL     1       8.984  -3.014  30.942  1.00  0.00    -0.507 OA
ATOM     11  H   UNL     1       9.549  -2.380  31.495  1.00  0.00     0.293 HD
ENDBRANCH   2  10
TORSDOF 2
ENDMDL
MODEL 3
REMARK VINA RESULT:    -4.410     12.343     14.002
REMARK INTER + INTRA:          -5.049
REMARK INTER:                  -4.802
REMARK INTRA:                  -0.247
REMARK UNBOUND:                -0.252
REMARK SMILES O=C([O-])c1ccccc1O
REMARK SMILES IDX 4 1 9 2 5 3 8 4 6 5 7 6 2 7 1 8 3 9 10 10
REMARK H PARENT 10 11
REMARK Flexibility Score: inf
ROOT
ATOM      1  C   UNL     1      11.843  -4.755  31.046  1.00  0.00     0.039 A 
ATOM      2  C   UNL     1      10.749  -4.835  31.940  1.00  0.00     0.124 A 
ATOM      3  C   UNL     1      13.151  -4.873  31.561  1.00  0.00     0.014 A 
ATOM      4  C   UNL     1      10.979  -5.027  33.312  1.00  0.00     0.047 A 
ATOM      5  C   UNL     1      13.365  -5.064  32.927  1.00  0.00     0.001 A 
ATOM      6  C   UNL     1      12.281  -5.141  33.801  1.00  0.00     0.004 A 
ENDROOT
BRANCH   1   7
ATOM      7  C   UNL     1      11.647  -4.551  29.587  1.00  0.00     0.075 C 
ATOM      8  O   UNL     1      10.918  -5.339  28.926  1.00  0.00    -0.545 OA
ATOM      9  O   UNL     1      12.257  -3.495  28.922  1.00  0.00    -0.545 OA
ENDBRANCH   1   7
BRANCH   2  10
ATOM     10  O   UNL     1       9.439  -4.723  31.477  1.00  0.00    -0.507 OA
ATOM     11  H   UNL     1       8.960  -3.831  31.442  1.00  0.00     0.293 HD
ENDBRANCH   2  10
TORSDOF 2
ENDMDL
MODEL 4
REMARK VINA RESULT:    -4.229     11.120     12.487
REMARK INTER + INTRA:          -4.852
REMARK INTER:                  -4.602
REMARK INTRA:                  -0.250
REMARK UNBOUND:                -0.252
REMARK SMILES O=C([O-])c1ccccc1O
REMARK SMILES IDX 4 1 9 2 5 3 8 4 6 5 7 6 2 7 1 8 3 9 10 10
REMARK H PARENT 10 11
REMARK Flexibility Score: inf
ROOT
ATOM      1  C   UNL     1      11.561  -4.515  28.176  1.00  0.00     0.039 A 
ATOM      2  C   UNL     1      12.345  -3.368  28.442  1.00  0.00     0.124 A 
ATOM      3  C   UNL     1      11.173  -5.337  29.254  1.00  0.00     0.014 A 
ATOM      4  C   UNL     1      12.723  -3.069  29.761  1.00  0.00     0.047 A 
ATOM      5  C   UNL     1      11.556  -5.028  30.561  1.00  0.00     0.001 A 
ATOM      6  C   UNL     1      12.330  -3.896  30.814  1.00  0.00     0.004 A 
ENDROOT
BRANCH   1   7
ATOM      7  C   UNL     1      11.138  -4.870  26.796  1.00  0.00     0.075 C 
ATOM      8  O   UNL     1      11.990  -4.955  25.871  1.00  0.00    -0.545 OA
ATOM      9  O   UNL     1       9.804  -5.116  26.496  1.00  0.00    -0.545 OA
ENDBRANCH   1   7
BRANCH   2  10
ATOM     10  O   UNL     1      12.752  -2.526  27.408  1.00  0.00    -0.507 OA
ATOM     11  H   UNL     1      12.530  -1.537  27.407  1.00  0.00     0.293 HD
ENDBRANCH   2  10
TORSDOF 2
ENDMDL
MODEL 5
REMARK VINA RESULT:    -4.163     11.599     12.723
REMARK INTER + INTRA:          -4.780
REMARK INTER:                  -4.531
REMARK INTRA:                  -0.249
REMARK UNBOUND:                -0.252
REMARK SMILES O=C([O-])c1ccccc1O
REMARK SMILES IDX 4 1 9 2 5 3 8 4 6 5 7 6 2 7 1 8 3 9 10 10
REMARK H PARENT 10 11
REMARK Flexibility Score: inf
ROOT
ATOM      1  C   UNL     1      11.806  -4.487  29.694  1.00  0.00     0.039 A 
ATOM      2  C   UNL     1      12.378  -3.375  29.033  1.00  0.00     0.124 A 
ATOM      3  C   UNL     1      11.114  -5.449  28.929  1.00  0.00     0.014 A 
ATOM      4  C   UNL     1      12.249  -3.245  27.641  1.00  0.00     0.047 A 
ATOM      5  C   UNL     1      10.993  -5.308  27.545  1.00  0.00     0.001 A 
ATOM      6  C   UNL     1      11.560  -4.208  26.902  1.00  0.00     0.004 A 
ENDROOT
BRANCH   1   7
ATOM      7  C   UNL     1      11.917  -4.664  31.165  1.00  0.00     0.075 C 
ATOM      8  O   UNL     1      13.019  -4.477  31.748  1.00  0.00    -0.545 OA
ATOM      9  O   UNL     1      10.817  -5.038  31.928  1.00  0.00    -0.545 OA
ENDBRANCH   1   7
BRANCH   2  10
ATOM     10  O   UNL     1      13.070  -2.398  29.747  1.00  0.00    -0.507 OA
ATOM     11  H   UNL     1      13.153  -2.433  30.756  1.00  0.00     0.293 HD
ENDBRANCH   2  10
TORSDOF 2
ENDMDL
MODEL 6
REMARK VINA RESULT:    -4.159     12.478     13.827
REMARK INTER + INTRA:          -4.775
REMARK INTER:                  -4.525
REMARK INTRA:                  -0.250
REMARK UNBOUND:                -0.252
REMARK SMILES O=C([O-])c1ccccc1O
REMARK SMILES IDX 4 1 9 2 5 3 8 4 6 5 7 6 2 7 1 8 3 9 10 10
REMARK H PARENT 10 11
REMARK Flexibility Score: inf
ROOT
ATOM      1  C   UNL     1      12.203  -4.416  31.397  1.00  0.00     0.039 A 
ATOM      2  C   UNL     1      10.804  -4.593  31.280  1.00  0.00     0.124 A 
ATOM      3  C   UNL     1      12.900  -3.798  30.338  1.00  0.00     0.014 A 
ATOM      4  C   UNL     1      10.138  -4.157  30.123  1.00  0.00     0.047 A 
ATOM      5  C   UNL     1      12.224  -3.369  29.194  1.00  0.00     0.001 A 
ATOM      6  C   UNL     1      10.846  -3.548  29.086  1.00  0.00     0.004 A 
ENDROOT
BRANCH   1   7
ATOM      7  C   UNL     1      12.949  -4.863  32.602  1.00  0.00     0.075 C 
ATOM      8  O   UNL     1      12.578  -4.501  33.751  1.00  0.00    -0.545 OA
ATOM      9  O   UNL     1      14.064  -5.685  32.491  1.00  0.00    -0.545 OA
ENDBRANCH   1   7
BRANCH   2  10
ATOM     10  O   UNL     1      10.072  -5.200  32.300  1.00  0.00    -0.507 OA
ATOM     11  H   UNL     1       9.963  -4.765  33.208  1.00  0.00     0.293 HD
ENDBRANCH   2  10
TORSDOF 2
ENDMDL
MODEL 7
REMARK VINA RESULT:    -4.020     10.163     11.434
REMARK INTER + INTRA:          -4.624
REMARK INTER:                  -4.375
REMARK INTRA:                  -0.250
REMARK UNBOUND:                -0.252
REMARK SMILES O=C([O-])c1ccccc1O
REMARK SMILES IDX 4 1 9 2 5 3 8 4 6 5 7 6 2 7 1 8 3 9 10 10
REMARK H PARENT 10 11
REMARK Flexibility Score: inf
ROOT
ATOM      1  C   UNL     1      10.665  -3.928  26.776  1.00  0.00     0.039 A 
ATOM      2  C   UNL     1      11.796  -3.665  27.584  1.00  0.00     0.124 A 
ATOM      3  C   UNL     1       9.411  -4.100  27.399  1.00  0.00     0.014 A 
ATOM      4  C   UNL     1      11.656  -3.581  28.979  1.00  0.00     0.047 A 
ATOM      5  C   UNL     1       9.286  -4.014  28.788  1.00  0.00     0.001 A 
ATOM      6  C   UNL     1      10.407  -3.755  29.576  1.00  0.00     0.004 A 
ENDROOT
BRANCH   1   7
ATOM      7  C   UNL     1      10.766  -4.025  25.297  1.00  0.00     0.075 C 
ATOM      8  O   UNL     1      10.013  -3.335  24.560  1.00  0.00    -0.545 OA
ATOM      9  O   UNL     1      11.688  -4.874  24.696  1.00  0.00    -0.545 OA
ENDBRANCH   1   7
BRANCH   2  10
ATOM     10  O   UNL     1      13.056  -3.489  27.014  1.00  0.00    -0.507 OA
ATOM     11  H   UNL     1      13.716  -2.812  27.378  1.00  0.00     0.293 HD
ENDBRANCH   2  10
TORSDOF 2
ENDMDL
MODEL 8
REMARK VINA RESULT:    -4.018     11.132     12.259
REMARK INTER + INTRA:          -4.623
REMARK INTER:                  -4.394
REMARK INTRA:                  -0.228
REMARK UNBOUND:                -0.252
REMARK SMILES O=C([O-])c1ccccc1O
REMARK SMILES IDX 4 1 9 2 5 3 8 4 6 5 7 6 2 7 1 8 3 9 10 10
REMARK H PARENT 10 11
REMARK Flexibility Score: inf
ROOT
ATOM      1  C   UNL     1      11.247  -3.445  29.080  1.00  0.00     0.039 A 
ATOM      2  C   UNL     1      11.675  -3.459  27.731  1.00  0.00     0.124 A 
ATOM      3  C   UNL     1       9.899  -3.742  29.368  1.00  0.00     0.014 A 
ATOM      4  C   UNL     1      10.761  -3.765  26.710  1.00  0.00     0.047 A 
ATOM      5  C   UNL     1       9.001  -4.046  28.342  1.00  0.00     0.001 A 
ATOM      6  C   UNL     1       9.431  -4.057  27.016  1.00  0.00     0.004 A 
ENDROOT
BRANCH   1   7
ATOM      7  C   UNL     1      12.179  -3.126  30.192  1.00  0.00     0.075 C 
ATOM      8  O   UNL     1      11.959  -2.139  30.945  1.00  0.00    -0.545 OA
ATOM      9  O   UNL     1      13.308  -3.902  30.427  1.00  0.00    -0.545 OA
ENDBRANCH   1   7
BRANCH   2  10
ATOM     10  O   UNL     1      12.997  -3.171  27.398  1.00  0.00    -0.507 OA
ATOM     11  H   UNL     1      13.247  -2.780  26.497  1.00  0.00     0.293 HD
ENDBRANCH   2  10
TORSDOF 2
ENDMDL
MODEL 9
REMARK VINA RESULT:    -3.981     11.172     12.610
REMARK INTER + INTRA:          -4.582
REMARK INTER:                  -4.356
REMARK INTRA:                  -0.226
REMARK UNBOUND:                -0.252
REMARK SMILES O=C([O-])c1ccccc1O
REMARK SMILES IDX 4 1 9 2 5 3 8 4 6 5 7 6 2 7 1 8 3 9 10 10
REMARK H PARENT 10 11
REMARK Flexibility Score: inf
ROOT
ATOM      1  C   UNL     1      10.124  -3.472  29.710  1.00  0.00     0.039 A 
ATOM      2  C   UNL     1       9.999  -3.041  31.052  1.00  0.00     0.124 A 
ATOM      3  C   UNL     1      11.323  -4.096  29.307  1.00  0.00     0.014 A 
ATOM      4  C   UNL     1      11.058  -3.238  31.953  1.00  0.00     0.047 A 
ATOM      5  C   UNL     1      12.368  -4.287  30.214  1.00  0.00     0.001 A 
ATOM      6  C   UNL     1      12.236  -3.858  31.534  1.00  0.00     0.004 A 
ENDROOT
BRANCH   1   7
ATOM      7  C   UNL     1       9.030  -3.283  28.723  1.00  0.00     0.075 C 
ATOM      8  O   UNL     1       8.908  -4.073  27.749  1.00  0.00    -0.545 OA
ATOM      9  O   UNL     1       8.122  -2.238  28.850  1.00  0.00    -0.545 OA
ENDBRANCH   1   7
BRANCH   2  10
ATOM     10  O   UNL     1       8.834  -2.418  31.496  1.00  0.00    -0.507 OA
ATOM     11  H   UNL     1       8.828  -1.815  32.310  1.00  0.00     0.293 HD
ENDBRANCH   2  10
TORSDOF 2
ENDMDL
