MODEL 1
REMARK VINA RESULT:    -3.312      0.000      0.000
REMARK INTER + INTRA:          -4.099
REMARK INTER:                  -3.893
REMARK INTRA:                  -0.206
REMARK UNBOUND:                -0.206
REMARK SMILES O=c1c(O)c(-c2ccc(O)cc2)oc2cc(O)cc(O)c12
REMARK SMILES IDX 5 1 3 2 2 3 1 4 21 5 19 6 18 7 16 8 15 9 14 10 13 11 6 12
REMARK SMILES IDX 7 13 8 14 9 15 12 16 11 17 10 18 4 20 20 22 17 24
REMARK H PARENT 10 19 4 21 20 23 17 25
REMARK Flexibility Score: inf
ROOT
ATOM      1  C   UNL     1       7.039 176.200  45.780  1.00  0.00     0.180 A 
ATOM      2  C   UNL     1       6.514 174.927  46.078  1.00  0.00     0.208 A 
ATOM      3  C   UNL     1       5.334 174.513  45.439  1.00  0.00     0.238 A 
ATOM      4  O   UNL     1       4.861 173.372  45.689  1.00  0.00    -0.285 OA
ATOM      5  C   UNL     1       4.689 175.383  44.535  1.00  0.00     0.111 A 
ATOM      6  C   UNL     1       3.495 175.044  43.854  1.00  0.00     0.134 A 
ATOM      7  C   UNL     1       2.909 175.969  42.976  1.00  0.00     0.093 A 
ATOM      8  C   UNL     1       3.492 177.220  42.767  1.00  0.00     0.123 A 
ATOM      9  C   UNL     1       4.671 177.561  43.436  1.00  0.00     0.094 A 
ATOM     10  C   UNL     1       5.272 176.652  44.314  1.00  0.00     0.146 A 
ATOM     11  O   UNL     1       6.395 176.998  44.933  1.00  0.00    -0.452 OA
ENDROOT
BRANCH   1  12
ATOM     12  C   UNL     1       8.289 176.700  46.396  1.00  0.00     0.021 A 
ATOM     13  C   UNL     1       9.519 176.141  46.014  1.00  0.00     0.016 A 
ATOM     14  C   UNL     1      10.710 176.584  46.599  1.00  0.00     0.047 A 
ATOM     15  C   UNL     1      10.683 177.579  47.583  1.00  0.00     0.115 A 
ATOM     16  C   UNL     1       8.267 177.685  47.400  1.00  0.00     0.016 A 
ATOM     17  C   UNL     1       9.460 178.124  47.983  1.00  0.00     0.047 A 
BRANCH  15  18
ATOM     18  O   UNL     1      11.863 178.027  48.173  1.00  0.00    -0.508 OA
ATOM     19  H   UNL     1      12.312 178.885  47.874  1.00  0.00     0.293 HD
ENDBRANCH  15  18
ENDBRANCH   1  12
BRANCH   2  20
ATOM     20  O   UNL     1       7.145 174.105  47.014  1.00  0.00    -0.502 OA
ATOM     21  H   UNL     1       6.631 173.591  47.719  1.00  0.00     0.293 HD
ENDBRANCH   2  20
BRANCH   6  22
ATOM     22  O   UNL     1       2.888 173.803  44.042  1.00  0.00    -0.507 OA
ATOM     23  H   UNL     1       3.206 172.973  43.554  1.00  0.00     0.293 HD
ENDBRANCH   6  22
BRANCH   8  24
ATOM     24  O   UNL     1       2.889 178.121  41.891  1.00  0.00    -0.508 OA
ATOM     25  H   UNL     1       2.663 177.862  40.937  1.00  0.00     0.293 HD
ENDBRANCH   8  24
TORSDOF 5
ENDMDL
MODEL 2
REMARK VINA RESULT:    -2.524      1.328      3.135
REMARK INTER + INTRA:          -3.173
REMARK INTER:                  -2.932
REMARK INTRA:                  -0.241
REMARK UNBOUND:                -0.206
REMARK SMILES O=c1c(O)c(-c2ccc(O)cc2)oc2cc(O)cc(O)c12
REMARK SMILES IDX 5 1 3 2 2 3 1 4 21 5 19 6 18 7 16 8 15 9 14 10 13 11 6 12
REMARK SMILES IDX 7 13 8 14 9 15 12 16 11 17 10 18 4 20 20 22 17 24
REMARK H PARENT 10 19 4 21 20 23 17 25
REMARK Flexibility Score: inf
ROOT
ATOM      1  C   UNL     1       7.312 176.351  45.866  1.00  0.00     0.180 A 
ATOM      2  C   UNL     1       6.835 177.082  44.760  1.00  0.00     0.208 A 
ATOM      3  C   UNL     1       5.601 176.726  44.193  1.00  0.00     0.238 A 
ATOM      4  O   UNL     1       5.159 177.380  43.210  1.00  0.00    -0.285 OA
ATOM      5  C   UNL     1       4.878 175.638  44.723  1.00  0.00     0.111 A 
ATOM      6  C   UNL     1       3.631 175.212  44.207  1.00  0.00     0.134 A 
ATOM      7  C   UNL     1       2.977 174.113  44.785  1.00  0.00     0.093 A 
ATOM      8  C   UNL     1       3.545 173.434  45.865  1.00  0.00     0.123 A 
ATOM      9  C   UNL     1       4.777 173.849  46.380  1.00  0.00     0.094 A 
ATOM     10  C   UNL     1       5.443 174.944  45.819  1.00  0.00     0.146 A 
ATOM     11  O   UNL     1       6.610 175.322  46.330  1.00  0.00    -0.452 OA
ENDROOT
BRANCH   1  12
ATOM     12  C   UNL     1       8.593 176.678  46.532  1.00  0.00     0.021 A 
ATOM     13  C   UNL     1       8.662 177.786  47.393  1.00  0.00     0.016 A 
ATOM     14  C   UNL     1       9.868 178.125  48.016  1.00  0.00     0.047 A 
ATOM     15  C   UNL     1      11.021 177.370  47.773  1.00  0.00     0.115 A 
ATOM     16  C   UNL     1       9.761 175.936  46.277  1.00  0.00     0.016 A 
ATOM     17  C   UNL     1      10.965 176.279  46.901  1.00  0.00     0.047 A 
BRANCH  15  18
ATOM     18  O   UNL     1      12.228 177.698  48.388  1.00  0.00    -0.508 OA
ATOM     19  H   UNL     1      12.923 176.993  48.601  1.00  0.00     0.293 HD
ENDBRANCH  15  18
ENDBRANCH   1  12
BRANCH   2  20
ATOM     20  O   UNL     1       7.593 178.125  44.223  1.00  0.00    -0.502 OA
ATOM     21  H   UNL     1       8.367 177.963  43.590  1.00  0.00     0.293 HD
ENDBRANCH   2  20
BRANCH   6  22
ATOM     22  O   UNL     1       3.038 175.868  43.129  1.00  0.00    -0.507 OA
ATOM     23  H   UNL     1       2.088 175.667  42.838  1.00  0.00     0.293 HD
ENDBRANCH   6  22
BRANCH   8  24
ATOM     24  O   UNL     1       2.876 172.345  46.420  1.00  0.00    -0.508 OA
ATOM     25  H   UNL     1       2.736 171.487  45.900  1.00  0.00     0.293 HD
ENDBRANCH   8  24
TORSDOF 5
ENDMDL
MODEL 3
REMARK VINA RESULT:    -2.001     21.737     23.666
REMARK INTER + INTRA:          -2.558
REMARK INTER:                  -2.307
REMARK INTRA:                  -0.251
REMARK UNBOUND:                -0.206
REMARK SMILES O=c1c(O)c(-c2ccc(O)cc2)oc2cc(O)cc(O)c12
REMARK SMILES IDX 5 1 3 2 2 3 1 4 21 5 19 6 18 7 16 8 15 9 14 10 13 11 6 12
REMARK SMILES IDX 7 13 8 14 9 15 12 16 11 17 10 18 4 20 20 22 17 24
REMARK H PARENT 10 19 4 21 20 23 17 25
REMARK Flexibility Score: inf
ROOT
ATOM      1  C   UNL     1      18.107 159.291  35.785  1.00  0.00     0.180 A 
ATOM      2  C   UNL     1      19.036 158.554  35.024  1.00  0.00     0.208 A 
ATOM      3  C   UNL     1      20.381 158.539  35.425  1.00  0.00     0.238 A 
ATOM      4  O   UNL     1      21.219 157.875  34.758  1.00  0.00    -0.285 OA
ATOM      5  C   UNL     1      20.779 159.274  36.561  1.00  0.00     0.111 A 
ATOM      6  C   UNL     1      22.114 159.316  37.028  1.00  0.00     0.134 A 
ATOM      7  C   UNL     1      22.431 160.078  38.163  1.00  0.00     0.093 A 
ATOM      8  C   UNL     1      21.442 160.798  38.836  1.00  0.00     0.123 A 
ATOM      9  C   UNL     1      20.121 160.762  38.380  1.00  0.00     0.094 A 
ATOM     10  C   UNL     1      19.784 160.006  37.252  1.00  0.00     0.146 A 
ATOM     11  O   UNL     1      18.521 159.984  36.842  1.00  0.00    -0.452 OA
ENDROOT
BRANCH   1  12
ATOM     12  C   UNL     1      16.668 159.340  35.439  1.00  0.00     0.021 A 
ATOM     13  C   UNL     1      15.764 158.516  36.129  1.00  0.00     0.016 A 
ATOM     14  C   UNL     1      14.403 158.530  35.803  1.00  0.00     0.047 A 
ATOM     15  C   UNL     1      13.935 159.358  34.776  1.00  0.00     0.115 A 
ATOM     16  C   UNL     1      16.193 160.154  34.395  1.00  0.00     0.016 A 
ATOM     17  C   UNL     1      14.833 160.165  34.072  1.00  0.00     0.047 A 
BRANCH  15  18
ATOM     18  O   UNL     1      12.582 159.381  34.443  1.00  0.00    -0.508 OA
ATOM     19  H   UNL     1      11.869 159.564  35.139  1.00  0.00     0.293 HD
ENDBRANCH  15  18
ENDBRANCH   1  12
BRANCH   2  20
ATOM     20  O   UNL     1      18.626 157.875  33.875  1.00  0.00    -0.502 OA
ATOM     21  H   UNL     1      18.600 158.316  32.964  1.00  0.00     0.293 HD
ENDBRANCH   2  20
BRANCH   6  22
ATOM     22  O   UNL     1      23.125 158.608  36.378  1.00  0.00    -0.507 OA
ATOM     23  H   UNL     1      23.737 159.050  35.702  1.00  0.00     0.293 HD
ENDBRANCH   6  22
BRANCH   8  24
ATOM     24  O   UNL     1      21.784 161.549  39.959  1.00  0.00    -0.508 OA
ATOM     25  H   UNL     1      22.031 162.530  39.887  1.00  0.00     0.293 HD
ENDBRANCH   8  24
TORSDOF 5
ENDMDL
MODEL 4
REMARK VINA RESULT:    -0.806      1.672      2.185
REMARK INTER + INTRA:          -1.152
REMARK INTER:                  -1.532
REMARK INTRA:                   0.380
REMARK UNBOUND:                -0.206
REMARK SMILES O=c1c(O)c(-c2ccc(O)cc2)oc2cc(O)cc(O)c12
REMARK SMILES IDX 5 1 3 2 2 3 1 4 21 5 19 6 18 7 16 8 15 9 14 10 13 11 6 12
REMARK SMILES IDX 7 13 8 14 9 15 12 16 11 17 10 18 4 20 20 22 17 24
REMARK H PARENT 10 19 4 21 20 23 17 25
REMARK Flexibility Score: inf
ROOT
ATOM      1  C   UNL     1       8.355 175.848  46.279  1.00  0.00     0.180 A 
ATOM      2  C   UNL     1       8.075 174.478  46.107  1.00  0.00     0.208 A 
ATOM      3  C   UNL     1       6.764 174.089  45.786  1.00  0.00     0.238 A 
ATOM      4  O   UNL     1       6.504 172.867  45.620  1.00  0.00    -0.285 OA
ATOM      5  C   UNL     1       5.757 175.068  45.663  1.00  0.00     0.111 A 
ATOM      6  C   UNL     1       4.412 174.759  45.347  1.00  0.00     0.134 A 
ATOM      7  C   UNL     1       3.465 175.790  45.251  1.00  0.00     0.093 A 
ATOM      8  C   UNL     1       3.836 177.120  45.466  1.00  0.00     0.123 A 
ATOM      9  C   UNL     1       5.162 177.431  45.779  1.00  0.00     0.094 A 
ATOM     10  C   UNL     1       6.121 176.418  45.876  1.00  0.00     0.146 A 
ATOM     11  O   UNL     1       7.376 176.741  46.170  1.00  0.00    -0.452 OA
ENDROOT
BRANCH   1  12
ATOM     12  C   UNL     1       9.715 176.339  46.599  1.00  0.00     0.021 A 
ATOM     13  C   UNL     1       9.876 177.632  47.123  1.00  0.00     0.016 A 
ATOM     14  C   UNL     1      11.154 178.124  47.412  1.00  0.00     0.047 A 
ATOM     15  C   UNL     1      12.284 177.335  47.166  1.00  0.00     0.115 A 
ATOM     16  C   UNL     1      10.856 175.560  46.336  1.00  0.00     0.016 A 
ATOM     17  C   UNL     1      12.131 176.056  46.625  1.00  0.00     0.047 A 
BRANCH  15  18
ATOM     18  O   UNL     1      13.561 177.815  47.451  1.00  0.00    -0.508 OA
ATOM     19  H   UNL     1      13.964 177.731  48.376  1.00  0.00     0.293 HD
ENDBRANCH  15  18
ENDBRANCH   1  12
BRANCH   2  20
ATOM     20  O   UNL     1       9.080 173.525  46.283  1.00  0.00    -0.502 OA
ATOM     21  H   UNL     1      10.064 173.764  46.262  1.00  0.00     0.293 HD
ENDBRANCH   2  20
BRANCH   6  22
ATOM     22  O   UNL     1       4.010 173.442  45.127  1.00  0.00    -0.507 OA
ATOM     23  H   UNL     1       3.179 173.219  44.592  1.00  0.00     0.293 HD
ENDBRANCH   6  22
BRANCH   8  24
ATOM     24  O   UNL     1       2.876 178.125  45.366  1.00  0.00    -0.508 OA
ATOM     25  H   UNL     1       1.884 177.915  45.384  1.00  0.00     0.293 HD
ENDBRANCH   8  24
TORSDOF 5
ENDMDL
