MODEL 1
REMARK VINA RESULT:    -5.441      0.000      0.000
REMARK INTER + INTRA:          -6.837
REMARK INTER:                  -6.554
REMARK INTRA:                  -0.283
REMARK UNBOUND:                -0.283
REMARK SMILES O=c1c(O)c(-c2ccc(O)c(O)c2)oc2cc(O)cc(O)c12
REMARK SMILES IDX 5 1 3 2 2 3 1 4 22 5 20 6 19 7 17 8 16 9 15 10 14 11 6 12
REMARK SMILES IDX 7 13 8 14 9 15 13 16 11 17 10 18 12 20 4 22 21 24 18 26
REMARK H PARENT 10 19 12 21 4 23 21 25 18 27
REMARK Flexibility Score: inf
ROOT
ATOM      1  C   UNL     1     110.479 108.235 113.213  1.00  0.00     0.180 A 
ATOM      2  C   UNL     1     109.696 107.247 113.836  1.00  0.00     0.208 A 
ATOM      3  C   UNL     1     108.306 107.426 113.909  1.00  0.00     0.238 A 
ATOM      4  O   UNL     1     107.616 106.564 114.515  1.00  0.00    -0.285 OA
ATOM      5  C   UNL     1     107.714 108.582 113.346  1.00  0.00     0.111 A 
ATOM      6  C   UNL     1     106.312 108.847 113.328  1.00  0.00     0.134 A 
ATOM      7  C   UNL     1     105.848 110.083 112.862  1.00  0.00     0.093 A 
ATOM      8  C   UNL     1     106.732 111.038 112.352  1.00  0.00     0.123 A 
ATOM      9  C   UNL     1     108.097 110.764 112.311  1.00  0.00     0.094 A 
ATOM     10  C   UNL     1     108.593 109.554 112.802  1.00  0.00     0.146 A 
ATOM     11  O   UNL     1     109.902 109.338 112.754  1.00  0.00    -0.452 OA
ENDROOT
BRANCH   1  12
ATOM     12  C   UNL     1     111.948 108.105 113.075  1.00  0.00     0.025 A 
ATOM     13  C   UNL     1     112.520 107.240 112.126  1.00  0.00     0.016 A 
ATOM     14  C   UNL     1     113.909 107.152 111.996  1.00  0.00     0.051 A 
ATOM     15  C   UNL     1     114.745 107.933 112.799  1.00  0.00     0.157 A 
ATOM     16  C   UNL     1     112.791 108.904 113.865  1.00  0.00     0.062 A 
ATOM     17  C   UNL     1     114.185 108.816 113.737  1.00  0.00     0.158 A 
BRANCH  15  18
ATOM     18  O   UNL     1     116.126 107.822 112.648  1.00  0.00    -0.504 OA
ATOM     19  H   UNL     1     116.550 107.078 112.106  1.00  0.00     0.293 HD
ENDBRANCH  15  18
BRANCH  17  20
ATOM     20  O   UNL     1     115.012 109.604 114.536  1.00  0.00    -0.504 OA
ATOM     21  H   UNL     1     114.755 109.851 115.484  1.00  0.00     0.293 HD
ENDBRANCH  17  20
ENDBRANCH   1  12
BRANCH   2  22
ATOM     22  O   UNL     1     110.303 106.123 114.404  1.00  0.00    -0.502 OA
ATOM     23  H   UNL     1     110.782 105.424 113.849  1.00  0.00     0.293 HD
ENDBRANCH   2  22
BRANCH   6  24
ATOM     24  O   UNL     1     105.338 107.927 113.728  1.00  0.00    -0.507 OA
ATOM     25  H   UNL     1     104.685 107.474 113.106  1.00  0.00     0.293 HD
ENDBRANCH   6  24
BRANCH   8  26
ATOM     26  O   UNL     1     106.262 112.259 111.875  1.00  0.00    -0.508 OA
ATOM     27  H   UNL     1     106.896 112.985 111.561  1.00  0.00     0.293 HD
ENDBRANCH   8  26
TORSDOF 6
ENDMDL
MODEL 2
REMARK VINA RESULT:    -5.253      1.636      2.100
REMARK INTER + INTRA:          -6.611
REMARK INTER:                  -6.370
REMARK INTRA:                  -0.241
REMARK UNBOUND:                -0.283
REMARK SMILES O=c1c(O)c(-c2ccc(O)c(O)c2)oc2cc(O)cc(O)c12
REMARK SMILES IDX 5 1 3 2 2 3 1 4 22 5 20 6 19 7 17 8 16 9 15 10 14 11 6 12
REMARK SMILES IDX 7 13 8 14 9 15 13 16 11 17 10 18 12 20 4 22 21 24 18 26
REMARK H PARENT 10 19 12 21 4 23 21 25 18 27
REMARK Flexibility Score: inf
ROOT
ATOM      1  C   UNL     1     110.970 107.836 114.549  1.00  0.00     0.180 A 
ATOM      2  C   UNL     1     110.650 107.435 115.857  1.00  0.00     0.208 A 
ATOM      3  C   UNL     1     109.300 107.368 116.238  1.00  0.00     0.238 A 
ATOM      4  O   UNL     1     109.022 107.060 117.427  1.00  0.00    -0.285 OA
ATOM      5  C   UNL     1     108.288 107.689 115.302  1.00  0.00     0.111 A 
ATOM      6  C   UNL     1     106.887 107.618 115.568  1.00  0.00     0.134 A 
ATOM      7  C   UNL     1     105.978 108.084 114.610  1.00  0.00     0.093 A 
ATOM      8  C   UNL     1     106.416 108.557 113.371  1.00  0.00     0.123 A 
ATOM      9  C   UNL     1     107.779 108.574 113.080  1.00  0.00     0.094 A 
ATOM     10  C   UNL     1     108.712 108.150 114.029  1.00  0.00     0.146 A 
ATOM     11  O   UNL     1     110.001 108.194 113.715  1.00  0.00    -0.452 OA
ENDROOT
BRANCH   1  12
ATOM     12  C   UNL     1     112.368 107.906 114.065  1.00  0.00     0.025 A 
ATOM     13  C   UNL     1     112.871 106.973 113.142  1.00  0.00     0.016 A 
ATOM     14  C   UNL     1     114.186 107.073 112.680  1.00  0.00     0.051 A 
ATOM     15  C   UNL     1     115.014 108.109 113.122  1.00  0.00     0.157 A 
ATOM     16  C   UNL     1     113.196 108.958 114.491  1.00  0.00     0.062 A 
ATOM     17  C   UNL     1     114.517 109.059 114.030  1.00  0.00     0.158 A 
BRANCH  15  18
ATOM     18  O   UNL     1     116.322 108.182 112.646  1.00  0.00    -0.504 OA
ATOM     19  H   UNL     1     117.122 108.005 113.243  1.00  0.00     0.293 HD
ENDBRANCH  15  18
BRANCH  17  20
ATOM     20  O   UNL     1     115.334 110.099 114.470  1.00  0.00    -0.504 OA
ATOM     21  H   UNL     1     116.317 110.140 114.231  1.00  0.00     0.293 HD
ENDBRANCH  17  20
ENDBRANCH   1  12
BRANCH   2  22
ATOM     22  O   UNL     1     111.666 107.143 116.772  1.00  0.00    -0.502 OA
ATOM     23  H   UNL     1     111.610 107.405 117.748  1.00  0.00     0.293 HD
ENDBRANCH   2  22
BRANCH   6  24
ATOM     24  O   UNL     1     106.341 107.077 116.735  1.00  0.00    -0.507 OA
ATOM     25  H   UNL     1     105.597 107.499 117.272  1.00  0.00     0.293 HD
ENDBRANCH   6  24
BRANCH   8  26
ATOM     26  O   UNL     1     105.505 109.004 112.417  1.00  0.00    -0.508 OA
ATOM     27  H   UNL     1     105.174 108.398 111.675  1.00  0.00     0.293 HD
ENDBRANCH   8  26
TORSDOF 6
ENDMDL
MODEL 3
REMARK VINA RESULT:    -5.000      3.008      7.898
REMARK INTER + INTRA:          -6.306
REMARK INTER:                  -6.006
REMARK INTRA:                  -0.300
REMARK UNBOUND:                -0.283
REMARK SMILES O=c1c(O)c(-c2ccc(O)c(O)c2)oc2cc(O)cc(O)c12
REMARK SMILES IDX 5 1 3 2 2 3 1 4 22 5 20 6 19 7 17 8 16 9 15 10 14 11 6 12
REMARK SMILES IDX 7 13 8 14 9 15 13 16 11 17 10 18 12 20 4 22 21 24 18 26
REMARK H PARENT 10 19 12 21 4 23 21 25 18 27
REMARK Flexibility Score: inf
ROOT
ATOM      1  C   UNL     1     113.093 108.039 114.353  1.00  0.00     0.180 A 
ATOM      2  C   UNL     1     114.035 108.071 113.309  1.00  0.00     0.208 A 
ATOM      3  C   UNL     1     115.128 107.191 113.352  1.00  0.00     0.238 A 
ATOM      4  O   UNL     1     115.996 107.261 112.442  1.00  0.00    -0.285 OA
ATOM      5  C   UNL     1     115.258 106.281 114.427  1.00  0.00     0.111 A 
ATOM      6  C   UNL     1     116.304 105.318 114.552  1.00  0.00     0.134 A 
ATOM      7  C   UNL     1     116.408 104.557 115.723  1.00  0.00     0.093 A 
ATOM      8  C   UNL     1     115.464 104.679 116.746  1.00  0.00     0.123 A 
ATOM      9  C   UNL     1     114.406 105.574 116.608  1.00  0.00     0.094 A 
ATOM     10  C   UNL     1     114.297 106.373 115.467  1.00  0.00     0.146 A 
ATOM     11  O   UNL     1     113.278 107.220 115.381  1.00  0.00    -0.452 OA
ENDROOT
BRANCH   1  12
ATOM     12  C   UNL     1     111.901 108.918 114.366  1.00  0.00     0.025 A 
ATOM     13  C   UNL     1     111.888 110.121 115.093  1.00  0.00     0.016 A 
ATOM     14  C   UNL     1     110.761 110.947 115.072  1.00  0.00     0.051 A 
ATOM     15  C   UNL     1     109.638 110.593 114.318  1.00  0.00     0.157 A 
ATOM     16  C   UNL     1     110.779 108.575 113.594  1.00  0.00     0.062 A 
ATOM     17  C   UNL     1     109.647 109.402 113.572  1.00  0.00     0.158 A 
BRANCH  15  18
ATOM     18  O   UNL     1     108.528 111.435 114.318  1.00  0.00    -0.504 OA
ATOM     19  H   UNL     1     108.480 112.261 114.902  1.00  0.00     0.293 HD
ENDBRANCH  15  18
BRANCH  17  20
ATOM     20  O   UNL     1     108.534 109.045 112.813  1.00  0.00    -0.504 OA
ATOM     21  H   UNL     1     107.674 108.731 113.245  1.00  0.00     0.293 HD
ENDBRANCH  17  20
ENDBRANCH   1  12
BRANCH   2  22
ATOM     22  O   UNL     1     113.899 108.993 112.268  1.00  0.00    -0.502 OA
ATOM     23  H   UNL     1     113.480 109.905 112.400  1.00  0.00     0.293 HD
ENDBRANCH   2  22
BRANCH   6  24
ATOM     24  O   UNL     1     117.243 105.052 113.551  1.00  0.00    -0.507 OA
ATOM     25  H   UNL     1     117.258 104.217 112.984  1.00  0.00     0.293 HD
ENDBRANCH   6  24
BRANCH   8  26
ATOM     26  O   UNL     1     115.565 103.907 117.901  1.00  0.00    -0.508 OA
ATOM     27  H   UNL     1     116.402 103.377 118.114  1.00  0.00     0.293 HD
ENDBRANCH   8  26
TORSDOF 6
ENDMDL
MODEL 4
REMARK VINA RESULT:    -4.884      2.415      7.829
REMARK INTER + INTRA:          -6.167
REMARK INTER:                  -6.074
REMARK INTRA:                  -0.093
REMARK UNBOUND:                -0.283
REMARK SMILES O=c1c(O)c(-c2ccc(O)c(O)c2)oc2cc(O)cc(O)c12
REMARK SMILES IDX 5 1 3 2 2 3 1 4 22 5 20 6 19 7 17 8 16 9 15 10 14 11 6 12
REMARK SMILES IDX 7 13 8 14 9 15 13 16 11 17 10 18 12 20 4 22 21 24 18 26
REMARK H PARENT 10 19 12 21 4 23 21 25 18 27
REMARK Flexibility Score: inf
ROOT
ATOM      1  C   UNL     1     107.105 109.223 114.371  1.00  0.00     0.180 A 
ATOM      2  C   UNL     1     107.925 110.364 114.344  1.00  0.00     0.208 A 
ATOM      3  C   UNL     1     109.317 110.205 114.438  1.00  0.00     0.238 A 
ATOM      4  O   UNL     1     110.043 111.234 114.467  1.00  0.00    -0.285 OA
ATOM      5  C   UNL     1     109.872 108.907 114.543  1.00  0.00     0.111 A 
ATOM      6  C   UNL     1     111.270 108.627 114.605  1.00  0.00     0.134 A 
ATOM      7  C   UNL     1     111.702 107.315 114.840  1.00  0.00     0.093 A 
ATOM      8  C   UNL     1     110.787 106.265 114.949  1.00  0.00     0.123 A 
ATOM      9  C   UNL     1     109.423 106.520 114.831  1.00  0.00     0.094 A 
ATOM     10  C   UNL     1     108.960 107.824 114.633  1.00  0.00     0.146 A 
ATOM     11  O   UNL     1     107.652 108.024 114.537  1.00  0.00    -0.452 OA
ENDROOT
BRANCH   1  12
ATOM     12  C   UNL     1     105.632 109.307 114.252  1.00  0.00     0.025 A 
ATOM     13  C   UNL     1     104.864 110.046 115.170  1.00  0.00     0.016 A 
ATOM     14  C   UNL     1     103.477 110.133 115.023  1.00  0.00     0.051 A 
ATOM     15  C   UNL     1     102.837 109.496 113.955  1.00  0.00     0.157 A 
ATOM     16  C   UNL     1     104.988 108.686 113.169  1.00  0.00     0.062 A 
ATOM     17  C   UNL     1     103.596 108.771 113.021  1.00  0.00     0.158 A 
BRANCH  15  18
ATOM     18  O   UNL     1     101.452 109.598 113.837  1.00  0.00    -0.504 OA
ATOM     19  H   UNL     1     100.953 110.445 114.083  1.00  0.00     0.293 HD
ENDBRANCH  15  18
BRANCH  17  20
ATOM     20  O   UNL     1     102.966 108.140 111.950  1.00  0.00    -0.504 OA
ATOM     21  H   UNL     1     103.495 107.732 111.188  1.00  0.00     0.293 HD
ENDBRANCH  17  20
ENDBRANCH   1  12
BRANCH   2  22
ATOM     22  O   UNL     1     107.355 111.637 114.262  1.00  0.00    -0.502 OA
ATOM     23  H   UNL     1     107.904 112.469 114.080  1.00  0.00     0.293 HD
ENDBRANCH   2  22
BRANCH   6  24
ATOM     24  O   UNL     1     112.268 109.587 114.415  1.00  0.00    -0.507 OA
ATOM     25  H   UNL     1     112.195 110.555 114.691  1.00  0.00     0.293 HD
ENDBRANCH   6  24
BRANCH   8  26
ATOM     26  O   UNL     1     111.226 104.961 115.167  1.00  0.00    -0.508 OA
ATOM     27  H   UNL     1     112.042 104.763 115.735  1.00  0.00     0.293 HD
ENDBRANCH   8  26
TORSDOF 6
ENDMDL
MODEL 5
REMARK VINA RESULT:    -4.876      2.290      3.785
REMARK INTER + INTRA:          -6.157
REMARK INTER:                  -5.835
REMARK INTRA:                  -0.322
REMARK UNBOUND:                -0.283
REMARK SMILES O=c1c(O)c(-c2ccc(O)c(O)c2)oc2cc(O)cc(O)c12
REMARK SMILES IDX 5 1 3 2 2 3 1 4 22 5 20 6 19 7 17 8 16 9 15 10 14 11 6 12
REMARK SMILES IDX 7 13 8 14 9 15 13 16 11 17 10 18 12 20 4 22 21 24 18 26
REMARK H PARENT 10 19 12 21 4 23 21 25 18 27
REMARK Flexibility Score: inf
ROOT
ATOM      1  C   UNL     1     112.373 107.661 114.396  1.00  0.00     0.180 A 
ATOM      2  C   UNL     1     112.366 109.048 114.624  1.00  0.00     0.208 A 
ATOM      3  C   UNL     1     111.142 109.694 114.863  1.00  0.00     0.238 A 
ATOM      4  O   UNL     1     111.137 110.944 115.013  1.00  0.00    -0.285 OA
ATOM      5  C   UNL     1     109.943 108.942 114.886  1.00  0.00     0.111 A 
ATOM      6  C   UNL     1     108.652 109.486 115.157  1.00  0.00     0.134 A 
ATOM      7  C   UNL     1     107.518 108.674 115.025  1.00  0.00     0.093 A 
ATOM      8  C   UNL     1     107.636 107.321 114.695  1.00  0.00     0.123 A 
ATOM      9  C   UNL     1     108.897 106.768 114.486  1.00  0.00     0.094 A 
ATOM     10  C   UNL     1     110.044 107.561 114.575  1.00  0.00     0.146 A 
ATOM     11  O   UNL     1     111.225 106.996 114.358  1.00  0.00    -0.452 OA
ENDROOT
BRANCH   1  12
ATOM     12  C   UNL     1     113.625 106.907 114.162  1.00  0.00     0.025 A 
ATOM     13  C   UNL     1     114.175 106.784 112.874  1.00  0.00     0.016 A 
ATOM     14  C   UNL     1     115.371 106.087 112.679  1.00  0.00     0.051 A 
ATOM     15  C   UNL     1     116.042 105.516 113.765  1.00  0.00     0.157 A 
ATOM     16  C   UNL     1     114.312 106.349 115.252  1.00  0.00     0.062 A 
ATOM     17  C   UNL     1     115.512 105.649 115.060  1.00  0.00     0.158 A 
BRANCH  15  18
ATOM     18  O   UNL     1     117.231 104.826 113.540  1.00  0.00    -0.504 OA
ATOM     19  H   UNL     1     117.925 105.152 112.877  1.00  0.00     0.293 HD
ENDBRANCH  15  18
BRANCH  17  20
ATOM     20  O   UNL     1     116.178 105.088 116.148  1.00  0.00    -0.504 OA
ATOM     21  H   UNL     1     115.686 104.554 116.854  1.00  0.00     0.293 HD
ENDBRANCH  17  20
ENDBRANCH   1  12
BRANCH   2  22
ATOM     22  O   UNL     1     113.560 109.774 114.575  1.00  0.00    -0.502 OA
ATOM     23  H   UNL     1     114.066 110.046 115.409  1.00  0.00     0.293 HD
ENDBRANCH   2  22
BRANCH   6  24
ATOM     24  O   UNL     1     108.432 110.799 115.584  1.00  0.00    -0.507 OA
ATOM     25  H   UNL     1     109.018 111.298 116.236  1.00  0.00     0.293 HD
ENDBRANCH   6  24
BRANCH   8  26
ATOM     26  O   UNL     1     106.505 106.517 114.581  1.00  0.00    -0.508 OA
ATOM     27  H   UNL     1     106.554 105.512 114.708  1.00  0.00     0.293 HD
ENDBRANCH   8  26
TORSDOF 6
ENDMDL
MODEL 6
REMARK VINA RESULT:    -4.855      1.792      6.587
REMARK INTER + INTRA:          -6.131
REMARK INTER:                  -5.852
REMARK INTRA:                  -0.280
REMARK UNBOUND:                -0.283
REMARK SMILES O=c1c(O)c(-c2ccc(O)c(O)c2)oc2cc(O)cc(O)c12
REMARK SMILES IDX 5 1 3 2 2 3 1 4 22 5 20 6 19 7 17 8 16 9 15 10 14 11 6 12
REMARK SMILES IDX 7 13 8 14 9 15 13 16 11 17 10 18 12 20 4 22 21 24 18 26
REMARK H PARENT 10 19 12 21 4 23 21 25 18 27
REMARK Flexibility Score: inf
ROOT
ATOM      1  C   UNL     1     110.392 108.900 113.941  1.00  0.00     0.180 A 
ATOM      2  C   UNL     1     110.162 107.936 114.938  1.00  0.00     0.208 A 
ATOM      3  C   UNL     1     111.226 107.118 115.352  1.00  0.00     0.238 A 
ATOM      4  O   UNL     1     111.001 106.221 116.207  1.00  0.00    -0.285 OA
ATOM      5  C   UNL     1     112.508 107.284 114.776  1.00  0.00     0.111 A 
ATOM      6  C   UNL     1     113.666 106.538 115.148  1.00  0.00     0.134 A 
ATOM      7  C   UNL     1     114.852 106.694 114.420  1.00  0.00     0.093 A 
ATOM      8  C   UNL     1     114.940 107.619 113.376  1.00  0.00     0.123 A 
ATOM      9  C   UNL     1     113.831 108.395 113.045  1.00  0.00     0.094 A 
ATOM     10  C   UNL     1     112.623 108.235 113.729  1.00  0.00     0.146 A 
ATOM     11  O   UNL     1     111.589 108.987 113.374  1.00  0.00    -0.452 OA
ENDROOT
BRANCH   1  12
ATOM     12  C   UNL     1     109.328 109.816 113.470  1.00  0.00     0.025 A 
ATOM     13  C   UNL     1     108.327 109.381 112.584  1.00  0.00     0.016 A 
ATOM     14  C   UNL     1     107.319 110.256 112.171  1.00  0.00     0.051 A 
ATOM     15  C   UNL     1     107.285 111.571 112.645  1.00  0.00     0.157 A 
ATOM     16  C   UNL     1     109.280 111.132 113.960  1.00  0.00     0.062 A 
ATOM     17  C   UNL     1     108.269 112.012 113.547  1.00  0.00     0.158 A 
BRANCH  15  18
ATOM     18  O   UNL     1     106.268 112.421 112.215  1.00  0.00    -0.504 OA
ATOM     19  H   UNL     1     105.577 112.130 111.533  1.00  0.00     0.293 HD
ENDBRANCH  15  18
BRANCH  17  20
ATOM     20  O   UNL     1     108.239 113.319 114.029  1.00  0.00    -0.504 OA
ATOM     21  H   UNL     1     107.473 113.658 114.598  1.00  0.00     0.293 HD
ENDBRANCH  17  20
ENDBRANCH   1  12
BRANCH   2  22
ATOM     22  O   UNL     1     108.884 107.775 115.479  1.00  0.00    -0.502 OA
ATOM     23  H   UNL     1     108.145 108.453 115.340  1.00  0.00     0.293 HD
ENDBRANCH   2  22
BRANCH   6  24
ATOM     24  O   UNL     1     113.712 105.657 116.233  1.00  0.00    -0.507 OA
ATOM     25  H   UNL     1     113.590 104.658 116.168  1.00  0.00     0.293 HD
ENDBRANCH   6  24
BRANCH   8  26
ATOM     26  O   UNL     1     116.127 107.780 112.667  1.00  0.00    -0.508 OA
ATOM     27  H   UNL     1     117.028 107.774 113.133  1.00  0.00     0.293 HD
ENDBRANCH   8  26
TORSDOF 6
ENDMDL
MODEL 7
REMARK VINA RESULT:    -4.802      2.008      3.272
REMARK INTER + INTRA:          -6.067
REMARK INTER:                  -5.969
REMARK INTRA:                  -0.098
REMARK UNBOUND:                -0.283
REMARK SMILES O=c1c(O)c(-c2ccc(O)c(O)c2)oc2cc(O)cc(O)c12
REMARK SMILES IDX 5 1 3 2 2 3 1 4 22 5 20 6 19 7 17 8 16 9 15 10 14 11 6 12
REMARK SMILES IDX 7 13 8 14 9 15 13 16 11 17 10 18 12 20 4 22 21 24 18 26
REMARK H PARENT 10 19 12 21 4 23 21 25 18 27
REMARK Flexibility Score: inf
ROOT
ATOM      1  C   UNL     1     110.518 108.098 114.144  1.00  0.00     0.180 A 
ATOM      2  C   UNL     1     109.501 108.398 113.221  1.00  0.00     0.208 A 
ATOM      3  C   UNL     1     108.170 108.443 113.667  1.00  0.00     0.238 A 
ATOM      4  O   UNL     1     107.258 108.660 112.826  1.00  0.00    -0.285 OA
ATOM      5  C   UNL     1     107.875 108.205 115.030  1.00  0.00     0.111 A 
ATOM      6  C   UNL     1     106.567 108.265 115.599  1.00  0.00     0.134 A 
ATOM      7  C   UNL     1     106.375 107.882 116.932  1.00  0.00     0.093 A 
ATOM      8  C   UNL     1     107.454 107.505 117.735  1.00  0.00     0.123 A 
ATOM      9  C   UNL     1     108.742 107.500 117.206  1.00  0.00     0.094 A 
ATOM     10  C   UNL     1     108.961 107.842 115.869  1.00  0.00     0.146 A 
ATOM     11  O   UNL     1     110.203 107.814 115.401  1.00  0.00    -0.452 OA
ENDROOT
BRANCH   1  12
ATOM     12  C   UNL     1     111.947 108.055 113.756  1.00  0.00     0.025 A 
ATOM     13  C   UNL     1     112.409 107.174 112.762  1.00  0.00     0.016 A 
ATOM     14  C   UNL     1     113.757 107.168 112.394  1.00  0.00     0.051 A 
ATOM     15  C   UNL     1     114.660 108.047 113.001  1.00  0.00     0.157 A 
ATOM     16  C   UNL     1     112.852 108.950 114.348  1.00  0.00     0.062 A 
ATOM     17  C   UNL     1     114.206 108.946 113.981  1.00  0.00     0.158 A 
BRANCH  15  18
ATOM     18  O   UNL     1     115.999 108.017 112.615  1.00  0.00    -0.504 OA
ATOM     19  H   UNL     1     116.316 108.415 111.739  1.00  0.00     0.293 HD
ENDBRANCH  15  18
BRANCH  17  20
ATOM     20  O   UNL     1     115.098 109.829 114.586  1.00  0.00    -0.504 OA
ATOM     21  H   UNL     1     115.148 110.804 114.314  1.00  0.00     0.293 HD
ENDBRANCH  17  20
ENDBRANCH   1  12
BRANCH   2  22
ATOM     22  O   UNL     1     109.812 108.609 111.875  1.00  0.00    -0.502 OA
ATOM     23  H   UNL     1     109.271 109.225 111.282  1.00  0.00     0.293 HD
ENDBRANCH   2  22
BRANCH   6  24
ATOM     24  O   UNL     1     105.437 108.717 114.911  1.00  0.00    -0.507 OA
ATOM     25  H   UNL     1     105.443 109.077 113.968  1.00  0.00     0.293 HD
ENDBRANCH   6  24
BRANCH   8  26
ATOM     26  O   UNL     1     107.257 107.141 119.065  1.00  0.00    -0.508 OA
ATOM     27  H   UNL     1     107.053 106.183 119.328  1.00  0.00     0.293 HD
ENDBRANCH   8  26
TORSDOF 6
ENDMDL
MODEL 8
REMARK VINA RESULT:    -4.663      2.747      7.430
REMARK INTER + INTRA:          -5.900
REMARK INTER:                  -5.684
REMARK INTRA:                  -0.216
REMARK UNBOUND:                -0.283
REMARK SMILES O=c1c(O)c(-c2ccc(O)c(O)c2)oc2cc(O)cc(O)c12
REMARK SMILES IDX 5 1 3 2 2 3 1 4 22 5 20 6 19 7 17 8 16 9 15 10 14 11 6 12
REMARK SMILES IDX 7 13 8 14 9 15 13 16 11 17 10 18 12 20 4 22 21 24 18 26
REMARK H PARENT 10 19 12 21 4 23 21 25 18 27
REMARK Flexibility Score: inf
ROOT
ATOM      1  C   UNL     1     112.553 107.467 113.521  1.00  0.00     0.180 A 
ATOM      2  C   UNL     1     113.757 107.707 112.837  1.00  0.00     0.208 A 
ATOM      3  C   UNL     1     114.610 106.627 112.559  1.00  0.00     0.238 A 
ATOM      4  O   UNL     1     115.711 106.856 111.994  1.00  0.00    -0.285 OA
ATOM      5  C   UNL     1     114.241 105.319 112.955  1.00  0.00     0.111 A 
ATOM      6  C   UNL     1     115.009 104.146 112.691  1.00  0.00     0.134 A 
ATOM      7  C   UNL     1     114.613 102.921 113.243  1.00  0.00     0.093 A 
ATOM      8  C   UNL     1     113.441 102.816 113.996  1.00  0.00     0.123 A 
ATOM      9  C   UNL     1     112.653 103.945 114.209  1.00  0.00     0.094 A 
ATOM     10  C   UNL     1     113.041 105.188 113.702  1.00  0.00     0.146 A 
ATOM     11  O   UNL     1     112.267 106.240 113.937  1.00  0.00    -0.452 OA
ENDROOT
BRANCH   1  12
ATOM     12  C   UNL     1     111.591 108.550 113.828  1.00  0.00     0.025 A 
ATOM     13  C   UNL     1     111.883 109.539 114.785  1.00  0.00     0.016 A 
ATOM     14  C   UNL     1     110.971 110.566 115.041  1.00  0.00     0.051 A 
ATOM     15  C   UNL     1     109.762 110.630 114.339  1.00  0.00     0.157 A 
ATOM     16  C   UNL     1     110.386 108.630 113.111  1.00  0.00     0.062 A 
ATOM     17  C   UNL     1     109.468 109.659 113.367  1.00  0.00     0.158 A 
BRANCH  15  18
ATOM     18  O   UNL     1     108.871 111.665 114.618  1.00  0.00    -0.504 OA
ATOM     19  H   UNL     1     108.919 112.558 114.142  1.00  0.00     0.293 HD
ENDBRANCH  15  18
BRANCH  17  20
ATOM     20  O   UNL     1     108.270 109.720 112.659  1.00  0.00    -0.504 OA
ATOM     21  H   UNL     1     107.900 110.598 112.314  1.00  0.00     0.293 HD
ENDBRANCH  17  20
ENDBRANCH   1  12
BRANCH   2  22
ATOM     22  O   UNL     1     114.112 109.009 112.474  1.00  0.00    -0.502 OA
ATOM     23  H   UNL     1     114.860 109.208 111.821  1.00  0.00     0.293 HD
ENDBRANCH   2  22
BRANCH   6  24
ATOM     24  O   UNL     1     116.145 104.123 111.875  1.00  0.00    -0.507 OA
ATOM     25  H   UNL     1     116.577 104.939 111.469  1.00  0.00     0.293 HD
ENDBRANCH   6  24
BRANCH   8  26
ATOM     26  O   UNL     1     113.045 101.592 114.529  1.00  0.00    -0.508 OA
ATOM     27  H   UNL     1     113.406 100.716 114.169  1.00  0.00     0.293 HD
ENDBRANCH   8  26
TORSDOF 6
ENDMDL
MODEL 9
REMARK VINA RESULT:    -4.644      1.857      7.443
REMARK INTER + INTRA:          -5.877
REMARK INTER:                  -5.552
REMARK INTRA:                  -0.325
REMARK UNBOUND:                -0.283
REMARK SMILES O=c1c(O)c(-c2ccc(O)c(O)c2)oc2cc(O)cc(O)c12
REMARK SMILES IDX 5 1 3 2 2 3 1 4 22 5 20 6 19 7 17 8 16 9 15 10 14 11 6 12
REMARK SMILES IDX 7 13 8 14 9 15 13 16 11 17 10 18 12 20 4 22 21 24 18 26
REMARK H PARENT 10 19 12 21 4 23 21 25 18 27
REMARK Flexibility Score: inf
ROOT
ATOM      1  C   UNL     1     111.341 107.556 113.264  1.00  0.00     0.180 A 
ATOM      2  C   UNL     1     112.300 108.513 113.639  1.00  0.00     0.208 A 
ATOM      3  C   UNL     1     113.662 108.187 113.538  1.00  0.00     0.238 A 
ATOM      4  O   UNL     1     114.515 109.028 113.925  1.00  0.00    -0.285 OA
ATOM      5  C   UNL     1     114.048 106.915 113.051  1.00  0.00     0.111 A 
ATOM      6  C   UNL     1     115.399 106.492 112.871  1.00  0.00     0.134 A 
ATOM      7  C   UNL     1     115.665 105.167 112.506  1.00  0.00     0.093 A 
ATOM      8  C   UNL     1     114.627 104.267 112.252  1.00  0.00     0.123 A 
ATOM      9  C   UNL     1     113.304 104.688 112.368  1.00  0.00     0.094 A 
ATOM     10  C   UNL     1     113.007 105.994 112.765  1.00  0.00     0.146 A 
ATOM     11  O   UNL     1     111.733 106.350 112.874  1.00  0.00    -0.452 OA
ENDROOT
BRANCH   1  12
ATOM     12  C   UNL     1     109.887 107.834 113.318  1.00  0.00     0.025 A 
ATOM     13  C   UNL     1     109.231 108.502 112.269  1.00  0.00     0.016 A 
ATOM     14  C   UNL     1     107.854 108.732 112.329  1.00  0.00     0.051 A 
ATOM     15  C   UNL     1     107.110 108.291 113.428  1.00  0.00     0.157 A 
ATOM     16  C   UNL     1     109.134 107.375 114.411  1.00  0.00     0.062 A 
ATOM     17  C   UNL     1     107.752 107.605 114.474  1.00  0.00     0.158 A 
BRANCH  15  18
ATOM     18  O   UNL     1     105.739 108.537 113.462  1.00  0.00    -0.504 OA
ATOM     19  H   UNL     1     105.086 107.887 113.883  1.00  0.00     0.293 HD
ENDBRANCH  15  18
BRANCH  17  20
ATOM     20  O   UNL     1     107.017 107.156 115.569  1.00  0.00    -0.504 OA
ATOM     21  H   UNL     1     107.464 106.719 116.366  1.00  0.00     0.293 HD
ENDBRANCH  17  20
ENDBRANCH   1  12
BRANCH   2  22
ATOM     22  O   UNL     1     111.897 109.755 114.137  1.00  0.00    -0.502 OA
ATOM     23  H   UNL     1     111.738 109.919 115.124  1.00  0.00     0.293 HD
ENDBRANCH   2  22
BRANCH   6  24
ATOM     24  O   UNL     1     116.505 107.335 113.008  1.00  0.00    -0.507 OA
ATOM     25  H   UNL     1     116.562 108.274 112.642  1.00  0.00     0.293 HD
ENDBRANCH   6  24
BRANCH   8  26
ATOM     26  O   UNL     1     114.900 102.954 111.875  1.00  0.00    -0.508 OA
ATOM     27  H   UNL     1     114.206 102.382 111.408  1.00  0.00     0.293 HD
ENDBRANCH   8  26
TORSDOF 6
ENDMDL
