MODEL 1
REMARK VINA RESULT:    -4.506      0.000      0.000
REMARK INTER + INTRA:          -4.637
REMARK INTER:                  -4.637
REMARK INTRA:                   0.000
REMARK UNBOUND:                 0.000
REMARK SMILES Oc1ccc2[nH]ccc2c1
REMARK SMILES IDX 3 1 4 2 5 3 9 4 8 5 7 6 6 7 10 8 2 9 1 11
REMARK H PARENT 6 10 1 12
REMARK Flexibility Score: inf
ROOT
ATOM      1  C   UNL     1      13.083 -12.654 -43.421  1.00  0.00     0.048 A 
ATOM      2  C   UNL     1      13.624 -11.502 -44.022  1.00  0.00     0.030 A 
ATOM      3  C   UNL     1      12.778 -10.412 -44.218  1.00  0.00     0.046 A 
ATOM      4  C   UNL     1      11.462 -10.446 -43.843  1.00  0.00     0.003 A 
ATOM      5  C   UNL     1      10.909  -9.226 -44.170  1.00  0.00     0.028 A 
ATOM      6  C   UNL     1      11.949  -8.498 -44.741  1.00  0.00     0.083 A 
ATOM      7  N   UNL     1      13.088  -9.226 -44.768  1.00  0.00    -0.361 N 
ATOM      8  C   UNL     1      10.895 -11.570 -43.247  1.00  0.00     0.056 A 
ATOM      9  C   UNL     1      11.723 -12.691 -43.033  1.00  0.00     0.116 A 
ATOM     10  H   UNL     1      14.016  -8.925 -45.141  1.00  0.00     0.166 HD
ENDROOT
BRANCH   9  11
ATOM     11  O   UNL     1      11.212 -13.843 -42.441  1.00  0.00    -0.508 OA
ATOM     12  H   UNL     1      10.223 -14.063 -42.478  1.00  0.00     0.293 HD
ENDBRANCH   9  11
TORSDOF 1
ENDMDL
MODEL 2
REMARK VINA RESULT:    -4.501      2.849      3.740
REMARK INTER + INTRA:          -4.633
REMARK INTER:                  -4.633
REMARK INTRA:                   0.000
REMARK UNBOUND:                 0.000
REMARK SMILES Oc1ccc2[nH]ccc2c1
REMARK SMILES IDX 3 1 4 2 5 3 9 4 8 5 7 6 6 7 10 8 2 9 1 11
REMARK H PARENT 6 10 1 12
REMARK Flexibility Score: inf
ROOT
ATOM      1  C   UNL     1      11.423  -9.500 -44.013  1.00  0.00     0.048 A 
ATOM      2  C   UNL     1      10.096  -9.169 -44.347  1.00  0.00     0.030 A 
ATOM      3  C   UNL     1       9.301 -10.165 -44.911  1.00  0.00     0.046 A 
ATOM      4  C   UNL     1       9.780 -11.427 -45.138  1.00  0.00     0.003 A 
ATOM      5  C   UNL     1       8.757 -12.163 -45.697  1.00  0.00     0.028 A 
ATOM      6  C   UNL     1       7.681 -11.283 -45.781  1.00  0.00     0.083 A 
ATOM      7  N   UNL     1       8.019 -10.064 -45.299  1.00  0.00    -0.361 N 
ATOM      8  C   UNL     1      11.088 -11.787 -44.820  1.00  0.00     0.056 A 
ATOM      9  C   UNL     1      11.921 -10.803 -44.247  1.00  0.00     0.116 A 
ATOM     10  H   UNL     1       7.405  -9.221 -45.243  1.00  0.00     0.166 HD
ENDROOT
BRANCH   9  11
ATOM     11  O   UNL     1      13.237 -11.103 -43.907  1.00  0.00    -0.508 OA
ATOM     12  H   UNL     1      13.863 -11.554 -44.565  1.00  0.00     0.293 HD
ENDBRANCH   9  11
TORSDOF 1
ENDMDL
MODEL 3
REMARK VINA RESULT:    -4.476      2.549      3.849
REMARK INTER + INTRA:          -4.607
REMARK INTER:                  -4.607
REMARK INTRA:                   0.000
REMARK UNBOUND:                 0.000
REMARK SMILES Oc1ccc2[nH]ccc2c1
REMARK SMILES IDX 3 1 4 2 5 3 9 4 8 5 7 6 6 7 10 8 2 9 1 11
REMARK H PARENT 6 10 1 12
REMARK Flexibility Score: inf
ROOT
ATOM      1  C   UNL     1      10.900  -7.749 -44.244  1.00  0.00     0.048 A 
ATOM      2  C   UNL     1      11.668  -8.737 -44.887  1.00  0.00     0.030 A 
ATOM      3  C   UNL     1      11.812  -9.967 -44.248  1.00  0.00     0.046 A 
ATOM      4  C   UNL     1      11.231 -10.220 -43.034  1.00  0.00     0.003 A 
ATOM      5  C   UNL     1      11.561 -11.510 -42.680  1.00  0.00     0.028 A 
ATOM      6  C   UNL     1      12.346 -11.985 -43.727  1.00  0.00     0.083 A 
ATOM      7  N   UNL     1      12.496 -11.038 -44.682  1.00  0.00    -0.361 N 
ATOM      8  C   UNL     1      10.465  -9.264 -42.371  1.00  0.00     0.056 A 
ATOM      9  C   UNL     1      10.298  -8.007 -42.990  1.00  0.00     0.116 A 
ATOM     10  H   UNL     1      13.035 -11.126 -45.573  1.00  0.00     0.166 HD
ENDROOT
BRANCH   9  11
ATOM     11  O   UNL     1       9.543  -7.012 -42.375  1.00  0.00    -0.508 OA
ATOM     12  H   UNL     1       9.975  -6.307 -41.789  1.00  0.00     0.293 HD
ENDBRANCH   9  11
TORSDOF 1
ENDMDL
MODEL 4
REMARK VINA RESULT:    -4.437      2.929      3.613
REMARK INTER + INTRA:          -4.566
REMARK INTER:                  -4.566
REMARK INTRA:                   0.000
REMARK UNBOUND:                 0.000
REMARK SMILES Oc1ccc2[nH]ccc2c1
REMARK SMILES IDX 3 1 4 2 5 3 9 4 8 5 7 6 6 7 10 8 2 9 1 11
REMARK H PARENT 6 10 1 12
REMARK Flexibility Score: inf
ROOT
ATOM      1  C   UNL     1       8.992 -12.125 -46.039  1.00  0.00     0.048 A 
ATOM      2  C   UNL     1      10.264 -12.674 -45.790  1.00  0.00     0.030 A 
ATOM      3  C   UNL     1      11.179 -11.899 -45.080  1.00  0.00     0.046 A 
ATOM      4  C   UNL     1      10.865 -10.643 -44.633  1.00  0.00     0.003 A 
ATOM      5  C   UNL     1      11.972 -10.151 -43.976  1.00  0.00     0.028 A 
ATOM      6  C   UNL     1      12.925 -11.162 -44.062  1.00  0.00     0.083 A 
ATOM      7  N   UNL     1      12.435 -12.227 -44.737  1.00  0.00    -0.361 N 
ATOM      8  C   UNL     1       9.616 -10.071 -44.863  1.00  0.00     0.056 A 
ATOM      9  C   UNL     1       8.665 -10.829 -45.578  1.00  0.00     0.116 A 
ATOM     10  H   UNL     1      12.935 -13.120 -44.946  1.00  0.00     0.166 HD
ENDROOT
BRANCH   9  11
ATOM     11  O   UNL     1       7.400 -10.309 -45.838  1.00  0.00    -0.508 OA
ATOM     12  H   UNL     1       6.634 -10.904 -46.134  1.00  0.00     0.293 HD
ENDBRANCH   9  11
TORSDOF 1
ENDMDL
MODEL 5
REMARK VINA RESULT:    -4.372      2.241      3.441
REMARK INTER + INTRA:          -4.499
REMARK INTER:                  -4.499
REMARK INTRA:                   0.000
REMARK UNBOUND:                 0.000
REMARK SMILES Oc1ccc2[nH]ccc2c1
REMARK SMILES IDX 3 1 4 2 5 3 9 4 8 5 7 6 6 7 10 8 2 9 1 11
REMARK H PARENT 6 10 1 12
REMARK Flexibility Score: inf
ROOT
ATOM      1  C   UNL     1      10.226  -9.135 -44.434  1.00  0.00     0.048 A 
ATOM      2  C   UNL     1      11.594  -9.316 -44.158  1.00  0.00     0.030 A 
ATOM      3  C   UNL     1      12.126 -10.594 -44.321  1.00  0.00     0.046 A 
ATOM      4  C   UNL     1      11.357 -11.647 -44.736  1.00  0.00     0.003 A 
ATOM      5  C   UNL     1      12.173 -12.756 -44.796  1.00  0.00     0.028 A 
ATOM      6  C   UNL     1      13.429 -12.303 -44.404  1.00  0.00     0.083 A 
ATOM      7  N   UNL     1      13.396 -10.982 -44.115  1.00  0.00    -0.361 N 
ATOM      8  C   UNL     1      10.000 -11.502 -45.017  1.00  0.00     0.056 A 
ATOM      9  C   UNL     1       9.428 -10.221 -44.862  1.00  0.00     0.116 A 
ATOM     10  H   UNL     1      14.195 -10.390 -43.797  1.00  0.00     0.166 HD
ENDROOT
BRANCH   9  11
ATOM     11  O   UNL     1       8.077 -10.015 -45.129  1.00  0.00    -0.508 OA
ATOM     12  H   UNL     1       7.748  -9.809 -46.065  1.00  0.00     0.293 HD
ENDBRANCH   9  11
TORSDOF 1
ENDMDL
MODEL 6
REMARK VINA RESULT:    -4.184      1.268      2.838
REMARK INTER + INTRA:          -4.307
REMARK INTER:                  -4.307
REMARK INTRA:                   0.000
REMARK UNBOUND:                 0.000
REMARK SMILES Oc1ccc2[nH]ccc2c1
REMARK SMILES IDX 3 1 4 2 5 3 9 4 8 5 7 6 6 7 10 8 2 9 1 11
REMARK H PARENT 6 10 1 12
REMARK Flexibility Score: inf
ROOT
ATOM      1  C   UNL     1      10.985 -11.068 -43.558  1.00  0.00     0.048 A 
ATOM      2  C   UNL     1      12.115 -10.442 -44.115  1.00  0.00     0.030 A 
ATOM      3  C   UNL     1      13.307 -11.164 -44.150  1.00  0.00     0.046 A 
ATOM      4  C   UNL     1      13.391 -12.440 -43.662  1.00  0.00     0.003 A 
ATOM      5  C   UNL     1      14.689 -12.867 -43.843  1.00  0.00     0.028 A 
ATOM      6  C   UNL     1      15.341 -11.796 -44.449  1.00  0.00     0.083 A 
ATOM      7  N   UNL     1      14.493 -10.759 -44.634  1.00  0.00    -0.361 N 
ATOM      8  C   UNL     1      12.292 -13.088 -43.103  1.00  0.00     0.056 A 
ATOM      9  C   UNL     1      11.068 -12.387 -43.053  1.00  0.00     0.116 A 
ATOM     10  H   UNL     1      14.719  -9.835 -45.065  1.00  0.00     0.166 HD
ENDROOT
BRANCH   9  11
ATOM     11  O   UNL     1       9.935 -12.983 -42.507  1.00  0.00    -0.508 OA
ATOM     12  H   UNL     1       9.966 -13.455 -41.610  1.00  0.00     0.293 HD
ENDBRANCH   9  11
TORSDOF 1
ENDMDL
MODEL 7
REMARK VINA RESULT:    -4.181      2.628      4.073
REMARK INTER + INTRA:          -4.304
REMARK INTER:                  -4.304
REMARK INTRA:                   0.000
REMARK UNBOUND:                 0.000
REMARK SMILES Oc1ccc2[nH]ccc2c1
REMARK SMILES IDX 3 1 4 2 5 3 9 4 8 5 7 6 6 7 10 8 2 9 1 11
REMARK H PARENT 6 10 1 12
REMARK Flexibility Score: inf
ROOT
ATOM      1  C   UNL     1      11.005  -9.065 -44.618  1.00  0.00     0.048 A 
ATOM      2  C   UNL     1      10.149 -10.100 -44.198  1.00  0.00     0.030 A 
ATOM      3  C   UNL     1      10.732 -11.297 -43.783  1.00  0.00     0.046 A 
ATOM      4  C   UNL     1      12.089 -11.473 -43.779  1.00  0.00     0.003 A 
ATOM      5  C   UNL     1      12.338 -12.749 -43.320  1.00  0.00     0.028 A 
ATOM      6  C   UNL     1      11.082 -13.293 -43.063  1.00  0.00     0.083 A 
ATOM      7  N   UNL     1      10.105 -12.402 -43.347  1.00  0.00    -0.361 N 
ATOM      8  C   UNL     1      12.964 -10.469 -44.188  1.00  0.00     0.056 A 
ATOM      9  C   UNL     1      12.408  -9.244 -44.614  1.00  0.00     0.116 A 
ATOM     10  H   UNL     1       9.076 -12.548 -43.247  1.00  0.00     0.166 HD
ENDROOT
BRANCH   9  11
ATOM     11  O   UNL     1      13.232  -8.204 -45.035  1.00  0.00    -0.508 OA
ATOM     12  H   UNL     1      13.941  -8.345 -45.745  1.00  0.00     0.293 HD
ENDBRANCH   9  11
TORSDOF 1
ENDMDL
MODEL 8
REMARK VINA RESULT:    -4.162      2.632      3.879
REMARK INTER + INTRA:          -4.283
REMARK INTER:                  -4.283
REMARK INTRA:                   0.000
REMARK UNBOUND:                 0.000
REMARK SMILES Oc1ccc2[nH]ccc2c1
REMARK SMILES IDX 3 1 4 2 5 3 9 4 8 5 7 6 6 7 10 8 2 9 1 11
REMARK H PARENT 6 10 1 12
REMARK Flexibility Score: inf
ROOT
ATOM      1  C   UNL     1       9.446  -9.891 -44.928  1.00  0.00     0.048 A 
ATOM      2  C   UNL     1       9.870 -11.201 -45.220  1.00  0.00     0.030 A 
ATOM      3  C   UNL     1      11.133 -11.588 -44.778  1.00  0.00     0.046 A 
ATOM      4  C   UNL     1      11.946 -10.734 -44.083  1.00  0.00     0.003 A 
ATOM      5  C   UNL     1      13.111 -11.414 -43.797  1.00  0.00     0.028 A 
ATOM      6  C   UNL     1      12.936 -12.680 -44.348  1.00  0.00     0.083 A 
ATOM      7  N   UNL     1      11.727 -12.782 -44.947  1.00  0.00    -0.361 N 
ATOM      8  C   UNL     1      11.558  -9.432 -43.779  1.00  0.00     0.056 A 
ATOM      9  C   UNL     1      10.283  -9.006 -44.210  1.00  0.00     0.116 A 
ATOM     10  H   UNL     1      11.339 -13.618 -45.438  1.00  0.00     0.166 HD
ENDROOT
BRANCH   9  11
ATOM     11  O   UNL     1       9.840  -7.716 -43.935  1.00  0.00    -0.508 OA
ATOM     12  H   UNL     1       9.694  -7.038 -44.674  1.00  0.00     0.293 HD
ENDBRANCH   9  11
TORSDOF 1
ENDMDL
