MODEL 1
REMARK VINA RESULT:    -4.392      0.000      0.000
REMARK INTER + INTRA:          -6.390
REMARK INTER:                  -5.932
REMARK INTRA:                  -0.458
REMARK UNBOUND:                -0.458
REMARK SMILES CCCCCCCC(=O)[O-]
REMARK SMILES IDX 5 1 6 2 7 3 8 4 9 5 10 6 4 7 3 8 2 9 1 10
REMARK H PARENT
REMARK Flexibility Score: inf
ROOT
ATOM      1  C   UNL     1      40.522  57.930  48.301  1.00  0.00     0.000 C 
ENDROOT
BRANCH   1   2
ATOM      2  C   UNL     1      41.630  58.618  49.109  1.00  0.00     0.006 C 
BRANCH   2   3
ATOM      3  C   UNL     1      41.904  60.028  48.577  1.00  0.00     0.053 C 
BRANCH   3   4
ATOM      4  C   UNL     1      43.090  60.625  49.266  1.00  0.00     0.041 C 
ATOM      5  O   UNL     1      42.974  61.702  49.907  1.00  0.00    -0.550 OA
ATOM      6  O   UNL     1      44.314  59.968  49.239  1.00  0.00    -0.550 OA
ENDBRANCH   3   4
ENDBRANCH   2   3
ENDBRANCH   1   2
BRANCH   1   7
ATOM      7  C   UNL     1      41.114  56.931  47.296  1.00  0.00     0.000 C 
BRANCH   7   8
ATOM      8  C   UNL     1      41.266  57.527  45.888  1.00  0.00    -0.000 C 
BRANCH   8   9
ATOM      9  C   UNL     1      42.659  57.283  45.289  1.00  0.00    -0.003 C 
ATOM     10  C   UNL     1      43.702  58.188  45.937  1.00  0.00     0.004 C 
ENDBRANCH   8   9
ENDBRANCH   7   8
ENDBRANCH   1   7
TORSDOF 6
ENDMDL
MODEL 2
REMARK VINA RESULT:    -4.371      2.870      4.896
REMARK INTER + INTRA:          -6.363
REMARK INTER:                  -5.899
REMARK INTRA:                  -0.464
REMARK UNBOUND:                -0.458
REMARK SMILES CCCCCCCC(=O)[O-]
REMARK SMILES IDX 5 1 6 2 7 3 8 4 9 5 10 6 4 7 3 8 2 9 1 10
REMARK H PARENT
REMARK Flexibility Score: inf
ROOT
ATOM      1  C   UNL     1      45.051  57.816  48.355  1.00  0.00     0.000 C 
ENDROOT
BRANCH   1   2
ATOM      2  C   UNL     1      43.889  57.197  47.568  1.00  0.00     0.006 C 
BRANCH   2   3
ATOM      3  C   UNL     1      43.750  57.848  46.189  1.00  0.00     0.053 C 
BRANCH   3   4
ATOM      4  C   UNL     1      42.550  57.310  45.475  1.00  0.00     0.041 C 
ATOM      5  O   UNL     1      42.656  56.876  44.298  1.00  0.00    -0.550 OA
ATOM      6  O   UNL     1      41.324  57.244  46.126  1.00  0.00    -0.550 OA
ENDBRANCH   3   4
ENDBRANCH   2   3
ENDBRANCH   1   2
BRANCH   1   7
ATOM      7  C   UNL     1      44.531  58.699  49.500  1.00  0.00     0.000 C 
BRANCH   7   8
ATOM      8  C   UNL     1      44.386  60.173  49.091  1.00  0.00    -0.000 C 
BRANCH   8   9
ATOM      9  C   UNL     1      42.999  60.744  49.418  1.00  0.00    -0.003 C 
ATOM     10  C   UNL     1      41.955  60.259  48.417  1.00  0.00     0.004 C 
ENDBRANCH   8   9
ENDBRANCH   7   8
ENDBRANCH   1   7
TORSDOF 6
ENDMDL
MODEL 3
REMARK VINA RESULT:    -4.344      2.684      4.336
REMARK INTER + INTRA:          -6.326
REMARK INTER:                  -5.748
REMARK INTRA:                  -0.578
REMARK UNBOUND:                -0.458
REMARK SMILES CCCCCCCC(=O)[O-]
REMARK SMILES IDX 5 1 6 2 7 3 8 4 9 5 10 6 4 7 3 8 2 9 1 10
REMARK H PARENT
REMARK Flexibility Score: inf
ROOT
ATOM      1  C   UNL     1      43.901  57.061  47.612  1.00  0.00     0.000 C 
ENDROOT
BRANCH   1   2
ATOM      2  C   UNL     1      43.485  57.662  46.263  1.00  0.00     0.006 C 
BRANCH   2   3
ATOM      3  C   UNL     1      42.253  58.557  46.416  1.00  0.00     0.053 C 
BRANCH   3   4
ATOM      4  C   UNL     1      41.139  57.805  47.075  1.00  0.00     0.041 C 
ATOM      5  O   UNL     1      40.667  58.205  48.172  1.00  0.00    -0.550 OA
ATOM      6  O   UNL     1      40.589  56.691  46.454  1.00  0.00    -0.550 OA
ENDBRANCH   3   4
ENDBRANCH   2   3
ENDBRANCH   1   2
BRANCH   1   7
ATOM      7  C   UNL     1      45.002  57.904  48.274  1.00  0.00     0.000 C 
BRANCH   7   8
ATOM      8  C   UNL     1      44.473  58.761  49.434  1.00  0.00    -0.000 C 
BRANCH   8   9
ATOM      9  C   UNL     1      44.334  60.244  49.059  1.00  0.00    -0.003 C 
ATOM     10  C   UNL     1      42.945  60.771  49.406  1.00  0.00     0.004 C 
ENDBRANCH   8   9
ENDBRANCH   7   8
ENDBRANCH   1   7
TORSDOF 6
ENDMDL
MODEL 4
REMARK VINA RESULT:    -4.334      1.096      2.584
REMARK INTER + INTRA:          -6.312
REMARK INTER:                  -5.822
REMARK INTRA:                  -0.490
REMARK UNBOUND:                -0.458
REMARK SMILES CCCCCCCC(=O)[O-]
REMARK SMILES IDX 5 1 6 2 7 3 8 4 9 5 10 6 4 7 3 8 2 9 1 10
REMARK H PARENT
REMARK Flexibility Score: inf
ROOT
ATOM      1  C   UNL     1      43.205  57.730  46.166  1.00  0.00     0.000 C 
ENDROOT
BRANCH   1   2
ATOM      2  C   UNL     1      44.182  58.414  47.130  1.00  0.00     0.006 C 
BRANCH   2   3
ATOM      3  C   UNL     1      43.727  59.840  47.453  1.00  0.00     0.053 C 
BRANCH   3   4
ATOM      4  C   UNL     1      44.009  60.168  48.886  1.00  0.00     0.041 C 
ATOM      5  O   UNL     1      43.235  60.928  49.525  1.00  0.00    -0.550 OA
ATOM      6  O   UNL     1      45.098  59.594  49.530  1.00  0.00    -0.550 OA
ENDBRANCH   3   4
ENDBRANCH   2   3
ENDBRANCH   1   2
BRANCH   1   7
ATOM      7  C   UNL     1      41.792  58.314  46.309  1.00  0.00     0.000 C 
BRANCH   7   8
ATOM      8  C   UNL     1      40.766  57.272  46.782  1.00  0.00    -0.000 C 
BRANCH   8   9
ATOM      9  C   UNL     1      40.018  57.712  48.049  1.00  0.00    -0.003 C 
ATOM     10  C   UNL     1      40.993  58.075  49.165  1.00  0.00     0.004 C 
ENDBRANCH   8   9
ENDBRANCH   7   8
ENDBRANCH   1   7
TORSDOF 6
ENDMDL
MODEL 5
REMARK VINA RESULT:    -4.333      2.696      4.185
REMARK INTER + INTRA:          -6.311
REMARK INTER:                  -5.772
REMARK INTRA:                  -0.539
REMARK UNBOUND:                -0.458
REMARK SMILES CCCCCCCC(=O)[O-]
REMARK SMILES IDX 5 1 6 2 7 3 8 4 9 5 10 6 4 7 3 8 2 9 1 10
REMARK H PARENT
REMARK Flexibility Score: inf
ROOT
ATOM      1  C   UNL     1      41.882  59.803  48.123  1.00  0.00     0.000 C 
ENDROOT
BRANCH   1   2
ATOM      2  C   UNL     1      41.157  58.578  48.696  1.00  0.00     0.006 C 
BRANCH   2   3
ATOM      3  C   UNL     1      41.715  57.281  48.104  1.00  0.00     0.053 C 
BRANCH   3   4
ATOM      4  C   UNL     1      41.578  57.285  46.614  1.00  0.00     0.041 C 
ATOM      5  O   UNL     1      40.437  57.295  46.083  1.00  0.00    -0.550 OA
ATOM      6  O   UNL     1      42.712  57.326  45.812  1.00  0.00    -0.550 OA
ENDBRANCH   3   4
ENDBRANCH   2   3
ENDBRANCH   1   2
BRANCH   1   7
ATOM      7  C   UNL     1      42.779  60.457  49.186  1.00  0.00     0.000 C 
BRANCH   7   8
ATOM      8  C   UNL     1      44.275  60.247  48.908  1.00  0.00    -0.000 C 
BRANCH   8   9
ATOM      9  C   UNL     1      44.825  58.971  49.562  1.00  0.00    -0.003 C 
ATOM     10  C   UNL     1      45.277  57.965  48.508  1.00  0.00     0.004 C 
ENDBRANCH   8   9
ENDBRANCH   7   8
ENDBRANCH   1   7
TORSDOF 6
ENDMDL
MODEL 6
REMARK VINA RESULT:    -4.331      1.832      3.644
REMARK INTER + INTRA:          -6.308
REMARK INTER:                  -5.881
REMARK INTRA:                  -0.426
REMARK UNBOUND:                -0.458
REMARK SMILES CCCCCCCC(=O)[O-]
REMARK SMILES IDX 5 1 6 2 7 3 8 4 9 5 10 6 4 7 3 8 2 9 1 10
REMARK H PARENT
REMARK Flexibility Score: inf
ROOT
ATOM      1  C   UNL     1      42.218  59.867  47.484  1.00  0.00     0.000 C 
ENDROOT
BRANCH   1   2
ATOM      2  C   UNL     1      43.730  59.746  47.249  1.00  0.00     0.006 C 
BRANCH   2   3
ATOM      3  C   UNL     1      44.120  58.306  46.908  1.00  0.00     0.053 C 
BRANCH   3   4
ATOM      4  C   UNL     1      44.917  57.702  48.021  1.00  0.00     0.041 C 
ATOM      5  O   UNL     1      45.313  56.509  47.941  1.00  0.00    -0.550 OA
ATOM      6  O   UNL     1      45.265  58.471  49.124  1.00  0.00    -0.550 OA
ENDBRANCH   3   4
ENDBRANCH   2   3
ENDBRANCH   1   2
BRANCH   1   7
ATOM      7  C   UNL     1      41.867  59.596  48.955  1.00  0.00     0.000 C 
BRANCH   7   8
ATOM      8  C   UNL     1      41.354  58.167  49.187  1.00  0.00    -0.000 C 
BRANCH   8   9
ATOM      9  C   UNL     1      40.092  57.851  48.371  1.00  0.00    -0.003 C 
ATOM     10  C   UNL     1      40.386  56.832  47.275  1.00  0.00     0.004 C 
ENDBRANCH   8   9
ENDBRANCH   7   8
ENDBRANCH   1   7
TORSDOF 6
ENDMDL
MODEL 7
REMARK VINA RESULT:    -4.323      1.148      1.821
REMARK INTER + INTRA:          -6.298
REMARK INTER:                  -5.746
REMARK INTRA:                  -0.552
REMARK UNBOUND:                -0.458
REMARK SMILES CCCCCCCC(=O)[O-]
REMARK SMILES IDX 5 1 6 2 7 3 8 4 9 5 10 6 4 7 3 8 2 9 1 10
REMARK H PARENT
REMARK Flexibility Score: inf
ROOT
ATOM      1  C   UNL     1      41.701  58.373  49.127  1.00  0.00     0.000 C 
ENDROOT
BRANCH   1   2
ATOM      2  C   UNL     1      42.102  59.832  48.875  1.00  0.00     0.006 C 
BRANCH   2   3
ATOM      3  C   UNL     1      43.401  59.913  48.069  1.00  0.00     0.053 C 
BRANCH   3   4
ATOM      4  C   UNL     1      44.502  59.186  48.775  1.00  0.00     0.041 C 
ATOM      5  O   UNL     1      44.913  59.592  49.894  1.00  0.00    -0.550 OA
ATOM      6  O   UNL     1      45.041  58.032  48.221  1.00  0.00    -0.550 OA
ENDBRANCH   3   4
ENDBRANCH   2   3
ENDBRANCH   1   2
BRANCH   1   7
ATOM      7  C   UNL     1      40.490  57.979  48.266  1.00  0.00     0.000 C 
BRANCH   7   8
ATOM      8  C   UNL     1      40.856  56.991  47.148  1.00  0.00    -0.000 C 
BRANCH   8   9
ATOM      9  C   UNL     1      41.259  57.696  45.844  1.00  0.00    -0.003 C 
ATOM     10  C   UNL     1      42.704  57.379  45.473  1.00  0.00     0.004 C 
ENDBRANCH   8   9
ENDBRANCH   7   8
ENDBRANCH   1   7
TORSDOF 6
ENDMDL
MODEL 8
REMARK VINA RESULT:    -4.309      1.766      3.579
REMARK INTER + INTRA:          -6.278
REMARK INTER:                  -5.729
REMARK INTRA:                  -0.549
REMARK UNBOUND:                -0.458
REMARK SMILES CCCCCCCC(=O)[O-]
REMARK SMILES IDX 5 1 6 2 7 3 8 4 9 5 10 6 4 7 3 8 2 9 1 10
REMARK H PARENT
REMARK Flexibility Score: inf
ROOT
ATOM      1  C   UNL     1      42.397  57.680  46.175  1.00  0.00     0.000 C 
ENDROOT
BRANCH   1   2
ATOM      2  C   UNL     1      43.906  57.770  46.436  1.00  0.00     0.006 C 
BRANCH   2   3
ATOM      3  C   UNL     1      44.301  56.944  47.663  1.00  0.00     0.053 C 
BRANCH   3   4
ATOM      4  C   UNL     1      45.344  57.660  48.462  1.00  0.00     0.041 C 
ATOM      5  O   UNL     1      46.501  57.174  48.574  1.00  0.00    -0.550 OA
ATOM      6  O   UNL     1      45.053  58.887  49.044  1.00  0.00    -0.550 OA
ENDBRANCH   3   4
ENDBRANCH   2   3
ENDBRANCH   1   2
BRANCH   1   7
ATOM      7  C   UNL     1      41.661  57.104  47.394  1.00  0.00     0.000 C 
BRANCH   7   8
ATOM      8  C   UNL     1      40.773  58.143  48.094  1.00  0.00    -0.000 C 
BRANCH   8   9
ATOM      9  C   UNL     1      41.533  58.949  49.159  1.00  0.00    -0.003 C 
ATOM     10  C   UNL     1      41.922  60.327  48.631  1.00  0.00     0.004 C 
ENDBRANCH   8   9
ENDBRANCH   7   8
ENDBRANCH   1   7
TORSDOF 6
ENDMDL
MODEL 9
REMARK VINA RESULT:    -4.258      2.325      4.144
REMARK INTER + INTRA:          -6.209
REMARK INTER:                  -5.778
REMARK INTRA:                  -0.431
REMARK UNBOUND:                -0.458
REMARK SMILES CCCCCCCC(=O)[O-]
REMARK SMILES IDX 5 1 6 2 7 3 8 4 9 5 10 6 4 7 3 8 2 9 1 10
REMARK H PARENT
REMARK Flexibility Score: inf
ROOT
ATOM      1  C   UNL     1      40.564  57.997  48.385  1.00  0.00     0.000 C 
ENDROOT
BRANCH   1   2
ATOM      2  C   UNL     1      41.078  56.945  47.394  1.00  0.00     0.006 C 
BRANCH   2   3
ATOM      3  C   UNL     1      41.240  57.542  45.993  1.00  0.00     0.053 C 
BRANCH   3   4
ATOM      4  C   UNL     1      42.653  57.398  45.522  1.00  0.00     0.041 C 
ATOM      5  O   UNL     1      43.609  57.632  46.308  1.00  0.00    -0.550 OA
ATOM      6  O   UNL     1      42.914  56.958  44.231  1.00  0.00    -0.550 OA
ENDBRANCH   3   4
ENDBRANCH   2   3
ENDBRANCH   1   2
BRANCH   1   7
ATOM      7  C   UNL     1      41.725  58.631  49.166  1.00  0.00     0.000 C 
BRANCH   7   8
ATOM      8  C   UNL     1      42.071  60.043  48.669  1.00  0.00    -0.000 C 
BRANCH   8   9
ATOM      9  C   UNL     1      43.385  60.574  49.262  1.00  0.00    -0.003 C 
ATOM     10  C   UNL     1      44.476  59.508  49.223  1.00  0.00     0.004 C 
ENDBRANCH   8   9
ENDBRANCH   7   8
ENDBRANCH   1   7
TORSDOF 6
ENDMDL
