MODEL 1
REMARK VINA RESULT:    -2.123      0.000      0.000
REMARK INTER + INTRA:          -2.526
REMARK INTER:                  -2.496
REMARK INTRA:                  -0.030
REMARK UNBOUND:                -0.030
REMARK SMILES CCCCC(=O)[O-]
REMARK SMILES IDX 4 1 5 2 6 3 7 4 3 5 2 6 1 7
REMARK H PARENT
REMARK Flexibility Score: inf
ROOT
ATOM      1  C   UNL     1     178.646 206.899 200.324  1.00  0.00     0.053 C 
ENDROOT
BRANCH   1   2
ATOM      2  C   UNL     1     179.935 207.212 199.631  1.00  0.00     0.041 C 
ATOM      3  O   UNL     1     180.009 207.156 198.375  1.00  0.00    -0.550 OA
ATOM      4  O   UNL     1     181.068 207.518 200.375  1.00  0.00    -0.550 OA
ENDBRANCH   1   2
BRANCH   1   5
ATOM      5  C   UNL     1     177.640 208.040 200.125  1.00  0.00     0.006 C 
BRANCH   5   6
ATOM      6  C   UNL     1     176.511 208.019 201.166  1.00  0.00    -0.003 C 
ATOM      7  C   UNL     1     176.514 206.748 202.015  1.00  0.00     0.004 C 
ENDBRANCH   5   6
ENDBRANCH   1   5
TORSDOF 3
ENDMDL
MODEL 2
REMARK VINA RESULT:    -2.068      0.758      1.541
REMARK INTER + INTRA:          -2.461
REMARK INTER:                  -2.446
REMARK INTRA:                  -0.016
REMARK UNBOUND:                -0.030
REMARK SMILES CCCCC(=O)[O-]
REMARK SMILES IDX 4 1 5 2 6 3 7 4 3 5 2 6 1 7
REMARK H PARENT
REMARK Flexibility Score: inf
ROOT
ATOM      1  C   UNL     1     178.340 206.955 200.374  1.00  0.00     0.053 C 
ENDROOT
BRANCH   1   2
ATOM      2  C   UNL     1     179.532 207.218 199.508  1.00  0.00     0.041 C 
ATOM      3  O   UNL     1     180.664 207.408 200.028  1.00  0.00    -0.550 OA
ATOM      4  O   UNL     1     179.385 207.300 198.129  1.00  0.00    -0.550 OA
ENDBRANCH   1   2
BRANCH   1   5
ATOM      5  C   UNL     1     177.314 208.086 200.229  1.00  0.00     0.006 C 
BRANCH   5   6
ATOM      6  C   UNL     1     176.306 208.120 201.388  1.00  0.00    -0.003 C 
ATOM      7  C   UNL     1     174.877 207.815 200.937  1.00  0.00     0.004 C 
ENDBRANCH   5   6
ENDBRANCH   1   5
TORSDOF 3
ENDMDL
MODEL 3
REMARK VINA RESULT:    -2.040      1.034      1.618
REMARK INTER + INTRA:          -2.428
REMARK INTER:                  -2.334
REMARK INTRA:                  -0.093
REMARK UNBOUND:                -0.030
REMARK SMILES CCCCC(=O)[O-]
REMARK SMILES IDX 4 1 5 2 6 3 7 4 3 5 2 6 1 7
REMARK H PARENT
REMARK Flexibility Score: inf
ROOT
ATOM      1  C   UNL     1     177.379 207.149 199.450  1.00  0.00     0.053 C 
ENDROOT
BRANCH   1   2
ATOM      2  C   UNL     1     178.840 207.270 199.152  1.00  0.00     0.041 C 
ATOM      3  O   UNL     1     179.675 207.341 200.093  1.00  0.00    -0.550 OA
ATOM      4  O   UNL     1     179.277 207.355 197.836  1.00  0.00    -0.550 OA
ENDBRANCH   1   2
BRANCH   1   5
ATOM      5  C   UNL     1     176.977 208.125 200.563  1.00  0.00     0.006 C 
BRANCH   5   6
ATOM      6  C   UNL     1     176.070 207.474 201.618  1.00  0.00    -0.003 C 
ATOM      7  C   UNL     1     176.756 206.328 202.362  1.00  0.00     0.004 C 
ENDBRANCH   5   6
ENDBRANCH   1   5
TORSDOF 3
ENDMDL
MODEL 4
REMARK VINA RESULT:    -1.974      3.528      4.574
REMARK INTER + INTRA:          -2.351
REMARK INTER:                  -2.315
REMARK INTRA:                  -0.036
REMARK UNBOUND:                -0.030
REMARK SMILES CCCCC(=O)[O-]
REMARK SMILES IDX 4 1 5 2 6 3 7 4 3 5 2 6 1 7
REMARK H PARENT
REMARK Flexibility Score: inf
ROOT
ATOM      1  C   UNL     1     176.298 208.125 201.309  1.00  0.00     0.053 C 
ENDROOT
BRANCH   1   2
ATOM      2  C   UNL     1     174.983 207.412 201.267  1.00  0.00     0.041 C 
ATOM      3  O   UNL     1     173.909 208.055 201.411  1.00  0.00    -0.550 OA
ATOM      4  O   UNL     1     174.944 206.032 201.115  1.00  0.00    -0.550 OA
ENDBRANCH   1   2
BRANCH   1   5
ATOM      5  C   UNL     1     176.990 208.054 199.942  1.00  0.00     0.006 C 
BRANCH   5   6
ATOM      6  C   UNL     1     178.418 207.497 200.033  1.00  0.00    -0.003 C 
ATOM      7  C   UNL     1     179.064 207.300 198.661  1.00  0.00     0.004 C 
ENDBRANCH   5   6
ENDBRANCH   1   5
TORSDOF 3
ENDMDL
MODEL 5
REMARK VINA RESULT:    -1.912      2.844      3.827
REMARK INTER + INTRA:          -2.278
REMARK INTER:                  -2.206
REMARK INTRA:                  -0.071
REMARK UNBOUND:                -0.030
REMARK SMILES CCCCC(=O)[O-]
REMARK SMILES IDX 4 1 5 2 6 3 7 4 3 5 2 6 1 7
REMARK H PARENT
REMARK Flexibility Score: inf
ROOT
ATOM      1  C   UNL     1     177.679 208.111 200.070  1.00  0.00     0.053 C 
ENDROOT
BRANCH   1   2
ATOM      2  C   UNL     1     176.864 207.463 201.146  1.00  0.00     0.041 C 
ATOM      3  O   UNL     1     175.872 208.063 201.638  1.00  0.00    -0.550 OA
ATOM      4  O   UNL     1     177.229 206.217 201.639  1.00  0.00    -0.550 OA
ENDBRANCH   1   2
BRANCH   1   5
ATOM      5  C   UNL     1     179.041 207.417 199.941  1.00  0.00     0.006 C 
BRANCH   5   6
ATOM      6  C   UNL     1     179.399 207.090 198.483  1.00  0.00    -0.003 C 
ATOM      7  C   UNL     1     178.187 207.138 197.552  1.00  0.00     0.004 C 
ENDBRANCH   5   6
ENDBRANCH   1   5
TORSDOF 3
ENDMDL
MODEL 6
REMARK VINA RESULT:    -1.890      3.271      4.177
REMARK INTER + INTRA:          -2.252
REMARK INTER:                  -2.181
REMARK INTRA:                  -0.071
REMARK UNBOUND:                -0.030
REMARK SMILES CCCCC(=O)[O-]
REMARK SMILES IDX 4 1 5 2 6 3 7 4 3 5 2 6 1 7
REMARK H PARENT
REMARK Flexibility Score: inf
ROOT
ATOM      1  C   UNL     1     176.436 208.120 201.236  1.00  0.00     0.053 C 
ENDROOT
BRANCH   1   2
ATOM      2  C   UNL     1     175.124 208.081 200.517  1.00  0.00     0.041 C 
ATOM      3  O   UNL     1     174.045 208.124 201.166  1.00  0.00    -0.550 OA
ATOM      4  O   UNL     1     175.091 207.950 199.135  1.00  0.00    -0.550 OA
ENDBRANCH   1   2
BRANCH   1   5
ATOM      5  C   UNL     1     177.592 207.901 200.250  1.00  0.00     0.006 C 
BRANCH   5   6
ATOM      6  C   UNL     1     178.386 206.621 200.550  1.00  0.00    -0.003 C 
ATOM      7  C   UNL     1     177.828 205.845 201.743  1.00  0.00     0.004 C 
ENDBRANCH   5   6
ENDBRANCH   1   5
TORSDOF 3
ENDMDL
MODEL 7
REMARK VINA RESULT:    -1.864      2.433      3.176
REMARK INTER + INTRA:          -2.222
REMARK INTER:                  -2.173
REMARK INTRA:                  -0.048
REMARK UNBOUND:                -0.030
REMARK SMILES CCCCC(=O)[O-]
REMARK SMILES IDX 4 1 5 2 6 3 7 4 3 5 2 6 1 7
REMARK H PARENT
REMARK Flexibility Score: inf
ROOT
ATOM      1  C   UNL     1     176.352 208.095 201.119  1.00  0.00     0.053 C 
ENDROOT
BRANCH   1   2
ATOM      2  C   UNL     1     177.314 207.676 200.052  1.00  0.00     0.041 C 
ATOM      3  O   UNL     1     178.505 208.087 200.075  1.00  0.00    -0.550 OA
ATOM      4  O   UNL     1     176.884 206.871 199.005  1.00  0.00    -0.550 OA
ENDBRANCH   1   2
BRANCH   1   5
ATOM      5  C   UNL     1     174.921 208.125 200.567  1.00  0.00     0.006 C 
BRANCH   5   6
ATOM      6  C   UNL     1     174.024 207.049 201.198  1.00  0.00    -0.003 C 
ATOM      7  C   UNL     1     172.688 207.607 201.688  1.00  0.00     0.004 C 
ENDBRANCH   5   6
ENDBRANCH   1   5
TORSDOF 3
ENDMDL
MODEL 8
REMARK VINA RESULT:    -1.771      1.498      1.890
REMARK INTER + INTRA:          -2.112
REMARK INTER:                  -2.057
REMARK INTRA:                  -0.056
REMARK UNBOUND:                -0.030
REMARK SMILES CCCCC(=O)[O-]
REMARK SMILES IDX 4 1 5 2 6 3 7 4 3 5 2 6 1 7
REMARK H PARENT
REMARK Flexibility Score: inf
ROOT
ATOM      1  C   UNL     1     178.381 207.752 199.421  1.00  0.00     0.053 C 
ENDROOT
BRANCH   1   2
ATOM      2  C   UNL     1     179.526 207.007 200.033  1.00  0.00     0.041 C 
ATOM      3  O   UNL     1     179.311 206.090 200.870  1.00  0.00    -0.550 OA
ATOM      4  O   UNL     1     180.832 207.358 199.716  1.00  0.00    -0.550 OA
ENDBRANCH   1   2
BRANCH   1   5
ATOM      5  C   UNL     1     177.340 208.104 200.491  1.00  0.00     0.006 C 
BRANCH   5   6
ATOM      6  C   UNL     1     175.908 208.125 199.935  1.00  0.00    -0.003 C 
ATOM      7  C   UNL     1     175.778 207.377 198.608  1.00  0.00     0.004 C 
ENDBRANCH   5   6
ENDBRANCH   1   5
TORSDOF 3
ENDMDL
MODEL 9
REMARK VINA RESULT:    -1.367      3.710      4.599
REMARK INTER + INTRA:          -1.638
REMARK INTER:                  -1.573
REMARK INTRA:                  -0.065
REMARK UNBOUND:                -0.030
REMARK SMILES CCCCC(=O)[O-]
REMARK SMILES IDX 4 1 5 2 6 3 7 4 3 5 2 6 1 7
REMARK H PARENT
REMARK Flexibility Score: inf
ROOT
ATOM      1  C   UNL     1     176.583 206.580 202.081  1.00  0.00     0.053 C 
ENDROOT
BRANCH   1   2
ATOM      2  C   UNL     1     175.357 205.727 202.172  1.00  0.00     0.041 C 
ATOM      3  O   UNL     1     175.411 204.596 202.724  1.00  0.00    -0.550 OA
ATOM      4  O   UNL     1     174.165 206.160 201.605  1.00  0.00    -0.550 OA
ENDBRANCH   1   2
BRANCH   1   5
ATOM      5  C   UNL     1     176.241 207.945 201.470  1.00  0.00     0.006 C 
BRANCH   5   6
ATOM      6  C   UNL     1     176.829 208.125 200.062  1.00  0.00    -0.003 C 
ATOM      7  C   UNL     1     178.301 207.723 199.981  1.00  0.00     0.004 C 
ENDBRANCH   5   6
ENDBRANCH   1   5
TORSDOF 3
ENDMDL
