MODEL 1
REMARK VINA RESULT:    -3.866      0.000      0.000
REMARK INTER + INTRA:          -6.363
REMARK INTER:                  -5.900
REMARK INTRA:                  -0.463
REMARK UNBOUND:                -0.463
REMARK SMILES O=C([O-])CCCCCCCCC(=O)[O-]
REMARK SMILES IDX 7 1 6 2 5 3 4 4 2 5 1 6 3 7 8 8 9 9 10 10 11 11 12 12 13 13
REMARK SMILES IDX 14 14
REMARK H PARENT
REMARK Flexibility Score: inf
ROOT
ATOM      1  C   UNL     1      33.293   8.114  46.372  1.00  0.00     0.000 C 
ENDROOT
BRANCH   1   2
ATOM      2  C   UNL     1      33.842   7.913  44.948  1.00  0.00     0.000 C 
BRANCH   2   3
ATOM      3  C   UNL     1      32.761   7.454  43.958  1.00  0.00     0.006 C 
BRANCH   3   4
ATOM      4  C   UNL     1      33.009   6.036  43.430  1.00  0.00     0.053 C 
BRANCH   4   5
ATOM      5  C   UNL     1      31.721   5.280  43.338  1.00  0.00     0.041 C 
ATOM      6  O   UNL     1      31.337   4.563  44.299  1.00  0.00    -0.550 OA
ATOM      7  O   UNL     1      30.919   5.407  42.211  1.00  0.00    -0.550 OA
ENDBRANCH   4   5
ENDBRANCH   3   4
ENDBRANCH   2   3
ENDBRANCH   1   2
BRANCH   1   8
ATOM      8  C   UNL     1      32.038   7.271  46.644  1.00  0.00     0.000 C 
BRANCH   8   9
ATOM      9  C   UNL     1      32.074   6.590  48.024  1.00  0.00     0.000 C 
BRANCH   9  10
ATOM     10  C   UNL     1      31.058   5.440  48.146  1.00  0.00     0.006 C 
BRANCH  10  11
ATOM     11  C   UNL     1      30.919   4.869  49.567  1.00  0.00     0.053 C 
BRANCH  11  12
ATOM     12  C   UNL     1      32.012   3.896  49.888  1.00  0.00     0.041 C 
ATOM     13  O   UNL     1      32.387   3.057  49.028  1.00  0.00    -0.550 OA
ATOM     14  O   UNL     1      32.638   3.938  51.128  1.00  0.00    -0.550 OA
ENDBRANCH  11  12
ENDBRANCH  10  11
ENDBRANCH   9  10
ENDBRANCH   8   9
ENDBRANCH   1   8
TORSDOF 9
ENDMDL
MODEL 2
REMARK VINA RESULT:    -3.862      7.318      9.888
REMARK INTER + INTRA:          -6.357
REMARK INTER:                  -5.909
REMARK INTRA:                  -0.448
REMARK UNBOUND:                -0.463
REMARK SMILES O=C([O-])CCCCCCCCC(=O)[O-]
REMARK SMILES IDX 7 1 6 2 5 3 4 4 2 5 1 6 3 7 8 8 9 9 10 10 11 11 12 12 13 13
REMARK SMILES IDX 14 14
REMARK H PARENT
REMARK Flexibility Score: inf
ROOT
ATOM      1  C   UNL     1      26.530   5.630  41.742  1.00  0.00     0.000 C 
ENDROOT
BRANCH   1   2
ATOM      2  C   UNL     1      27.746   4.705  41.550  1.00  0.00     0.000 C 
BRANCH   2   3
ATOM      3  C   UNL     1      28.922   5.412  40.860  1.00  0.00     0.006 C 
BRANCH   3   4
ATOM      4  C   UNL     1      29.471   4.615  39.670  1.00  0.00     0.053 C 
BRANCH   4   5
ATOM      5  C   UNL     1      30.734   5.238  39.163  1.00  0.00     0.041 C 
ATOM      6  O   UNL     1      31.840   4.949  39.691  1.00  0.00    -0.550 OA
ATOM      7  O   UNL     1      30.695   6.100  38.074  1.00  0.00    -0.550 OA
ENDBRANCH   4   5
ENDBRANCH   3   4
ENDBRANCH   2   3
ENDBRANCH   1   2
BRANCH   1   8
ATOM      8  C   UNL     1      25.235   5.026  41.180  1.00  0.00     0.000 C 
BRANCH   8   9
ATOM      9  C   UNL     1      25.323   3.499  41.008  1.00  0.00     0.000 C 
BRANCH   9  10
ATOM     10  C   UNL     1      25.005   3.042  39.573  1.00  0.00     0.006 C 
BRANCH  10  11
ATOM     11  C   UNL     1      24.277   1.692  39.488  1.00  0.00     0.053 C 
BRANCH  11  12
ATOM     12  C   UNL     1      22.823   1.859  39.169  1.00  0.00     0.041 C 
ATOM     13  O   UNL     1      22.324   1.286  38.164  1.00  0.00    -0.550 OA
ATOM     14  O   UNL     1      22.012   2.621  40.000  1.00  0.00    -0.550 OA
ENDBRANCH  11  12
ENDBRANCH  10  11
ENDBRANCH   9  10
ENDBRANCH   8   9
ENDBRANCH   1   8
TORSDOF 9
ENDMDL
MODEL 3
REMARK VINA RESULT:    -3.824     14.165     15.274
REMARK INTER + INTRA:          -6.299
REMARK INTER:                  -5.991
REMARK INTRA:                  -0.309
REMARK UNBOUND:                -0.463
REMARK SMILES O=C([O-])CCCCCCCCC(=O)[O-]
REMARK SMILES IDX 7 1 6 2 5 3 4 4 2 5 1 6 3 7 8 8 9 9 10 10 11 11 12 12 13 13
REMARK SMILES IDX 14 14
REMARK H PARENT
REMARK Flexibility Score: inf
ROOT
ATOM      1  C   UNL     1      24.313  -5.309  52.741  1.00  0.00     0.000 C 
ENDROOT
BRANCH   1   2
ATOM      2  C   UNL     1      23.407  -4.472  53.661  1.00  0.00     0.000 C 
BRANCH   2   3
ATOM      3  C   UNL     1      23.705  -2.968  53.575  1.00  0.00     0.006 C 
BRANCH   3   4
ATOM      4  C   UNL     1      22.896  -2.148  54.588  1.00  0.00     0.053 C 
BRANCH   4   5
ATOM      5  C   UNL     1      23.546  -2.196  55.936  1.00  0.00     0.041 C 
ATOM      6  O   UNL     1      24.753  -2.535  56.046  1.00  0.00    -0.550 OA
ATOM      7  O   UNL     1      22.830  -1.817  57.065  1.00  0.00    -0.550 OA
ENDBRANCH   4   5
ENDBRANCH   3   4
ENDBRANCH   2   3
ENDBRANCH   1   2
BRANCH   1   8
ATOM      8  C   UNL     1      25.230  -6.262  53.523  1.00  0.00     0.000 C 
BRANCH   8   9
ATOM      9  C   UNL     1      26.462  -5.548  54.106  1.00  0.00     0.000 C 
BRANCH   9  10
ATOM     10  C   UNL     1      27.756  -6.366  53.943  1.00  0.00     0.006 C 
BRANCH  10  11
ATOM     11  C   UNL     1      28.602  -5.971  52.722  1.00  0.00     0.053 C 
BRANCH  11  12
ATOM     12  C   UNL     1      29.682  -6.971  52.442  1.00  0.00     0.041 C 
ATOM     13  O   UNL     1      29.735  -7.551  51.326  1.00  0.00    -0.550 OA
ATOM     14  O   UNL     1      30.650  -7.236  53.403  1.00  0.00    -0.550 OA
ENDBRANCH  11  12
ENDBRANCH  10  11
ENDBRANCH   9  10
ENDBRANCH   8   9
ENDBRANCH   1   8
TORSDOF 9
ENDMDL
MODEL 4
REMARK VINA RESULT:    -3.820      7.185      9.849
REMARK INTER + INTRA:          -6.294
REMARK INTER:                  -5.923
REMARK INTRA:                  -0.371
REMARK UNBOUND:                -0.463
REMARK SMILES O=C([O-])CCCCCCCCC(=O)[O-]
REMARK SMILES IDX 7 1 6 2 5 3 4 4 2 5 1 6 3 7 8 8 9 9 10 10 11 11 12 12 13 13
REMARK SMILES IDX 14 14
REMARK H PARENT
REMARK Flexibility Score: inf
ROOT
ATOM      1  C   UNL     1      25.221   5.012  41.019  1.00  0.00     0.000 C 
ENDROOT
BRANCH   1   2
ATOM      2  C   UNL     1      25.144   3.476  41.074  1.00  0.00     0.000 C 
BRANCH   2   3
ATOM      3  C   UNL     1      25.089   2.837  39.678  1.00  0.00     0.006 C 
BRANCH   3   4
ATOM      4  C   UNL     1      23.750   2.143  39.400  1.00  0.00     0.053 C 
BRANCH   4   5
ATOM      5  C   UNL     1      23.673   0.842  40.138  1.00  0.00     0.041 C 
ATOM      6  O   UNL     1      23.243   0.809  41.320  1.00  0.00    -0.550 OA
ATOM      7  O   UNL     1      24.029  -0.339  39.500  1.00  0.00    -0.550 OA
ENDBRANCH   4   5
ENDBRANCH   3   4
ENDBRANCH   2   3
ENDBRANCH   1   2
BRANCH   1   8
ATOM      8  C   UNL     1      26.552   5.556  41.560  1.00  0.00     0.000 C 
BRANCH   8   9
ATOM      9  C   UNL     1      27.616   4.456  41.719  1.00  0.00     0.000 C 
BRANCH   9  10
ATOM     10  C   UNL     1      29.000   4.888  41.203  1.00  0.00     0.006 C 
BRANCH  10  11
ATOM     11  C   UNL     1      29.235   4.600  39.711  1.00  0.00     0.053 C 
BRANCH  11  12
ATOM     12  C   UNL     1      30.563   5.112  39.245  1.00  0.00     0.041 C 
ATOM     13  O   UNL     1      31.619   4.771  39.841  1.00  0.00    -0.550 OA
ATOM     14  O   UNL     1      30.638   5.938  38.131  1.00  0.00    -0.550 OA
ENDBRANCH  11  12
ENDBRANCH  10  11
ENDBRANCH   9  10
ENDBRANCH   8   9
ENDBRANCH   1   8
TORSDOF 9
ENDMDL
MODEL 5
REMARK VINA RESULT:    -3.816      0.825      6.010
REMARK INTER + INTRA:          -6.286
REMARK INTER:                  -5.745
REMARK INTRA:                  -0.542
REMARK UNBOUND:                -0.463
REMARK SMILES O=C([O-])CCCCCCCCC(=O)[O-]
REMARK SMILES IDX 7 1 6 2 5 3 4 4 2 5 1 6 3 7 8 8 9 9 10 10 11 11 12 12 13 13
REMARK SMILES IDX 14 14
REMARK H PARENT
REMARK Flexibility Score: inf
ROOT
ATOM      1  C   UNL     1      31.146   7.339  46.593  1.00  0.00     0.000 C 
ENDROOT
BRANCH   1   2
ATOM      2  C   UNL     1      31.970   6.522  47.604  1.00  0.00     0.000 C 
BRANCH   2   3
ATOM      3  C   UNL     1      31.269   5.221  48.024  1.00  0.00     0.006 C 
BRANCH   3   4
ATOM      4  C   UNL     1      31.237   5.033  49.546  1.00  0.00     0.053 C 
BRANCH   4   5
ATOM      5  C   UNL     1      32.179   3.944  49.957  1.00  0.00     0.041 C 
ATOM      6  O   UNL     1      32.549   3.078  49.122  1.00  0.00    -0.550 OA
ATOM      7  O   UNL     1      32.685   3.917  51.250  1.00  0.00    -0.550 OA
ENDBRANCH   4   5
ENDBRANCH   3   4
ENDBRANCH   2   3
ENDBRANCH   1   2
BRANCH   1   8
ATOM      8  C   UNL     1      32.014   7.951  45.483  1.00  0.00     0.000 C 
BRANCH   8   9
ATOM      9  C   UNL     1      33.276   7.118  45.195  1.00  0.00     0.000 C 
BRANCH   9  10
ATOM     10  C   UNL     1      33.030   6.006  44.160  1.00  0.00     0.006 C 
BRANCH  10  11
ATOM     11  C   UNL     1      32.001   6.368  43.077  1.00  0.00     0.053 C 
BRANCH  11  12
ATOM     12  C   UNL     1      31.100   5.216  42.753  1.00  0.00     0.041 C 
ATOM     13  O   UNL     1      30.692   4.453  43.667  1.00  0.00    -0.550 OA
ATOM     14  O   UNL     1      30.686   5.005  41.444  1.00  0.00    -0.550 OA
ENDBRANCH  11  12
ENDBRANCH  10  11
ENDBRANCH   9  10
ENDBRANCH   8   9
ENDBRANCH   1   8
TORSDOF 9
ENDMDL
MODEL 6
REMARK VINA RESULT:    -3.768      9.864     11.173
REMARK INTER + INTRA:          -6.214
REMARK INTER:                  -5.365
REMARK INTRA:                  -0.850
REMARK UNBOUND:                -0.463
REMARK SMILES O=C([O-])CCCCCCCCC(=O)[O-]
REMARK SMILES IDX 7 1 6 2 5 3 4 4 2 5 1 6 3 7 8 8 9 9 10 10 11 11 12 12 13 13
REMARK SMILES IDX 14 14
REMARK H PARENT
REMARK Flexibility Score: inf
ROOT
ATOM      1  C   UNL     1      25.595   4.479  41.611  1.00  0.00     0.000 C 
ENDROOT
BRANCH   1   2
ATOM      2  C   UNL     1      26.164   3.770  40.368  1.00  0.00     0.000 C 
BRANCH   2   3
ATOM      3  C   UNL     1      25.069   3.141  39.494  1.00  0.00     0.006 C 
BRANCH   3   4
ATOM      4  C   UNL     1      24.225   2.112  40.257  1.00  0.00     0.053 C 
BRANCH   4   5
ATOM      5  C   UNL     1      23.374   1.327  39.307  1.00  0.00     0.041 C 
ATOM      6  O   UNL     1      23.435   0.070  39.294  1.00  0.00    -0.550 OA
ATOM      7  O   UNL     1      22.479   1.984  38.473  1.00  0.00    -0.550 OA
ENDBRANCH   4   5
ENDBRANCH   3   4
ENDBRANCH   2   3
ENDBRANCH   1   2
BRANCH   1   8
ATOM      8  C   UNL     1      25.121   5.908  41.309  1.00  0.00     0.000 C 
BRANCH   8   9
ATOM      9  C   UNL     1      23.745   6.215  41.926  1.00  0.00     0.000 C 
BRANCH   9  10
ATOM     10  C   UNL     1      22.969   4.943  42.311  1.00  0.00     0.006 C 
BRANCH  10  11
ATOM     11  C   UNL     1      21.489   4.957  41.893  1.00  0.00     0.053 C 
BRANCH  11  12
ATOM     12  C   UNL     1      20.988   3.584  41.563  1.00  0.00     0.041 C 
ATOM     13  O   UNL     1      20.189   3.414  40.605  1.00  0.00    -0.550 OA
ATOM     14  O   UNL     1      21.432   2.488  42.292  1.00  0.00    -0.550 OA
ENDBRANCH  11  12
ENDBRANCH  10  11
ENDBRANCH   9  10
ENDBRANCH   8   9
ENDBRANCH   1   8
TORSDOF 9
ENDMDL
MODEL 7
REMARK VINA RESULT:    -3.689      2.697      6.581
REMARK INTER + INTRA:          -6.092
REMARK INTER:                  -5.681
REMARK INTRA:                  -0.412
REMARK UNBOUND:                -0.463
REMARK SMILES O=C([O-])CCCCCCCCC(=O)[O-]
REMARK SMILES IDX 7 1 6 2 5 3 4 4 2 5 1 6 3 7 8 8 9 9 10 10 11 11 12 12 13 13
REMARK SMILES IDX 14 14
REMARK H PARENT
REMARK Flexibility Score: inf
ROOT
ATOM      1  C   UNL     1      32.191   7.639  46.855  1.00  0.00     0.000 C 
ENDROOT
BRANCH   1   2
ATOM      2  C   UNL     1      32.103   6.133  46.546  1.00  0.00     0.000 C 
BRANCH   2   3
ATOM      3  C   UNL     1      31.197   5.380  47.531  1.00  0.00     0.006 C 
BRANCH   3   4
ATOM      4  C   UNL     1      31.818   5.260  48.929  1.00  0.00     0.053 C 
BRANCH   4   5
ATOM      5  C   UNL     1      31.817   3.833  49.380  1.00  0.00     0.041 C 
ATOM      6  O   UNL     1      32.757   3.064  49.050  1.00  0.00    -0.550 OA
ATOM      7  O   UNL     1      30.803   3.368  50.208  1.00  0.00    -0.550 OA
ENDBRANCH   4   5
ENDBRANCH   3   4
ENDBRANCH   2   3
ENDBRANCH   1   2
BRANCH   1   8
ATOM      8  C   UNL     1      33.568   8.230  46.517  1.00  0.00     0.000 C 
BRANCH   8   9
ATOM      9  C   UNL     1      34.123   7.704  45.181  1.00  0.00     0.000 C 
BRANCH   9  10
ATOM     10  C   UNL     1      33.535   8.438  43.962  1.00  0.00     0.006 C 
BRANCH  10  11
ATOM     11  C   UNL     1      34.487   9.464  43.326  1.00  0.00     0.053 C 
BRANCH  11  12
ATOM     12  C   UNL     1      35.637   8.803  42.629  1.00  0.00     0.041 C 
ATOM     13  O   UNL     1      35.435   8.085  41.614  1.00  0.00    -0.550 OA
ATOM     14  O   UNL     1      36.934   9.009  43.080  1.00  0.00    -0.550 OA
ENDBRANCH  11  12
ENDBRANCH  10  11
ENDBRANCH   9  10
ENDBRANCH   8   9
ENDBRANCH   1   8
TORSDOF 9
ENDMDL
MODEL 8
REMARK VINA RESULT:    -3.649      2.138      6.269
REMARK INTER + INTRA:          -6.033
REMARK INTER:                  -5.498
REMARK INTRA:                  -0.534
REMARK UNBOUND:                -0.463
REMARK SMILES O=C([O-])CCCCCCCCC(=O)[O-]
REMARK SMILES IDX 7 1 6 2 5 3 4 4 2 5 1 6 3 7 8 8 9 9 10 10 11 11 12 12 13 13
REMARK SMILES IDX 14 14
REMARK H PARENT
REMARK Flexibility Score: inf
ROOT
ATOM      1  C   UNL     1      30.350   7.363  46.989  1.00  0.00     0.000 C 
ENDROOT
BRANCH   1   2
ATOM      2  C   UNL     1      30.078   5.981  47.610  1.00  0.00     0.000 C 
BRANCH   2   3
ATOM      3  C   UNL     1      31.366   5.186  47.871  1.00  0.00     0.006 C 
BRANCH   3   4
ATOM      4  C   UNL     1      31.868   5.335  49.313  1.00  0.00     0.053 C 
BRANCH   4   5
ATOM      5  C   UNL     1      32.271   4.003  49.865  1.00  0.00     0.041 C 
ATOM      6  O   UNL     1      32.564   3.885  51.084  1.00  0.00    -0.550 OA
ATOM      7  O   UNL     1      32.273   2.883  49.044  1.00  0.00    -0.550 OA
ENDBRANCH   4   5
ENDBRANCH   3   4
ENDBRANCH   2   3
ENDBRANCH   1   2
BRANCH   1   8
ATOM      8  C   UNL     1      31.538   7.347  46.015  1.00  0.00     0.000 C 
BRANCH   8   9
ATOM      9  C   UNL     1      32.718   8.202  46.512  1.00  0.00     0.000 C 
BRANCH   9  10
ATOM     10  C   UNL     1      33.988   8.011  45.665  1.00  0.00     0.006 C 
BRANCH  10  11
ATOM     11  C   UNL     1      33.745   7.328  44.309  1.00  0.00     0.053 C 
BRANCH  11  12
ATOM     12  C   UNL     1      33.907   8.282  43.165  1.00  0.00     0.041 C 
ATOM     13  O   UNL     1      34.926   8.222  42.429  1.00  0.00    -0.550 OA
ATOM     14  O   UNL     1      32.914   9.215  42.893  1.00  0.00    -0.550 OA
ENDBRANCH  11  12
ENDBRANCH  10  11
ENDBRANCH   9  10
ENDBRANCH   8   9
ENDBRANCH   1   8
TORSDOF 9
ENDMDL
MODEL 9
REMARK VINA RESULT:    -3.600     14.647     16.750
REMARK INTER + INTRA:          -5.958
REMARK INTER:                  -5.077
REMARK INTRA:                  -0.880
REMARK UNBOUND:                -0.463
REMARK SMILES O=C([O-])CCCCCCCCC(=O)[O-]
REMARK SMILES IDX 7 1 6 2 5 3 4 4 2 5 1 6 3 7 8 8 9 9 10 10 11 11 12 12 13 13
REMARK SMILES IDX 14 14
REMARK H PARENT
REMARK Flexibility Score: inf
ROOT
ATOM      1  C   UNL     1      24.421  -3.365  55.974  1.00  0.00     0.000 C 
ENDROOT
BRANCH   1   2
ATOM      2  C   UNL     1      24.243  -3.137  57.486  1.00  0.00     0.000 C 
BRANCH   2   3
ATOM      3  C   UNL     1      22.777  -3.244  57.932  1.00  0.00     0.006 C 
BRANCH   3   4
ATOM      4  C   UNL     1      22.118  -1.873  58.125  1.00  0.00     0.053 C 
BRANCH   4   5
ATOM      5  C   UNL     1      20.749  -1.862  57.520  1.00  0.00     0.041 C 
ATOM      6  O   UNL     1      20.511  -1.159  56.503  1.00  0.00    -0.550 OA
ATOM      7  O   UNL     1      19.749  -2.667  58.051  1.00  0.00    -0.550 OA
ENDBRANCH   4   5
ENDBRANCH   3   4
ENDBRANCH   2   3
ENDBRANCH   1   2
BRANCH   1   8
ATOM      8  C   UNL     1      24.004  -2.143  55.141  1.00  0.00     0.000 C 
BRANCH   8   9
ATOM      9  C   UNL     1      22.861  -2.459  54.160  1.00  0.00     0.000 C 
BRANCH   9  10
ATOM     10  C   UNL     1      22.300  -3.881  54.341  1.00  0.00     0.006 C 
BRANCH  10  11
ATOM     11  C   UNL     1      22.359  -4.748  53.073  1.00  0.00     0.053 C 
BRANCH  11  12
ATOM     12  C   UNL     1      23.504  -5.713  53.108  1.00  0.00     0.041 C 
ATOM     13  O   UNL     1      23.292  -6.944  53.266  1.00  0.00    -0.550 OA
ATOM     14  O   UNL     1      24.804  -5.256  52.933  1.00  0.00    -0.550 OA
ENDBRANCH  11  12
ENDBRANCH  10  11
ENDBRANCH   9  10
ENDBRANCH   8   9
ENDBRANCH   1   8
TORSDOF 9
ENDMDL
