MODEL 1
REMARK VINA RESULT:    -3.877      0.000      0.000
REMARK INTER + INTRA:          -3.951
REMARK INTER:                  -4.783
REMARK INTRA:                   0.833
REMARK UNBOUND:                 0.833
REMARK SMILES CC1=CC=CC(C)(C)CC1=O
REMARK SMILES IDX 1 1 2 2 3 3 10 4 11 5 9 6 4 8 5 9 6 10 7 11 8 12
REMARK H PARENT
REMARK Flexibility Score: 80.00
ROOT
ATOM      1  C   UNL     1      20.634 -12.634  69.343  1.00  0.00     0.048 C 
ATOM      2  C   UNL     1      19.484 -11.948  68.642  1.00  0.00    -0.008 C 
ATOM      3  C   UNL     1      19.410 -10.602  68.722  1.00  0.00     0.007 C 
ENDROOT
BRANCH   2   4
ATOM      4  C   UNL     1      18.494 -12.826  67.964  1.00  0.00     0.159 C 
ATOM      5  O   UNL     1      18.691 -14.073  67.969  1.00  0.00    -0.295 OA
BRANCH   4   6
ATOM      6  C   UNL     1      17.244 -12.329  67.302  1.00  0.00     0.091 CG0
ATOM      7  G   UNL     1      17.475 -11.154  66.325  1.00  0.00     0.000 G0
ENDBRANCH   4   6
ENDBRANCH   2   4
BRANCH   3   8
ATOM      8  C   UNL     1      18.418  -9.671  68.137  1.00  0.00    -0.003 C 
ATOM      9  C   UNL     1      17.598  -9.871  67.099  1.00  0.00    -0.020 C 
BRANCH   9  10
ATOM     10  C   UNL     1      17.451 -11.152  66.314  1.00  0.00    -0.010 CG0
ATOM     11  C   UNL     1      16.176 -11.043  65.446  1.00  0.00     0.016 C 
ATOM     12  C   UNL     1      18.657 -11.342  65.364  1.00  0.00     0.016 C 
ATOM     13  G   UNL     1      17.268 -12.335  67.291  1.00  0.00     0.000 G0
ENDBRANCH   9  10
ENDBRANCH   3   8
TORSDOF 0
ENDMDL
MODEL 2
REMARK VINA RESULT:    -3.701     17.660     19.265
REMARK INTER + INTRA:          -3.734
REMARK INTER:                  -4.596
REMARK INTRA:                   0.862
REMARK UNBOUND:                 0.833
REMARK SMILES CC1=CC=CC(C)(C)CC1=O
REMARK SMILES IDX 1 1 2 2 3 3 10 4 11 5 9 6 4 8 5 9 6 10 7 11 8 12
REMARK H PARENT
REMARK Flexibility Score: 80.00
ROOT
ATOM      1  C   UNL     1      13.347   6.057  54.972  1.00  0.00     0.048 C 
ATOM      2  C   UNL     1      13.373   4.854  55.885  1.00  0.00    -0.008 C 
ATOM      3  C   UNL     1      12.729   4.947  57.069  1.00  0.00     0.007 C 
ENDROOT
BRANCH   2   4
ATOM      4  C   UNL     1      14.160   3.680  55.422  1.00  0.00     0.159 C 
ATOM      5  O   UNL     1      14.679   3.717  54.273  1.00  0.00    -0.295 OA
BRANCH   4   6
ATOM      6  C   UNL     1      14.413   2.457  56.253  1.00  0.00     0.091 CG0
ATOM      7  G   UNL     1      13.135   1.835  56.860  1.00  0.00     0.000 G0
ENDBRANCH   4   6
ENDBRANCH   2   4
BRANCH   3   8
ATOM      8  C   UNL     1      12.577   3.942  58.145  1.00  0.00    -0.003 C 
ATOM      9  C   UNL     1      12.718   2.613  58.073  1.00  0.00    -0.020 C 
BRANCH   9  10
ATOM     10  C   UNL     1      13.141   1.828  56.856  1.00  0.00    -0.010 CG0
ATOM     11  C   UNL     1      13.486   0.389  57.305  1.00  0.00     0.016 C 
ATOM     12  C   UNL     1      11.978   1.743  55.840  1.00  0.00     0.016 C 
ATOM     13  G   UNL     1      14.415   2.462  56.252  1.00  0.00     0.000 G0
ENDBRANCH   9  10
ENDBRANCH   3   8
TORSDOF 0
ENDMDL
MODEL 3
REMARK VINA RESULT:    -3.686      1.353      2.027
REMARK INTER + INTRA:          -3.715
REMARK INTER:                  -4.563
REMARK INTRA:                   0.848
REMARK UNBOUND:                 0.833
REMARK SMILES CC1=CC=CC(C)(C)CC1=O
REMARK SMILES IDX 1 1 2 2 3 3 10 4 11 5 9 6 4 8 5 9 6 10 7 11 8 12
REMARK H PARENT
REMARK Flexibility Score: 80.00
ROOT
ATOM      1  C   UNL     1      19.201  -9.975  69.265  1.00  0.00     0.048 C 
ATOM      2  C   UNL     1      18.498 -10.700  68.141  1.00  0.00    -0.008 C 
ATOM      3  C   UNL     1      17.714  -9.973  67.315  1.00  0.00     0.007 C 
ENDROOT
BRANCH   2   4
ATOM      4  C   UNL     1      18.687 -12.174  68.073  1.00  0.00     0.159 C 
ATOM      5  O   UNL     1      19.500 -12.714  68.873  1.00  0.00    -0.295 OA
BRANCH   4   6
ATOM      6  C   UNL     1      17.942 -13.075  67.135  1.00  0.00     0.091 CG0
ATOM      7  G   UNL     1      18.034 -12.652  65.652  1.00  0.00     0.000 G0
ENDBRANCH   4   6
ENDBRANCH   2   4
BRANCH   3   8
ATOM      8  C   UNL     1      16.923 -10.403  66.140  1.00  0.00    -0.003 C 
ATOM      9  C   UNL     1      17.061 -11.509  65.400  1.00  0.00    -0.020 C 
BRANCH   9  10
ATOM     10  C   UNL     1      18.039 -12.631  65.649  1.00  0.00    -0.010 CG0
ATOM     11  C   UNL     1      17.627 -13.836  64.773  1.00  0.00     0.016 C 
ATOM     12  C   UNL     1      19.465 -12.203  65.229  1.00  0.00     0.016 C 
ATOM     13  G   UNL     1      17.959 -13.063  67.131  1.00  0.00     0.000 G0
ENDBRANCH   9  10
ENDBRANCH   3   8
TORSDOF 0
ENDMDL
MODEL 4
REMARK VINA RESULT:    -3.667      1.607      3.234
REMARK INTER + INTRA:          -3.692
REMARK INTER:                  -4.541
REMARK INTRA:                   0.848
REMARK UNBOUND:                 0.833
REMARK SMILES CC1=CC=CC(C)(C)CC1=O
REMARK SMILES IDX 1 1 2 2 3 3 10 4 11 5 9 6 4 8 5 9 6 10 7 11 8 12
REMARK H PARENT
REMARK Flexibility Score: 80.00
ROOT
ATOM      1  C   UNL     1      14.960 -11.870  67.355  1.00  0.00     0.048 C 
ATOM      2  C   UNL     1      16.338 -11.530  66.836  1.00  0.00    -0.008 C 
ATOM      3  C   UNL     1      16.425 -10.696  65.777  1.00  0.00     0.007 C 
ENDROOT
BRANCH   2   4
ATOM      4  C   UNL     1      17.488 -12.191  67.508  1.00  0.00     0.159 C 
ATOM      5  O   UNL     1      17.263 -12.906  68.524  1.00  0.00    -0.295 OA
BRANCH   4   6
ATOM      6  C   UNL     1      18.907 -12.096  67.033  1.00  0.00     0.091 CG0
ATOM      7  G   UNL     1      19.408 -10.648  66.838  1.00  0.00     0.000 G0
ENDBRANCH   4   6
ENDBRANCH   2   4
BRANCH   3   8
ATOM      8  C   UNL     1      17.620 -10.184  65.070  1.00  0.00    -0.003 C 
ATOM      9  C   UNL     1      18.885 -10.125  65.504  1.00  0.00    -0.020 C 
BRANCH   9  10
ATOM     10  C   UNL     1      19.398 -10.646  66.825  1.00  0.00    -0.010 CG0
ATOM     11  C   UNL     1      20.943 -10.676  66.765  1.00  0.00     0.016 C 
ATOM     12  C   UNL     1      18.986  -9.695  67.974  1.00  0.00     0.016 C 
ATOM     13  G   UNL     1      18.896 -12.092  67.038  1.00  0.00     0.000 G0
ENDBRANCH   9  10
ENDBRANCH   3   8
TORSDOF 0
ENDMDL
MODEL 5
REMARK VINA RESULT:    -3.663      2.394      4.017
REMARK INTER + INTRA:          -3.687
REMARK INTER:                  -4.543
REMARK INTRA:                   0.856
REMARK UNBOUND:                 0.833
REMARK SMILES CC1=CC=CC(C)(C)CC1=O
REMARK SMILES IDX 1 1 2 2 3 3 10 4 11 5 9 6 4 8 5 9 6 10 7 11 8 12
REMARK H PARENT
REMARK Flexibility Score: 80.00
ROOT
ATOM      1  C   UNL     1      15.825 -10.362  64.373  1.00  0.00     0.048 C 
ATOM      2  C   UNL     1      17.093 -10.358  65.195  1.00  0.00    -0.008 C 
ATOM      3  C   UNL     1      16.993 -10.051  66.507  1.00  0.00     0.007 C 
ENDROOT
BRANCH   2   4
ATOM      4  C   UNL     1      18.360 -10.641  64.471  1.00  0.00     0.159 C 
ATOM      5  O   UNL     1      18.297 -10.987  63.259  1.00  0.00    -0.295 OA
BRANCH   4   6
ATOM      6  C   UNL     1      19.724 -10.506  65.079  1.00  0.00     0.091 CG0
ATOM      7  G   UNL     1      19.900 -11.278  66.405  1.00  0.00     0.000 G0
ENDBRANCH   4   6
ENDBRANCH   2   4
BRANCH   3   8
ATOM      8  C   UNL     1      18.046  -9.979  67.545  1.00  0.00    -0.003 C 
ATOM      9  C   UNL     1      19.270 -10.519  67.531  1.00  0.00    -0.020 C 
BRANCH   9  10
ATOM     10  C   UNL     1      19.891 -11.288  66.390  1.00  0.00    -0.010 CG0
ATOM     11  C   UNL     1      21.406 -11.423  66.666  1.00  0.00     0.016 C 
ATOM     12  C   UNL     1      19.293 -12.712  66.314  1.00  0.00     0.016 C 
ATOM     13  G   UNL     1      19.710 -10.494  65.077  1.00  0.00     0.000 G0
ENDBRANCH   9  10
ENDBRANCH   3   8
TORSDOF 0
ENDMDL
MODEL 6
REMARK VINA RESULT:    -3.659      1.664      2.538
REMARK INTER + INTRA:          -3.682
REMARK INTER:                  -4.536
REMARK INTRA:                   0.854
REMARK UNBOUND:                 0.833
REMARK SMILES CC1=CC=CC(C)(C)CC1=O
REMARK SMILES IDX 1 1 2 2 3 3 10 4 11 5 9 6 4 8 5 9 6 10 7 11 8 12
REMARK H PARENT
REMARK Flexibility Score: 80.00
ROOT
ATOM      1  C   UNL     1      21.022 -13.026  69.597  1.00  0.00     0.048 C 
ATOM      2  C   UNL     1      20.367 -12.460  68.359  1.00  0.00    -0.008 C 
ATOM      3  C   UNL     1      20.434 -13.186  67.222  1.00  0.00     0.007 C 
ENDROOT
BRANCH   2   4
ATOM      4  C   UNL     1      19.747 -11.114  68.486  1.00  0.00     0.159 C 
ATOM      5  O   UNL     1      19.735 -10.561  69.620  1.00  0.00    -0.295 OA
BRANCH   4   6
ATOM      6  C   UNL     1      19.163 -10.346  67.339  1.00  0.00     0.091 CG0
ATOM      7  G   UNL     1      18.152 -11.152  66.493  1.00  0.00     0.000 G0
ENDBRANCH   4   6
ENDBRANCH   2   4
BRANCH   3   8
ATOM      8  C   UNL     1      19.884 -12.895  65.878  1.00  0.00    -0.003 C 
ATOM      9  C   UNL     1      18.893 -12.060  65.546  1.00  0.00    -0.020 C 
BRANCH   9  10
ATOM     10  C   UNL     1      18.139 -11.153  66.487  1.00  0.00    -0.010 CG0
ATOM     11  C   UNL     1      17.325 -10.146  65.641  1.00  0.00     0.016 C 
ATOM     12  C   UNL     1      17.142 -11.973  67.339  1.00  0.00     0.016 C 
ATOM     13  G   UNL     1      19.144 -10.355  67.348  1.00  0.00     0.000 G0
ENDBRANCH   9  10
ENDBRANCH   3   8
TORSDOF 0
ENDMDL
MODEL 7
REMARK VINA RESULT:    -3.591      2.184      3.421
REMARK INTER + INTRA:          -3.598
REMARK INTER:                  -4.452
REMARK INTRA:                   0.854
REMARK UNBOUND:                 0.833
REMARK SMILES CC1=CC=CC(C)(C)CC1=O
REMARK SMILES IDX 1 1 2 2 3 3 10 4 11 5 9 6 4 8 5 9 6 10 7 11 8 12
REMARK H PARENT
REMARK Flexibility Score: 80.00
ROOT
ATOM      1  C   UNL     1      20.786  -9.472  63.766  1.00  0.00     0.048 C 
ATOM      2  C   UNL     1      20.260 -10.323  64.898  1.00  0.00    -0.008 C 
ATOM      3  C   UNL     1      20.974 -10.360  66.044  1.00  0.00     0.007 C 
ENDROOT
BRANCH   2   4
ATOM      4  C   UNL     1      19.018 -11.096  64.632  1.00  0.00     0.159 C 
ATOM      5  O   UNL     1      18.444 -10.950  63.517  1.00  0.00    -0.295 OA
BRANCH   4   6
ATOM      6  C   UNL     1      18.416 -12.077  65.593  1.00  0.00     0.091 CG0
ATOM      7  G   UNL     1      18.224 -11.519  67.021  1.00  0.00     0.000 G0
ENDBRANCH   4   6
ENDBRANCH   2   4
BRANCH   3   8
ATOM      8  C   UNL     1      20.703 -11.086  67.305  1.00  0.00    -0.003 C 
ATOM      9  C   UNL     1      19.539 -11.567  67.758  1.00  0.00    -0.020 C 
BRANCH   9  10
ATOM     10  C   UNL     1      18.218 -11.532  67.029  1.00  0.00    -0.010 CG0
ATOM     11  C   UNL     1      17.235 -12.473  67.765  1.00  0.00     0.016 C 
ATOM     12  C   UNL     1      17.624 -10.105  67.062  1.00  0.00     0.016 C 
ATOM     13  G   UNL     1      18.410 -12.066  65.592  1.00  0.00     0.000 G0
ENDBRANCH   9  10
ENDBRANCH   3   8
TORSDOF 0
ENDMDL
MODEL 8
REMARK VINA RESULT:    -3.516      3.168      4.053
REMARK INTER + INTRA:          -3.506
REMARK INTER:                  -4.353
REMARK INTRA:                   0.847
REMARK UNBOUND:                 0.833
REMARK SMILES CC1=CC=CC(C)(C)CC1=O
REMARK SMILES IDX 1 1 2 2 3 3 10 4 11 5 9 6 4 8 5 9 6 10 7 11 8 12
REMARK H PARENT
REMARK Flexibility Score: 80.00
ROOT
ATOM      1  C   UNL     1      19.495  -9.476  65.940  1.00  0.00     0.048 C 
ATOM      2  C   UNL     1      18.303 -10.227  65.396  1.00  0.00    -0.008 C 
ATOM      3  C   UNL     1      17.307 -10.537  66.254  1.00  0.00     0.007 C 
ENDROOT
BRANCH   2   4
ATOM      4  C   UNL     1      18.354 -10.614  63.961  1.00  0.00     0.159 C 
ATOM      5  O   UNL     1      19.317 -10.200  63.259  1.00  0.00    -0.295 OA
BRANCH   4   6
ATOM      6  C   UNL     1      17.348 -11.504  63.293  1.00  0.00     0.091 CG0
ATOM      7  G   UNL     1      15.883 -11.048  63.483  1.00  0.00     0.000 G0
ENDBRANCH   4   6
ENDBRANCH   2   4
BRANCH   3   8
ATOM      8  C   UNL     1      16.031 -11.247  66.009  1.00  0.00    -0.003 C 
ATOM      9  C   UNL     1      15.399 -11.449  64.847  1.00  0.00    -0.020 C 
BRANCH   9  10
ATOM     10  C   UNL     1      15.895 -11.043  63.480  1.00  0.00    -0.010 CG0
ATOM     11  C   UNL     1      15.035 -11.766  62.419  1.00  0.00     0.016 C 
ATOM     12  C   UNL     1      15.721  -9.520  63.276  1.00  0.00     0.016 C 
ATOM     13  G   UNL     1      17.360 -11.504  63.308  1.00  0.00     0.000 G0
ENDBRANCH   9  10
ENDBRANCH   3   8
TORSDOF 0
ENDMDL
MODEL 9
REMARK VINA RESULT:    -3.509      2.455      3.782
REMARK INTER + INTRA:          -3.497
REMARK INTER:                  -4.351
REMARK INTRA:                   0.854
REMARK UNBOUND:                 0.833
REMARK SMILES CC1=CC=CC(C)(C)CC1=O
REMARK SMILES IDX 1 1 2 2 3 3 10 4 11 5 9 6 4 8 5 9 6 10 7 11 8 12
REMARK H PARENT
REMARK Flexibility Score: 80.00
ROOT
ATOM      1  C   UNL     1      21.088  -9.663  63.408  1.00  0.00     0.048 C 
ATOM      2  C   UNL     1      20.183  -9.962  64.580  1.00  0.00    -0.008 C 
ATOM      3  C   UNL     1      18.853  -9.791  64.410  1.00  0.00     0.007 C 
ENDROOT
BRANCH   2   4
ATOM      4  C   UNL     1      20.843 -10.371  65.849  1.00  0.00     0.159 C 
ATOM      5  O   UNL     1      22.093 -10.546  65.848  1.00  0.00    -0.295 OA
BRANCH   4   6
ATOM      6  C   UNL     1      20.122 -10.553  67.151  1.00  0.00     0.091 CG0
ATOM      7  G   UNL     1      18.912 -11.511  67.070  1.00  0.00     0.000 G0
ENDBRANCH   4   6
ENDBRANCH   2   4
BRANCH   3   8
ATOM      8  C   UNL     1      17.741 -10.014  65.361  1.00  0.00    -0.003 C 
ATOM      9  C   UNL     1      17.731 -10.754  66.475  1.00  0.00    -0.020 C 
BRANCH   9  10
ATOM     10  C   UNL     1      18.907 -11.497  67.062  1.00  0.00    -0.010 CG0
ATOM     11  C   UNL     1      18.536 -11.931  68.499  1.00  0.00     0.016 C 
ATOM     12  C   UNL     1      19.200 -12.774  66.240  1.00  0.00     0.016 C 
ATOM     13  G   UNL     1      20.124 -10.548  67.144  1.00  0.00     0.000 G0
ENDBRANCH   9  10
ENDBRANCH   3   8
TORSDOF 0
ENDMDL
