MODEL 1
REMARK VINA RESULT:    -3.406      0.000      0.000
REMARK INTER + INTRA:          -5.079
REMARK INTER:                  -4.600
REMARK INTRA:                  -0.479
REMARK UNBOUND:                -0.479
REMARK SMILES CCCCCCC=CC(=O)[O-]
REMARK SMILES IDX 5 1 6 2 7 3 8 4 9 5 10 6 11 7 4 8 3 9 2 10 1 11
REMARK H PARENT
REMARK Flexibility Score: inf
ROOT
ATOM      1  C   UNL     1      14.229  42.574  68.398  1.00  0.00     0.004 C 
ENDROOT
BRANCH   1   2
ATOM      2  C   UNL     1      14.175  42.070  66.951  1.00  0.00     0.027 C 
BRANCH   2   3
ATOM      3  C   UNL     1      14.746  43.082  66.000  1.00  0.00    -0.025 C 
ATOM      4  C   UNL     1      15.026  44.329  66.392  1.00  0.00     0.020 C 
BRANCH   4   5
ATOM      5  C   UNL     1      15.597  45.326  65.474  1.00  0.00     0.064 C 
ATOM      6  O   UNL     1      16.729  45.122  64.962  1.00  0.00    -0.545 OA
ATOM      7  O   UNL     1      14.908  46.492  65.163  1.00  0.00    -0.545 OA
ENDBRANCH   4   5
ENDBRANCH   2   3
ENDBRANCH   1   2
BRANCH   1   8
ATOM      8  C   UNL     1      12.879  42.368  69.102  1.00  0.00     0.000 C 
BRANCH   8   9
ATOM      9  C   UNL     1      12.412  43.616  69.866  1.00  0.00    -0.000 C 
BRANCH   9  10
ATOM     10  C   UNL     1      12.228  44.835  68.951  1.00  0.00    -0.003 C 
ATOM     11  C   UNL     1      12.088  46.118  69.767  1.00  0.00     0.004 C 
ENDBRANCH   9  10
ENDBRANCH   8   9
ENDBRANCH   1   8
TORSDOF 6
ENDMDL
MODEL 2
REMARK VINA RESULT:    -3.335      3.071      5.038
REMARK INTER + INTRA:          -4.983
REMARK INTER:                  -4.657
REMARK INTRA:                  -0.326
REMARK UNBOUND:                -0.479
REMARK SMILES CCCCCCC=CC(=O)[O-]
REMARK SMILES IDX 5 1 6 2 7 3 8 4 9 5 10 6 11 7 4 8 3 9 2 10 1 11
REMARK H PARENT
REMARK Flexibility Score: inf
ROOT
ATOM      1  C   UNL     1      14.850  42.947  65.726  1.00  0.00     0.004 C 
ENDROOT
BRANCH   1   2
ATOM      2  C   UNL     1      14.486  41.992  66.868  1.00  0.00     0.027 C 
BRANCH   2   3
ATOM      3  C   UNL     1      13.950  42.741  68.055  1.00  0.00    -0.025 C 
ATOM      4  C   UNL     1      12.996  42.223  68.835  1.00  0.00     0.020 C 
BRANCH   4   5
ATOM      5  C   UNL     1      12.472  42.939  70.007  1.00  0.00     0.064 C 
ATOM      6  O   UNL     1      12.540  44.195  70.049  1.00  0.00    -0.545 OA
ATOM      7  O   UNL     1      11.903  42.251  71.072  1.00  0.00    -0.545 OA
ENDBRANCH   4   5
ENDBRANCH   2   3
ENDBRANCH   1   2
BRANCH   1   8
ATOM      8  C   UNL     1      15.115  44.364  66.258  1.00  0.00     0.000 C 
BRANCH   8   9
ATOM      9  C   UNL     1      16.123  45.141  65.397  1.00  0.00    -0.000 C 
BRANCH   9  10
ATOM     10  C   UNL     1      15.473  46.297  64.623  1.00  0.00    -0.003 C 
ATOM     11  C   UNL     1      14.101  46.639  65.198  1.00  0.00     0.004 C 
ENDBRANCH   9  10
ENDBRANCH   8   9
ENDBRANCH   1   8
TORSDOF 6
ENDMDL
MODEL 3
REMARK VINA RESULT:    -3.331     18.200     19.538
REMARK INTER + INTRA:          -4.979
REMARK INTER:                  -4.493
REMARK INTRA:                  -0.486
REMARK UNBOUND:                -0.479
REMARK SMILES CCCCCCC=CC(=O)[O-]
REMARK SMILES IDX 5 1 6 2 7 3 8 4 9 5 10 6 11 7 4 8 3 9 2 10 1 11
REMARK H PARENT
REMARK Flexibility Score: inf
ROOT
ATOM      1  C   UNL     1       7.388  31.915  55.480  1.00  0.00     0.004 C 
ENDROOT
BRANCH   1   2
ATOM      2  C   UNL     1       6.893  32.034  56.926  1.00  0.00     0.027 C 
BRANCH   2   3
ATOM      3  C   UNL     1       5.480  31.544  57.061  1.00  0.00    -0.025 C 
ATOM      4  C   UNL     1       5.058  30.924  58.167  1.00  0.00     0.020 C 
BRANCH   4   5
ATOM      5  C   UNL     1       3.673  30.452  58.317  1.00  0.00     0.064 C 
ATOM      6  O   UNL     1       3.296  29.426  57.693  1.00  0.00    -0.545 OA
ATOM      7  O   UNL     1       2.773  31.120  59.139  1.00  0.00    -0.545 OA
ENDBRANCH   4   5
ENDBRANCH   2   3
ENDBRANCH   1   2
BRANCH   1   8
ATOM      8  C   UNL     1       6.210  31.942  54.493  1.00  0.00     0.000 C 
BRANCH   8   9
ATOM      9  C   UNL     1       6.262  33.147  53.542  1.00  0.00    -0.000 C 
BRANCH   9  10
ATOM     10  C   UNL     1       4.870  33.710  53.224  1.00  0.00    -0.003 C 
ATOM     11  C   UNL     1       3.997  33.755  54.475  1.00  0.00     0.004 C 
ENDBRANCH   9  10
ENDBRANCH   8   9
ENDBRANCH   1   8
TORSDOF 6
ENDMDL
MODEL 4
REMARK VINA RESULT:    -3.329     17.713     19.132
REMARK INTER + INTRA:          -4.975
REMARK INTER:                  -4.365
REMARK INTRA:                  -0.610
REMARK UNBOUND:                -0.479
REMARK SMILES CCCCCCC=CC(=O)[O-]
REMARK SMILES IDX 5 1 6 2 7 3 8 4 9 5 10 6 11 7 4 8 3 9 2 10 1 11
REMARK H PARENT
REMARK Flexibility Score: inf
ROOT
ATOM      1  C   UNL     1       5.478  33.025  54.229  1.00  0.00     0.004 C 
ENDROOT
BRANCH   1   2
ATOM      2  C   UNL     1       4.350  33.066  55.267  1.00  0.00     0.027 C 
BRANCH   2   3
ATOM      3  C   UNL     1       4.403  31.872  56.177  1.00  0.00    -0.025 C 
ATOM      4  C   UNL     1       4.001  31.947  57.450  1.00  0.00     0.020 C 
BRANCH   4   5
ATOM      5  C   UNL     1       4.035  30.783  58.348  1.00  0.00     0.064 C 
ATOM      6  O   UNL     1       3.579  29.679  57.952  1.00  0.00    -0.545 OA
ATOM      7  O   UNL     1       4.564  30.882  59.630  1.00  0.00    -0.545 OA
ENDBRANCH   4   5
ENDBRANCH   2   3
ENDBRANCH   1   2
BRANCH   1   8
ATOM      8  C   UNL     1       6.501  31.933  54.574  1.00  0.00     0.000 C 
BRANCH   8   9
ATOM      9  C   UNL     1       7.738  32.487  55.298  1.00  0.00    -0.000 C 
BRANCH   9  10
ATOM     10  C   UNL     1       8.187  31.598  56.467  1.00  0.00    -0.003 C 
ATOM     11  C   UNL     1       7.739  32.182  57.804  1.00  0.00     0.004 C 
ENDBRANCH   9  10
ENDBRANCH   8   9
ENDBRANCH   1   8
TORSDOF 6
ENDMDL
MODEL 5
REMARK VINA RESULT:    -3.312      2.710      4.807
REMARK INTER + INTRA:          -4.953
REMARK INTER:                  -4.534
REMARK INTRA:                  -0.419
REMARK UNBOUND:                -0.479
REMARK SMILES CCCCCCC=CC(=O)[O-]
REMARK SMILES IDX 5 1 6 2 7 3 8 4 9 5 10 6 11 7 4 8 3 9 2 10 1 11
REMARK H PARENT
REMARK Flexibility Score: inf
ROOT
ATOM      1  C   UNL     1      14.394  42.798  68.109  1.00  0.00     0.004 C 
ENDROOT
BRANCH   1   2
ATOM      2  C   UNL     1      13.135  42.384  68.881  1.00  0.00     0.027 C 
BRANCH   2   3
ATOM      3  C   UNL     1      12.559  43.542  69.644  1.00  0.00    -0.025 C 
ATOM      4  C   UNL     1      12.272  44.701  69.044  1.00  0.00     0.020 C 
BRANCH   4   5
ATOM      5  C   UNL     1      11.695  45.838  69.776  1.00  0.00     0.064 C 
ATOM      6  O   UNL     1      12.441  46.780  70.150  1.00  0.00    -0.545 OA
ATOM      7  O   UNL     1      10.336  45.890  70.064  1.00  0.00    -0.545 OA
ENDBRANCH   4   5
ENDBRANCH   2   3
ENDBRANCH   1   2
BRANCH   1   8
ATOM      8  C   UNL     1      14.443  42.118  66.732  1.00  0.00     0.000 C 
BRANCH   8   9
ATOM      9  C   UNL     1      14.823  43.089  65.604  1.00  0.00    -0.000 C 
BRANCH   9  10
ATOM     10  C   UNL     1      15.226  44.475  66.128  1.00  0.00    -0.003 C 
ATOM     11  C   UNL     1      16.359  45.068  65.295  1.00  0.00     0.004 C 
ENDBRANCH   9  10
ENDBRANCH   8   9
ENDBRANCH   1   8
TORSDOF 6
ENDMDL
MODEL 6
REMARK VINA RESULT:    -3.272      3.407      4.998
REMARK INTER + INTRA:          -4.899
REMARK INTER:                  -4.245
REMARK INTRA:                  -0.654
REMARK UNBOUND:                -0.479
REMARK SMILES CCCCCCC=CC(=O)[O-]
REMARK SMILES IDX 5 1 6 2 7 3 8 4 9 5 10 6 11 7 4 8 3 9 2 10 1 11
REMARK H PARENT
REMARK Flexibility Score: inf
ROOT
ATOM      1  C   UNL     1      13.399  44.128  67.293  1.00  0.00     0.004 C 
ENDROOT
BRANCH   1   2
ATOM      2  C   UNL     1      14.373  43.056  67.796  1.00  0.00     0.027 C 
BRANCH   2   3
ATOM      3  C   UNL     1      13.945  41.684  67.361  1.00  0.00    -0.025 C 
ATOM      4  C   UNL     1      14.108  41.267  66.102  1.00  0.00     0.020 C 
BRANCH   4   5
ATOM      5  C   UNL     1      13.706  39.922  65.666  1.00  0.00     0.064 C 
ATOM      6  O   UNL     1      14.039  38.921  66.353  1.00  0.00    -0.545 OA
ATOM      7  O   UNL     1      12.963  39.736  64.506  1.00  0.00    -0.545 OA
ENDBRANCH   4   5
ENDBRANCH   2   3
ENDBRANCH   1   2
BRANCH   1   8
ATOM      8  C   UNL     1      14.087  45.069  66.292  1.00  0.00     0.000 C 
BRANCH   8   9
ATOM      9  C   UNL     1      15.607  44.855  66.227  1.00  0.00    -0.000 C 
BRANCH   9  10
ATOM     10  C   UNL     1      16.145  44.864  64.788  1.00  0.00    -0.003 C 
ATOM     11  C   UNL     1      15.272  44.012  63.871  1.00  0.00     0.004 C 
ENDBRANCH   9  10
ENDBRANCH   8   9
ENDBRANCH   1   8
TORSDOF 6
ENDMDL
MODEL 7
REMARK VINA RESULT:    -3.243      1.638      3.425
REMARK INTER + INTRA:          -4.860
REMARK INTER:                  -4.139
REMARK INTRA:                  -0.721
REMARK UNBOUND:                -0.479
REMARK SMILES CCCCCCC=CC(=O)[O-]
REMARK SMILES IDX 5 1 6 2 7 3 8 4 9 5 10 6 11 7 4 8 3 9 2 10 1 11
REMARK H PARENT
REMARK Flexibility Score: inf
ROOT
ATOM      1  C   UNL     1      13.212  42.542  67.710  1.00  0.00     0.004 C 
ENDROOT
BRANCH   1   2
ATOM      2  C   UNL     1      13.418  44.060  67.633  1.00  0.00     0.027 C 
BRANCH   2   3
ATOM      3  C   UNL     1      14.612  44.406  66.791  1.00  0.00    -0.025 C 
ATOM      4  C   UNL     1      14.513  45.234  65.746  1.00  0.00     0.020 C 
BRANCH   4   5
ATOM      5  C   UNL     1      15.676  45.592  64.921  1.00  0.00     0.064 C 
ATOM      6  O   UNL     1      16.770  44.994  65.096  1.00  0.00    -0.545 OA
ATOM      7  O   UNL     1      15.588  46.581  63.949  1.00  0.00    -0.545 OA
ENDBRANCH   4   5
ENDBRANCH   2   3
ENDBRANCH   1   2
BRANCH   1   8
ATOM      8  C   UNL     1      14.502  41.794  67.341  1.00  0.00     0.000 C 
BRANCH   8   9
ATOM      9  C   UNL     1      14.280  40.732  66.253  1.00  0.00    -0.000 C 
BRANCH   9  10
ATOM     10  C   UNL     1      13.450  41.258  65.073  1.00  0.00    -0.003 C 
ATOM     11  C   UNL     1      14.344  41.898  64.015  1.00  0.00     0.004 C 
ENDBRANCH   9  10
ENDBRANCH   8   9
ENDBRANCH   1   8
TORSDOF 6
ENDMDL
MODEL 8
REMARK VINA RESULT:    -3.213      1.332      2.890
REMARK INTER + INTRA:          -4.819
REMARK INTER:                  -4.217
REMARK INTRA:                  -0.602
REMARK UNBOUND:                -0.479
REMARK SMILES CCCCCCC=CC(=O)[O-]
REMARK SMILES IDX 5 1 6 2 7 3 8 4 9 5 10 6 11 7 4 8 3 9 2 10 1 11
REMARK H PARENT
REMARK Flexibility Score: inf
ROOT
ATOM      1  C   UNL     1      12.001  44.356  67.753  1.00  0.00     0.004 C 
ENDROOT
BRANCH   1   2
ATOM      2  C   UNL     1      12.753  45.604  67.273  1.00  0.00     0.027 C 
BRANCH   2   3
ATOM      3  C   UNL     1      13.645  45.287  66.107  1.00  0.00    -0.025 C 
ATOM      4  C   UNL     1      14.923  44.935  66.281  1.00  0.00     0.020 C 
BRANCH   4   5
ATOM      5  C   UNL     1      15.804  44.610  65.150  1.00  0.00     0.064 C 
ATOM      6  O   UNL     1      16.941  45.145  65.074  1.00  0.00    -0.545 OA
ATOM      7  O   UNL     1      15.402  43.719  64.162  1.00  0.00    -0.545 OA
ENDBRANCH   4   5
ENDBRANCH   2   3
ENDBRANCH   1   2
BRANCH   1   8
ATOM      8  C   UNL     1      12.623  43.805  69.045  1.00  0.00     0.000 C 
BRANCH   8   9
ATOM      9  C   UNL     1      13.057  42.337  68.914  1.00  0.00    -0.000 C 
BRANCH   9  10
ATOM     10  C   UNL     1      14.396  42.179  68.179  1.00  0.00    -0.003 C 
ATOM     11  C   UNL     1      14.220  41.400  66.879  1.00  0.00     0.004 C 
ENDBRANCH   9  10
ENDBRANCH   8   9
ENDBRANCH   1   8
TORSDOF 6
ENDMDL
MODEL 9
REMARK VINA RESULT:    -3.128     17.083     18.558
REMARK INTER + INTRA:          -4.705
REMARK INTER:                  -4.009
REMARK INTRA:                  -0.695
REMARK UNBOUND:                -0.479
REMARK SMILES CCCCCCC=CC(=O)[O-]
REMARK SMILES IDX 5 1 6 2 7 3 8 4 9 5 10 6 11 7 4 8 3 9 2 10 1 11
REMARK H PARENT
REMARK Flexibility Score: inf
ROOT
ATOM      1  C   UNL     1       4.470  32.666  56.152  1.00  0.00     0.004 C 
ENDROOT
BRANCH   1   2
ATOM      2  C   UNL     1       4.287  31.186  56.507  1.00  0.00     0.027 C 
BRANCH   2   3
ATOM      3  C   UNL     1       4.624  30.925  57.947  1.00  0.00    -0.025 C 
ATOM      4  C   UNL     1       5.473  31.710  58.619  1.00  0.00     0.020 C 
BRANCH   4   5
ATOM      5  C   UNL     1       5.802  31.474  60.032  1.00  0.00     0.064 C 
ATOM      6  O   UNL     1       7.008  31.432  60.391  1.00  0.00    -0.545 OA
ATOM      7  O   UNL     1       4.802  31.296  60.981  1.00  0.00    -0.545 OA
ENDBRANCH   4   5
ENDBRANCH   2   3
ENDBRANCH   1   2
BRANCH   1   8
ATOM      8  C   UNL     1       5.187  32.822  54.802  1.00  0.00     0.000 C 
BRANCH   8   9
ATOM      9  C   UNL     1       6.413  31.905  54.673  1.00  0.00    -0.000 C 
BRANCH   9  10
ATOM     10  C   UNL     1       7.684  32.528  55.266  1.00  0.00    -0.003 C 
ATOM     11  C   UNL     1       8.290  31.625  56.337  1.00  0.00     0.004 C 
ENDBRANCH   9  10
ENDBRANCH   8   9
ENDBRANCH   1   8
TORSDOF 6
ENDMDL
