MODEL 1
REMARK VINA RESULT:    11.103      0.000      0.000
REMARK INTER + INTRA:          28.260
REMARK INTER:                  29.276
REMARK INTRA:                  -1.016
REMARK UNBOUND:                -1.016
REMARK SMILES CCCCCCCCCCCCCCCCCCCCCCCCCCCCCC(=O)[O-]
REMARK SMILES IDX 16 1 17 2 18 3 19 4 20 5 21 6 22 7 23 8 24 9 25 10 26 11
REMARK SMILES IDX 27 12 28 13 29 14 30 15 31 16 32 17 15 18 14 19 13 20 12 21
REMARK SMILES IDX 11 22 10 23 9 24 8 25 7 26 6 27 5 28 4 29 3 30 2 31 1 32
REMARK H PARENT
REMARK Flexibility Score: inf
ROOT
ATOM      1  C   UNL     1      35.921 107.919 266.574  1.00  0.00     0.000 C 
ENDROOT
BRANCH   1   2
ATOM      2  C   UNL     1      35.071 106.889 265.813  1.00  0.00     0.000 C 
BRANCH   2   3
ATOM      3  C   UNL     1      35.259 106.973 264.292  1.00  0.00     0.000 C 
BRANCH   3   4
ATOM      4  C   UNL     1      34.878 105.648 263.620  1.00  0.00     0.000 C 
BRANCH   4   5
ATOM      5  C   UNL     1      35.306 104.448 264.479  1.00  0.00     0.000 C 
BRANCH   5   6
ATOM      6  C   UNL     1      35.769 103.253 263.629  1.00  0.00     0.000 C 
BRANCH   6   7
ATOM      7  C   UNL     1      34.881 103.030 262.393  1.00  0.00     0.000 C 
BRANCH   7   8
ATOM      8  C   UNL     1      35.482 103.658 261.118  1.00  0.00     0.000 C 
BRANCH   8   9
ATOM      9  C   UNL     1      36.774 102.976 260.639  1.00  0.00     0.000 C 
BRANCH   9  10
ATOM     10  C   UNL     1      37.732 103.943 259.924  1.00  0.00     0.000 C 
BRANCH  10  11
ATOM     11  C   UNL     1      36.991 104.977 259.061  1.00  0.00     0.000 C 
BRANCH  11  12
ATOM     12  C   UNL     1      36.792 106.318 259.789  1.00  0.00     0.000 C 
BRANCH  12  13
ATOM     13  C   UNL     1      37.299 106.286 261.243  1.00  0.00     0.006 C 
BRANCH  13  14
ATOM     14  C   UNL     1      38.710 106.863 261.433  1.00  0.00     0.053 C 
BRANCH  14  15
ATOM     15  C   UNL     1      39.285 106.511 262.770  1.00  0.00     0.041 C 
ATOM     16  O   UNL     1      40.472 106.099 262.859  1.00  0.00    -0.550 OA
ATOM     17  O   UNL     1      38.523 106.669 263.920  1.00  0.00    -0.550 OA
ENDBRANCH  14  15
ENDBRANCH  13  14
ENDBRANCH  12  13
ENDBRANCH  11  12
ENDBRANCH  10  11
ENDBRANCH   9  10
ENDBRANCH   8   9
ENDBRANCH   7   8
ENDBRANCH   6   7
ENDBRANCH   5   6
ENDBRANCH   4   5
ENDBRANCH   3   4
ENDBRANCH   2   3
ENDBRANCH   1   2
BRANCH   1  18
ATOM     18  C   UNL     1      35.106 108.701 267.621  1.00  0.00     0.000 C 
BRANCH  18  19
ATOM     19  C   UNL     1      34.881 107.886 268.910  1.00  0.00     0.000 C 
BRANCH  19  20
ATOM     20  C   UNL     1      35.617 106.532 268.910  1.00  0.00     0.000 C 
BRANCH  20  21
ATOM     21  C   UNL     1      36.359 106.275 270.236  1.00  0.00     0.000 C 
BRANCH  21  22
ATOM     22  C   UNL     1      37.822 106.764 270.211  1.00  0.00     0.000 C 
BRANCH  22  23
ATOM     23  C   UNL     1      38.782 105.949 271.103  1.00  0.00     0.000 C 
BRANCH  23  24
ATOM     24  C   UNL     1      38.116 105.165 272.247  1.00  0.00    -0.000 C 
BRANCH  24  25
ATOM     25  C   UNL     1      38.343 103.640 272.218  1.00  0.00    -0.000 C 
BRANCH  25  26
ATOM     26  C   UNL     1      38.461 102.997 273.617  1.00  0.00    -0.000 C 
BRANCH  26  27
ATOM     27  C   UNL     1      39.916 102.926 274.115  1.00  0.00    -0.000 C 
BRANCH  27  28
ATOM     28  C   UNL     1      40.907 102.574 272.993  1.00  0.00    -0.000 C 
BRANCH  28  29
ATOM     29  C   UNL     1      42.119 101.769 273.501  1.00  0.00    -0.000 C 
BRANCH  29  30
ATOM     30  C   UNL     1      43.263 102.683 273.990  1.00  0.00    -0.000 C 
BRANCH  30  31
ATOM     31  C   UNL     1      44.638 101.994 274.004  1.00  0.00    -0.003 C 
ATOM     32  C   UNL     1      45.699 102.755 273.210  1.00  0.00     0.004 C 
ENDBRANCH  30  31
ENDBRANCH  29  30
ENDBRANCH  28  29
ENDBRANCH  27  28
ENDBRANCH  26  27
ENDBRANCH  25  26
ENDBRANCH  24  25
ENDBRANCH  23  24
ENDBRANCH  22  23
ENDBRANCH  21  22
ENDBRANCH  20  21
ENDBRANCH  19  20
ENDBRANCH  18  19
ENDBRANCH   1  18
TORSDOF 28
ENDMDL
MODEL 2
REMARK VINA RESULT:    12.290      1.652      2.848
REMARK INTER + INTRA:          31.391
REMARK INTER:                  29.915
REMARK INTRA:                   1.476
REMARK UNBOUND:                -1.016
REMARK SMILES CCCCCCCCCCCCCCCCCCCCCCCCCCCCCC(=O)[O-]
REMARK SMILES IDX 16 1 17 2 18 3 19 4 20 5 21 6 22 7 23 8 24 9 25 10 26 11
REMARK SMILES IDX 27 12 28 13 29 14 30 15 31 16 32 17 15 18 14 19 13 20 12 21
REMARK SMILES IDX 11 22 10 23 9 24 8 25 7 26 6 27 5 28 4 29 3 30 2 31 1 32
REMARK H PARENT
REMARK Flexibility Score: inf
ROOT
ATOM      1  C   UNL     1      35.215 105.191 268.690  1.00  0.00     0.000 C 
ENDROOT
BRANCH   1   2
ATOM      2  C   UNL     1      34.875 105.169 267.191  1.00  0.00     0.000 C 
BRANCH   2   3
ATOM      3  C   UNL     1      34.877 103.751 266.604  1.00  0.00     0.000 C 
BRANCH   3   4
ATOM      4  C   UNL     1      35.055 103.790 265.080  1.00  0.00     0.000 C 
BRANCH   4   5
ATOM      5  C   UNL     1      35.250 105.230 264.583  1.00  0.00     0.000 C 
BRANCH   5   6
ATOM      6  C   UNL     1      34.963 105.376 263.079  1.00  0.00     0.000 C 
BRANCH   6   7
ATOM      7  C   UNL     1      35.315 104.104 262.287  1.00  0.00     0.000 C 
BRANCH   7   8
ATOM      8  C   UNL     1      35.858 104.422 260.878  1.00  0.00     0.000 C 
BRANCH   8   9
ATOM      9  C   UNL     1      36.200 105.906 260.665  1.00  0.00     0.000 C 
BRANCH   9  10
ATOM     10  C   UNL     1      36.471 106.253 259.192  1.00  0.00     0.000 C 
BRANCH  10  11
ATOM     11  C   UNL     1      37.071 105.073 258.410  1.00  0.00     0.000 C 
BRANCH  11  12
ATOM     12  C   UNL     1      38.457 104.661 258.937  1.00  0.00     0.000 C 
BRANCH  12  13
ATOM     13  C   UNL     1      38.598 104.860 260.458  1.00  0.00     0.006 C 
BRANCH  13  14
ATOM     14  C   UNL     1      39.090 106.256 260.869  1.00  0.00     0.053 C 
BRANCH  14  15
ATOM     15  C   UNL     1      39.227 106.387 262.355  1.00  0.00     0.041 C 
ATOM     16  O   UNL     1      40.340 106.183 262.908  1.00  0.00    -0.550 OA
ATOM     17  O   UNL     1      38.135 106.766 263.125  1.00  0.00    -0.550 OA
ENDBRANCH  14  15
ENDBRANCH  13  14
ENDBRANCH  12  13
ENDBRANCH  11  12
ENDBRANCH  10  11
ENDBRANCH   9  10
ENDBRANCH   8   9
ENDBRANCH   7   8
ENDBRANCH   6   7
ENDBRANCH   5   6
ENDBRANCH   4   5
ENDBRANCH   3   4
ENDBRANCH   2   3
ENDBRANCH   1   2
BRANCH   1  18
ATOM     18  C   UNL     1      35.725 106.566 269.160  1.00  0.00     0.000 C 
BRANCH  18  19
ATOM     19  C   UNL     1      36.027 106.588 270.671  1.00  0.00     0.000 C 
BRANCH  19  20
ATOM     20  C   UNL     1      37.528 106.459 270.994  1.00  0.00     0.000 C 
BRANCH  20  21
ATOM     21  C   UNL     1      38.025 105.005 270.869  1.00  0.00     0.000 C 
BRANCH  21  22
ATOM     22  C   UNL     1      37.813 104.184 272.158  1.00  0.00     0.000 C 
BRANCH  22  23
ATOM     23  C   UNL     1      39.099 103.938 272.975  1.00  0.00     0.000 C 
BRANCH  23  24
ATOM     24  C   UNL     1      39.621 102.491 272.965  1.00  0.00    -0.000 C 
BRANCH  24  25
ATOM     25  C   UNL     1      40.874 102.238 273.829  1.00  0.00    -0.000 C 
BRANCH  25  26
ATOM     26  C   UNL     1      42.171 102.836 273.243  1.00  0.00    -0.000 C 
BRANCH  26  27
ATOM     27  C   UNL     1      43.439 102.200 273.843  1.00  0.00    -0.000 C 
BRANCH  27  28
ATOM     28  C   UNL     1      44.728 102.895 273.373  1.00  0.00    -0.000 C 
BRANCH  28  29
ATOM     29  C   UNL     1      44.577 103.557 271.990  1.00  0.00    -0.000 C 
BRANCH  29  30
ATOM     30  C   UNL     1      45.079 105.017 271.984  1.00  0.00    -0.000 C 
BRANCH  30  31
ATOM     31  C   UNL     1      44.630 105.818 270.751  1.00  0.00    -0.003 C 
ATOM     32  C   UNL     1      44.945 107.310 270.857  1.00  0.00     0.004 C 
ENDBRANCH  30  31
ENDBRANCH  29  30
ENDBRANCH  28  29
ENDBRANCH  27  28
ENDBRANCH  26  27
ENDBRANCH  25  26
ENDBRANCH  24  25
ENDBRANCH  23  24
ENDBRANCH  22  23
ENDBRANCH  21  22
ENDBRANCH  20  21
ENDBRANCH  19  20
ENDBRANCH  18  19
ENDBRANCH   1  18
TORSDOF 28
ENDMDL
MODEL 3
REMARK VINA RESULT:    13.045      1.402      2.392
REMARK INTER + INTRA:          33.382
REMARK INTER:                  32.433
REMARK INTRA:                   0.948
REMARK UNBOUND:                -1.016
REMARK SMILES CCCCCCCCCCCCCCCCCCCCCCCCCCCCCC(=O)[O-]
REMARK SMILES IDX 16 1 17 2 18 3 19 4 20 5 21 6 22 7 23 8 24 9 25 10 26 11
REMARK SMILES IDX 27 12 28 13 29 14 30 15 31 16 32 17 15 18 14 19 13 20 12 21
REMARK SMILES IDX 11 22 10 23 9 24 8 25 7 26 6 27 5 28 4 29 3 30 2 31 1 32
REMARK H PARENT
REMARK Flexibility Score: inf
ROOT
ATOM      1  C   UNL     1      35.041 105.132 268.291  1.00  0.00     0.000 C 
ENDROOT
BRANCH   1   2
ATOM      2  C   UNL     1      34.875 105.097 266.763  1.00  0.00     0.000 C 
BRANCH   2   3
ATOM      3  C   UNL     1      35.220 103.727 266.161  1.00  0.00     0.000 C 
BRANCH   3   4
ATOM      4  C   UNL     1      35.246 103.794 264.628  1.00  0.00     0.000 C 
BRANCH   4   5
ATOM      5  C   UNL     1      35.058 105.237 264.135  1.00  0.00     0.000 C 
BRANCH   5   6
ATOM      6  C   UNL     1      35.161 105.352 262.605  1.00  0.00     0.000 C 
BRANCH   6   7
ATOM      7  C   UNL     1      35.639 104.045 261.947  1.00  0.00     0.000 C 
BRANCH   7   8
ATOM      8  C   UNL     1      36.224 104.278 260.538  1.00  0.00     0.000 C 
BRANCH   8   9
ATOM      9  C   UNL     1      35.648 105.512 259.823  1.00  0.00     0.000 C 
BRANCH   9  10
ATOM     10  C   UNL     1      36.556 106.028 258.695  1.00  0.00     0.000 C 
BRANCH  10  11
ATOM     11  C   UNL     1      37.748 105.095 258.424  1.00  0.00     0.000 C 
BRANCH  11  12
ATOM     12  C   UNL     1      38.296 104.452 259.710  1.00  0.00     0.000 C 
BRANCH  12  13
ATOM     13  C   UNL     1      39.180 105.413 260.526  1.00  0.00     0.006 C 
BRANCH  13  14
ATOM     14  C   UNL     1      38.463 106.078 261.711  1.00  0.00     0.053 C 
BRANCH  14  15
ATOM     15  C   UNL     1      39.424 106.756 262.639  1.00  0.00     0.041 C 
ATOM     16  O   UNL     1      39.786 106.183 263.701  1.00  0.00    -0.550 OA
ATOM     17  O   UNL     1      39.943 108.003 262.318  1.00  0.00    -0.550 OA
ENDBRANCH  14  15
ENDBRANCH  13  14
ENDBRANCH  12  13
ENDBRANCH  11  12
ENDBRANCH  10  11
ENDBRANCH   9  10
ENDBRANCH   8   9
ENDBRANCH   7   8
ENDBRANCH   6   7
ENDBRANCH   5   6
ENDBRANCH   4   5
ENDBRANCH   3   4
ENDBRANCH   2   3
ENDBRANCH   1   2
BRANCH   1  18
ATOM     18  C   UNL     1      35.649 106.456 268.789  1.00  0.00     0.000 C 
BRANCH  18  19
ATOM     19  C   UNL     1      35.765 106.502 270.325  1.00  0.00     0.000 C 
BRANCH  19  20
ATOM     20  C   UNL     1      36.989 107.296 270.820  1.00  0.00     0.000 C 
BRANCH  20  21
ATOM     21  C   UNL     1      38.249 106.414 270.923  1.00  0.00     0.000 C 
BRANCH  21  22
ATOM     22  C   UNL     1      37.924 104.930 271.196  1.00  0.00     0.000 C 
BRANCH  22  23
ATOM     23  C   UNL     1      38.347 104.431 272.593  1.00  0.00     0.000 C 
BRANCH  23  24
ATOM     24  C   UNL     1      38.727 102.943 272.676  1.00  0.00    -0.000 C 
BRANCH  24  25
ATOM     25  C   UNL     1      39.522 102.536 273.934  1.00  0.00    -0.000 C 
BRANCH  25  26
ATOM     26  C   UNL     1      40.857 101.823 273.630  1.00  0.00    -0.000 C 
BRANCH  26  27
ATOM     27  C   UNL     1      41.961 102.799 273.183  1.00  0.00    -0.000 C 
BRANCH  27  28
ATOM     28  C   UNL     1      43.206 102.735 274.082  1.00  0.00    -0.000 C 
BRANCH  28  29
ATOM     29  C   UNL     1      44.254 101.723 273.579  1.00  0.00    -0.000 C 
BRANCH  29  30
ATOM     30  C   UNL     1      44.420 100.528 274.541  1.00  0.00    -0.000 C 
BRANCH  30  31
ATOM     31  C   UNL     1      43.514  99.332 274.200  1.00  0.00    -0.003 C 
ATOM     32  C   UNL     1      44.295  98.099 273.747  1.00  0.00     0.004 C 
ENDBRANCH  30  31
ENDBRANCH  29  30
ENDBRANCH  28  29
ENDBRANCH  27  28
ENDBRANCH  26  27
ENDBRANCH  25  26
ENDBRANCH  24  25
ENDBRANCH  23  24
ENDBRANCH  22  23
ENDBRANCH  21  22
ENDBRANCH  20  21
ENDBRANCH  19  20
ENDBRANCH  18  19
ENDBRANCH   1  18
TORSDOF 28
ENDMDL
MODEL 4
REMARK VINA RESULT:    13.110      2.303      3.996
REMARK INTER + INTRA:          33.553
REMARK INTER:                  34.249
REMARK INTRA:                  -0.697
REMARK UNBOUND:                -1.016
REMARK SMILES CCCCCCCCCCCCCCCCCCCCCCCCCCCCCC(=O)[O-]
REMARK SMILES IDX 16 1 17 2 18 3 19 4 20 5 21 6 22 7 23 8 24 9 25 10 26 11
REMARK SMILES IDX 27 12 28 13 29 14 30 15 31 16 32 17 15 18 14 19 13 20 12 21
REMARK SMILES IDX 11 22 10 23 9 24 8 25 7 26 6 27 5 28 4 29 3 30 2 31 1 32
REMARK H PARENT
REMARK Flexibility Score: inf
ROOT
ATOM      1  C   UNL     1      36.088 106.552 270.553  1.00  0.00     0.000 C 
ENDROOT
BRANCH   1   2
ATOM      2  C   UNL     1      35.357 106.507 269.201  1.00  0.00     0.000 C 
BRANCH   2   3
ATOM      3  C   UNL     1      35.215 105.080 268.652  1.00  0.00     0.000 C 
BRANCH   3   4
ATOM      4  C   UNL     1      34.875 105.102 267.156  1.00  0.00     0.000 C 
BRANCH   4   5
ATOM      5  C   UNL     1      35.741 104.101 266.377  1.00  0.00     0.000 C 
BRANCH   5   6
ATOM      6  C   UNL     1      35.432 104.105 264.870  1.00  0.00     0.000 C 
BRANCH   6   7
ATOM      7  C   UNL     1      35.388 105.526 264.282  1.00  0.00     0.000 C 
BRANCH   7   8
ATOM      8  C   UNL     1      35.603 105.535 262.754  1.00  0.00     0.000 C 
BRANCH   8   9
ATOM      9  C   UNL     1      35.236 104.208 262.068  1.00  0.00     0.000 C 
BRANCH   9  10
ATOM     10  C   UNL     1      36.061 103.943 260.798  1.00  0.00     0.000 C 
BRANCH  10  11
ATOM     11  C   UNL     1      36.107 105.161 259.860  1.00  0.00     0.000 C 
BRANCH  11  12
ATOM     12  C   UNL     1      37.353 105.162 258.957  1.00  0.00     0.000 C 
BRANCH  12  13
ATOM     13  C   UNL     1      38.640 105.528 259.720  1.00  0.00     0.006 C 
BRANCH  13  14
ATOM     14  C   UNL     1      38.586 105.233 261.227  1.00  0.00     0.053 C 
BRANCH  14  15
ATOM     15  C   UNL     1      39.149 106.358 262.040  1.00  0.00     0.041 C 
ATOM     16  O   UNL     1      38.488 106.837 262.999  1.00  0.00    -0.550 OA
ATOM     17  O   UNL     1      40.414 106.856 261.759  1.00  0.00    -0.550 OA
ENDBRANCH  14  15
ENDBRANCH  13  14
ENDBRANCH  12  13
ENDBRANCH  11  12
ENDBRANCH  10  11
ENDBRANCH   9  10
ENDBRANCH   8   9
ENDBRANCH   7   8
ENDBRANCH   6   7
ENDBRANCH   5   6
ENDBRANCH   4   5
ENDBRANCH   3   4
ENDBRANCH   2   3
ENDBRANCH   1   2
BRANCH   1  18
ATOM     18  C   UNL     1      37.620 106.508 270.399  1.00  0.00     0.000 C 
BRANCH  18  19
ATOM     19  C   UNL     1      38.310 105.881 271.625  1.00  0.00     0.000 C 
BRANCH  19  20
ATOM     20  C   UNL     1      38.336 104.340 271.587  1.00  0.00     0.000 C 
BRANCH  20  21
ATOM     21  C   UNL     1      38.115 103.721 272.981  1.00  0.00     0.000 C 
BRANCH  21  22
ATOM     22  C   UNL     1      38.930 102.430 273.202  1.00  0.00     0.000 C 
BRANCH  22  23
ATOM     23  C   UNL     1      39.999 102.533 274.310  1.00  0.00     0.000 C 
BRANCH  23  24
ATOM     24  C   UNL     1      41.298 103.253 273.910  1.00  0.00    -0.000 C 
BRANCH  24  25
ATOM     25  C   UNL     1      42.501 102.331 273.627  1.00  0.00    -0.000 C 
BRANCH  25  26
ATOM     26  C   UNL     1      42.137 100.832 273.543  1.00  0.00    -0.000 C 
BRANCH  26  27
ATOM     27  C   UNL     1      43.315  99.916 273.921  1.00  0.00    -0.000 C 
BRANCH  27  28
ATOM     28  C   UNL     1      42.973  98.423 273.777  1.00  0.00    -0.000 C 
BRANCH  28  29
ATOM     29  C   UNL     1      44.197  97.509 273.973  1.00  0.00    -0.000 C 
BRANCH  29  30
ATOM     30  C   UNL     1      44.334  96.466 272.843  1.00  0.00    -0.000 C 
BRANCH  30  31
ATOM     31  C   UNL     1      43.412  96.735 271.642  1.00  0.00    -0.003 C 
ATOM     32  C   UNL     1      42.109  95.938 271.695  1.00  0.00     0.004 C 
ENDBRANCH  30  31
ENDBRANCH  29  30
ENDBRANCH  28  29
ENDBRANCH  27  28
ENDBRANCH  26  27
ENDBRANCH  25  26
ENDBRANCH  24  25
ENDBRANCH  23  24
ENDBRANCH  22  23
ENDBRANCH  21  22
ENDBRANCH  20  21
ENDBRANCH  19  20
ENDBRANCH  18  19
ENDBRANCH   1  18
TORSDOF 28
ENDMDL
MODEL 5
REMARK VINA RESULT:    13.136      3.904     12.455
REMARK INTER + INTRA:          33.621
REMARK INTER:                  34.381
REMARK INTRA:                  -0.761
REMARK UNBOUND:                -1.016
REMARK SMILES CCCCCCCCCCCCCCCCCCCCCCCCCCCCCC(=O)[O-]
REMARK SMILES IDX 16 1 17 2 18 3 19 4 20 5 21 6 22 7 23 8 24 9 25 10 26 11
REMARK SMILES IDX 27 12 28 13 29 14 30 15 31 16 32 17 15 18 14 19 13 20 12 21
REMARK SMILES IDX 11 22 10 23 9 24 8 25 7 26 6 27 5 28 4 29 3 30 2 31 1 32
REMARK H PARENT
REMARK Flexibility Score: inf
ROOT
ATOM      1  C   UNL     1      37.891 105.999 270.552  1.00  0.00     0.000 C 
ENDROOT
BRANCH   1   2
ATOM      2  C   UNL     1      38.209 105.551 271.988  1.00  0.00     0.000 C 
BRANCH   2   3
ATOM      3  C   UNL     1      38.632 104.077 272.069  1.00  0.00     0.000 C 
BRANCH   3   4
ATOM      4  C   UNL     1      38.230 103.466 273.417  1.00  0.00     0.000 C 
BRANCH   4   5
ATOM      5  C   UNL     1      39.446 102.862 274.136  1.00  0.00     0.000 C 
BRANCH   5   6
ATOM      6  C   UNL     1      40.427 102.185 273.165  1.00  0.00     0.000 C 
BRANCH   6   7
ATOM      7  C   UNL     1      40.400 100.651 273.276  1.00  0.00     0.000 C 
BRANCH   7   8
ATOM      8  C   UNL     1      41.626 100.097 274.031  1.00  0.00     0.000 C 
BRANCH   8   9
ATOM      9  C   UNL     1      42.875 100.989 273.927  1.00  0.00     0.000 C 
BRANCH   9  10
ATOM     10  C   UNL     1      44.188 100.194 274.012  1.00  0.00     0.000 C 
BRANCH  10  11
ATOM     11  C   UNL     1      43.983  98.774 274.566  1.00  0.00     0.000 C 
BRANCH  11  12
ATOM     12  C   UNL     1      44.961  97.756 273.954  1.00  0.00     0.000 C 
BRANCH  12  13
ATOM     13  C   UNL     1      44.300  96.862 272.888  1.00  0.00     0.006 C 
BRANCH  13  14
ATOM     14  C   UNL     1      42.989  97.426 272.317  1.00  0.00     0.053 C 
BRANCH  14  15
ATOM     15  C   UNL     1      42.293  96.438 271.432  1.00  0.00     0.041 C 
ATOM     16  O   UNL     1      42.089  96.711 270.219  1.00  0.00    -0.550 OA
ATOM     17  O   UNL     1      41.899  95.206 271.936  1.00  0.00    -0.550 OA
ENDBRANCH  14  15
ENDBRANCH  13  14
ENDBRANCH  12  13
ENDBRANCH  11  12
ENDBRANCH  10  11
ENDBRANCH   9  10
ENDBRANCH   8   9
ENDBRANCH   7   8
ENDBRANCH   6   7
ENDBRANCH   5   6
ENDBRANCH   4   5
ENDBRANCH   3   4
ENDBRANCH   2   3
ENDBRANCH   1   2
BRANCH   1  18
ATOM     18  C   UNL     1      36.378 106.098 270.285  1.00  0.00     0.000 C 
BRANCH  18  19
ATOM     19  C   UNL     1      36.070 106.651 268.881  1.00  0.00     0.000 C 
BRANCH  19  20
ATOM     20  C   UNL     1      34.875 107.624 268.858  1.00  0.00     0.000 C 
BRANCH  20  21
ATOM     21  C   UNL     1      34.885 108.526 267.608  1.00  0.00     0.000 C 
BRANCH  21  22
ATOM     22  C   UNL     1      35.775 107.974 266.475  1.00  0.00     0.000 C 
BRANCH  22  23
ATOM     23  C   UNL     1      35.197 106.738 265.754  1.00  0.00     0.000 C 
BRANCH  23  24
ATOM     24  C   UNL     1      35.194 106.811 264.218  1.00  0.00    -0.000 C 
BRANCH  24  25
ATOM     25  C   UNL     1      35.681 105.537 263.498  1.00  0.00    -0.000 C 
BRANCH  25  26
ATOM     26  C   UNL     1      36.378 105.807 262.147  1.00  0.00    -0.000 C 
BRANCH  26  27
ATOM     27  C   UNL     1      35.940 104.823 261.048  1.00  0.00    -0.000 C 
BRANCH  27  28
ATOM     28  C   UNL     1      37.085 103.906 260.584  1.00  0.00    -0.000 C 
BRANCH  28  29
ATOM     29  C   UNL     1      37.890 104.504 259.415  1.00  0.00    -0.000 C 
BRANCH  29  30
ATOM     30  C   UNL     1      37.735 106.037 259.323  1.00  0.00    -0.000 C 
BRANCH  30  31
ATOM     31  C   UNL     1      37.036 106.510 258.038  1.00  0.00    -0.003 C 
ATOM     32  C   UNL     1      35.608 105.981 257.902  1.00  0.00     0.004 C 
ENDBRANCH  30  31
ENDBRANCH  29  30
ENDBRANCH  28  29
ENDBRANCH  27  28
ENDBRANCH  26  27
ENDBRANCH  25  26
ENDBRANCH  24  25
ENDBRANCH  23  24
ENDBRANCH  22  23
ENDBRANCH  21  22
ENDBRANCH  20  21
ENDBRANCH  19  20
ENDBRANCH  18  19
ENDBRANCH   1  18
TORSDOF 28
ENDMDL
MODEL 6
REMARK VINA RESULT:    13.461      2.696     11.577
REMARK INTER + INTRA:          34.478
REMARK INTER:                  32.816
REMARK INTRA:                   1.662
REMARK UNBOUND:                -1.016
REMARK SMILES CCCCCCCCCCCCCCCCCCCCCCCCCCCCCC(=O)[O-]
REMARK SMILES IDX 16 1 17 2 18 3 19 4 20 5 21 6 22 7 23 8 24 9 25 10 26 11
REMARK SMILES IDX 27 12 28 13 29 14 30 15 31 16 32 17 15 18 14 19 13 20 12 21
REMARK SMILES IDX 11 22 10 23 9 24 8 25 7 26 6 27 5 28 4 29 3 30 2 31 1 32
REMARK H PARENT
REMARK Flexibility Score: inf
ROOT
ATOM      1  C   UNL     1      37.463 106.099 270.210  1.00  0.00     0.000 C 
ENDROOT
BRANCH   1   2
ATOM      2  C   UNL     1      38.418 106.105 271.415  1.00  0.00     0.000 C 
BRANCH   2   3
ATOM      3  C   UNL     1      38.997 104.716 271.718  1.00  0.00     0.000 C 
BRANCH   3   4
ATOM      4  C   UNL     1      37.980 103.853 272.477  1.00  0.00     0.000 C 
BRANCH   4   5
ATOM      5  C   UNL     1      38.622 103.195 273.708  1.00  0.00     0.000 C 
BRANCH   5   6
ATOM      6  C   UNL     1      39.245 101.827 273.385  1.00  0.00     0.000 C 
BRANCH   6   7
ATOM      7  C   UNL     1      40.540 101.569 274.176  1.00  0.00     0.000 C 
BRANCH   7   8
ATOM      8  C   UNL     1      41.610 100.849 273.329  1.00  0.00     0.000 C 
BRANCH   8   9
ATOM      9  C   UNL     1      42.461  99.845 274.124  1.00  0.00     0.000 C 
BRANCH   9  10
ATOM     10  C   UNL     1      43.961 100.184 274.104  1.00  0.00     0.000 C 
BRANCH  10  11
ATOM     11  C   UNL     1      44.240 101.648 274.482  1.00  0.00     0.000 C 
BRANCH  11  12
ATOM     12  C   UNL     1      45.196 102.338 273.493  1.00  0.00     0.000 C 
BRANCH  12  13
ATOM     13  C   UNL     1      44.636 103.668 272.954  1.00  0.00     0.006 C 
BRANCH  13  14
ATOM     14  C   UNL     1      45.279 104.137 271.640  1.00  0.00     0.053 C 
BRANCH  14  15
ATOM     15  C   UNL     1      45.072 105.602 271.406  1.00  0.00     0.041 C 
ATOM     16  O   UNL     1      45.602 106.446 272.176  1.00  0.00    -0.550 OA
ATOM     17  O   UNL     1      44.322 106.035 270.321  1.00  0.00    -0.550 OA
ENDBRANCH  14  15
ENDBRANCH  13  14
ENDBRANCH  12  13
ENDBRANCH  11  12
ENDBRANCH  10  11
ENDBRANCH   9  10
ENDBRANCH   8   9
ENDBRANCH   7   8
ENDBRANCH   6   7
ENDBRANCH   5   6
ENDBRANCH   4   5
ENDBRANCH   3   4
ENDBRANCH   2   3
ENDBRANCH   1   2
BRANCH   1  18
ATOM     18  C   UNL     1      35.992 106.295 270.621  1.00  0.00     0.000 C 
BRANCH  18  19
ATOM     19  C   UNL     1      35.144 106.891 269.480  1.00  0.00     0.000 C 
BRANCH  19  20
ATOM     20  C   UNL     1      35.876 106.909 268.124  1.00  0.00     0.000 C 
BRANCH  20  21
ATOM     21  C   UNL     1      34.949 107.336 266.969  1.00  0.00     0.000 C 
BRANCH  21  22
ATOM     22  C   UNL     1      34.920 106.316 265.812  1.00  0.00     0.000 C 
BRANCH  22  23
ATOM     23  C   UNL     1      35.318 106.898 264.440  1.00  0.00     0.000 C 
BRANCH  23  24
ATOM     24  C   UNL     1      35.753 105.866 263.385  1.00  0.00    -0.000 C 
BRANCH  24  25
ATOM     25  C   UNL     1      34.878 104.599 263.304  1.00  0.00    -0.000 C 
BRANCH  25  26
ATOM     26  C   UNL     1      35.601 103.374 262.705  1.00  0.00    -0.000 C 
BRANCH  26  27
ATOM     27  C   UNL     1      35.951 103.563 261.218  1.00  0.00    -0.000 C 
BRANCH  27  28
ATOM     28  C   UNL     1      35.875 105.033 260.775  1.00  0.00    -0.000 C 
BRANCH  28  29
ATOM     29  C   UNL     1      37.075 105.866 261.265  1.00  0.00    -0.000 C 
BRANCH  29  30
ATOM     30  C   UNL     1      38.331 105.647 260.395  1.00  0.00    -0.000 C 
BRANCH  30  31
ATOM     31  C   UNL     1      38.019 105.114 258.986  1.00  0.00    -0.003 C 
ATOM     32  C   UNL     1      36.896 105.881 258.290  1.00  0.00     0.004 C 
ENDBRANCH  30  31
ENDBRANCH  29  30
ENDBRANCH  28  29
ENDBRANCH  27  28
ENDBRANCH  26  27
ENDBRANCH  25  26
ENDBRANCH  24  25
ENDBRANCH  23  24
ENDBRANCH  22  23
ENDBRANCH  21  22
ENDBRANCH  20  21
ENDBRANCH  19  20
ENDBRANCH  18  19
ENDBRANCH   1  18
TORSDOF 28
ENDMDL
MODEL 7
REMARK VINA RESULT:    13.481      1.773      2.614
REMARK INTER + INTRA:          34.532
REMARK INTER:                  35.234
REMARK INTRA:                  -0.703
REMARK UNBOUND:                -1.016
REMARK SMILES CCCCCCCCCCCCCCCCCCCCCCCCCCCCCC(=O)[O-]
REMARK SMILES IDX 16 1 17 2 18 3 19 4 20 5 21 6 22 7 23 8 24 9 25 10 26 11
REMARK SMILES IDX 27 12 28 13 29 14 30 15 31 16 32 17 15 18 14 19 13 20 12 21
REMARK SMILES IDX 11 22 10 23 9 24 8 25 7 26 6 27 5 28 4 29 3 30 2 31 1 32
REMARK H PARENT
REMARK Flexibility Score: inf
ROOT
ATOM      1  C   UNL     1      35.746 107.985 266.545  1.00  0.00     0.000 C 
ENDROOT
BRANCH   1   2
ATOM      2  C   UNL     1      34.952 106.984 265.691  1.00  0.00     0.000 C 
BRANCH   2   3
ATOM      3  C   UNL     1      35.331 107.042 264.205  1.00  0.00     0.000 C 
BRANCH   3   4
ATOM      4  C   UNL     1      34.880 105.769 263.476  1.00  0.00     0.000 C 
BRANCH   4   5
ATOM      5  C   UNL     1      35.147 104.519 264.327  1.00  0.00     0.000 C 
BRANCH   5   6
ATOM      6  C   UNL     1      35.720 103.356 263.500  1.00  0.00     0.000 C 
BRANCH   6   7
ATOM      7  C   UNL     1      34.881 103.058 262.244  1.00  0.00     0.000 C 
BRANCH   7   8
ATOM      8  C   UNL     1      35.444 103.751 260.986  1.00  0.00     0.000 C 
BRANCH   8   9
ATOM      9  C   UNL     1      36.939 103.484 260.746  1.00  0.00     0.000 C 
BRANCH   9  10
ATOM     10  C   UNL     1      37.455 104.100 259.435  1.00  0.00     0.000 C 
BRANCH  10  11
ATOM     11  C   UNL     1      36.407 104.994 258.752  1.00  0.00     0.000 C 
BRANCH  11  12
ATOM     12  C   UNL     1      36.640 106.490 259.029  1.00  0.00     0.000 C 
BRANCH  12  13
ATOM     13  C   UNL     1      37.802 106.740 260.008  1.00  0.00     0.006 C 
BRANCH  13  14
ATOM     14  C   UNL     1      37.460 106.455 261.479  1.00  0.00     0.053 C 
BRANCH  14  15
ATOM     15  C   UNL     1      38.687 106.386 262.336  1.00  0.00     0.041 C 
ATOM     16  O   UNL     1      39.820 106.238 261.807  1.00  0.00    -0.550 OA
ATOM     17  O   UNL     1      38.583 106.517 263.714  1.00  0.00    -0.550 OA
ENDBRANCH  14  15
ENDBRANCH  13  14
ENDBRANCH  12  13
ENDBRANCH  11  12
ENDBRANCH  10  11
ENDBRANCH   9  10
ENDBRANCH   8   9
ENDBRANCH   7   8
ENDBRANCH   6   7
ENDBRANCH   5   6
ENDBRANCH   4   5
ENDBRANCH   3   4
ENDBRANCH   2   3
ENDBRANCH   1   2
BRANCH   1  18
ATOM     18  C   UNL     1      34.887 108.636 267.645  1.00  0.00     0.000 C 
BRANCH  18  19
ATOM     19  C   UNL     1      34.973 107.870 268.979  1.00  0.00     0.000 C 
BRANCH  19  20
ATOM     20  C   UNL     1      35.777 106.559 268.878  1.00  0.00     0.000 C 
BRANCH  20  21
ATOM     21  C   UNL     1      36.736 106.372 270.070  1.00  0.00     0.000 C 
BRANCH  21  22
ATOM     22  C   UNL     1      38.006 107.241 269.961  1.00  0.00     0.000 C 
BRANCH  22  23
ATOM     23  C   UNL     1      39.303 106.533 270.406  1.00  0.00     0.000 C 
BRANCH  23  24
ATOM     24  C   UNL     1      40.611 107.225 269.987  1.00  0.00    -0.000 C 
BRANCH  24  25
ATOM     25  C   UNL     1      41.458 107.790 271.146  1.00  0.00    -0.000 C 
BRANCH  25  26
ATOM     26  C   UNL     1      42.977 107.796 270.869  1.00  0.00    -0.000 C 
BRANCH  26  27
ATOM     27  C   UNL     1      43.594 106.387 270.933  1.00  0.00    -0.000 C 
BRANCH  27  28
ATOM     28  C   UNL     1      45.132 106.416 270.958  1.00  0.00    -0.000 C 
BRANCH  28  29
ATOM     29  C   UNL     1      45.747 105.063 271.363  1.00  0.00    -0.000 C 
BRANCH  29  30
ATOM     30  C   UNL     1      44.694 104.093 271.941  1.00  0.00    -0.000 C 
BRANCH  30  31
ATOM     31  C   UNL     1      45.289 103.018 272.867  1.00  0.00    -0.003 C 
ATOM     32  C   UNL     1      44.367 102.649 274.028  1.00  0.00     0.004 C 
ENDBRANCH  30  31
ENDBRANCH  29  30
ENDBRANCH  28  29
ENDBRANCH  27  28
ENDBRANCH  26  27
ENDBRANCH  25  26
ENDBRANCH  24  25
ENDBRANCH  23  24
ENDBRANCH  22  23
ENDBRANCH  21  22
ENDBRANCH  20  21
ENDBRANCH  19  20
ENDBRANCH  18  19
ENDBRANCH   1  18
TORSDOF 28
ENDMDL
MODEL 8
REMARK VINA RESULT:    14.045      1.717      2.796
REMARK INTER + INTRA:          36.018
REMARK INTER:                  32.828
REMARK INTRA:                   3.190
REMARK UNBOUND:                -1.016
REMARK SMILES CCCCCCCCCCCCCCCCCCCCCCCCCCCCCC(=O)[O-]
REMARK SMILES IDX 16 1 17 2 18 3 19 4 20 5 21 6 22 7 23 8 24 9 25 10 26 11
REMARK SMILES IDX 27 12 28 13 29 14 30 15 31 16 32 17 15 18 14 19 13 20 12 21
REMARK SMILES IDX 11 22 10 23 9 24 8 25 7 26 6 27 5 28 4 29 3 30 2 31 1 32
REMARK H PARENT
REMARK Flexibility Score: inf
ROOT
ATOM      1  C   UNL     1      35.391 106.607 267.832  1.00  0.00     0.000 C 
ENDROOT
BRANCH   1   2
ATOM      2  C   UNL     1      34.875 107.786 266.991  1.00  0.00     0.000 C 
BRANCH   2   3
ATOM      3  C   UNL     1      35.531 107.857 265.605  1.00  0.00     0.000 C 
BRANCH   3   4
ATOM      4  C   UNL     1      35.238 106.588 264.795  1.00  0.00     0.000 C 
BRANCH   4   5
ATOM      5  C   UNL     1      34.877 105.413 265.718  1.00  0.00     0.000 C 
BRANCH   5   6
ATOM      6  C   UNL     1      35.169 104.048 265.073  1.00  0.00     0.000 C 
BRANCH   6   7
ATOM      7  C   UNL     1      34.993 104.070 263.544  1.00  0.00     0.000 C 
BRANCH   7   8
ATOM      8  C   UNL     1      36.228 104.646 262.821  1.00  0.00     0.000 C 
BRANCH   8   9
ATOM      9  C   UNL     1      35.893 105.737 261.790  1.00  0.00     0.000 C 
BRANCH   9  10
ATOM     10  C   UNL     1      36.944 106.857 261.740  1.00  0.00     0.000 C 
BRANCH  10  11
ATOM     11  C   UNL     1      37.901 106.822 262.943  1.00  0.00     0.000 C 
BRANCH  11  12
ATOM     12  C   UNL     1      39.173 106.003 262.660  1.00  0.00     0.000 C 
BRANCH  12  13
ATOM     13  C   UNL     1      39.523 105.947 261.161  1.00  0.00     0.006 C 
BRANCH  13  14
ATOM     14  C   UNL     1      38.305 106.013 260.226  1.00  0.00     0.053 C 
BRANCH  14  15
ATOM     15  C   UNL     1      38.207 104.804 259.347  1.00  0.00     0.041 C 
ATOM     16  O   UNL     1      38.819 103.747 259.655  1.00  0.00    -0.550 OA
ATOM     17  O   UNL     1      37.416 104.834 258.206  1.00  0.00    -0.550 OA
ENDBRANCH  14  15
ENDBRANCH  13  14
ENDBRANCH  12  13
ENDBRANCH  11  12
ENDBRANCH  10  11
ENDBRANCH   9  10
ENDBRANCH   8   9
ENDBRANCH   7   8
ENDBRANCH   6   7
ENDBRANCH   5   6
ENDBRANCH   4   5
ENDBRANCH   3   4
ENDBRANCH   2   3
ENDBRANCH   1   2
BRANCH   1  18
ATOM     18  C   UNL     1      35.875 107.043 269.227  1.00  0.00     0.000 C 
BRANCH  18  19
ATOM     19  C   UNL     1      35.398 106.083 270.334  1.00  0.00     0.000 C 
BRANCH  19  20
ATOM     20  C   UNL     1      36.403 104.954 270.635  1.00  0.00     0.000 C 
BRANCH  20  21
ATOM     21  C   UNL     1      37.791 105.501 271.024  1.00  0.00     0.000 C 
BRANCH  21  22
ATOM     22  C   UNL     1      38.655 104.466 271.774  1.00  0.00     0.000 C 
BRANCH  22  23
ATOM     23  C   UNL     1      37.948 103.789 272.967  1.00  0.00     0.000 C 
BRANCH  23  24
ATOM     24  C   UNL     1      38.746 102.672 273.662  1.00  0.00    -0.000 C 
BRANCH  24  25
ATOM     25  C   UNL     1      40.228 102.997 273.937  1.00  0.00    -0.000 C 
BRANCH  25  26
ATOM     26  C   UNL     1      41.221 102.074 273.198  1.00  0.00    -0.000 C 
BRANCH  26  27
ATOM     27  C   UNL     1      40.965 100.582 273.483  1.00  0.00    -0.000 C 
BRANCH  27  28
ATOM     28  C   UNL     1      42.091  99.937 274.309  1.00  0.00    -0.000 C 
BRANCH  28  29
ATOM     29  C   UNL     1      43.495 100.370 273.844  1.00  0.00    -0.000 C 
BRANCH  29  30
ATOM     30  C   UNL     1      44.300 101.048 274.973  1.00  0.00    -0.000 C 
BRANCH  30  31
ATOM     31  C   UNL     1      45.124 102.258 274.502  1.00  0.00    -0.003 C 
ATOM     32  C   UNL     1      44.279 103.514 274.292  1.00  0.00     0.004 C 
ENDBRANCH  30  31
ENDBRANCH  29  30
ENDBRANCH  28  29
ENDBRANCH  27  28
ENDBRANCH  26  27
ENDBRANCH  25  26
ENDBRANCH  24  25
ENDBRANCH  23  24
ENDBRANCH  22  23
ENDBRANCH  21  22
ENDBRANCH  20  21
ENDBRANCH  19  20
ENDBRANCH  18  19
ENDBRANCH   1  18
TORSDOF 28
ENDMDL
