MODEL 1
REMARK VINA RESULT:    -2.888      0.000      0.000
REMARK INTER + INTRA:          -3.141
REMARK INTER:                  -3.141
REMARK INTRA:                   0.000
REMARK UNBOUND:                 0.000
REMARK SMILES [NH3+]CC(=O)[O-]
REMARK SMILES IDX 2 1 1 2 3 6 4 7 5 8
REMARK H PARENT 1 3 1 4 1 5
REMARK Flexibility Score: inf
ROOT
ATOM      1  C   UNL     1       7.173   6.788  15.055  1.00  0.00     0.312 C 
ENDROOT
BRANCH   1   2
ATOM      2  N   UNL     1       6.783   8.033  14.396  1.00  0.00    -0.353 N 
ATOM      3  H   UNL     1       7.592   8.398  13.845  1.00  0.00     0.344 HD
ATOM      4  H   UNL     1       6.510   8.747  15.112  1.00  0.00     0.344 HD
ATOM      5  H   UNL     1       5.980   7.861  13.747  1.00  0.00     0.344 HD
ENDBRANCH   1   2
BRANCH   1   6
ATOM      6  C   UNL     1       6.391   5.633  14.510  1.00  0.00     0.096 C 
ATOM      7  O   UNL     1       6.021   4.704  15.273  1.00  0.00    -0.544 OA
ATOM      8  O   UNL     1       6.027   5.610  13.170  1.00  0.00    -0.544 OA
ENDBRANCH   1   6
TORSDOF 2
ENDMDL
MODEL 2
REMARK VINA RESULT:    -2.880      0.117      1.453
REMARK INTER + INTRA:          -3.133
REMARK INTER:                  -3.133
REMARK INTRA:                   0.000
REMARK UNBOUND:                 0.000
REMARK SMILES [NH3+]CC(=O)[O-]
REMARK SMILES IDX 2 1 1 2 3 6 4 7 5 8
REMARK H PARENT 1 3 1 4 1 5
REMARK Flexibility Score: inf
ROOT
ATOM      1  C   UNL     1       7.266   6.744  14.871  1.00  0.00     0.312 C 
ENDROOT
BRANCH   1   2
ATOM      2  N   UNL     1       6.795   8.040  14.385  1.00  0.00    -0.353 N 
ATOM      3  H   UNL     1       6.634   8.674  15.200  1.00  0.00     0.344 HD
ATOM      4  H   UNL     1       5.895   7.922  13.864  1.00  0.00     0.344 HD
ATOM      5  H   UNL     1       7.512   8.471  13.756  1.00  0.00     0.344 HD
ENDBRANCH   1   2
BRANCH   1   6
ATOM      6  C   UNL     1       6.372   5.643  14.391  1.00  0.00     0.096 C 
ATOM      7  O   UNL     1       5.993   5.613  13.191  1.00  0.00    -0.544 OA
ATOM      8  O   UNL     1       6.000   4.623  15.256  1.00  0.00    -0.544 OA
ENDBRANCH   1   6
TORSDOF 2
ENDMDL
MODEL 3
REMARK VINA RESULT:    -2.722      2.907      3.530
REMARK INTER + INTRA:          -2.961
REMARK INTER:                  -2.961
REMARK INTRA:                   0.000
REMARK UNBOUND:                 0.000
REMARK SMILES [NH3+]CC(=O)[O-]
REMARK SMILES IDX 2 1 1 2 3 6 4 7 5 8
REMARK H PARENT 1 3 1 4 1 5
REMARK Flexibility Score: inf
ROOT
ATOM      1  C   UNL     1       5.637   3.635  12.662  1.00  0.00     0.312 C 
ENDROOT
BRANCH   1   2
ATOM      2  N   UNL     1       6.735   2.685  12.492  1.00  0.00    -0.353 N 
ATOM      3  H   UNL     1       6.384   1.842  11.985  1.00  0.00     0.344 HD
ATOM      4  H   UNL     1       7.102   2.391  13.427  1.00  0.00     0.344 HD
ATOM      5  H   UNL     1       7.505   3.121  11.933  1.00  0.00     0.344 HD
ENDBRANCH   1   2
BRANCH   1   6
ATOM      6  C   UNL     1       6.001   4.691  13.659  1.00  0.00     0.096 C 
ATOM      7  O   UNL     1       6.241   5.866  13.277  1.00  0.00    -0.544 OA
ATOM      8  O   UNL     1       6.024   4.390  15.014  1.00  0.00    -0.544 OA
ENDBRANCH   1   6
TORSDOF 2
ENDMDL
MODEL 4
REMARK VINA RESULT:    -2.696      2.292      2.475
REMARK INTER + INTRA:          -2.933
REMARK INTER:                  -2.933
REMARK INTRA:                   0.000
REMARK UNBOUND:                 0.000
REMARK SMILES [NH3+]CC(=O)[O-]
REMARK SMILES IDX 2 1 1 2 3 6 4 7 5 8
REMARK H PARENT 1 3 1 4 1 5
REMARK Flexibility Score: inf
ROOT
ATOM      1  C   UNL     1       6.118   4.727  14.875  1.00  0.00     0.312 C 
ENDROOT
BRANCH   1   2
ATOM      2  N   UNL     1       6.450   3.959  13.676  1.00  0.00    -0.353 N 
ATOM      3  H   UNL     1       7.328   4.340  13.257  1.00  0.00     0.344 HD
ATOM      4  H   UNL     1       5.677   4.040  12.974  1.00  0.00     0.344 HD
ATOM      5  H   UNL     1       6.599   2.954  13.922  1.00  0.00     0.344 HD
ENDBRANCH   1   2
BRANCH   1   6
ATOM      6  C   UNL     1       6.712   6.100  14.805  1.00  0.00     0.096 C 
ATOM      7  O   UNL     1       7.000   6.718  15.863  1.00  0.00    -0.544 OA
ATOM      8  O   UNL     1       6.994   6.674  13.573  1.00  0.00    -0.544 OA
ENDBRANCH   1   6
TORSDOF 2
ENDMDL
MODEL 5
REMARK VINA RESULT:    -2.683      4.097      4.498
REMARK INTER + INTRA:          -2.918
REMARK INTER:                  -2.918
REMARK INTRA:                   0.000
REMARK UNBOUND:                 0.000
REMARK SMILES [NH3+]CC(=O)[O-]
REMARK SMILES IDX 2 1 1 2 3 6 4 7 5 8
REMARK H PARENT 1 3 1 4 1 5
REMARK Flexibility Score: inf
ROOT
ATOM      1  C   UNL     1       5.767   2.853  11.479  1.00  0.00     0.312 C 
ENDROOT
BRANCH   1   2
ATOM      2  N   UNL     1       6.737   2.459  12.498  1.00  0.00    -0.353 N 
ATOM      3  H   UNL     1       7.670   2.319  12.048  1.00  0.00     0.344 HD
ATOM      4  H   UNL     1       6.440   1.562  12.948  1.00  0.00     0.344 HD
ATOM      5  H   UNL     1       6.820   3.207  13.225  1.00  0.00     0.344 HD
ENDBRANCH   1   2
BRANCH   1   6
ATOM      6  C   UNL     1       4.638   3.622  12.092  1.00  0.00     0.096 C 
ATOM      7  O   UNL     1       4.844   4.760  12.588  1.00  0.00    -0.544 OA
ATOM      8  O   UNL     1       3.350   3.104  12.069  1.00  0.00    -0.544 OA
ENDBRANCH   1   6
TORSDOF 2
ENDMDL
MODEL 6
REMARK VINA RESULT:    -2.650     14.863     15.106
REMARK INTER + INTRA:          -2.883
REMARK INTER:                  -2.883
REMARK INTRA:                   0.000
REMARK UNBOUND:                 0.000
REMARK SMILES [NH3+]CC(=O)[O-]
REMARK SMILES IDX 2 1 1 2 3 6 4 7 5 8
REMARK H PARENT 1 3 1 4 1 5
REMARK Flexibility Score: inf
ROOT
ATOM      1  C   UNL     1      -3.057  -5.664  13.682  1.00  0.00     0.312 C 
ENDROOT
BRANCH   1   2
ATOM      2  N   UNL     1      -2.960  -4.217  13.864  1.00  0.00    -0.353 N 
ATOM      3  H   UNL     1      -3.675  -3.747  13.265  1.00  0.00     0.344 HD
ATOM      4  H   UNL     1      -2.008  -3.884  13.582  1.00  0.00     0.344 HD
ATOM      5  H   UNL     1      -3.138  -3.967  14.864  1.00  0.00     0.344 HD
ENDBRANCH   1   2
BRANCH   1   6
ATOM      6  C   UNL     1      -2.420  -6.079  12.392  1.00  0.00     0.096 C 
ATOM      7  O   UNL     1      -2.428  -5.300  11.404  1.00  0.00    -0.544 OA
ATOM      8  O   UNL     1      -1.775  -7.305  12.298  1.00  0.00    -0.544 OA
ENDBRANCH   1   6
TORSDOF 2
ENDMDL
MODEL 7
REMARK VINA RESULT:    -2.633     21.928     22.283
REMARK INTER + INTRA:          -2.864
REMARK INTER:                  -2.864
REMARK INTRA:                   0.000
REMARK UNBOUND:                 0.000
REMARK SMILES [NH3+]CC(=O)[O-]
REMARK SMILES IDX 2 1 1 2 3 6 4 7 5 8
REMARK H PARENT 1 3 1 4 1 5
REMARK Flexibility Score: inf
ROOT
ATOM      1  C   UNL     1      -7.925  -1.382  29.965  1.00  0.00     0.312 C 
ENDROOT
BRANCH   1   2
ATOM      2  N   UNL     1      -8.067  -0.869  28.603  1.00  0.00    -0.353 N 
ATOM      3  H   UNL     1      -9.010  -0.433  28.498  1.00  0.00     0.344 HD
ATOM      4  H   UNL     1      -7.976  -1.652  27.915  1.00  0.00     0.344 HD
ATOM      5  H   UNL     1      -7.335  -0.146  28.413  1.00  0.00     0.344 HD
ENDBRANCH   1   2
BRANCH   1   6
ATOM      6  C   UNL     1      -7.218  -2.702  29.963  1.00  0.00     0.096 C 
ATOM      7  O   UNL     1      -7.871  -3.769  30.097  1.00  0.00    -0.544 OA
ATOM      8  O   UNL     1      -5.845  -2.755  29.760  1.00  0.00    -0.544 OA
ENDBRANCH   1   6
TORSDOF 2
ENDMDL
MODEL 8
REMARK VINA RESULT:    -2.613      7.920      8.308
REMARK INTER + INTRA:          -2.843
REMARK INTER:                  -2.843
REMARK INTRA:                   0.000
REMARK UNBOUND:                 0.000
REMARK SMILES [NH3+]CC(=O)[O-]
REMARK SMILES IDX 2 1 1 2 3 6 4 7 5 8
REMARK H PARENT 1 3 1 4 1 5
REMARK Flexibility Score: inf
ROOT
ATOM      1  C   UNL     1       2.591   0.137  12.163  1.00  0.00     0.312 C 
ENDROOT
BRANCH   1   2
ATOM      2  N   UNL     1       1.753  -0.964  12.636  1.00  0.00    -0.353 N 
ATOM      3  H   UNL     1       2.344  -1.637  13.175  1.00  0.00     0.344 HD
ATOM      4  H   UNL     1       1.326  -1.464  11.822  1.00  0.00     0.344 HD
ATOM      5  H   UNL     1       0.998  -0.599  13.261  1.00  0.00     0.344 HD
ENDBRANCH   1   2
BRANCH   1   6
ATOM      6  C   UNL     1       1.955   0.820  10.992  1.00  0.00     0.096 C 
ATOM      7  O   UNL     1       2.600   1.677  10.334  1.00  0.00    -0.544 OA
ATOM      8  O   UNL     1       0.671   0.471  10.596  1.00  0.00    -0.544 OA
ENDBRANCH   1   6
TORSDOF 2
ENDMDL
MODEL 9
REMARK VINA RESULT:    -2.539      5.571      5.928
REMARK INTER + INTRA:          -2.762
REMARK INTER:                  -2.762
REMARK INTRA:                   0.000
REMARK UNBOUND:                 0.000
REMARK SMILES [NH3+]CC(=O)[O-]
REMARK SMILES IDX 2 1 1 2 3 6 4 7 5 8
REMARK H PARENT 1 3 1 4 1 5
REMARK Flexibility Score: inf
ROOT
ATOM      1  C   UNL     1      10.036   8.273  19.584  1.00  0.00     0.312 C 
ENDROOT
BRANCH   1   2
ATOM      2  N   UNL     1       9.036   9.057  20.307  1.00  0.00    -0.353 N 
ATOM      3  H   UNL     1       8.531   9.675  19.632  1.00  0.00     0.344 HD
ATOM      4  H   UNL     1       9.502   9.654  21.030  1.00  0.00     0.344 HD
ATOM      5  H   UNL     1       8.344   8.421  20.767  1.00  0.00     0.344 HD
ENDBRANCH   1   2
BRANCH   1   6
ATOM      6  C   UNL     1       9.498   6.920  19.237  1.00  0.00     0.096 C 
ATOM      7  O   UNL     1       9.006   6.186  20.133  1.00  0.00    -0.544 OA
ATOM      8  O   UNL     1       9.494   6.492  17.916  1.00  0.00    -0.544 OA
ENDBRANCH   1   6
TORSDOF 2
ENDMDL
