MODEL 1
REMARK VINA RESULT:    -2.915      0.000      0.000
REMARK INTER + INTRA:          -4.830
REMARK INTER:                  -4.108
REMARK INTRA:                  -0.722
REMARK UNBOUND:                -0.722
REMARK SMILES CCCCCCCCC(=O)[O-]
REMARK SMILES IDX 6 1 7 2 8 3 9 4 10 5 11 6 5 7 4 8 3 9 2 10 1 11
REMARK H PARENT
REMARK Flexibility Score: inf
ROOT
ATOM      1  C   UNL     1     -40.331 -20.743  29.228  1.00  0.00     0.000 C 
ENDROOT
BRANCH   1   2
ATOM      2  C   UNL     1     -41.402 -21.847  29.153  1.00  0.00     0.006 C 
BRANCH   2   3
ATOM      3  C   UNL     1     -41.838 -22.206  27.723  1.00  0.00     0.053 C 
BRANCH   3   4
ATOM      4  C   UNL     1     -43.327 -22.283  27.592  1.00  0.00     0.041 C 
ATOM      5  O   UNL     1     -43.864 -22.285  26.453  1.00  0.00    -0.550 OA
ATOM      6  O   UNL     1     -44.125 -22.317  28.729  1.00  0.00    -0.550 OA
ENDBRANCH   3   4
ENDBRANCH   2   3
ENDBRANCH   1   2
BRANCH   1   7
ATOM      7  C   UNL     1     -40.061 -20.085  27.865  1.00  0.00     0.000 C 
BRANCH   7   8
ATOM      8  C   UNL     1     -38.632 -20.339  27.356  1.00  0.00    -0.000 C 
BRANCH   8   9
ATOM      9  C   UNL     1     -37.898 -21.415  28.174  1.00  0.00    -0.000 C 
BRANCH   9  10
ATOM     10  C   UNL     1     -37.868 -22.777  27.463  1.00  0.00    -0.003 C 
ATOM     11  C   UNL     1     -38.260 -23.935  28.380  1.00  0.00     0.004 C 
ENDBRANCH   9  10
ENDBRANCH   8   9
ENDBRANCH   7   8
ENDBRANCH   1   7
TORSDOF 7
ENDMDL
MODEL 2
REMARK VINA RESULT:    -2.905      1.319      2.134
REMARK INTER + INTRA:          -4.816
REMARK INTER:                  -4.425
REMARK INTRA:                  -0.391
REMARK UNBOUND:                -0.722
REMARK SMILES CCCCCCCCC(=O)[O-]
REMARK SMILES IDX 6 1 7 2 8 3 9 4 10 5 11 6 5 7 4 8 3 9 2 10 1 11
REMARK H PARENT
REMARK Flexibility Score: inf
ROOT
ATOM      1  C   UNL     1     -41.498 -21.804  27.336  1.00  0.00     0.000 C 
ENDROOT
BRANCH   1   2
ATOM      2  C   UNL     1     -43.029 -21.726  27.199  1.00  0.00     0.006 C 
BRANCH   2   3
ATOM      3  C   UNL     1     -43.800 -22.448  28.315  1.00  0.00     0.053 C 
BRANCH   3   4
ATOM      4  C   UNL     1     -45.276 -22.222  28.216  1.00  0.00     0.041 C 
ATOM      5  O   UNL     1     -45.732 -21.347  27.434  1.00  0.00    -0.550 OA
ATOM      6  O   UNL     1     -46.148 -22.952  29.013  1.00  0.00    -0.550 OA
ENDBRANCH   3   4
ENDBRANCH   2   3
ENDBRANCH   1   2
BRANCH   1   7
ATOM      7  C   UNL     1     -41.027 -21.704  28.797  1.00  0.00     0.000 C 
BRANCH   7   8
ATOM      8  C   UNL     1     -40.083 -20.513  29.036  1.00  0.00    -0.000 C 
BRANCH   8   9
ATOM      9  C   UNL     1     -38.972 -20.420  27.975  1.00  0.00    -0.000 C 
BRANCH   9  10
ATOM     10  C   UNL     1     -37.861 -21.458  28.193  1.00  0.00    -0.003 C 
ATOM     11  C   UNL     1     -37.553 -22.272  26.937  1.00  0.00     0.004 C 
ENDBRANCH   9  10
ENDBRANCH   8   9
ENDBRANCH   7   8
ENDBRANCH   1   7
TORSDOF 7
ENDMDL
MODEL 3
REMARK VINA RESULT:    -2.851      3.904      6.782
REMARK INTER + INTRA:          -4.739
REMARK INTER:                  -4.314
REMARK INTRA:                  -0.425
REMARK UNBOUND:                -0.722
REMARK SMILES CCCCCCCCC(=O)[O-]
REMARK SMILES IDX 6 1 7 2 8 3 9 4 10 5 11 6 5 7 4 8 3 9 2 10 1 11
REMARK H PARENT
REMARK Flexibility Score: inf
ROOT
ATOM      1  C   UNL     1     -46.812 -21.934  27.591  1.00  0.00     0.000 C 
ENDROOT
BRANCH   1   2
ATOM      2  C   UNL     1     -45.965 -22.638  28.666  1.00  0.00     0.006 C 
BRANCH   2   3
ATOM      3  C   UNL     1     -44.672 -23.276  28.132  1.00  0.00     0.053 C 
BRANCH   3   4
ATOM      4  C   UNL     1     -43.523 -22.317  28.151  1.00  0.00     0.041 C 
ATOM      5  O   UNL     1     -42.702 -22.332  29.105  1.00  0.00    -0.550 OA
ATOM      6  O   UNL     1     -43.378 -21.383  27.133  1.00  0.00    -0.550 OA
ENDBRANCH   3   4
ENDBRANCH   2   3
ENDBRANCH   1   2
BRANCH   1   7
ATOM      7  C   UNL     1     -47.627 -20.757  28.154  1.00  0.00     0.000 C 
BRANCH   7   8
ATOM      8  C   UNL     1     -47.574 -19.513  27.252  1.00  0.00    -0.000 C 
BRANCH   8   9
ATOM      9  C   UNL     1     -46.316 -19.480  26.366  1.00  0.00    -0.000 C 
BRANCH   9  10
ATOM     10  C   UNL     1     -45.626 -18.108  26.373  1.00  0.00    -0.003 C 
ATOM     11  C   UNL     1     -46.460 -17.028  27.063  1.00  0.00     0.004 C 
ENDBRANCH   9  10
ENDBRANCH   8   9
ENDBRANCH   7   8
ENDBRANCH   1   7
TORSDOF 7
ENDMDL
MODEL 4
REMARK VINA RESULT:    -2.829      1.902      3.598
REMARK INTER + INTRA:          -4.708
REMARK INTER:                  -3.856
REMARK INTRA:                  -0.852
REMARK UNBOUND:                -0.722
REMARK SMILES CCCCCCCCC(=O)[O-]
REMARK SMILES IDX 6 1 7 2 8 3 9 4 10 5 11 6 5 7 4 8 3 9 2 10 1 11
REMARK H PARENT
REMARK Flexibility Score: inf
ROOT
ATOM      1  C   UNL     1     -37.865 -20.946  27.644  1.00  0.00     0.000 C 
ENDROOT
BRANCH   1   2
ATOM      2  C   UNL     1     -38.726 -21.408  28.834  1.00  0.00     0.006 C 
BRANCH   2   3
ATOM      3  C   UNL     1     -40.093 -20.711  28.930  1.00  0.00     0.053 C 
BRANCH   3   4
ATOM      4  C   UNL     1     -41.209 -21.598  28.474  1.00  0.00     0.041 C 
ATOM      5  O   UNL     1     -41.639 -22.512  29.226  1.00  0.00    -0.550 OA
ATOM      6  O   UNL     1     -41.750 -21.440  27.205  1.00  0.00    -0.550 OA
ENDBRANCH   3   4
ENDBRANCH   2   3
ENDBRANCH   1   2
BRANCH   1   7
ATOM      7  C   UNL     1     -38.032 -21.843  26.406  1.00  0.00     0.000 C 
BRANCH   7   8
ATOM      8  C   UNL     1     -38.793 -21.146  25.267  1.00  0.00    -0.000 C 
BRANCH   8   9
ATOM      9  C   UNL     1     -38.668 -19.613  25.325  1.00  0.00    -0.000 C 
BRANCH   9  10
ATOM     10  C   UNL     1     -40.035 -18.912  25.375  1.00  0.00    -0.003 C 
ATOM     11  C   UNL     1     -40.191 -18.003  26.594  1.00  0.00     0.004 C 
ENDBRANCH   9  10
ENDBRANCH   8   9
ENDBRANCH   7   8
ENDBRANCH   1   7
TORSDOF 7
ENDMDL
MODEL 5
REMARK VINA RESULT:    -2.822      2.035      3.150
REMARK INTER + INTRA:          -4.699
REMARK INTER:                  -4.503
REMARK INTRA:                  -0.196
REMARK UNBOUND:                -0.722
REMARK SMILES CCCCCCCCC(=O)[O-]
REMARK SMILES IDX 6 1 7 2 8 3 9 4 10 5 11 6 5 7 4 8 3 9 2 10 1 11
REMARK H PARENT
REMARK Flexibility Score: inf
ROOT
ATOM      1  C   UNL     1     -43.013 -22.845  28.197  1.00  0.00     0.000 C 
ENDROOT
BRANCH   1   2
ATOM      2  C   UNL     1     -44.441 -22.347  28.485  1.00  0.00     0.006 C 
BRANCH   2   3
ATOM      3  C   UNL     1     -45.059 -21.515  27.349  1.00  0.00     0.053 C 
BRANCH   3   4
ATOM      4  C   UNL     1     -46.555 -21.534  27.389  1.00  0.00     0.041 C 
ATOM      5  O   UNL     1     -47.187 -22.549  26.995  1.00  0.00    -0.550 OA
ATOM      6  O   UNL     1     -47.254 -20.417  27.829  1.00  0.00    -0.550 OA
ENDBRANCH   3   4
ENDBRANCH   2   3
ENDBRANCH   1   2
BRANCH   1   7
ATOM      7  C   UNL     1     -41.975 -22.271  29.177  1.00  0.00     0.000 C 
BRANCH   7   8
ATOM      8  C   UNL     1     -40.628 -21.964  28.502  1.00  0.00    -0.000 C 
BRANCH   8   9
ATOM      9  C   UNL     1     -40.167 -20.515  28.738  1.00  0.00    -0.000 C 
BRANCH   9  10
ATOM     10  C   UNL     1     -38.822 -20.208  28.061  1.00  0.00    -0.003 C 
ATOM     11  C   UNL     1     -37.875 -21.407  28.050  1.00  0.00     0.004 C 
ENDBRANCH   9  10
ENDBRANCH   8   9
ENDBRANCH   7   8
ENDBRANCH   1   7
TORSDOF 7
ENDMDL
MODEL 6
REMARK VINA RESULT:    -2.821      4.466      6.508
REMARK INTER + INTRA:          -4.698
REMARK INTER:                  -3.956
REMARK INTRA:                  -0.742
REMARK UNBOUND:                -0.722
REMARK SMILES CCCCCCCCC(=O)[O-]
REMARK SMILES IDX 6 1 7 2 8 3 9 4 10 5 11 6 5 7 4 8 3 9 2 10 1 11
REMARK H PARENT
REMARK Flexibility Score: inf
ROOT
ATOM      1  C   UNL     1     -43.728 -20.599  26.345  1.00  0.00     0.000 C 
ENDROOT
BRANCH   1   2
ATOM      2  C   UNL     1     -44.593 -21.838  26.638  1.00  0.00     0.006 C 
BRANCH   2   3
ATOM      3  C   UNL     1     -44.494 -22.349  28.084  1.00  0.00     0.053 C 
BRANCH   3   4
ATOM      4  C   UNL     1     -45.721 -23.099  28.500  1.00  0.00     0.041 C 
ATOM      5  O   UNL     1     -46.449 -22.659  29.428  1.00  0.00    -0.550 OA
ATOM      6  O   UNL     1     -46.041 -24.304  27.887  1.00  0.00    -0.550 OA
ENDBRANCH   3   4
ENDBRANCH   2   3
ENDBRANCH   1   2
BRANCH   1   7
ATOM      7  C   UNL     1     -44.562 -19.382  25.910  1.00  0.00     0.000 C 
BRANCH   7   8
ATOM      8  C   UNL     1     -46.060 -19.706  25.777  1.00  0.00    -0.000 C 
BRANCH   8   9
ATOM      9  C   UNL     1     -46.908 -19.030  26.868  1.00  0.00    -0.000 C 
BRANCH   9  10
ATOM     10  C   UNL     1     -47.860 -20.013  27.567  1.00  0.00    -0.003 C 
ATOM     11  C   UNL     1     -48.338 -21.134  26.645  1.00  0.00     0.004 C 
ENDBRANCH   9  10
ENDBRANCH   8   9
ENDBRANCH   7   8
ENDBRANCH   1   7
TORSDOF 7
ENDMDL
MODEL 7
REMARK VINA RESULT:    -2.818      5.554      7.487
REMARK INTER + INTRA:          -4.693
REMARK INTER:                  -3.929
REMARK INTRA:                  -0.764
REMARK UNBOUND:                -0.722
REMARK SMILES CCCCCCCCC(=O)[O-]
REMARK SMILES IDX 6 1 7 2 8 3 9 4 10 5 11 6 5 7 4 8 3 9 2 10 1 11
REMARK H PARENT
REMARK Flexibility Score: inf
ROOT
ATOM      1  C   UNL     1     -44.607 -20.266  25.730  1.00  0.00     0.000 C 
ENDROOT
BRANCH   1   2
ATOM      2  C   UNL     1     -45.064 -18.888  26.244  1.00  0.00     0.006 C 
BRANCH   2   3
ATOM      3  C   UNL     1     -46.129 -18.210  25.367  1.00  0.00     0.053 C 
BRANCH   3   4
ATOM      4  C   UNL     1     -46.802 -17.076  26.075  1.00  0.00     0.041 C 
ATOM      5  O   UNL     1     -47.392 -16.180  25.418  1.00  0.00    -0.550 OA
ATOM      6  O   UNL     1     -46.745 -16.990  27.461  1.00  0.00    -0.550 OA
ENDBRANCH   3   4
ENDBRANCH   2   3
ENDBRANCH   1   2
BRANCH   1   7
ATOM      7  C   UNL     1     -44.698 -21.361  26.807  1.00  0.00     0.000 C 
BRANCH   7   8
ATOM      8  C   UNL     1     -46.107 -21.968  26.919  1.00  0.00    -0.000 C 
BRANCH   8   9
ATOM      9  C   UNL     1     -46.766 -21.682  28.279  1.00  0.00    -0.000 C 
BRANCH   9  10
ATOM     10  C   UNL     1     -47.792 -20.540  28.207  1.00  0.00    -0.003 C 
ATOM     11  C   UNL     1     -48.594 -20.543  26.907  1.00  0.00     0.004 C 
ENDBRANCH   9  10
ENDBRANCH   8   9
ENDBRANCH   7   8
ENDBRANCH   1   7
TORSDOF 7
ENDMDL
MODEL 8
REMARK VINA RESULT:    -2.815      3.148      5.859
REMARK INTER + INTRA:          -4.690
REMARK INTER:                  -4.381
REMARK INTRA:                  -0.309
REMARK UNBOUND:                -0.722
REMARK SMILES CCCCCCCCC(=O)[O-]
REMARK SMILES IDX 6 1 7 2 8 3 9 4 10 5 11 6 5 7 4 8 3 9 2 10 1 11
REMARK H PARENT
REMARK Flexibility Score: inf
ROOT
ATOM      1  C   UNL     1     -41.975 -22.273  28.962  1.00  0.00     0.000 C 
ENDROOT
BRANCH   1   2
ATOM      2  C   UNL     1     -41.177 -21.239  28.147  1.00  0.00     0.006 C 
BRANCH   2   3
ATOM      3  C   UNL     1     -39.949 -20.672  28.878  1.00  0.00     0.053 C 
BRANCH   3   4
ATOM      4  C   UNL     1     -38.671 -21.020  28.182  1.00  0.00     0.041 C 
ATOM      5  O   UNL     1     -37.870 -21.841  28.702  1.00  0.00    -0.550 OA
ATOM      6  O   UNL     1     -38.345 -20.411  26.977  1.00  0.00    -0.550 OA
ENDBRANCH   3   4
ENDBRANCH   2   3
ENDBRANCH   1   2
BRANCH   1   7
ATOM      7  C   UNL     1     -43.451 -22.353  28.535  1.00  0.00     0.000 C 
BRANCH   7   8
ATOM      8  C   UNL     1     -43.685 -21.832  27.108  1.00  0.00    -0.000 C 
BRANCH   8   9
ATOM      9  C   UNL     1     -45.080 -21.208  26.930  1.00  0.00    -0.000 C 
BRANCH   9  10
ATOM     10  C   UNL     1     -46.133 -21.847  27.848  1.00  0.00    -0.003 C 
ATOM     11  C   UNL     1     -47.336 -20.938  28.095  1.00  0.00     0.004 C 
ENDBRANCH   9  10
ENDBRANCH   8   9
ENDBRANCH   7   8
ENDBRANCH   1   7
TORSDOF 7
ENDMDL
MODEL 9
REMARK VINA RESULT:    -2.800      3.022      4.325
REMARK INTER + INTRA:          -4.668
REMARK INTER:                  -4.218
REMARK INTRA:                  -0.450
REMARK UNBOUND:                -0.722
REMARK SMILES CCCCCCCCC(=O)[O-]
REMARK SMILES IDX 6 1 7 2 8 3 9 4 10 5 11 6 5 7 4 8 3 9 2 10 1 11
REMARK H PARENT
REMARK Flexibility Score: inf
ROOT
ATOM      1  C   UNL     1     -39.699 -18.529  27.131  1.00  0.00     0.000 C 
ENDROOT
BRANCH   1   2
ATOM      2  C   UNL     1     -39.121 -19.809  27.761  1.00  0.00     0.006 C 
BRANCH   2   3
ATOM      3  C   UNL     1     -39.970 -20.388  28.904  1.00  0.00     0.053 C 
BRANCH   3   4
ATOM      4  C   UNL     1     -40.830 -21.524  28.445  1.00  0.00     0.041 C 
ATOM      5  O   UNL     1     -40.805 -21.892  27.241  1.00  0.00    -0.550 OA
ATOM      6  O   UNL     1     -41.686 -22.155  29.339  1.00  0.00    -0.550 OA
ENDBRANCH   3   4
ENDBRANCH   2   3
ENDBRANCH   1   2
BRANCH   1   7
ATOM      7  C   UNL     1     -39.553 -18.503  25.600  1.00  0.00     0.000 C 
BRANCH   7   8
ATOM      8  C   UNL     1     -38.695 -19.662  25.065  1.00  0.00    -0.000 C 
BRANCH   8   9
ATOM      9  C   UNL     1     -37.827 -19.248  23.865  1.00  0.00    -0.000 C 
BRANCH   9  10
ATOM     10  C   UNL     1     -38.036 -17.779  23.465  1.00  0.00    -0.003 C 
ATOM     11  C   UNL     1     -36.743 -16.964  23.499  1.00  0.00     0.004 C 
ENDBRANCH   9  10
ENDBRANCH   8   9
ENDBRANCH   7   8
ENDBRANCH   1   7
TORSDOF 7
ENDMDL
