MODEL 1
REMARK VINA RESULT:     0.110      0.000      0.000
REMARK INTER + INTRA:          -0.012
REMARK INTER:                   0.149
REMARK INTRA:                  -0.161
REMARK UNBOUND:                -0.161
REMARK SMILES CCCCCCCC(=O)[O-]
REMARK SMILES IDX 5 1 6 2 7 3 8 4 9 5 10 6 4 7 3 8 2 9 1 10
REMARK H PARENT
REMARK Flexibility Score: inf
ROOT
ATOM      1  C   UNL     1       0.776  -0.079 -15.334  1.00  0.00     0.000 C 
ENDROOT
BRANCH   1   2
ATOM      2  C   UNL     1      -0.116  -1.201 -15.879  1.00  0.00     0.006 C 
BRANCH   2   3
ATOM      3  C   UNL     1       0.634  -2.050 -16.909  1.00  0.00     0.053 C 
BRANCH   3   4
ATOM      4  C   UNL     1       0.242  -1.658 -18.298  1.00  0.00     0.041 C 
ATOM      5  O   UNL     1       0.045  -0.448 -18.584  1.00  0.00    -0.550 OA
ATOM      6  O   UNL     1       0.044  -2.635 -19.267  1.00  0.00    -0.550 OA
ENDBRANCH   3   4
ENDBRANCH   2   3
ENDBRANCH   1   2
BRANCH   1   7
ATOM      7  C   UNL     1       0.029   0.756 -14.283  1.00  0.00     0.000 C 
BRANCH   7   8
ATOM      8  C   UNL     1       0.289   2.263 -14.430  1.00  0.00    -0.000 C 
BRANCH   8   9
ATOM      9  C   UNL     1      -0.125   2.804 -15.807  1.00  0.00    -0.003 C 
ATOM     10  C   UNL     1      -0.073   4.329 -15.838  1.00  0.00     0.004 C 
ENDBRANCH   8   9
ENDBRANCH   7   8
ENDBRANCH   1   7
TORSDOF 6
ENDMDL
MODEL 2
REMARK VINA RESULT:     1.279      3.727      5.298
REMARK INTER + INTRA:           1.566
REMARK INTER:                   1.376
REMARK INTRA:                   0.190
REMARK UNBOUND:                -0.161
REMARK SMILES CCCCCCCC(=O)[O-]
REMARK SMILES IDX 5 1 6 2 7 3 8 4 9 5 10 6 4 7 3 8 2 9 1 10
REMARK H PARENT
REMARK Flexibility Score: inf
ROOT
ATOM      1  C   UNL     1       0.242   1.039 -15.166  1.00  0.00     0.000 C 
ENDROOT
BRANCH   1   2
ATOM      2  C   UNL     1       1.136   0.257 -14.196  1.00  0.00     0.006 C 
BRANCH   2   3
ATOM      3  C   UNL     1       2.611   0.374 -14.591  1.00  0.00     0.053 C 
BRANCH   3   4
ATOM      4  C   UNL     1       3.417   0.914 -13.453  1.00  0.00     0.041 C 
ATOM      5  O   UNL     1       3.121   0.612 -12.267  1.00  0.00    -0.550 OA
ATOM      6  O   UNL     1       4.467   1.790 -13.698  1.00  0.00    -0.550 OA
ENDBRANCH   3   4
ENDBRANCH   2   3
ENDBRANCH   1   2
BRANCH   1   7
ATOM      7  C   UNL     1      -0.124   0.183 -16.387  1.00  0.00     0.000 C 
BRANCH   7   8
ATOM      8  C   UNL     1       0.649  -1.145 -16.432  1.00  0.00    -0.000 C 
BRANCH   8   9
ATOM      9  C   UNL     1      -0.125  -2.256 -17.158  1.00  0.00    -0.003 C 
ATOM     10  C   UNL     1      -0.101  -2.045 -18.669  1.00  0.00     0.004 C 
ENDBRANCH   8   9
ENDBRANCH   7   8
ENDBRANCH   1   7
TORSDOF 6
ENDMDL
MODEL 3
REMARK VINA RESULT:     1.783     12.428     12.912
REMARK INTER + INTRA:           2.247
REMARK INTER:                   2.441
REMARK INTRA:                  -0.195
REMARK UNBOUND:                -0.161
REMARK SMILES CCCCCCCC(=O)[O-]
REMARK SMILES IDX 5 1 6 2 7 3 8 4 9 5 10 6 4 7 3 8 2 9 1 10
REMARK H PARENT
REMARK Flexibility Score: inf
ROOT
ATOM      1  C   UNL     1      12.267   0.869 -16.034  1.00  0.00     0.000 C 
ENDROOT
BRANCH   1   2
ATOM      2  C   UNL     1      12.496   0.610 -17.528  1.00  0.00     0.006 C 
BRANCH   2   3
ATOM      3  C   UNL     1      13.651   1.460 -18.064  1.00  0.00     0.053 C 
BRANCH   3   4
ATOM      4  C   UNL     1      14.915   0.663 -18.105  1.00  0.00     0.041 C 
ATOM      5  O   UNL     1      15.436   0.246 -17.037  1.00  0.00    -0.550 OA
ATOM      6  O   UNL     1      15.547   0.420 -19.318  1.00  0.00    -0.550 OA
ENDBRANCH   3   4
ENDBRANCH   2   3
ENDBRANCH   1   2
BRANCH   1   7
ATOM      7  C   UNL     1      11.530   2.199 -15.814  1.00  0.00     0.000 C 
BRANCH   7   8
ATOM      8  C   UNL     1      10.753   2.232 -14.489  1.00  0.00    -0.000 C 
BRANCH   8   9
ATOM      9  C   UNL     1      10.533   0.832 -13.896  1.00  0.00    -0.003 C 
ATOM     10  C   UNL     1       9.288   0.798 -13.014  1.00  0.00     0.004 C 
ENDBRANCH   8   9
ENDBRANCH   7   8
ENDBRANCH   1   7
TORSDOF 6
ENDMDL
MODEL 4
REMARK VINA RESULT:     1.963     12.546     13.324
REMARK INTER + INTRA:           2.491
REMARK INTER:                   2.645
REMARK INTRA:                  -0.154
REMARK UNBOUND:                -0.161
REMARK SMILES CCCCCCCC(=O)[O-]
REMARK SMILES IDX 5 1 6 2 7 3 8 4 9 5 10 6 4 7 3 8 2 9 1 10
REMARK H PARENT
REMARK Flexibility Score: inf
ROOT
ATOM      1  C   UNL     1      12.264   0.613 -17.085  1.00  0.00     0.000 C 
ENDROOT
BRANCH   1   2
ATOM      2  C   UNL     1      11.801   0.628 -15.623  1.00  0.00     0.006 C 
BRANCH   2   3
ATOM      3  C   UNL     1      11.139   1.962 -15.268  1.00  0.00     0.053 C 
BRANCH   3   4
ATOM      4  C   UNL     1      10.428   1.862 -13.956  1.00  0.00     0.041 C 
ATOM      5  O   UNL     1      10.373   2.857 -13.187  1.00  0.00    -0.550 OA
ATOM      6  O   UNL     1       9.867   0.654 -13.558  1.00  0.00    -0.550 OA
ENDBRANCH   3   4
ENDBRANCH   2   3
ENDBRANCH   1   2
BRANCH   1   7
ATOM      7  C   UNL     1      13.367   1.655 -17.322  1.00  0.00     0.000 C 
BRANCH   7   8
ATOM      8  C   UNL     1      14.120   1.430 -18.643  1.00  0.00    -0.000 C 
BRANCH   8   9
ATOM      9  C   UNL     1      15.217   0.361 -18.525  1.00  0.00    -0.003 C 
ATOM     10  C   UNL     1      16.364   0.642 -19.491  1.00  0.00     0.004 C 
ENDBRANCH   8   9
ENDBRANCH   7   8
ENDBRANCH   1   7
TORSDOF 6
ENDMDL
MODEL 5
REMARK VINA RESULT:     2.852     12.315     13.431
REMARK INTER + INTRA:           3.691
REMARK INTER:                   3.868
REMARK INTRA:                  -0.177
REMARK UNBOUND:                -0.161
REMARK SMILES CCCCCCCC(=O)[O-]
REMARK SMILES IDX 5 1 6 2 7 3 8 4 9 5 10 6 4 7 3 8 2 9 1 10
REMARK H PARENT
REMARK Flexibility Score: inf
ROOT
ATOM      1  C   UNL     1      11.882  -0.806 -17.079  1.00  0.00     0.000 C 
ENDROOT
BRANCH   1   2
ATOM      2  C   UNL     1      12.774   0.157 -16.287  1.00  0.00     0.006 C 
BRANCH   2   3
ATOM      3  C   UNL     1      13.071   1.424 -17.094  1.00  0.00     0.053 C 
BRANCH   3   4
ATOM      4  C   UNL     1      14.052   1.134 -18.186  1.00  0.00     0.041 C 
ATOM      5  O   UNL     1      13.917   1.667 -19.318  1.00  0.00    -0.550 OA
ATOM      6  O   UNL     1      15.089   0.235 -17.968  1.00  0.00    -0.550 OA
ENDBRANCH   3   4
ENDBRANCH   2   3
ENDBRANCH   1   2
BRANCH   1   7
ATOM      7  C   UNL     1      11.537  -2.047 -16.244  1.00  0.00     0.000 C 
BRANCH   7   8
ATOM      8  C   UNL     1      10.755  -3.101 -17.045  1.00  0.00    -0.000 C 
BRANCH   8   9
ATOM      9  C   UNL     1      11.178  -4.538 -16.703  1.00  0.00    -0.003 C 
ATOM     10  C   UNL     1      11.891  -5.196 -17.880  1.00  0.00     0.004 C 
ENDBRANCH   8   9
ENDBRANCH   7   8
ENDBRANCH   1   7
TORSDOF 6
ENDMDL
MODEL 6
REMARK VINA RESULT:     3.091     12.092     12.626
REMARK INTER + INTRA:           4.014
REMARK INTER:                   4.155
REMARK INTRA:                  -0.141
REMARK UNBOUND:                -0.161
REMARK SMILES CCCCCCCC(=O)[O-]
REMARK SMILES IDX 5 1 6 2 7 3 8 4 9 5 10 6 4 7 3 8 2 9 1 10
REMARK H PARENT
REMARK Flexibility Score: inf
ROOT
ATOM      1  C   UNL     1      12.158  -0.457 -17.246  1.00  0.00     0.000 C 
ENDROOT
BRANCH   1   2
ATOM      2  C   UNL     1      11.627  -1.589 -16.358  1.00  0.00     0.006 C 
BRANCH   2   3
ATOM      3  C   UNL     1      10.775  -2.570 -17.168  1.00  0.00     0.053 C 
BRANCH   3   4
ATOM      4  C   UNL     1      11.086  -3.981 -16.778  1.00  0.00     0.041 C 
ATOM      5  O   UNL     1      10.913  -4.363 -15.591  1.00  0.00    -0.550 OA
ATOM      6  O   UNL     1      11.615  -4.861 -17.714  1.00  0.00    -0.550 OA
ENDBRANCH   3   4
ENDBRANCH   2   3
ENDBRANCH   1   2
BRANCH   1   7
ATOM      7  C   UNL     1      12.574   0.756 -16.399  1.00  0.00     0.000 C 
BRANCH   7   8
ATOM      8  C   UNL     1      13.565   1.675 -17.130  1.00  0.00    -0.000 C 
BRANCH   8   9
ATOM      9  C   UNL     1      13.913   1.170 -18.538  1.00  0.00    -0.003 C 
ATOM     10  C   UNL     1      15.259   0.452 -18.548  1.00  0.00     0.004 C 
ENDBRANCH   8   9
ENDBRANCH   7   8
ENDBRANCH   1   7
TORSDOF 6
ENDMDL
