MODEL 1
REMARK VINA RESULT:    -3.990      0.000      0.000
REMARK INTER + INTRA:          -5.827
REMARK INTER:                  -5.390
REMARK INTRA:                  -0.438
REMARK UNBOUND:                -0.438
REMARK SMILES CCCCCCCC(=O)[O-]
REMARK SMILES IDX 5 1 6 2 7 3 8 4 9 5 10 6 4 7 3 8 2 9 1 10
REMARK H PARENT
REMARK Flexibility Score: inf
ROOT
ATOM      1  C   UNL     1     -38.007  18.996 -27.758  1.00  0.00     0.000 C 
ENDROOT
BRANCH   1   2
ATOM      2  C   UNL     1     -38.096  20.253 -28.644  1.00  0.00     0.006 C 
BRANCH   2   3
ATOM      3  C   UNL     1     -39.502  20.486 -29.211  1.00  0.00     0.053 C 
BRANCH   3   4
ATOM      4  C   UNL     1     -39.836  21.944 -29.198  1.00  0.00     0.041 C 
ATOM      5  O   UNL     1     -40.818  22.375 -29.857  1.00  0.00    -0.550 OA
ATOM      6  O   UNL     1     -39.032  22.835 -28.500  1.00  0.00    -0.550 OA
ENDBRANCH   3   4
ENDBRANCH   2   3
ENDBRANCH   1   2
BRANCH   1   7
ATOM      7  C   UNL     1     -36.841  18.046 -28.092  1.00  0.00     0.000 C 
BRANCH   7   8
ATOM      8  C   UNL     1     -36.680  17.801 -29.599  1.00  0.00    -0.000 C 
BRANCH   8   9
ATOM      9  C   UNL     1     -37.677  16.746 -30.092  1.00  0.00    -0.003 C 
ATOM     10  C   UNL     1     -38.751  17.373 -30.977  1.00  0.00     0.004 C 
ENDBRANCH   8   9
ENDBRANCH   7   8
ENDBRANCH   1   7
TORSDOF 6
ENDMDL
MODEL 2
REMARK VINA RESULT:    -3.926      2.856      4.641
REMARK INTER + INTRA:          -5.740
REMARK INTER:                  -5.252
REMARK INTRA:                  -0.489
REMARK UNBOUND:                -0.438
REMARK SMILES CCCCCCCC(=O)[O-]
REMARK SMILES IDX 5 1 6 2 7 3 8 4 9 5 10 6 4 7 3 8 2 9 1 10
REMARK H PARENT
REMARK Flexibility Score: inf
ROOT
ATOM      1  C   UNL     1     -37.778  19.349 -31.124  1.00  0.00     0.000 C 
ENDROOT
BRANCH   1   2
ATOM      2  C   UNL     1     -38.522  18.091 -30.640  1.00  0.00     0.006 C 
BRANCH   2   3
ATOM      3  C   UNL     1     -37.578  17.011 -30.095  1.00  0.00     0.053 C 
BRANCH   3   4
ATOM      4  C   UNL     1     -36.723  17.568 -29.001  1.00  0.00     0.041 C 
ATOM      5  O   UNL     1     -35.487  17.727 -29.181  1.00  0.00    -0.550 OA
ATOM      6  O   UNL     1     -37.282  17.863 -27.764  1.00  0.00    -0.550 OA
ENDBRANCH   3   4
ENDBRANCH   2   3
ENDBRANCH   1   2
BRANCH   1   7
ATOM      7  C   UNL     1     -38.434  20.685 -30.727  1.00  0.00     0.000 C 
BRANCH   7   8
ATOM      8  C   UNL     1     -38.606  20.841 -29.209  1.00  0.00    -0.000 C 
BRANCH   8   9
ATOM      9  C   UNL     1     -40.089  20.906 -28.830  1.00  0.00    -0.003 C 
ATOM     10  C   UNL     1     -40.529  19.637 -28.104  1.00  0.00     0.004 C 
ENDBRANCH   8   9
ENDBRANCH   7   8
ENDBRANCH   1   7
TORSDOF 6
ENDMDL
MODEL 3
REMARK VINA RESULT:    -3.845      1.770      2.615
REMARK INTER + INTRA:          -5.631
REMARK INTER:                  -5.177
REMARK INTRA:                  -0.454
REMARK UNBOUND:                -0.438
REMARK SMILES CCCCCCCC(=O)[O-]
REMARK SMILES IDX 5 1 6 2 7 3 8 4 9 5 10 6 4 7 3 8 2 9 1 10
REMARK H PARENT
REMARK Flexibility Score: inf
ROOT
ATOM      1  C   UNL     1     -38.399  17.990 -30.670  1.00  0.00     0.000 C 
ENDROOT
BRANCH   1   2
ATOM      2  C   UNL     1     -38.162  19.510 -30.741  1.00  0.00     0.006 C 
BRANCH   2   3
ATOM      3  C   UNL     1     -38.181  20.183 -29.362  1.00  0.00     0.053 C 
BRANCH   3   4
ATOM      4  C   UNL     1     -39.587  20.464 -28.937  1.00  0.00     0.041 C 
ATOM      5  O   UNL     1     -40.177  21.500 -29.343  1.00  0.00    -0.550 OA
ATOM      6  O   UNL     1     -40.230  19.610 -28.050  1.00  0.00    -0.550 OA
ENDBRANCH   3   4
ENDBRANCH   2   3
ENDBRANCH   1   2
BRANCH   1   7
ATOM      7  C   UNL     1     -37.587  17.255 -29.588  1.00  0.00     0.000 C 
BRANCH   7   8
ATOM      8  C   UNL     1     -36.190  16.836 -30.067  1.00  0.00    -0.000 C 
BRANCH   8   9
ATOM      9  C   UNL     1     -35.109  17.742 -29.468  1.00  0.00    -0.003 C 
ATOM     10  C   UNL     1     -33.988  18.001 -30.471  1.00  0.00     0.004 C 
ENDBRANCH   8   9
ENDBRANCH   7   8
ENDBRANCH   1   7
TORSDOF 6
ENDMDL
MODEL 4
REMARK VINA RESULT:    -3.830      3.111      4.863
REMARK INTER + INTRA:          -5.611
REMARK INTER:                  -5.102
REMARK INTRA:                  -0.509
REMARK UNBOUND:                -0.438
REMARK SMILES CCCCCCCC(=O)[O-]
REMARK SMILES IDX 5 1 6 2 7 3 8 4 9 5 10 6 4 7 3 8 2 9 1 10
REMARK H PARENT
REMARK Flexibility Score: inf
ROOT
ATOM      1  C   UNL     1     -39.382  19.781 -28.613  1.00  0.00     0.000 C 
ENDROOT
BRANCH   1   2
ATOM      2  C   UNL     1     -38.101  18.978 -28.323  1.00  0.00     0.006 C 
BRANCH   2   3
ATOM      3  C   UNL     1     -37.345  18.578 -29.596  1.00  0.00     0.053 C 
BRANCH   3   4
ATOM      4  C   UNL     1     -37.871  17.284 -30.132  1.00  0.00     0.041 C 
ATOM      5  O   UNL     1     -37.387  16.191 -29.737  1.00  0.00    -0.550 OA
ATOM      6  O   UNL     1     -38.860  17.286 -31.106  1.00  0.00    -0.550 OA
ENDBRANCH   3   4
ENDBRANCH   2   3
ENDBRANCH   1   2
BRANCH   1   7
ATOM      7  C   UNL     1     -39.198  20.976 -29.567  1.00  0.00     0.000 C 
BRANCH   7   8
ATOM      8  C   UNL     1     -39.011  22.309 -28.829  1.00  0.00    -0.000 C 
BRANCH   8   9
ATOM      9  C   UNL     1     -37.529  22.571 -28.537  1.00  0.00    -0.003 C 
ATOM     10  C   UNL     1     -36.666  22.285 -29.764  1.00  0.00     0.004 C 
ENDBRANCH   8   9
ENDBRANCH   7   8
ENDBRANCH   1   7
TORSDOF 6
ENDMDL
MODEL 5
REMARK VINA RESULT:    -3.829      1.494      2.475
REMARK INTER + INTRA:          -5.609
REMARK INTER:                  -5.068
REMARK INTRA:                  -0.541
REMARK UNBOUND:                -0.438
REMARK SMILES CCCCCCCC(=O)[O-]
REMARK SMILES IDX 5 1 6 2 7 3 8 4 9 5 10 6 4 7 3 8 2 9 1 10
REMARK H PARENT
REMARK Flexibility Score: inf
ROOT
ATOM      1  C   UNL     1     -37.475  19.557 -31.080  1.00  0.00     0.000 C 
ENDROOT
BRANCH   1   2
ATOM      2  C   UNL     1     -38.173  20.923 -30.938  1.00  0.00     0.006 C 
BRANCH   2   3
ATOM      3  C   UNL     1     -38.440  21.309 -29.477  1.00  0.00     0.053 C 
BRANCH   3   4
ATOM      4  C   UNL     1     -39.901  21.213 -29.170  1.00  0.00     0.041 C 
ATOM      5  O   UNL     1     -40.349  20.234 -28.517  1.00  0.00    -0.550 OA
ATOM      6  O   UNL     1     -40.777  22.178 -29.649  1.00  0.00    -0.550 OA
ENDBRANCH   3   4
ENDBRANCH   2   3
ENDBRANCH   1   2
BRANCH   1   7
ATOM      7  C   UNL     1     -38.375  18.337 -30.811  1.00  0.00     0.000 C 
BRANCH   7   8
ATOM      8  C   UNL     1     -37.743  17.329 -29.840  1.00  0.00    -0.000 C 
BRANCH   8   9
ATOM      9  C   UNL     1     -36.675  18.001 -28.970  1.00  0.00    -0.003 C 
ATOM     10  C   UNL     1     -37.170  18.192 -27.539  1.00  0.00     0.004 C 
ENDBRANCH   8   9
ENDBRANCH   7   8
ENDBRANCH   1   7
TORSDOF 6
ENDMDL
MODEL 6
REMARK VINA RESULT:    -3.780      2.636      4.676
REMARK INTER + INTRA:          -5.543
REMARK INTER:                  -4.980
REMARK INTRA:                  -0.564
REMARK UNBOUND:                -0.438
REMARK SMILES CCCCCCCC(=O)[O-]
REMARK SMILES IDX 5 1 6 2 7 3 8 4 9 5 10 6 4 7 3 8 2 9 1 10
REMARK H PARENT
REMARK Flexibility Score: inf
ROOT
ATOM      1  C   UNL     1     -38.003  19.476 -31.154  1.00  0.00     0.000 C 
ENDROOT
BRANCH   1   2
ATOM      2  C   UNL     1     -38.623  18.414 -30.227  1.00  0.00     0.006 C 
BRANCH   2   3
ATOM      3  C   UNL     1     -37.571  17.521 -29.555  1.00  0.00     0.053 C 
BRANCH   3   4
ATOM      4  C   UNL     1     -36.894  18.257 -28.443  1.00  0.00     0.041 C 
ATOM      5  O   UNL     1     -35.637  18.297 -28.383  1.00  0.00    -0.550 OA
ATOM      6  O   UNL     1     -37.649  18.857 -27.445  1.00  0.00    -0.550 OA
ENDBRANCH   3   4
ENDBRANCH   2   3
ENDBRANCH   1   2
BRANCH   1   7
ATOM      7  C   UNL     1     -38.467  20.920 -30.889  1.00  0.00     0.000 C 
BRANCH   7   8
ATOM      8  C   UNL     1     -39.316  21.053 -29.617  1.00  0.00    -0.000 C 
BRANCH   8   9
ATOM      9  C   UNL     1     -38.827  22.219 -28.750  1.00  0.00    -0.003 C 
ATOM     10  C   UNL     1     -37.304  22.314 -28.763  1.00  0.00     0.004 C 
ENDBRANCH   8   9
ENDBRANCH   7   8
ENDBRANCH   1   7
TORSDOF 6
ENDMDL
MODEL 7
REMARK VINA RESULT:    -3.779      3.235      4.559
REMARK INTER + INTRA:          -5.542
REMARK INTER:                  -4.884
REMARK INTRA:                  -0.658
REMARK UNBOUND:                -0.438
REMARK SMILES CCCCCCCC(=O)[O-]
REMARK SMILES IDX 5 1 6 2 7 3 8 4 9 5 10 6 4 7 3 8 2 9 1 10
REMARK H PARENT
REMARK Flexibility Score: inf
ROOT
ATOM      1  C   UNL     1     -37.551  19.020 -27.939  1.00  0.00     0.000 C 
ENDROOT
BRANCH   1   2
ATOM      2  C   UNL     1     -36.248  18.276 -28.284  1.00  0.00     0.006 C 
BRANCH   2   3
ATOM      3  C   UNL     1     -36.241  17.712 -29.710  1.00  0.00     0.053 C 
BRANCH   3   4
ATOM      4  C   UNL     1     -37.369  16.746 -29.896  1.00  0.00     0.041 C 
ATOM      5  O   UNL     1     -37.328  15.612 -29.350  1.00  0.00    -0.550 OA
ATOM      6  O   UNL     1     -38.442  17.078 -30.711  1.00  0.00    -0.550 OA
ENDBRANCH   3   4
ENDBRANCH   2   3
ENDBRANCH   1   2
BRANCH   1   7
ATOM      7  C   UNL     1     -37.717  20.390 -28.622  1.00  0.00     0.000 C 
BRANCH   7   8
ATOM      8  C   UNL     1     -38.890  20.428 -29.612  1.00  0.00    -0.000 C 
BRANCH   8   9
ATOM      9  C   UNL     1     -38.385  20.556 -31.054  1.00  0.00    -0.003 C 
ATOM     10  C   UNL     1     -36.960  21.100 -31.094  1.00  0.00     0.004 C 
ENDBRANCH   8   9
ENDBRANCH   7   8
ENDBRANCH   1   7
TORSDOF 6
ENDMDL
MODEL 8
REMARK VINA RESULT:    -3.772      2.472      4.224
REMARK INTER + INTRA:          -5.532
REMARK INTER:                  -4.905
REMARK INTRA:                  -0.627
REMARK UNBOUND:                -0.438
REMARK SMILES CCCCCCCC(=O)[O-]
REMARK SMILES IDX 5 1 6 2 7 3 8 4 9 5 10 6 4 7 3 8 2 9 1 10
REMARK H PARENT
REMARK Flexibility Score: inf
ROOT
ATOM      1  C   UNL     1     -37.813  17.101 -30.164  1.00  0.00     0.000 C 
ENDROOT
BRANCH   1   2
ATOM      2  C   UNL     1     -36.584  17.541 -29.346  1.00  0.00     0.006 C 
BRANCH   2   3
ATOM      3  C   UNL     1     -36.911  17.800 -27.870  1.00  0.00     0.053 C 
BRANCH   3   4
ATOM      4  C   UNL     1     -36.099  18.944 -27.348  1.00  0.00     0.041 C 
ATOM      5  O   UNL     1     -35.715  18.954 -26.149  1.00  0.00    -0.550 OA
ATOM      6  O   UNL     1     -35.811  20.024 -28.171  1.00  0.00    -0.550 OA
ENDBRANCH   3   4
ENDBRANCH   2   3
ENDBRANCH   1   2
BRANCH   1   7
ATOM      7  C   UNL     1     -38.695  18.252 -30.682  1.00  0.00     0.000 C 
BRANCH   7   8
ATOM      8  C   UNL     1     -37.890  19.510 -31.039  1.00  0.00    -0.000 C 
BRANCH   8   9
ATOM      9  C   UNL     1     -38.555  20.767 -30.467  1.00  0.00    -0.003 C 
ATOM     10  C   UNL     1     -39.254  20.467 -29.144  1.00  0.00     0.004 C 
ENDBRANCH   8   9
ENDBRANCH   7   8
ENDBRANCH   1   7
TORSDOF 6
ENDMDL
MODEL 9
REMARK VINA RESULT:    -3.697      1.960      2.408
REMARK INTER + INTRA:          -5.431
REMARK INTER:                  -4.820
REMARK INTRA:                  -0.611
REMARK UNBOUND:                -0.438
REMARK SMILES CCCCCCCC(=O)[O-]
REMARK SMILES IDX 5 1 6 2 7 3 8 4 9 5 10 6 4 7 3 8 2 9 1 10
REMARK H PARENT
REMARK Flexibility Score: inf
ROOT
ATOM      1  C   UNL     1     -37.991  19.003 -27.761  1.00  0.00     0.000 C 
ENDROOT
BRANCH   1   2
ATOM      2  C   UNL     1     -39.015  19.164 -28.900  1.00  0.00     0.006 C 
BRANCH   2   3
ATOM      3  C   UNL     1     -38.987  20.560 -29.536  1.00  0.00     0.053 C 
BRANCH   3   4
ATOM      4  C   UNL     1     -37.743  20.740 -30.347  1.00  0.00     0.041 C 
ATOM      5  O   UNL     1     -37.477  19.944 -31.285  1.00  0.00    -0.550 OA
ATOM      6  O   UNL     1     -36.850  21.757 -30.034  1.00  0.00    -0.550 OA
ENDBRANCH   3   4
ENDBRANCH   2   3
ENDBRANCH   1   2
BRANCH   1   7
ATOM      7  C   UNL     1     -36.962  17.875 -27.966  1.00  0.00     0.000 C 
BRANCH   7   8
ATOM      8  C   UNL     1     -37.227  17.044 -29.230  1.00  0.00    -0.000 C 
BRANCH   8   9
ATOM      9  C   UNL     1     -35.943  16.866 -30.048  1.00  0.00    -0.003 C 
ATOM     10  C   UNL     1     -34.895  17.907 -29.664  1.00  0.00     0.004 C 
ENDBRANCH   8   9
ENDBRANCH   7   8
ENDBRANCH   1   7
TORSDOF 6
ENDMDL
