MODEL 1
REMARK VINA RESULT:    -6.718      0.000      0.000
REMARK INTER + INTRA:         -10.010
REMARK INTER:                  -9.467
REMARK INTRA:                  -0.543
REMARK UNBOUND:                -0.543
REMARK SMILES C[C@H](CO)CCC(=O)[C@H](C)[C@H]1C(=O)C[C@H]2[C@H]3CC=C4C[C@@H](O)CC[C@@]4(C)[C@@H]3CC[C@@]12C
REMARK SMILES IDX 6 1 5 2 2 3 1 4 3 5 4 6 7 8 8 9 9 10 10 11 11 12 12 13 30 14
REMARK SMILES IDX 13 15 14 16 15 17 29 18 31 19 16 20 28 21 27 22 17 23 25 24
REMARK SMILES IDX 18 25 19 26 24 27 26 28 20 29 23 30 21 31 22 32
REMARK H PARENT 4 7 22 33
REMARK Flexibility Score: inf
ROOT
ATOM      1  C   UNL     1     174.187 176.035 181.648  1.00  0.00     0.076 C 
ENDROOT
BRANCH   1   2
ATOM      2  C   UNL     1     175.436 176.787 182.160  1.00  0.00     0.013 C 
BRANCH   2   3
ATOM      3  C   UNL     1     176.780 176.552 181.415  1.00  0.00     0.012 C 
ATOM      4  C   UNL     1     177.041 177.575 180.300  1.00  0.00     0.010 C 
BRANCH   3   5
ATOM      5  C   UNL     1     176.957 175.108 180.903  1.00  0.00     0.159 C 
BRANCH   5   6
ATOM      6  O   UNL     1     177.247 175.092 179.531  1.00  0.00    -0.396 OA
ATOM      7  H   UNL     1     178.135 174.658 179.432  1.00  0.00     0.210 HD
ENDBRANCH   5   6
ENDBRANCH   3   5
ENDBRANCH   2   3
ENDBRANCH   1   2
BRANCH   1   8
ATOM      8  C   UNL     1     173.192 176.887 180.894  1.00  0.00     0.136 C 
ATOM      9  O   UNL     1     173.562 177.449 179.874  1.00  0.00    -0.299 OA
BRANCH   8  10
ATOM     10  C   UNL     1     171.786 177.169 181.408  1.00  0.00     0.064 C 
ATOM     11  C   UNL     1     171.852 177.817 182.806  1.00  0.00     0.017 C 
BRANCH  10  12
ATOM     12  C   UNL     1     170.851 175.915 181.266  1.00  0.00     0.072 C 
ATOM     13  C   UNL     1     170.565 175.125 182.506  1.00  0.00     0.137 C 
ATOM     14  C   UNL     1     169.423 176.154 180.673  1.00  0.00    -0.019 C 
ATOM     15  O   UNL     1     171.403 174.839 183.346  1.00  0.00    -0.299 OA
ATOM     16  C   UNL     1     169.183 174.578 182.538  1.00  0.00     0.080 C 
ATOM     17  C   UNL     1     168.650 174.882 181.126  1.00  0.00     0.007 C 
ATOM     18  C   UNL     1     168.744 177.417 181.282  1.00  0.00     0.008 C 
ATOM     19  C   UNL     1     169.493 176.252 179.130  1.00  0.00     0.012 C 
ATOM     20  C   UNL     1     167.097 174.968 180.981  1.00  0.00     0.001 C 
ATOM     21  C   UNL     1     167.243 177.495 181.001  1.00  0.00     0.005 C 
ATOM     22  C   UNL     1     166.493 176.267 181.575  1.00  0.00     0.003 C 
ATOM     23  C   UNL     1     166.416 173.711 181.558  1.00  0.00     0.031 C 
ATOM     24  C   UNL     1     164.927 176.330 181.366  1.00  0.00    -0.008 C 
ATOM     25  C   UNL     1     164.936 173.842 181.775  1.00  0.00    -0.027 C 
ATOM     26  C   UNL     1     164.285 175.021 181.838  1.00  0.00    -0.065 C 
ATOM     27  C   UNL     1     164.333 177.484 182.227  1.00  0.00     0.014 C 
ATOM     28  C   UNL     1     164.559 176.556 179.872  1.00  0.00     0.016 C 
ATOM     29  C   UNL     1     162.927 175.034 182.516  1.00  0.00     0.063 C 
ATOM     30  C   UNL     1     162.793 177.580 182.198  1.00  0.00     0.033 C 
ATOM     31  C   UNL     1     162.056 176.226 182.098  1.00  0.00     0.118 C 
BRANCH  31  32
ATOM     32  O   UNL     1     160.902 176.273 182.898  1.00  0.00    -0.393 OA
ATOM     33  H   UNL     1     160.125 176.341 182.284  1.00  0.00     0.210 HD
ENDBRANCH  31  32
ENDBRANCH  10  12
ENDBRANCH   8  10
ENDBRANCH   1   8
TORSDOF 8
ENDMDL
MODEL 2
REMARK VINA RESULT:    -6.602      2.815      5.340
REMARK INTER + INTRA:          -9.847
REMARK INTER:                  -8.880
REMARK INTRA:                  -0.968
REMARK UNBOUND:                -0.543
REMARK SMILES C[C@H](CO)CCC(=O)[C@H](C)[C@H]1C(=O)C[C@H]2[C@H]3CC=C4C[C@@H](O)CC[C@@]4(C)[C@@H]3CC[C@@]12C
REMARK SMILES IDX 6 1 5 2 2 3 1 4 3 5 4 6 7 8 8 9 9 10 10 11 11 12 12 13 30 14
REMARK SMILES IDX 13 15 14 16 15 17 29 18 31 19 16 20 28 21 27 22 17 23 25 24
REMARK SMILES IDX 18 25 19 26 24 27 26 28 20 29 23 30 21 31 22 32
REMARK H PARENT 4 7 22 33
REMARK Flexibility Score: inf
ROOT
ATOM      1  C   UNL     1     176.660 171.734 181.764  1.00  0.00     0.076 C 
ENDROOT
BRANCH   1   2
ATOM      2  C   UNL     1     176.355 170.978 180.451  1.00  0.00     0.013 C 
BRANCH   2   3
ATOM      3  C   UNL     1     174.887 170.980 179.939  1.00  0.00     0.012 C 
ATOM      4  C   UNL     1     174.153 169.657 180.200  1.00  0.00     0.010 C 
BRANCH   3   5
ATOM      5  C   UNL     1     174.749 171.417 178.466  1.00  0.00     0.159 C 
BRANCH   5   6
ATOM      6  O   UNL     1     175.793 170.899 177.687  1.00  0.00    -0.396 OA
ATOM      7  H   UNL     1     175.382 170.260 177.047  1.00  0.00     0.210 HD
ENDBRANCH   5   6
ENDBRANCH   3   5
ENDBRANCH   2   3
ENDBRANCH   1   2
BRANCH   1   8
ATOM      8  C   UNL     1     176.926 173.214 181.602  1.00  0.00     0.136 C 
ATOM      9  O   UNL     1     177.929 173.685 182.117  1.00  0.00    -0.299 OA
BRANCH   8  10
ATOM     10  C   UNL     1     175.944 174.163 180.925  1.00  0.00     0.064 C 
ATOM     11  C   UNL     1     176.703 175.160 180.027  1.00  0.00     0.017 C 
BRANCH  10  12
ATOM     12  C   UNL     1     174.931 174.783 181.953  1.00  0.00     0.072 C 
ATOM     13  C   UNL     1     174.875 176.276 182.049  1.00  0.00     0.137 C 
ATOM     14  C   UNL     1     173.425 174.391 181.794  1.00  0.00    -0.019 C 
ATOM     15  O   UNL     1     175.858 177.001 182.050  1.00  0.00    -0.299 OA
ATOM     16  C   UNL     1     173.504 176.789 182.309  1.00  0.00     0.080 C 
ATOM     17  C   UNL     1     172.697 175.509 182.595  1.00  0.00     0.007 C 
ATOM     18  C   UNL     1     172.966 174.437 180.306  1.00  0.00     0.008 C 
ATOM     19  C   UNL     1     173.165 172.996 182.411  1.00  0.00     0.012 C 
ATOM     20  C   UNL     1     171.158 175.599 182.350  1.00  0.00     0.001 C 
ATOM     21  C   UNL     1     171.446 174.404 180.138  1.00  0.00     0.005 C 
ATOM     22  C   UNL     1     170.770 175.603 180.849  1.00  0.00     0.003 C 
ATOM     23  C   UNL     1     170.547 176.803 183.096  1.00  0.00     0.031 C 
ATOM     24  C   UNL     1     169.202 175.650 180.652  1.00  0.00    -0.008 C 
ATOM     25  C   UNL     1     169.159 177.173 182.661  1.00  0.00    -0.027 C 
ATOM     26  C   UNL     1     168.604 176.781 181.496  1.00  0.00    -0.065 C 
ATOM     27  C   UNL     1     168.874 175.952 179.160  1.00  0.00     0.014 C 
ATOM     28  C   UNL     1     168.533 174.309 181.068  1.00  0.00     0.016 C 
ATOM     29  C   UNL     1     167.427 177.587 180.976  1.00  0.00     0.063 C 
ATOM     30  C   UNL     1     167.371 176.135 178.856  1.00  0.00     0.033 C 
ATOM     31  C   UNL     1     166.555 176.807 179.982  1.00  0.00     0.118 C 
BRANCH  31  32
ATOM     32  O   UNL     1     165.605 177.669 179.409  1.00  0.00    -0.393 OA
ATOM     33  H   UNL     1     165.177 178.166 180.153  1.00  0.00     0.210 HD
ENDBRANCH  31  32
ENDBRANCH  10  12
ENDBRANCH   8  10
ENDBRANCH   1   8
TORSDOF 8
ENDMDL
MODEL 3
REMARK VINA RESULT:    -6.557      9.116     13.353
REMARK INTER + INTRA:          -9.783
REMARK INTER:                  -9.023
REMARK INTRA:                  -0.760
REMARK UNBOUND:                -0.543
REMARK SMILES C[C@H](CO)CCC(=O)[C@H](C)[C@H]1C(=O)C[C@H]2[C@H]3CC=C4C[C@@H](O)CC[C@@]4(C)[C@@H]3CC[C@@]12C
REMARK SMILES IDX 6 1 5 2 2 3 1 4 3 5 4 6 7 8 8 9 9 10 10 11 11 12 12 13 30 14
REMARK SMILES IDX 13 15 14 16 15 17 29 18 31 19 16 20 28 21 27 22 17 23 25 24
REMARK SMILES IDX 18 25 19 26 24 27 26 28 20 29 23 30 21 31 22 32
REMARK H PARENT 4 7 22 33
REMARK Flexibility Score: inf
ROOT
ATOM      1  C   UNL     1     160.012 173.975 182.856  1.00  0.00     0.076 C 
ENDROOT
BRANCH   1   2
ATOM      2  C   UNL     1     160.125 175.489 182.563  1.00  0.00     0.013 C 
BRANCH   2   3
ATOM      3  C   UNL     1     161.501 176.034 182.089  1.00  0.00     0.012 C 
ATOM      4  C   UNL     1     161.802 177.448 182.605  1.00  0.00     0.010 C 
BRANCH   3   5
ATOM      5  C   UNL     1     161.710 175.938 180.563  1.00  0.00     0.159 C 
BRANCH   5   6
ATOM      6  O   UNL     1     160.502 176.123 179.877  1.00  0.00    -0.396 OA
ATOM      7  H   UNL     1     160.503 175.482 179.118  1.00  0.00     0.210 HD
ENDBRANCH   5   6
ENDBRANCH   3   5
ENDBRANCH   2   3
ENDBRANCH   1   2
BRANCH   1   8
ATOM      8  C   UNL     1     159.888 173.095 181.633  1.00  0.00     0.136 C 
ATOM      9  O   UNL     1     159.218 173.495 180.693  1.00  0.00    -0.299 OA
BRANCH   8  10
ATOM     10  C   UNL     1     160.464 171.686 181.564  1.00  0.00     0.064 C 
ATOM     11  C   UNL     1     162.001 171.746 181.450  1.00  0.00     0.017 C 
BRANCH  10  12
ATOM     12  C   UNL     1     159.721 170.804 180.498  1.00  0.00     0.072 C 
ATOM     13  C   UNL     1     160.460 170.479 179.237  1.00  0.00     0.137 C 
ATOM     14  C   UNL     1     159.206 169.403 180.967  1.00  0.00    -0.019 C 
ATOM     15  O   UNL     1     161.137 171.281 178.613  1.00  0.00    -0.299 OA
ATOM     16  C   UNL     1     160.158 169.117 178.724  1.00  0.00     0.080 C 
ATOM     17  C   UNL     1     158.997 168.651 179.621  1.00  0.00     0.007 C 
ATOM     18  C   UNL     1     160.268 168.649 181.822  1.00  0.00     0.008 C 
ATOM     19  C   UNL     1     157.875 169.552 181.743  1.00  0.00     0.012 C 
ATOM     20  C   UNL     1     158.808 167.106 179.752  1.00  0.00     0.001 C 
ATOM     21  C   UNL     1     159.956 167.163 182.006  1.00  0.00     0.005 C 
ATOM     22  C   UNL     1     159.877 166.426 180.646  1.00  0.00     0.003 C 
ATOM     23  C   UNL     1     158.722 166.439 178.364  1.00  0.00     0.031 C 
ATOM     24  C   UNL     1     159.619 164.873 180.785  1.00  0.00    -0.008 C 
ATOM     25  C   UNL     1     158.880 164.946 178.375  1.00  0.00    -0.027 C 
ATOM     26  C   UNL     1     159.419 164.252 179.398  1.00  0.00    -0.065 C 
ATOM     27  C   UNL     1     160.863 164.194 181.430  1.00  0.00     0.014 C 
ATOM     28  C   UNL     1     158.360 164.578 181.650  1.00  0.00     0.016 C 
ATOM     29  C   UNL     1     159.944 162.860 179.097  1.00  0.00     0.063 C 
ATOM     30  C   UNL     1     160.782 162.655 181.519  1.00  0.00     0.033 C 
ATOM     31  C   UNL     1     160.045 161.971 180.346  1.00  0.00     0.118 C 
BRANCH  31  32
ATOM     32  O   UNL     1     160.707 160.775 180.023  1.00  0.00    -0.393 OA
ATOM     33  H   UNL     1     161.571 161.026 179.604  1.00  0.00     0.210 HD
ENDBRANCH  31  32
ENDBRANCH  10  12
ENDBRANCH   8  10
ENDBRANCH   1   8
TORSDOF 8
ENDMDL
MODEL 4
REMARK VINA RESULT:    -6.429      1.824      9.743
REMARK INTER + INTRA:          -9.603
REMARK INTER:                  -9.138
REMARK INTRA:                  -0.465
REMARK UNBOUND:                -0.543
REMARK SMILES C[C@H](CO)CCC(=O)[C@H](C)[C@H]1C(=O)C[C@H]2[C@H]3CC=C4C[C@@H](O)CC[C@@]4(C)[C@@H]3CC[C@@]12C
REMARK SMILES IDX 6 1 5 2 2 3 1 4 3 5 4 6 7 8 8 9 9 10 10 11 11 12 12 13 30 14
REMARK SMILES IDX 13 15 14 16 15 17 29 18 31 19 16 20 28 21 27 22 17 23 25 24
REMARK SMILES IDX 18 25 19 26 24 27 26 28 20 29 23 30 21 31 22 32
REMARK H PARENT 4 7 22 33
REMARK Flexibility Score: inf
ROOT
ATOM      1  C   UNL     1     164.436 176.219 181.132  1.00  0.00     0.076 C 
ENDROOT
BRANCH   1   2
ATOM      2  C   UNL     1     163.402 176.033 182.265  1.00  0.00     0.013 C 
BRANCH   2   3
ATOM      3  C   UNL     1     162.033 176.755 182.122  1.00  0.00     0.012 C 
ATOM      4  C   UNL     1     161.981 178.105 182.851  1.00  0.00     0.010 C 
BRANCH   3   5
ATOM      5  C   UNL     1     160.826 175.870 182.495  1.00  0.00     0.159 C 
BRANCH   5   6
ATOM      6  O   UNL     1     160.142 175.442 181.348  1.00  0.00    -0.396 OA
ATOM      7  H   UNL     1     159.328 174.967 181.662  1.00  0.00     0.210 HD
ENDBRANCH   5   6
ENDBRANCH   3   5
ENDBRANCH   2   3
ENDBRANCH   1   2
BRANCH   1   8
ATOM      8  C   UNL     1     165.607 177.112 181.475  1.00  0.00     0.136 C 
ATOM      9  O   UNL     1     165.396 178.122 182.129  1.00  0.00    -0.299 OA
BRANCH   8  10
ATOM     10  C   UNL     1     167.016 176.870 180.948  1.00  0.00     0.064 C 
ATOM     11  C   UNL     1     166.958 176.362 179.493  1.00  0.00     0.017 C 
BRANCH  10  12
ATOM     12  C   UNL     1     167.875 176.018 181.950  1.00  0.00     0.072 C 
ATOM     13  C   UNL     1     168.068 174.568 181.629  1.00  0.00     0.137 C 
ATOM     14  C   UNL     1     169.334 176.507 182.232  1.00  0.00    -0.019 C 
ATOM     15  O   UNL     1     167.185 173.832 181.216  1.00  0.00    -0.299 OA
ATOM     16  C   UNL     1     169.411 174.063 182.019  1.00  0.00     0.080 C 
ATOM     17  C   UNL     1     170.010 175.234 182.819  1.00  0.00     0.007 C 
ATOM     18  C   UNL     1     170.069 176.927 180.925  1.00  0.00     0.008 C 
ATOM     19  C   UNL     1     169.323 177.665 183.258  1.00  0.00     0.012 C 
ATOM     20  C   UNL     1     171.569 175.290 182.893  1.00  0.00     0.001 C 
ATOM     21  C   UNL     1     171.582 177.077 181.100  1.00  0.00     0.005 C 
ATOM     22  C   UNL     1     172.233 175.752 181.570  1.00  0.00     0.003 C 
ATOM     23  C   UNL     1     172.150 173.948 183.380  1.00  0.00     0.031 C 
ATOM     24  C   UNL     1     173.806 175.837 181.705  1.00  0.00    -0.008 C 
ATOM     25  C   UNL     1     173.627 173.787 183.163  1.00  0.00    -0.027 C 
ATOM     26  C   UNL     1     174.348 174.534 182.303  1.00  0.00    -0.065 C 
ATOM     27  C   UNL     1     174.441 176.008 180.294  1.00  0.00     0.014 C 
ATOM     28  C   UNL     1     174.238 177.021 182.616  1.00  0.00     0.016 C 
ATOM     29  C   UNL     1     175.680 173.973 181.839  1.00  0.00     0.063 C 
ATOM     30  C   UNL     1     175.985 175.992 180.278  1.00  0.00     0.033 C 
ATOM     31  C   UNL     1     176.639 175.052 181.315  1.00  0.00     0.118 C 
BRANCH  31  32
ATOM     32  O   UNL     1     177.765 174.444 180.737  1.00  0.00    -0.393 OA
ATOM     33  H   UNL     1     177.443 173.905 179.969  1.00  0.00     0.210 HD
ENDBRANCH  31  32
ENDBRANCH  10  12
ENDBRANCH   8  10
ENDBRANCH   1   8
TORSDOF 8
ENDMDL
MODEL 5
REMARK VINA RESULT:    -6.423      7.692     11.951
REMARK INTER + INTRA:          -9.594
REMARK INTER:                  -8.679
REMARK INTRA:                  -0.916
REMARK UNBOUND:                -0.543
REMARK SMILES C[C@H](CO)CCC(=O)[C@H](C)[C@H]1C(=O)C[C@H]2[C@H]3CC=C4C[C@@H](O)CC[C@@]4(C)[C@@H]3CC[C@@]12C
REMARK SMILES IDX 6 1 5 2 2 3 1 4 3 5 4 6 7 8 8 9 9 10 10 11 11 12 12 13 30 14
REMARK SMILES IDX 13 15 14 16 15 17 29 18 31 19 16 20 28 21 27 22 17 23 25 24
REMARK SMILES IDX 18 25 19 26 24 27 26 28 20 29 23 30 21 31 22 32
REMARK H PARENT 4 7 22 33
REMARK Flexibility Score: inf
ROOT
ATOM      1  C   UNL     1     175.561 173.747 182.135  1.00  0.00     0.076 C 
ENDROOT
BRANCH   1   2
ATOM      2  C   UNL     1     176.510 174.817 182.721  1.00  0.00     0.013 C 
BRANCH   2   3
ATOM      3  C   UNL     1     175.977 176.272 182.837  1.00  0.00     0.012 C 
ATOM      4  C   UNL     1     174.487 176.401 182.491  1.00  0.00     0.010 C 
BRANCH   3   5
ATOM      5  C   UNL     1     176.823 177.303 182.062  1.00  0.00     0.159 C 
BRANCH   5   6
ATOM      6  O   UNL     1     177.090 176.857 180.759  1.00  0.00    -0.396 OA
ATOM      7  H   UNL     1     177.718 176.092 180.842  1.00  0.00     0.210 HD
ENDBRANCH   5   6
ENDBRANCH   3   5
ENDBRANCH   2   3
ENDBRANCH   1   2
BRANCH   1   8
ATOM      8  C   UNL     1     175.882 173.312 180.723  1.00  0.00     0.136 C 
ATOM      9  O   UNL     1     176.005 174.172 179.863  1.00  0.00    -0.299 OA
BRANCH   8  10
ATOM     10  C   UNL     1     175.945 171.850 180.300  1.00  0.00     0.064 C 
ATOM     11  C   UNL     1     175.336 171.678 178.893  1.00  0.00     0.017 C 
BRANCH  10  12
ATOM     12  C   UNL     1     175.396 170.895 181.420  1.00  0.00     0.072 C 
ATOM     13  C   UNL     1     174.044 170.288 181.203  1.00  0.00     0.137 C 
ATOM     14  C   UNL     1     176.275 169.657 181.794  1.00  0.00    -0.019 C 
ATOM     15  O   UNL     1     173.081 170.896 180.762  1.00  0.00    -0.299 OA
ATOM     16  C   UNL     1     173.940 168.903 181.734  1.00  0.00     0.080 C 
ATOM     17  C   UNL     1     175.257 168.724 182.512  1.00  0.00     0.007 C 
ATOM     18  C   UNL     1     176.835 168.938 180.531  1.00  0.00     0.008 C 
ATOM     19  C   UNL     1     177.420 170.079 182.745  1.00  0.00     0.012 C 
ATOM     20  C   UNL     1     175.740 167.252 182.713  1.00  0.00     0.001 C 
ATOM     21  C   UNL     1     177.399 167.546 180.824  1.00  0.00     0.005 C 
ATOM     22  C   UNL     1     176.320 166.611 181.426  1.00  0.00     0.003 C 
ATOM     23  C   UNL     1     174.626 166.382 183.327  1.00  0.00     0.031 C 
ATOM     24  C   UNL     1     176.837 165.140 181.689  1.00  0.00    -0.008 C 
ATOM     25  C   UNL     1     174.868 164.902 183.246  1.00  0.00    -0.027 C 
ATOM     26  C   UNL     1     175.754 164.328 182.406  1.00  0.00    -0.065 C 
ATOM     27  C   UNL     1     177.128 164.440 180.328  1.00  0.00     0.014 C 
ATOM     28  C   UNL     1     178.125 165.135 182.560  1.00  0.00     0.016 C 
ATOM     29  C   UNL     1     175.564 162.855 182.091  1.00  0.00     0.063 C 
ATOM     30  C   UNL     1     177.534 162.955 180.444  1.00  0.00     0.033 C 
ATOM     31  C   UNL     1     176.845 162.177 181.587  1.00  0.00     0.118 C 
BRANCH  31  32
ATOM     32  O   UNL     1     176.549 160.877 181.143  1.00  0.00    -0.393 OA
ATOM     33  H   UNL     1     175.697 160.610 181.575  1.00  0.00     0.210 HD
ENDBRANCH  31  32
ENDBRANCH  10  12
ENDBRANCH   8  10
ENDBRANCH   1   8
TORSDOF 8
ENDMDL
MODEL 6
REMARK VINA RESULT:    -6.321      2.261      9.772
REMARK INTER + INTRA:          -9.450
REMARK INTER:                  -8.319
REMARK INTRA:                  -1.131
REMARK UNBOUND:                -0.543
REMARK SMILES C[C@H](CO)CCC(=O)[C@H](C)[C@H]1C(=O)C[C@H]2[C@H]3CC=C4C[C@@H](O)CC[C@@]4(C)[C@@H]3CC[C@@]12C
REMARK SMILES IDX 6 1 5 2 2 3 1 4 3 5 4 6 7 8 8 9 9 10 10 11 11 12 12 13 30 14
REMARK SMILES IDX 13 15 14 16 15 17 29 18 31 19 16 20 28 21 27 22 17 23 25 24
REMARK SMILES IDX 18 25 19 26 24 27 26 28 20 29 23 30 21 31 22 32
REMARK H PARENT 4 7 22 33
REMARK Flexibility Score: inf
ROOT
ATOM      1  C   UNL     1     161.103 176.162 182.126  1.00  0.00     0.076 C 
ENDROOT
BRANCH   1   2
ATOM      2  C   UNL     1     159.922 175.201 182.390  1.00  0.00     0.013 C 
BRANCH   2   3
ATOM      3  C   UNL     1     160.208 173.674 182.352  1.00  0.00     0.012 C 
ATOM      4  C   UNL     1     161.655 173.319 182.721  1.00  0.00     0.010 C 
BRANCH   3   5
ATOM      5  C   UNL     1     159.785 173.000 181.030  1.00  0.00     0.159 C 
BRANCH   5   6
ATOM      6  O   UNL     1     158.964 173.848 180.273  1.00  0.00    -0.396 OA
ATOM      7  H   UNL     1     158.139 173.997 180.805  1.00  0.00     0.210 HD
ENDBRANCH   5   6
ENDBRANCH   3   5
ENDBRANCH   2   3
ENDBRANCH   1   2
BRANCH   1   8
ATOM      8  C   UNL     1     161.432 176.384 180.667  1.00  0.00     0.136 C 
ATOM      9  O   UNL     1     160.526 176.318 179.850  1.00  0.00    -0.299 OA
BRANCH   8  10
ATOM     10  C   UNL     1     162.855 176.573 180.157  1.00  0.00     0.064 C 
ATOM     11  C   UNL     1     162.845 176.822 178.635  1.00  0.00     0.017 C 
BRANCH  10  12
ATOM     12  C   UNL     1     163.813 175.438 180.672  1.00  0.00     0.072 C 
ATOM     13  C   UNL     1     164.427 174.538 179.645  1.00  0.00     0.137 C 
ATOM     14  C   UNL     1     165.047 175.881 181.525  1.00  0.00    -0.019 C 
ATOM     15  O   UNL     1     163.824 174.076 178.688  1.00  0.00    -0.299 OA
ATOM     16  C   UNL     1     165.812 174.125 179.991  1.00  0.00     0.080 C 
ATOM     17  C   UNL     1     165.985 174.643 181.430  1.00  0.00     0.007 C 
ATOM     18  C   UNL     1     165.764 177.121 180.912  1.00  0.00     0.008 C 
ATOM     19  C   UNL     1     164.619 176.155 182.986  1.00  0.00     0.012 C 
ATOM     20  C   UNL     1     167.454 174.893 181.898  1.00  0.00     0.001 C 
ATOM     21  C   UNL     1     167.152 177.374 181.502  1.00  0.00     0.005 C 
ATOM     22  C   UNL     1     168.092 176.163 181.279  1.00  0.00     0.003 C 
ATOM     23  C   UNL     1     168.331 173.646 181.663  1.00  0.00     0.031 C 
ATOM     24  C   UNL     1     169.561 176.399 181.816  1.00  0.00    -0.008 C 
ATOM     25  C   UNL     1     169.809 173.890 181.759  1.00  0.00    -0.027 C 
ATOM     26  C   UNL     1     170.379 175.110 181.679  1.00  0.00    -0.065 C 
ATOM     27  C   UNL     1     170.260 177.493 180.956  1.00  0.00     0.014 C 
ATOM     28  C   UNL     1     169.560 176.834 183.309  1.00  0.00     0.016 C 
ATOM     29  C   UNL     1     171.852 175.170 181.320  1.00  0.00     0.063 C 
ATOM     30  C   UNL     1     171.743 177.738 181.308  1.00  0.00     0.033 C 
ATOM     31  C   UNL     1     172.524 176.482 181.751  1.00  0.00     0.118 C 
BRANCH  31  32
ATOM     32  O   UNL     1     173.825 176.542 181.225  1.00  0.00    -0.393 OA
ATOM     33  H   UNL     1     174.230 175.644 181.346  1.00  0.00     0.210 HD
ENDBRANCH  31  32
ENDBRANCH  10  12
ENDBRANCH   8  10
ENDBRANCH   1   8
TORSDOF 8
ENDMDL
MODEL 7
REMARK VINA RESULT:    -6.258      7.858     11.785
REMARK INTER + INTRA:          -9.361
REMARK INTER:                  -8.298
REMARK INTRA:                  -1.063
REMARK UNBOUND:                -0.543
REMARK SMILES C[C@H](CO)CCC(=O)[C@H](C)[C@H]1C(=O)C[C@H]2[C@H]3CC=C4C[C@@H](O)CC[C@@]4(C)[C@@H]3CC[C@@]12C
REMARK SMILES IDX 6 1 5 2 2 3 1 4 3 5 4 6 7 8 8 9 9 10 10 11 11 12 12 13 30 14
REMARK SMILES IDX 13 15 14 16 15 17 29 18 31 19 16 20 28 21 27 22 17 23 25 24
REMARK SMILES IDX 18 25 19 26 24 27 26 28 20 29 23 30 21 31 22 32
REMARK H PARENT 4 7 22 33
REMARK Flexibility Score: inf
ROOT
ATOM      1  C   UNL     1     175.799 164.198 180.626  1.00  0.00     0.076 C 
ENDROOT
BRANCH   1   2
ATOM      2  C   UNL     1     175.557 163.454 181.959  1.00  0.00     0.013 C 
BRANCH   2   3
ATOM      3  C   UNL     1     176.340 162.135 182.205  1.00  0.00     0.012 C 
ATOM      4  C   UNL     1     177.704 162.356 182.873  1.00  0.00     0.010 C 
BRANCH   3   5
ATOM      5  C   UNL     1     176.468 161.250 180.948  1.00  0.00     0.159 C 
BRANCH   5   6
ATOM      6  O   UNL     1     177.751 161.348 180.392  1.00  0.00    -0.396 OA
ATOM      7  H   UNL     1     178.073 160.419 180.250  1.00  0.00     0.210 HD
ENDBRANCH   5   6
ENDBRANCH   3   5
ENDBRANCH   2   3
ENDBRANCH   1   2
BRANCH   1   8
ATOM      8  C   UNL     1     177.108 164.949 180.542  1.00  0.00     0.136 C 
ATOM      9  O   UNL     1     178.071 164.386 180.044  1.00  0.00    -0.299 OA
BRANCH   8  10
ATOM     10  C   UNL     1     177.311 166.331 181.151  1.00  0.00     0.064 C 
ATOM     11  C   UNL     1     178.117 166.220 182.461  1.00  0.00     0.017 C 
BRANCH  10  12
ATOM     12  C   UNL     1     175.965 167.137 181.228  1.00  0.00     0.072 C 
ATOM     13  C   UNL     1     175.374 167.363 182.586  1.00  0.00     0.137 C 
ATOM     14  C   UNL     1     175.958 168.572 180.605  1.00  0.00    -0.019 C 
ATOM     15  O   UNL     1     175.320 166.513 183.461  1.00  0.00    -0.299 OA
ATOM     16  C   UNL     1     174.708 168.685 182.714  1.00  0.00     0.080 C 
ATOM     17  C   UNL     1     174.712 169.224 181.272  1.00  0.00     0.007 C 
ATOM     18  C   UNL     1     177.233 169.380 180.990  1.00  0.00     0.008 C 
ATOM     19  C   UNL     1     175.797 168.490 179.069  1.00  0.00     0.012 C 
ATOM     20  C   UNL     1     174.619 170.776 181.118  1.00  0.00     0.001 C 
ATOM     21  C   UNL     1     177.113 170.878 180.703  1.00  0.00     0.005 C 
ATOM     22  C   UNL     1     175.934 171.512 181.481  1.00  0.00     0.003 C 
ATOM     23  C   UNL     1     173.417 171.340 181.903  1.00  0.00     0.031 C 
ATOM     24  C   UNL     1     175.805 173.074 181.268  1.00  0.00    -0.008 C 
ATOM     25  C   UNL     1     173.437 172.828 182.098  1.00  0.00    -0.027 C 
ATOM     26  C   UNL     1     174.540 173.592 181.959  1.00  0.00    -0.065 C 
ATOM     27  C   UNL     1     177.025 173.790 181.919  1.00  0.00     0.014 C 
ATOM     28  C   UNL     1     175.735 173.440 179.758  1.00  0.00     0.016 C 
ATOM     29  C   UNL     1     174.534 174.955 182.628  1.00  0.00     0.063 C 
ATOM     30  C   UNL     1     176.963 175.332 181.877  1.00  0.00     0.033 C 
ATOM     31  C   UNL     1     175.546 175.932 182.013  1.00  0.00     0.118 C 
BRANCH  31  32
ATOM     32  O   UNL     1     175.615 177.097 182.795  1.00  0.00    -0.393 OA
ATOM     33  H   UNL     1     175.331 176.847 183.713  1.00  0.00     0.210 HD
ENDBRANCH  31  32
ENDBRANCH  10  12
ENDBRANCH   8  10
ENDBRANCH   1   8
TORSDOF 8
ENDMDL
MODEL 8
REMARK VINA RESULT:    -6.221      1.793      3.045
REMARK INTER + INTRA:          -9.310
REMARK INTER:                  -8.623
REMARK INTRA:                  -0.687
REMARK UNBOUND:                -0.543
REMARK SMILES C[C@H](CO)CCC(=O)[C@H](C)[C@H]1C(=O)C[C@H]2[C@H]3CC=C4C[C@@H](O)CC[C@@]4(C)[C@@H]3CC[C@@]12C
REMARK SMILES IDX 6 1 5 2 2 3 1 4 3 5 4 6 7 8 8 9 9 10 10 11 11 12 12 13 30 14
REMARK SMILES IDX 13 15 14 16 15 17 29 18 31 19 16 20 28 21 27 22 17 23 25 24
REMARK SMILES IDX 18 25 19 26 24 27 26 28 20 29 23 30 21 31 22 32
REMARK H PARENT 4 7 22 33
REMARK Flexibility Score: inf
ROOT
ATOM      1  C   UNL     1     174.743 174.422 182.908  1.00  0.00     0.076 C 
ENDROOT
BRANCH   1   2
ATOM      2  C   UNL     1     176.243 174.789 182.850  1.00  0.00     0.013 C 
BRANCH   2   3
ATOM      3  C   UNL     1     177.016 174.471 181.539  1.00  0.00     0.012 C 
ATOM      4  C   UNL     1     176.979 175.619 180.521  1.00  0.00     0.010 C 
BRANCH   3   5
ATOM      5  C   UNL     1     176.605 173.133 180.890  1.00  0.00     0.159 C 
BRANCH   5   6
ATOM      6  O   UNL     1     176.629 173.224 179.491  1.00  0.00    -0.396 OA
ATOM      7  H   UNL     1     175.736 173.559 179.211  1.00  0.00     0.210 HD
ENDBRANCH   5   6
ENDBRANCH   3   5
ENDBRANCH   2   3
ENDBRANCH   1   2
BRANCH   1   8
ATOM      8  C   UNL     1     173.804 175.485 182.385  1.00  0.00     0.136 C 
ATOM      9  O   UNL     1     174.010 176.648 182.698  1.00  0.00    -0.299 OA
BRANCH   8  10
ATOM     10  C   UNL     1     172.550 175.161 181.583  1.00  0.00     0.064 C 
ATOM     11  C   UNL     1     172.925 174.825 180.125  1.00  0.00     0.017 C 
BRANCH  10  12
ATOM     12  C   UNL     1     171.434 176.249 181.782  1.00  0.00     0.072 C 
ATOM     13  C   UNL     1     171.179 177.190 180.646  1.00  0.00     0.137 C 
ATOM     14  C   UNL     1     169.998 175.739 182.136  1.00  0.00    -0.019 C 
ATOM     15  O   UNL     1     172.058 177.713 179.978  1.00  0.00    -0.299 OA
ATOM     16  C   UNL     1     169.746 177.558 180.509  1.00  0.00     0.080 C 
ATOM     17  C   UNL     1     169.106 176.962 181.776  1.00  0.00     0.007 C 
ATOM     18  C   UNL     1     169.581 174.519 181.261  1.00  0.00     0.008 C 
ATOM     19  C   UNL     1     169.906 175.397 183.643  1.00  0.00     0.012 C 
ATOM     20  C   UNL     1     167.576 176.661 181.696  1.00  0.00     0.001 C 
ATOM     21  C   UNL     1     168.084 174.210 181.323  1.00  0.00     0.005 C 
ATOM     22  C   UNL     1     167.236 175.413 180.841  1.00  0.00     0.003 C 
ATOM     23  C   UNL     1     166.790 177.901 181.226  1.00  0.00     0.031 C 
ATOM     24  C   UNL     1     165.682 175.122 180.826  1.00  0.00    -0.008 C 
ATOM     25  C   UNL     1     165.379 177.625 180.794  1.00  0.00    -0.027 C 
ATOM     26  C   UNL     1     164.915 176.400 180.471  1.00  0.00    -0.065 C 
ATOM     27  C   UNL     1     165.362 174.061 179.732  1.00  0.00     0.014 C 
ATOM     28  C   UNL     1     165.184 174.609 182.207  1.00  0.00     0.016 C 
ATOM     29  C   UNL     1     163.659 176.331 179.622  1.00  0.00     0.063 C 
ATOM     30  C   UNL     1     163.858 173.770 179.539  1.00  0.00     0.033 C 
ATOM     31  C   UNL     1     162.927 174.986 179.738  1.00  0.00     0.118 C 
BRANCH  31  32
ATOM     32  O   UNL     1     161.890 174.929 178.792  1.00  0.00    -0.393 OA
ATOM     33  H   UNL     1     161.601 175.863 178.620  1.00  0.00     0.210 HD
ENDBRANCH  31  32
ENDBRANCH  10  12
ENDBRANCH   8  10
ENDBRANCH   1   8
TORSDOF 8
ENDMDL
MODEL 9
REMARK VINA RESULT:    -6.155      8.221     11.988
REMARK INTER + INTRA:          -9.217
REMARK INTER:                  -8.189
REMARK INTRA:                  -1.028
REMARK UNBOUND:                -0.543
REMARK SMILES C[C@H](CO)CCC(=O)[C@H](C)[C@H]1C(=O)C[C@H]2[C@H]3CC=C4C[C@@H](O)CC[C@@]4(C)[C@@H]3CC[C@@]12C
REMARK SMILES IDX 6 1 5 2 2 3 1 4 3 5 4 6 7 8 8 9 9 10 10 11 11 12 12 13 30 14
REMARK SMILES IDX 13 15 14 16 15 17 29 18 31 19 16 20 28 21 27 22 17 23 25 24
REMARK SMILES IDX 18 25 19 26 24 27 26 28 20 29 23 30 21 31 22 32
REMARK H PARENT 4 7 22 33
REMARK Flexibility Score: inf
ROOT
ATOM      1  C   UNL     1     160.188 173.772 181.467  1.00  0.00     0.076 C 
ENDROOT
BRANCH   1   2
ATOM      2  C   UNL     1     160.093 175.114 182.227  1.00  0.00     0.013 C 
BRANCH   2   3
ATOM      3  C   UNL     1     161.386 175.966 182.358  1.00  0.00     0.012 C 
ATOM      4  C   UNL     1     161.574 176.964 181.207  1.00  0.00     0.010 C 
BRANCH   3   5
ATOM      5  C   UNL     1     162.659 175.124 182.583  1.00  0.00     0.159 C 
BRANCH   5   6
ATOM      6  O   UNL     1     163.459 175.105 181.431  1.00  0.00    -0.396 OA
ATOM      7  H   UNL     1     163.572 176.049 181.146  1.00  0.00     0.210 HD
ENDBRANCH   5   6
ENDBRANCH   3   5
ENDBRANCH   2   3
ENDBRANCH   1   2
BRANCH   1   8
ATOM      8  C   UNL     1     159.699 173.810 180.037  1.00  0.00     0.136 C 
ATOM      9  O   UNL     1     158.500 173.930 179.835  1.00  0.00    -0.299 OA
BRANCH   8  10
ATOM     10  C   UNL     1     160.617 173.591 178.841  1.00  0.00     0.064 C 
ATOM     11  C   UNL     1     161.851 172.767 179.263  1.00  0.00     0.017 C 
BRANCH  10  12
ATOM     12  C   UNL     1     160.904 174.931 178.073  1.00  0.00     0.072 C 
ATOM     13  C   UNL     1     162.337 175.298 177.841  1.00  0.00     0.137 C 
ATOM     14  C   UNL     1     160.273 175.085 176.650  1.00  0.00    -0.019 C 
ATOM     15  O   UNL     1     163.219 175.182 178.678  1.00  0.00    -0.299 OA
ATOM     16  C   UNL     1     162.557 175.977 176.537  1.00  0.00     0.080 C 
ATOM     17  C   UNL     1     161.127 176.225 176.023  1.00  0.00     0.007 C 
ATOM     18  C   UNL     1     160.434 173.790 175.799  1.00  0.00     0.008 C 
ATOM     19  C   UNL     1     158.785 175.492 176.763  1.00  0.00     0.012 C 
ATOM     20  C   UNL     1     160.972 176.391 174.478  1.00  0.00     0.001 C 
ATOM     21  C   UNL     1     160.153 174.002 174.310  1.00  0.00     0.005 C 
ATOM     22  C   UNL     1     161.106 175.059 173.697  1.00  0.00     0.003 C 
ATOM     23  C   UNL     1     161.936 177.465 173.936  1.00  0.00     0.031 C 
ATOM     24  C   UNL     1     160.897 175.269 172.144  1.00  0.00    -0.008 C 
ATOM     25  C   UNL     1     162.107 177.461 172.444  1.00  0.00    -0.027 C 
ATOM     26  C   UNL     1     161.780 176.420 171.651  1.00  0.00    -0.065 C 
ATOM     27  C   UNL     1     161.332 173.982 171.381  1.00  0.00     0.014 C 
ATOM     28  C   UNL     1     159.415 175.596 171.806  1.00  0.00     0.016 C 
ATOM     29  C   UNL     1     162.425 176.360 170.278  1.00  0.00     0.063 C 
ATOM     30  C   UNL     1     161.282 174.099 169.843  1.00  0.00     0.033 C 
ATOM     31  C   UNL     1     161.641 175.493 169.282  1.00  0.00     0.118 C 
BRANCH  31  32
ATOM     32  O   UNL     1     162.387 175.335 168.103  1.00  0.00    -0.393 OA
ATOM     33  H   UNL     1     161.756 175.040 167.396  1.00  0.00     0.210 HD
ENDBRANCH  31  32
ENDBRANCH  10  12
ENDBRANCH   8  10
ENDBRANCH   1   8
TORSDOF 8
ENDMDL
