MODEL 1
REMARK VINA RESULT:    -3.971      0.000      0.000
REMARK INTER + INTRA:          -6.110
REMARK INTER:                  -5.827
REMARK INTRA:                  -0.283
REMARK UNBOUND:                -0.283
REMARK SMILES O=C([O-])CCCCCCCC(=O)[O-]
REMARK SMILES IDX 7 1 6 2 5 3 4 4 2 5 1 6 3 7 8 8 9 9 10 10 11 11 12 12 13 13
REMARK H PARENT
REMARK Flexibility Score: inf
ROOT
ATOM      1  C   UNL     1       0.477  -2.994   1.138  1.00  0.00     0.000 C 
ENDROOT
BRANCH   1   2
ATOM      2  C   UNL     1      -0.640  -2.858   0.089  1.00  0.00     0.000 C 
BRANCH   2   3
ATOM      3  C   UNL     1      -1.866  -2.103   0.622  1.00  0.00     0.006 C 
BRANCH   3   4
ATOM      4  C   UNL     1      -2.665  -2.973   1.598  1.00  0.00     0.053 C 
BRANCH   4   5
ATOM      5  C   UNL     1      -4.026  -2.397   1.822  1.00  0.00     0.041 C 
ATOM      6  O   UNL     1      -5.040  -2.953   1.323  1.00  0.00    -0.550 OA
ATOM      7  O   UNL     1      -4.183  -1.273   2.624  1.00  0.00    -0.550 OA
ENDBRANCH   4   5
ENDBRANCH   3   4
ENDBRANCH   2   3
ENDBRANCH   1   2
BRANCH   1   8
ATOM      8  C   UNL     1       0.769  -4.461   1.502  1.00  0.00     0.000 C 
BRANCH   8   9
ATOM      9  C   UNL     1       2.274  -4.775   1.524  1.00  0.00     0.006 C 
BRANCH   9  10
ATOM     10  C   UNL     1       3.126  -3.562   1.917  1.00  0.00     0.053 C 
BRANCH  10  11
ATOM     11  C   UNL     1       3.993  -3.892   3.092  1.00  0.00     0.041 C 
ATOM     12  O   UNL     1       4.434  -5.061   3.245  1.00  0.00    -0.550 OA
ATOM     13  O   UNL     1       4.354  -2.896   3.991  1.00  0.00    -0.550 OA
ENDBRANCH  10  11
ENDBRANCH   9  10
ENDBRANCH   8   9
ENDBRANCH   1   8
TORSDOF 8
ENDMDL
MODEL 2
REMARK VINA RESULT:    -3.917      3.595      8.419
REMARK INTER + INTRA:          -6.032
REMARK INTER:                  -5.680
REMARK INTRA:                  -0.352
REMARK UNBOUND:                -0.283
REMARK SMILES O=C([O-])CCCCCCCC(=O)[O-]
REMARK SMILES IDX 7 1 6 2 5 3 4 4 2 5 1 6 3 7 8 8 9 9 10 10 11 11 12 12 13 13
REMARK H PARENT
REMARK Flexibility Score: inf
ROOT
ATOM      1  C   UNL     1      -4.314  -4.040   2.147  1.00  0.00     0.000 C 
ENDROOT
BRANCH   1   2
ATOM      2  C   UNL     1      -4.397  -2.550   1.777  1.00  0.00     0.000 C 
BRANCH   2   3
ATOM      3  C   UNL     1      -3.042  -1.968   1.349  1.00  0.00     0.006 C 
BRANCH   3   4
ATOM      4  C   UNL     1      -1.944  -3.034   1.409  1.00  0.00     0.053 C 
BRANCH   4   5
ATOM      5  C   UNL     1      -0.801  -2.663   0.519  1.00  0.00     0.041 C 
ATOM      6  O   UNL     1       0.370  -2.609   0.980  1.00  0.00    -0.550 OA
ATOM      7  O   UNL     1      -1.021  -2.424  -0.832  1.00  0.00    -0.550 OA
ENDBRANCH   4   5
ENDBRANCH   3   4
ENDBRANCH   2   3
ENDBRANCH   1   2
BRANCH   1   8
ATOM      8  C   UNL     1      -5.256  -4.913   1.298  1.00  0.00     0.000 C 
BRANCH   8   9
ATOM      9  C   UNL     1      -6.454  -4.124   0.746  1.00  0.00     0.006 C 
BRANCH   9  10
ATOM     10  C   UNL     1      -7.618  -5.030   0.327  1.00  0.00     0.053 C 
BRANCH  10  11
ATOM     11  C   UNL     1      -8.704  -4.223  -0.313  1.00  0.00     0.041 C 
ATOM     12  O   UNL     1      -9.907  -4.570  -0.190  1.00  0.00    -0.550 OA
ATOM     13  O   UNL     1      -8.390  -3.059  -1.003  1.00  0.00    -0.550 OA
ENDBRANCH  10  11
ENDBRANCH   9  10
ENDBRANCH   8   9
ENDBRANCH   1   8
TORSDOF 8
ENDMDL
MODEL 3
REMARK VINA RESULT:    -3.863      0.533      7.029
REMARK INTER + INTRA:          -5.953
REMARK INTER:                  -5.678
REMARK INTRA:                  -0.275
REMARK UNBOUND:                -0.283
REMARK SMILES O=C([O-])CCCCCCCC(=O)[O-]
REMARK SMILES IDX 7 1 6 2 5 3 4 4 2 5 1 6 3 7 8 8 9 9 10 10 11 11 12 12 13 13
REMARK H PARENT
REMARK Flexibility Score: inf
ROOT
ATOM      1  C   UNL     1       0.088  -3.947   1.492  1.00  0.00     0.000 C 
ENDROOT
BRANCH   1   2
ATOM      2  C   UNL     1       1.249  -4.783   0.929  1.00  0.00     0.000 C 
BRANCH   2   3
ATOM      3  C   UNL     1       2.440  -4.873   1.894  1.00  0.00     0.006 C 
BRANCH   3   4
ATOM      4  C   UNL     1       3.210  -3.549   1.938  1.00  0.00     0.053 C 
BRANCH   4   5
ATOM      5  C   UNL     1       4.285  -3.602   2.977  1.00  0.00     0.041 C 
ATOM      6  O   UNL     1       4.401  -2.670   3.816  1.00  0.00    -0.550 OA
ATOM      7  O   UNL     1       5.128  -4.704   3.051  1.00  0.00    -0.550 OA
ENDBRANCH   4   5
ENDBRANCH   3   4
ENDBRANCH   2   3
ENDBRANCH   1   2
BRANCH   1   8
ATOM      8  C   UNL     1      -0.140  -2.645   0.703  1.00  0.00     0.000 C 
BRANCH   8   9
ATOM      9  C   UNL     1      -1.621  -2.233   0.660  1.00  0.00     0.006 C 
BRANCH   9  10
ATOM     10  C   UNL     1      -2.518  -3.162   1.487  1.00  0.00     0.053 C 
BRANCH  10  11
ATOM     11  C   UNL     1      -3.857  -2.532   1.709  1.00  0.00     0.041 C 
ATOM     12  O   UNL     1      -3.939  -1.368   2.183  1.00  0.00    -0.550 OA
ATOM     13  O   UNL     1      -5.014  -3.210   1.345  1.00  0.00    -0.550 OA
ENDBRANCH  10  11
ENDBRANCH   9  10
ENDBRANCH   8   9
ENDBRANCH   1   8
TORSDOF 8
ENDMDL
MODEL 4
REMARK VINA RESULT:    -3.830      3.666      5.628
REMARK INTER + INTRA:          -5.904
REMARK INTER:                  -5.545
REMARK INTRA:                  -0.359
REMARK UNBOUND:                -0.283
REMARK SMILES O=C([O-])CCCCCCCC(=O)[O-]
REMARK SMILES IDX 7 1 6 2 5 3 4 4 2 5 1 6 3 7 8 8 9 9 10 10 11 11 12 12 13 13
REMARK H PARENT
REMARK Flexibility Score: inf
ROOT
ATOM      1  C   UNL     1      -4.246  -4.378   1.753  1.00  0.00     0.000 C 
ENDROOT
BRANCH   1   2
ATOM      2  C   UNL     1      -5.339  -5.030   0.889  1.00  0.00     0.000 C 
BRANCH   2   3
ATOM      3  C   UNL     1      -6.558  -4.118   0.686  1.00  0.00     0.006 C 
BRANCH   3   4
ATOM      4  C   UNL     1      -7.843  -4.943   0.559  1.00  0.00     0.053 C 
BRANCH   4   5
ATOM      5  C   UNL     1      -8.690  -4.425  -0.560  1.00  0.00     0.041 C 
ATOM      6  O   UNL     1      -9.903  -4.150  -0.361  1.00  0.00    -0.550 OA
ATOM      7  O   UNL     1      -8.129  -4.199  -1.811  1.00  0.00    -0.550 OA
ENDBRANCH   4   5
ENDBRANCH   3   4
ENDBRANCH   2   3
ENDBRANCH   1   2
BRANCH   1   8
ATOM      8  C   UNL     1      -4.346  -2.842   1.772  1.00  0.00     0.000 C 
BRANCH   8   9
ATOM      9  C   UNL     1      -3.023  -2.160   1.388  1.00  0.00     0.006 C 
BRANCH   9  10
ATOM     10  C   UNL     1      -1.818  -3.103   1.491  1.00  0.00     0.053 C 
BRANCH  10  11
ATOM     11  C   UNL     1      -0.742  -2.680   0.542  1.00  0.00     0.041 C 
ATOM     12  O   UNL     1       0.445  -2.561   0.942  1.00  0.00    -0.550 OA
ATOM     13  O   UNL     1      -1.041  -2.466  -0.798  1.00  0.00    -0.550 OA
ENDBRANCH  10  11
ENDBRANCH   9  10
ENDBRANCH   8   9
ENDBRANCH   1   8
TORSDOF 8
ENDMDL
MODEL 5
REMARK VINA RESULT:    -3.794      4.974     10.081
REMARK INTER + INTRA:          -5.851
REMARK INTER:                  -5.467
REMARK INTRA:                  -0.385
REMARK UNBOUND:                -0.283
REMARK SMILES O=C([O-])CCCCCCCC(=O)[O-]
REMARK SMILES IDX 7 1 6 2 5 3 4 4 2 5 1 6 3 7 8 8 9 9 10 10 11 11 12 12 13 13
REMARK H PARENT
REMARK Flexibility Score: inf
ROOT
ATOM      1  C   UNL     1      -7.548  -5.280   0.663  1.00  0.00     0.000 C 
ENDROOT
BRANCH   1   2
ATOM      2  C   UNL     1      -6.217  -5.129   1.419  1.00  0.00     0.000 C 
BRANCH   2   3
ATOM      3  C   UNL     1      -5.558  -3.760   1.195  1.00  0.00     0.006 C 
BRANCH   3   4
ATOM      4  C   UNL     1      -4.057  -3.820   1.495  1.00  0.00     0.053 C 
BRANCH   4   5
ATOM      5  C   UNL     1      -3.518  -2.448   1.752  1.00  0.00     0.041 C 
ATOM      6  O   UNL     1      -2.346  -2.151   1.398  1.00  0.00    -0.550 OA
ATOM      7  O   UNL     1      -4.326  -1.482   2.337  1.00  0.00    -0.550 OA
ENDBRANCH   4   5
ENDBRANCH   3   4
ENDBRANCH   2   3
ENDBRANCH   1   2
BRANCH   1   8
ATOM      8  C   UNL     1      -7.553  -4.525  -0.678  1.00  0.00     0.000 C 
BRANCH   8   9
ATOM      9  C   UNL     1      -8.799  -3.641  -0.852  1.00  0.00     0.006 C 
BRANCH   9  10
ATOM     10  C   UNL     1     -10.071  -4.293  -0.295  1.00  0.00     0.053 C 
BRANCH  10  11
ATOM     11  C   UNL     1     -10.916  -4.825  -1.410  1.00  0.00     0.041 C 
ATOM     12  O   UNL     1     -10.563  -5.859  -2.035  1.00  0.00    -0.550 OA
ATOM     13  O   UNL     1     -12.119  -4.207  -1.725  1.00  0.00    -0.550 OA
ENDBRANCH  10  11
ENDBRANCH   9  10
ENDBRANCH   8   9
ENDBRANCH   1   8
TORSDOF 8
ENDMDL
MODEL 6
REMARK VINA RESULT:    -3.758      4.704      7.385
REMARK INTER + INTRA:          -5.799
REMARK INTER:                  -5.491
REMARK INTRA:                  -0.307
REMARK UNBOUND:                -0.283
REMARK SMILES O=C([O-])CCCCCCCC(=O)[O-]
REMARK SMILES IDX 7 1 6 2 5 3 4 4 2 5 1 6 3 7 8 8 9 9 10 10 11 11 12 12 13 13
REMARK H PARENT
REMARK Flexibility Score: inf
ROOT
ATOM      1  C   UNL     1      -7.128  -4.970   0.415  1.00  0.00     0.000 C 
ENDROOT
BRANCH   1   2
ATOM      2  C   UNL     1      -7.378  -5.475  -1.016  1.00  0.00     0.000 C 
BRANCH   2   3
ATOM      3  C   UNL     1      -8.270  -4.528  -1.833  1.00  0.00     0.006 C 
BRANCH   3   4
ATOM      4  C   UNL     1      -9.147  -3.672  -0.913  1.00  0.00     0.053 C 
BRANCH   4   5
ATOM      5  C   UNL     1     -10.496  -4.295  -0.746  1.00  0.00     0.041 C 
ATOM      6  O   UNL     1     -11.081  -4.814  -1.733  1.00  0.00    -0.550 OA
ATOM      7  O   UNL     1     -11.088  -4.347   0.510  1.00  0.00    -0.550 OA
ENDBRANCH   4   5
ENDBRANCH   3   4
ENDBRANCH   2   3
ENDBRANCH   1   2
BRANCH   1   8
ATOM      8  C   UNL     1      -5.659  -5.124   0.848  1.00  0.00     0.000 C 
BRANCH   8   9
ATOM      9  C   UNL     1      -5.112  -3.864   1.538  1.00  0.00     0.006 C 
BRANCH   9  10
ATOM     10  C   UNL     1      -3.581  -3.785   1.497  1.00  0.00     0.053 C 
BRANCH  10  11
ATOM     11  C   UNL     1      -3.130  -2.359   1.570  1.00  0.00     0.041 C 
ATOM     12  O   UNL     1      -2.037  -2.013   1.052  1.00  0.00    -0.550 OA
ATOM     13  O   UNL     1      -3.943  -1.403   2.167  1.00  0.00    -0.550 OA
ENDBRANCH  10  11
ENDBRANCH   9  10
ENDBRANCH   8   9
ENDBRANCH   1   8
TORSDOF 8
ENDMDL
MODEL 7
REMARK VINA RESULT:    -3.758      2.846      3.766
REMARK INTER + INTRA:          -5.798
REMARK INTER:                  -5.194
REMARK INTRA:                  -0.604
REMARK UNBOUND:                -0.283
REMARK SMILES O=C([O-])CCCCCCCC(=O)[O-]
REMARK SMILES IDX 7 1 6 2 5 3 4 4 2 5 1 6 3 7 8 8 9 9 10 10 11 11 12 12 13 13
REMARK H PARENT
REMARK Flexibility Score: inf
ROOT
ATOM      1  C   UNL     1      -0.238  -4.077   0.461  1.00  0.00     0.000 C 
ENDROOT
BRANCH   1   2
ATOM      2  C   UNL     1      -0.348  -2.546   0.359  1.00  0.00     0.000 C 
BRANCH   2   3
ATOM      3  C   UNL     1      -1.773  -2.035   0.622  1.00  0.00     0.006 C 
BRANCH   3   4
ATOM      4  C   UNL     1      -2.508  -2.946   1.610  1.00  0.00     0.053 C 
BRANCH   4   5
ATOM      5  C   UNL     1      -3.904  -2.457   1.836  1.00  0.00     0.041 C 
ATOM      6  O   UNL     1      -4.104  -1.371   2.442  1.00  0.00    -0.550 OA
ATOM      7  O   UNL     1      -4.982  -3.175   1.334  1.00  0.00    -0.550 OA
ENDBRANCH   4   5
ENDBRANCH   3   4
ENDBRANCH   2   3
ENDBRANCH   1   2
BRANCH   1   8
ATOM      8  C   UNL     1       0.908  -4.526   1.385  1.00  0.00     0.000 C 
BRANCH   8   9
ATOM      9  C   UNL     1       0.416  -5.391   2.557  1.00  0.00     0.006 C 
BRANCH   9  10
ATOM     10  C   UNL     1      -0.803  -6.247   2.190  1.00  0.00     0.053 C 
BRANCH  10  11
ATOM     11  C   UNL     1      -1.787  -6.266   3.317  1.00  0.00     0.041 C 
ATOM     12  O   UNL     1      -1.386  -6.372   4.506  1.00  0.00    -0.550 OA
ATOM     13  O   UNL     1      -3.143  -6.115   3.059  1.00  0.00    -0.550 OA
ENDBRANCH  10  11
ENDBRANCH   9  10
ENDBRANCH   8   9
ENDBRANCH   1   8
TORSDOF 8
ENDMDL
MODEL 8
REMARK VINA RESULT:    -3.705      3.156      7.858
REMARK INTER + INTRA:          -5.721
REMARK INTER:                  -5.456
REMARK INTRA:                  -0.264
REMARK UNBOUND:                -0.283
REMARK SMILES O=C([O-])CCCCCCCC(=O)[O-]
REMARK SMILES IDX 7 1 6 2 5 3 4 4 2 5 1 6 3 7 8 8 9 9 10 10 11 11 12 12 13 13
REMARK H PARENT
REMARK Flexibility Score: inf
ROOT
ATOM      1  C   UNL     1      -3.167  -3.544   1.525  1.00  0.00     0.000 C 
ENDROOT
BRANCH   1   2
ATOM      2  C   UNL     1      -2.453  -2.231   1.164  1.00  0.00     0.000 C 
BRANCH   2   3
ATOM      3  C   UNL     1      -1.330  -2.429   0.135  1.00  0.00     0.006 C 
BRANCH   3   4
ATOM      4  C   UNL     1       0.030  -2.565   0.827  1.00  0.00     0.053 C 
BRANCH   4   5
ATOM      5  C   UNL     1       0.433  -4.003   0.914  1.00  0.00     0.041 C 
ATOM      6  O   UNL     1      -0.122  -4.862   0.180  1.00  0.00    -0.550 OA
ATOM      7  O   UNL     1       1.457  -4.388   1.771  1.00  0.00    -0.550 OA
ENDBRANCH   4   5
ENDBRANCH   3   4
ENDBRANCH   2   3
ENDBRANCH   1   2
BRANCH   1   8
ATOM      8  C   UNL     1      -4.698  -3.397   1.547  1.00  0.00     0.000 C 
BRANCH   8   9
ATOM      9  C   UNL     1      -5.422  -4.708   1.199  1.00  0.00     0.006 C 
BRANCH   9  10
ATOM     10  C   UNL     1      -6.785  -4.474   0.534  1.00  0.00     0.053 C 
BRANCH  10  11
ATOM     11  C   UNL     1      -7.826  -5.352   1.154  1.00  0.00     0.041 C 
ATOM     12  O   UNL     1      -7.521  -6.125   2.100  1.00  0.00    -0.550 OA
ATOM     13  O   UNL     1      -9.144  -5.280   0.720  1.00  0.00    -0.550 OA
ENDBRANCH  10  11
ENDBRANCH   9  10
ENDBRANCH   8   9
ENDBRANCH   1   8
TORSDOF 8
ENDMDL
MODEL 9
REMARK VINA RESULT:    -3.696      1.907      2.823
REMARK INTER + INTRA:          -5.707
REMARK INTER:                  -5.302
REMARK INTRA:                  -0.406
REMARK UNBOUND:                -0.283
REMARK SMILES O=C([O-])CCCCCCCC(=O)[O-]
REMARK SMILES IDX 7 1 6 2 5 3 4 4 2 5 1 6 3 7 8 8 9 9 10 10 11 11 12 12 13 13
REMARK H PARENT
REMARK Flexibility Score: inf
ROOT
ATOM      1  C   UNL     1      -2.025  -3.130   0.315  1.00  0.00     0.000 C 
ENDROOT
BRANCH   1   2
ATOM      2  C   UNL     1      -2.625  -2.197   1.379  1.00  0.00     0.000 C 
BRANCH   2   3
ATOM      3  C   UNL     1      -4.048  -2.604   1.791  1.00  0.00     0.006 C 
BRANCH   3   4
ATOM      4  C   UNL     1      -4.272  -4.104   1.578  1.00  0.00     0.053 C 
BRANCH   4   5
ATOM      5  C   UNL     1      -4.191  -4.837   2.880  1.00  0.00     0.041 C 
ATOM      6  O   UNL     1      -5.150  -5.558   3.262  1.00  0.00    -0.550 OA
ATOM      7  O   UNL     1      -3.036  -4.762   3.649  1.00  0.00    -0.550 OA
ENDBRANCH   4   5
ENDBRANCH   3   4
ENDBRANCH   2   3
ENDBRANCH   1   2
BRANCH   1   8
ATOM      8  C   UNL     1      -0.616  -2.695  -0.125  1.00  0.00     0.000 C 
BRANCH   8   9
ATOM      9  C   UNL     1       0.414  -2.794   1.012  1.00  0.00     0.006 C 
BRANCH   9  10
ATOM     10  C   UNL     1       0.755  -4.245   1.377  1.00  0.00     0.053 C 
BRANCH  10  11
ATOM     11  C   UNL     1       2.205  -4.368   1.728  1.00  0.00     0.041 C 
ATOM     12  O   UNL     1       2.922  -3.338   1.825  1.00  0.00    -0.550 OA
ATOM     13  O   UNL     1       2.751  -5.616   1.997  1.00  0.00    -0.550 OA
ENDBRANCH  10  11
ENDBRANCH   9  10
ENDBRANCH   8   9
ENDBRANCH   1   8
TORSDOF 8
ENDMDL
