MODEL 1
REMARK VINA RESULT:    -7.011      0.000      0.000
REMARK INTER + INTRA:          -8.544
REMARK INTER:                  -8.445
REMARK INTRA:                  -0.099
REMARK UNBOUND:                -0.099
REMARK SMILES O=c1c(O)c(-c2ccc(O)c(O)c2)oc2cc(O)cc(O)c12
REMARK SMILES IDX 5 1 3 2 2 3 1 4 22 5 20 6 19 7 17 8 16 9 15 10 14 11 6 12
REMARK SMILES IDX 7 13 8 14 9 15 13 16 11 17 10 18 12 20 4 22 21 24 18 26
REMARK H PARENT 10 19 12 21 4 23 21 25 18 27
REMARK Flexibility Score: inf
ROOT
ATOM      1  C   UNL     1      82.075   2.034  -0.061  1.00  0.00     0.180 A 
ATOM      2  C   UNL     1      82.724   2.955  -0.903  1.00  0.00     0.208 A 
ATOM      3  C   UNL     1      84.127   3.010  -0.898  1.00  0.00     0.238 A 
ATOM      4  O   UNL     1      84.702   3.783  -1.707  1.00  0.00    -0.285 OA
ATOM      5  C   UNL     1      84.863   2.185  -0.012  1.00  0.00     0.111 A 
ATOM      6  C   UNL     1      86.285   2.190   0.110  1.00  0.00     0.134 A 
ATOM      7  C   UNL     1      86.910   1.254   0.943  1.00  0.00     0.093 A 
ATOM      8  C   UNL     1      86.164   0.358   1.707  1.00  0.00     0.123 A 
ATOM      9  C   UNL     1      84.771   0.381   1.637  1.00  0.00     0.094 A 
ATOM     10  C   UNL     1      84.119   1.277   0.786  1.00  0.00     0.146 A 
ATOM     11  O   UNL     1      82.793   1.251   0.735  1.00  0.00    -0.452 OA
ENDROOT
BRANCH   1  12
ATOM     12  C   UNL     1      80.600   1.907  -0.021  1.00  0.00     0.025 A 
ATOM     13  C   UNL     1      79.780   3.000   0.306  1.00  0.00     0.016 A 
ATOM     14  C   UNL     1      78.389   2.861   0.313  1.00  0.00     0.051 A 
ATOM     15  C   UNL     1      77.799   1.635  -0.020  1.00  0.00     0.157 A 
ATOM     16  C   UNL     1      80.004   0.685  -0.373  1.00  0.00     0.062 A 
ATOM     17  C   UNL     1      78.612   0.543  -0.367  1.00  0.00     0.158 A 
BRANCH  15  18
ATOM     18  O   UNL     1      76.412   1.499  -0.009  1.00  0.00    -0.504 OA
ATOM     19  H   UNL     1      75.813   2.199   0.415  1.00  0.00     0.293 HD
ENDBRANCH  15  18
BRANCH  17  20
ATOM     20  O   UNL     1      78.056  -0.689  -0.710  1.00  0.00    -0.504 OA
ATOM     21  H   UNL     1      77.191  -0.762  -1.234  1.00  0.00     0.293 HD
ENDBRANCH  17  20
ENDBRANCH   1  12
BRANCH   2  22
ATOM     22  O   UNL     1      81.978   3.815  -1.713  1.00  0.00    -0.502 OA
ATOM     23  H   UNL     1      82.272   4.762  -1.917  1.00  0.00     0.293 HD
ENDBRANCH   2  22
BRANCH   6  24
ATOM     24  O   UNL     1      87.124   3.101  -0.540  1.00  0.00    -0.507 OA
ATOM     25  H   UNL     1      87.783   3.710  -0.081  1.00  0.00     0.293 HD
ENDBRANCH   6  24
BRANCH   8  26
ATOM     26  O   UNL     1      86.819  -0.547   2.539  1.00  0.00    -0.508 OA
ATOM     27  H   UNL     1      87.499  -0.241   3.224  1.00  0.00     0.293 HD
ENDBRANCH   8  26
TORSDOF 6
ENDMDL
MODEL 2
REMARK VINA RESULT:    -6.922      1.205      2.966
REMARK INTER + INTRA:          -8.438
REMARK INTER:                  -8.372
REMARK INTRA:                  -0.067
REMARK UNBOUND:                -0.099
REMARK SMILES O=c1c(O)c(-c2ccc(O)c(O)c2)oc2cc(O)cc(O)c12
REMARK SMILES IDX 5 1 3 2 2 3 1 4 22 5 20 6 19 7 17 8 16 9 15 10 14 11 6 12
REMARK SMILES IDX 7 13 8 14 9 15 13 16 11 17 10 18 12 20 4 22 21 24 18 26
REMARK H PARENT 10 19 12 21 4 23 21 25 18 27
REMARK Flexibility Score: inf
ROOT
ATOM      1  C   UNL     1      81.963   1.816  -0.046  1.00  0.00     0.180 A 
ATOM      2  C   UNL     1      82.762   0.973   0.746  1.00  0.00     0.208 A 
ATOM      3  C   UNL     1      84.158   1.111   0.692  1.00  0.00     0.238 A 
ATOM      4  O   UNL     1      84.863   0.405   1.458  1.00  0.00    -0.285 OA
ATOM      5  C   UNL     1      84.741   2.049  -0.195  1.00  0.00     0.111 A 
ATOM      6  C   UNL     1      86.145   2.243  -0.366  1.00  0.00     0.134 A 
ATOM      7  C   UNL     1      86.605   3.274  -1.193  1.00  0.00     0.093 A 
ATOM      8  C   UNL     1      85.715   4.077  -1.905  1.00  0.00     0.123 A 
ATOM      9  C   UNL     1      84.342   3.863  -1.789  1.00  0.00     0.094 A 
ATOM     10  C   UNL     1      83.851   2.866  -0.942  1.00  0.00     0.146 A 
ATOM     11  O   UNL     1      82.537   2.709  -0.844  1.00  0.00    -0.452 OA
ENDROOT
BRANCH   1  12
ATOM     12  C   UNL     1      80.484   1.741  -0.033  1.00  0.00     0.025 A 
ATOM     13  C   UNL     1      79.696   2.867   0.260  1.00  0.00     0.016 A 
ATOM     14  C   UNL     1      78.302   2.778   0.242  1.00  0.00     0.051 A 
ATOM     15  C   UNL     1      77.675   1.567  -0.080  1.00  0.00     0.157 A 
ATOM     16  C   UNL     1      79.851   0.535  -0.376  1.00  0.00     0.062 A 
ATOM     17  C   UNL     1      78.455   0.441  -0.394  1.00  0.00     0.158 A 
BRANCH  15  18
ATOM     18  O   UNL     1      76.284   1.480  -0.094  1.00  0.00    -0.504 OA
ATOM     19  H   UNL     1      75.775   1.253  -0.942  1.00  0.00     0.293 HD
ENDBRANCH  15  18
BRANCH  17  20
ATOM     20  O   UNL     1      77.862  -0.776  -0.726  1.00  0.00    -0.504 OA
ATOM     21  H   UNL     1      78.326  -1.456  -1.318  1.00  0.00     0.293 HD
ENDBRANCH  17  20
ENDBRANCH   1  12
BRANCH   2  22
ATOM     22  O   UNL     1      82.170   0.001   1.557  1.00  0.00    -0.502 OA
ATOM     23  H   UNL     1      82.708  -0.720   2.021  1.00  0.00     0.293 HD
ENDBRANCH   2  22
BRANCH   6  24
ATOM     24  O   UNL     1      87.124   1.440   0.229  1.00  0.00    -0.507 OA
ATOM     25  H   UNL     1      86.947   0.729   0.922  1.00  0.00     0.293 HD
ENDBRANCH   6  24
BRANCH   8  26
ATOM     26  O   UNL     1      86.209   5.083  -2.733  1.00  0.00    -0.508 OA
ATOM     27  H   UNL     1      86.442   6.001  -2.372  1.00  0.00     0.293 HD
ENDBRANCH   8  26
TORSDOF 6
ENDMDL
MODEL 3
REMARK VINA RESULT:    -6.498      8.362      9.869
REMARK INTER + INTRA:          -7.927
REMARK INTER:                  -7.625
REMARK INTRA:                  -0.303
REMARK UNBOUND:                -0.099
REMARK SMILES O=c1c(O)c(-c2ccc(O)c(O)c2)oc2cc(O)cc(O)c12
REMARK SMILES IDX 5 1 3 2 2 3 1 4 22 5 20 6 19 7 17 8 16 9 15 10 14 11 6 12
REMARK SMILES IDX 7 13 8 14 9 15 13 16 11 17 10 18 12 20 4 22 21 24 18 26
REMARK H PARENT 10 19 12 21 4 23 21 25 18 27
REMARK Flexibility Score: inf
ROOT
ATOM      1  C   UNL     1      84.177  -2.610  -6.894  1.00  0.00     0.180 A 
ATOM      2  C   UNL     1      83.543  -2.654  -8.148  1.00  0.00     0.208 A 
ATOM      3  C   UNL     1      83.379  -1.462  -8.871  1.00  0.00     0.238 A 
ATOM      4  O   UNL     1      82.878  -1.520 -10.023  1.00  0.00    -0.285 OA
ATOM      5  C   UNL     1      83.799  -0.232  -8.307  1.00  0.00     0.111 A 
ATOM      6  C   UNL     1      83.642   1.043  -8.930  1.00  0.00     0.134 A 
ATOM      7  C   UNL     1      84.193   2.179  -8.326  1.00  0.00     0.093 A 
ATOM      8  C   UNL     1      84.838   2.099  -7.093  1.00  0.00     0.123 A 
ATOM      9  C   UNL     1      84.949   0.867  -6.448  1.00  0.00     0.094 A 
ATOM     10  C   UNL     1      84.443  -0.291  -7.044  1.00  0.00     0.146 A 
ATOM     11  O   UNL     1      84.590  -1.446  -6.406  1.00  0.00    -0.452 OA
ENDROOT
BRANCH   1  12
ATOM     12  C   UNL     1      84.399  -3.827  -6.080  1.00  0.00     0.025 A 
ATOM     13  C   UNL     1      83.374  -4.380  -5.295  1.00  0.00     0.016 A 
ATOM     14  C   UNL     1      83.601  -5.544  -4.555  1.00  0.00     0.051 A 
ATOM     15  C   UNL     1      84.849  -6.178  -4.599  1.00  0.00     0.157 A 
ATOM     16  C   UNL     1      85.643  -4.478  -6.137  1.00  0.00     0.062 A 
ATOM     17  C   UNL     1      85.874  -5.643  -5.397  1.00  0.00     0.158 A 
BRANCH  15  18
ATOM     18  O   UNL     1      85.073  -7.337  -3.857  1.00  0.00    -0.504 OA
ATOM     19  H   UNL     1      85.066  -8.253  -4.291  1.00  0.00     0.293 HD
ENDBRANCH  15  18
BRANCH  17  20
ATOM     20  O   UNL     1      87.125  -6.254  -5.469  1.00  0.00    -0.504 OA
ATOM     21  H   UNL     1      87.868  -6.037  -4.815  1.00  0.00     0.293 HD
ENDBRANCH  17  20
ENDBRANCH   1  12
BRANCH   2  22
ATOM     22  O   UNL     1      83.065  -3.867  -8.653  1.00  0.00    -0.502 OA
ATOM     23  H   UNL     1      83.139  -4.115  -9.631  1.00  0.00     0.293 HD
ENDBRANCH   2  22
BRANCH   6  24
ATOM     24  O   UNL     1      82.938   1.251 -10.120  1.00  0.00    -0.507 OA
ATOM     25  H   UNL     1      83.232   1.861 -10.867  1.00  0.00     0.293 HD
ENDBRANCH   6  24
BRANCH   8  26
ATOM     26  O   UNL     1      85.358   3.254  -6.512  1.00  0.00    -0.508 OA
ATOM     27  H   UNL     1      84.786   4.077  -6.364  1.00  0.00     0.293 HD
ENDBRANCH   8  26
TORSDOF 6
ENDMDL
MODEL 4
REMARK VINA RESULT:    -6.134      3.664      6.680
REMARK INTER + INTRA:          -7.489
REMARK INTER:                  -7.167
REMARK INTRA:                  -0.321
REMARK UNBOUND:                -0.099
REMARK SMILES O=c1c(O)c(-c2ccc(O)c(O)c2)oc2cc(O)cc(O)c12
REMARK SMILES IDX 5 1 3 2 2 3 1 4 22 5 20 6 19 7 17 8 16 9 15 10 14 11 6 12
REMARK SMILES IDX 7 13 8 14 9 15 13 16 11 17 10 18 12 20 4 22 21 24 18 26
REMARK H PARENT 10 19 12 21 4 23 21 25 18 27
REMARK Flexibility Score: inf
ROOT
ATOM      1  C   UNL     1      86.037   1.170   2.662  1.00  0.00     0.180 A 
ATOM      2  C   UNL     1      86.555  -0.117   2.888  1.00  0.00     0.208 A 
ATOM      3  C   UNL     1      86.697  -0.571   4.209  1.00  0.00     0.238 A 
ATOM      4  O   UNL     1      87.092  -1.750   4.402  1.00  0.00    -0.285 OA
ATOM      5  C   UNL     1      86.374   0.287   5.289  1.00  0.00     0.111 A 
ATOM      6  C   UNL     1      86.521  -0.052   6.668  1.00  0.00     0.134 A 
ATOM      7  C   UNL     1      86.068   0.837   7.650  1.00  0.00     0.093 A 
ATOM      8  C   UNL     1      85.533   2.078   7.307  1.00  0.00     0.123 A 
ATOM      9  C   UNL     1      85.434   2.443   5.964  1.00  0.00     0.094 A 
ATOM     10  C   UNL     1      85.843   1.561   4.960  1.00  0.00     0.146 A 
ATOM     11  O   UNL     1      85.711   1.940   3.694  1.00  0.00    -0.452 OA
ENDROOT
BRANCH   1  12
ATOM     12  C   UNL     1      85.844   1.714   1.298  1.00  0.00     0.025 A 
ATOM     13  C   UNL     1      86.883   2.369   0.616  1.00  0.00     0.016 A 
ATOM     14  C   UNL     1      86.684   2.850  -0.680  1.00  0.00     0.051 A 
ATOM     15  C   UNL     1      85.450   2.673  -1.319  1.00  0.00     0.157 A 
ATOM     16  C   UNL     1      84.614   1.520   0.646  1.00  0.00     0.062 A 
ATOM     17  C   UNL     1      84.411   2.001  -0.652  1.00  0.00     0.158 A 
BRANCH  15  18
ATOM     18  O   UNL     1      85.253   3.157  -2.611  1.00  0.00    -0.504 OA
ATOM     19  H   UNL     1      84.947   2.550  -3.363  1.00  0.00     0.293 HD
ENDBRANCH  15  18
BRANCH  17  20
ATOM     20  O   UNL     1      83.174   1.802  -1.262  1.00  0.00    -0.504 OA
ATOM     21  H   UNL     1      82.323   1.676  -0.725  1.00  0.00     0.293 HD
ENDBRANCH  17  20
ENDBRANCH   1  12
BRANCH   2  22
ATOM     22  O   UNL     1      86.942  -0.919   1.811  1.00  0.00    -0.502 OA
ATOM     23  H   UNL     1      86.754  -1.913   1.779  1.00  0.00     0.293 HD
ENDBRANCH   2  22
BRANCH   6  24
ATOM     24  O   UNL     1      87.124  -1.228   7.125  1.00  0.00    -0.507 OA
ATOM     25  H   UNL     1      86.703  -2.144   7.095  1.00  0.00     0.293 HD
ENDBRANCH   6  24
BRANCH   8  26
ATOM     26  O   UNL     1      85.109   2.945   8.311  1.00  0.00    -0.508 OA
ATOM     27  H   UNL     1      84.144   3.249   8.377  1.00  0.00     0.293 HD
ENDBRANCH   8  26
TORSDOF 6
ENDMDL
MODEL 5
REMARK VINA RESULT:    -5.859      7.583      9.573
REMARK INTER + INTRA:          -7.157
REMARK INTER:                  -7.275
REMARK INTRA:                   0.118
REMARK UNBOUND:                -0.099
REMARK SMILES O=c1c(O)c(-c2ccc(O)c(O)c2)oc2cc(O)cc(O)c12
REMARK SMILES IDX 5 1 3 2 2 3 1 4 22 5 20 6 19 7 17 8 16 9 15 10 14 11 6 12
REMARK SMILES IDX 7 13 8 14 9 15 13 16 11 17 10 18 12 20 4 22 21 24 18 26
REMARK H PARENT 10 19 12 21 4 23 21 25 18 27
REMARK Flexibility Score: inf
ROOT
ATOM      1  C   UNL     1      84.846   0.747  -7.287  1.00  0.00     0.180 A 
ATOM      2  C   UNL     1      83.653   0.661  -8.028  1.00  0.00     0.208 A 
ATOM      3  C   UNL     1      83.126  -0.606  -8.323  1.00  0.00     0.238 A 
ATOM      4  O   UNL     1      82.021  -0.674  -8.921  1.00  0.00    -0.285 OA
ATOM      5  C   UNL     1      83.825  -1.772  -7.925  1.00  0.00     0.111 A 
ATOM      6  C   UNL     1      83.407  -3.107  -8.209  1.00  0.00     0.134 A 
ATOM      7  C   UNL     1      84.122  -4.184  -7.673  1.00  0.00     0.093 A 
ATOM      8  C   UNL     1      85.275  -3.978  -6.917  1.00  0.00     0.123 A 
ATOM      9  C   UNL     1      85.724  -2.680  -6.678  1.00  0.00     0.094 A 
ATOM     10  C   UNL     1      85.011  -1.583  -7.168  1.00  0.00     0.146 A 
ATOM     11  O   UNL     1      85.462  -0.364  -6.899  1.00  0.00    -0.452 OA
ENDROOT
BRANCH   1  12
ATOM     12  C   UNL     1      85.456   2.047  -6.924  1.00  0.00     0.025 A 
ATOM     13  C   UNL     1      85.517   3.109  -7.842  1.00  0.00     0.016 A 
ATOM     14  C   UNL     1      86.074   4.334  -7.468  1.00  0.00     0.051 A 
ATOM     15  C   UNL     1      86.566   4.520  -6.169  1.00  0.00     0.157 A 
ATOM     16  C   UNL     1      85.932   2.244  -5.617  1.00  0.00     0.062 A 
ATOM     17  C   UNL     1      86.491   3.470  -5.239  1.00  0.00     0.158 A 
BRANCH  15  18
ATOM     18  O   UNL     1      87.125   5.743  -5.799  1.00  0.00    -0.504 OA
ATOM     19  H   UNL     1      87.421   6.421  -6.492  1.00  0.00     0.293 HD
ENDBRANCH  15  18
BRANCH  17  20
ATOM     20  O   UNL     1      86.965   3.625  -3.937  1.00  0.00    -0.504 OA
ATOM     21  H   UNL     1      86.389   4.008  -3.197  1.00  0.00     0.293 HD
ENDBRANCH  17  20
ENDBRANCH   1  12
BRANCH   2  22
ATOM     22  O   UNL     1      83.020   1.822  -8.478  1.00  0.00    -0.502 OA
ATOM     23  H   UNL     1      82.104   1.809  -8.911  1.00  0.00     0.293 HD
ENDBRANCH   2  22
BRANCH   6  24
ATOM     24  O   UNL     1      82.320  -3.429  -9.028  1.00  0.00    -0.507 OA
ATOM     25  H   UNL     1      82.040  -2.915  -9.849  1.00  0.00     0.293 HD
ENDBRANCH   6  24
BRANCH   8  26
ATOM     26  O   UNL     1      85.972  -5.075  -6.413  1.00  0.00    -0.508 OA
ATOM     27  H   UNL     1      86.546  -5.658  -7.011  1.00  0.00     0.293 HD
ENDBRANCH   8  26
TORSDOF 6
ENDMDL
MODEL 6
REMARK VINA RESULT:    -5.701      8.338      9.829
REMARK INTER + INTRA:          -6.967
REMARK INTER:                  -7.097
REMARK INTRA:                   0.130
REMARK UNBOUND:                -0.099
REMARK SMILES O=c1c(O)c(-c2ccc(O)c(O)c2)oc2cc(O)cc(O)c12
REMARK SMILES IDX 5 1 3 2 2 3 1 4 22 5 20 6 19 7 17 8 16 9 15 10 14 11 6 12
REMARK SMILES IDX 7 13 8 14 9 15 13 16 11 17 10 18 12 20 4 22 21 24 18 26
REMARK H PARENT 10 19 12 21 4 23 21 25 18 27
REMARK Flexibility Score: inf
ROOT
ATOM      1  C   UNL     1      84.713   5.475   7.184  1.00  0.00     0.180 A 
ATOM      2  C   UNL     1      83.453   5.398   7.805  1.00  0.00     0.208 A 
ATOM      3  C   UNL     1      82.999   4.154   8.271  1.00  0.00     0.238 A 
ATOM      4  O   UNL     1      81.905   4.106   8.890  1.00  0.00    -0.285 OA
ATOM      5  C   UNL     1      83.782   2.993   8.061  1.00  0.00     0.111 A 
ATOM      6  C   UNL     1      83.400   1.674   8.451  1.00  0.00     0.134 A 
ATOM      7  C   UNL     1      84.303   0.617   8.288  1.00  0.00     0.093 A 
ATOM      8  C   UNL     1      85.547   0.817   7.692  1.00  0.00     0.123 A 
ATOM      9  C   UNL     1      85.910   2.092   7.257  1.00  0.00     0.094 A 
ATOM     10  C   UNL     1      85.046   3.174   7.440  1.00  0.00     0.146 A 
ATOM     11  O   UNL     1      85.440   4.374   7.031  1.00  0.00    -0.452 OA
ENDROOT
BRANCH   1  12
ATOM     12  C   UNL     1      85.266   6.753   6.681  1.00  0.00     0.025 A 
ATOM     13  C   UNL     1      86.618   7.089   6.865  1.00  0.00     0.016 A 
ATOM     14  C   UNL     1      87.123   8.289   6.359  1.00  0.00     0.051 A 
ATOM     15  C   UNL     1      86.290   9.164   5.650  1.00  0.00     0.157 A 
ATOM     16  C   UNL     1      84.439   7.624   5.952  1.00  0.00     0.062 A 
ATOM     17  C   UNL     1      84.941   8.827   5.444  1.00  0.00     0.158 A 
BRANCH  15  18
ATOM     18  O   UNL     1      86.795  10.362   5.148  1.00  0.00    -0.504 OA
ATOM     19  H   UNL     1      87.622  10.796   5.544  1.00  0.00     0.293 HD
ENDBRANCH  15  18
BRANCH  17  20
ATOM     20  O   UNL     1      84.087   9.672   4.736  1.00  0.00    -0.504 OA
ATOM     21  H   UNL     1      83.082   9.542   4.735  1.00  0.00     0.293 HD
ENDBRANCH  17  20
ENDBRANCH   1  12
BRANCH   2  22
ATOM     22  O   UNL     1      82.661   6.543   7.933  1.00  0.00    -0.502 OA
ATOM     23  H   UNL     1      82.634   7.267   7.226  1.00  0.00     0.293 HD
ENDBRANCH   2  22
BRANCH   6  24
ATOM     24  O   UNL     1      82.146   1.345   8.975  1.00  0.00    -0.507 OA
ATOM     25  H   UNL     1      81.841   1.545   9.915  1.00  0.00     0.293 HD
ENDBRANCH   6  24
BRANCH   8  26
ATOM     26  O   UNL     1      86.413  -0.262   7.530  1.00  0.00    -0.508 OA
ATOM     27  H   UNL     1      86.068  -1.197   7.349  1.00  0.00     0.293 HD
ENDBRANCH   8  26
TORSDOF 6
ENDMDL
MODEL 7
REMARK VINA RESULT:    -5.542      6.346      7.665
REMARK INTER + INTRA:          -6.775
REMARK INTER:                  -6.456
REMARK INTRA:                  -0.319
REMARK UNBOUND:                -0.099
REMARK SMILES O=c1c(O)c(-c2ccc(O)c(O)c2)oc2cc(O)cc(O)c12
REMARK SMILES IDX 5 1 3 2 2 3 1 4 22 5 20 6 19 7 17 8 16 9 15 10 14 11 6 12
REMARK SMILES IDX 7 13 8 14 9 15 13 16 11 17 10 18 12 20 4 22 21 24 18 26
REMARK H PARENT 10 19 12 21 4 23 21 25 18 27
REMARK Flexibility Score: inf
ROOT
ATOM      1  C   UNL     1      85.421   0.936  -6.363  1.00  0.00     0.180 A 
ATOM      2  C   UNL     1      85.661   2.005  -7.245  1.00  0.00     0.208 A 
ATOM      3  C   UNL     1      86.166   3.210  -6.732  1.00  0.00     0.238 A 
ATOM      4  O   UNL     1      86.448   4.136  -7.536  1.00  0.00    -0.285 OA
ATOM      5  C   UNL     1      86.371   3.353  -5.338  1.00  0.00     0.111 A 
ATOM      6  C   UNL     1      86.835   4.544  -4.703  1.00  0.00     0.134 A 
ATOM      7  C   UNL     1      87.103   4.535  -3.329  1.00  0.00     0.093 A 
ATOM      8  C   UNL     1      86.862   3.401  -2.555  1.00  0.00     0.123 A 
ATOM      9  C   UNL     1      86.356   2.248  -3.155  1.00  0.00     0.094 A 
ATOM     10  C   UNL     1      86.115   2.214  -4.531  1.00  0.00     0.146 A 
ATOM     11  O   UNL     1      85.654   1.089  -5.064  1.00  0.00    -0.452 OA
ENDROOT
BRANCH   1  12
ATOM     12  C   UNL     1      84.904  -0.370  -6.830  1.00  0.00     0.025 A 
ATOM     13  C   UNL     1      85.768  -1.443  -7.108  1.00  0.00     0.016 A 
ATOM     14  C   UNL     1      85.254  -2.674  -7.524  1.00  0.00     0.051 A 
ATOM     15  C   UNL     1      83.871  -2.855  -7.655  1.00  0.00     0.157 A 
ATOM     16  C   UNL     1      83.517  -0.563  -6.944  1.00  0.00     0.062 A 
ATOM     17  C   UNL     1      82.999  -1.794  -7.361  1.00  0.00     0.158 A 
BRANCH  15  18
ATOM     18  O   UNL     1      83.361  -4.084  -8.073  1.00  0.00    -0.504 OA
ATOM     19  H   UNL     1      82.364  -4.238  -8.171  1.00  0.00     0.293 HD
ENDBRANCH  15  18
BRANCH  17  20
ATOM     20  O   UNL     1      81.617  -1.943  -7.474  1.00  0.00    -0.504 OA
ATOM     21  H   UNL     1      81.200  -2.670  -8.044  1.00  0.00     0.293 HD
ENDBRANCH  17  20
ENDBRANCH   1  12
BRANCH   2  22
ATOM     22  O   UNL     1      85.379   1.870  -8.607  1.00  0.00    -0.502 OA
ATOM     23  H   UNL     1      86.067   2.056  -9.326  1.00  0.00     0.293 HD
ENDBRANCH   2  22
BRANCH   6  24
ATOM     24  O   UNL     1      87.025   5.761  -5.365  1.00  0.00    -0.507 OA
ATOM     25  H   UNL     1      86.641   5.996  -6.267  1.00  0.00     0.293 HD
ENDBRANCH   6  24
BRANCH   8  26
ATOM     26  O   UNL     1      87.123   3.434  -1.187  1.00  0.00    -0.508 OA
ATOM     27  H   UNL     1      87.863   2.878  -0.775  1.00  0.00     0.293 HD
ENDBRANCH   8  26
TORSDOF 6
ENDMDL
MODEL 8
REMARK VINA RESULT:    -5.327      6.226      7.648
REMARK INTER + INTRA:          -6.517
REMARK INTER:                  -6.488
REMARK INTRA:                  -0.028
REMARK UNBOUND:                -0.099
REMARK SMILES O=c1c(O)c(-c2ccc(O)c(O)c2)oc2cc(O)cc(O)c12
REMARK SMILES IDX 5 1 3 2 2 3 1 4 22 5 20 6 19 7 17 8 16 9 15 10 14 11 6 12
REMARK SMILES IDX 7 13 8 14 9 15 13 16 11 17 10 18 12 20 4 22 21 24 18 26
REMARK H PARENT 10 19 12 21 4 23 21 25 18 27
REMARK Flexibility Score: inf
ROOT
ATOM      1  C   UNL     1      85.506   1.562  -6.300  1.00  0.00     0.180 A 
ATOM      2  C   UNL     1      85.868   2.780  -6.902  1.00  0.00     0.208 A 
ATOM      3  C   UNL     1      86.345   3.824  -6.093  1.00  0.00     0.238 A 
ATOM      4  O   UNL     1      86.737   4.884  -6.646  1.00  0.00    -0.285 OA
ATOM      5  C   UNL     1      86.401   3.658  -4.688  1.00  0.00     0.111 A 
ATOM      6  C   UNL     1      86.825   4.664  -3.767  1.00  0.00     0.134 A 
ATOM      7  C   UNL     1      86.942   4.351  -2.408  1.00  0.00     0.093 A 
ATOM      8  C   UNL     1      86.589   3.092  -1.925  1.00  0.00     0.123 A 
ATOM      9  C   UNL     1      86.121   2.118  -2.807  1.00  0.00     0.094 A 
ATOM     10  C   UNL     1      86.030   2.388  -4.175  1.00  0.00     0.146 A 
ATOM     11  O   UNL     1      85.600   1.425  -4.982  1.00  0.00    -0.452 OA
ENDROOT
BRANCH   1  12
ATOM     12  C   UNL     1      85.008   0.411  -7.087  1.00  0.00     0.025 A 
ATOM     13  C   UNL     1      85.590  -0.862  -6.971  1.00  0.00     0.016 A 
ATOM     14  C   UNL     1      85.087  -1.939  -7.706  1.00  0.00     0.051 A 
ATOM     15  C   UNL     1      83.988  -1.762  -8.556  1.00  0.00     0.157 A 
ATOM     16  C   UNL     1      83.893   0.579  -7.925  1.00  0.00     0.062 A 
ATOM     17  C   UNL     1      83.387  -0.497  -8.664  1.00  0.00     0.158 A 
BRANCH  15  18
ATOM     18  O   UNL     1      83.490  -2.837  -9.291  1.00  0.00    -0.504 OA
ATOM     19  H   UNL     1      84.106  -3.468  -9.792  1.00  0.00     0.293 HD
ENDBRANCH  15  18
BRANCH  17  20
ATOM     20  O   UNL     1      82.287  -0.289  -9.495  1.00  0.00    -0.504 OA
ATOM     21  H   UNL     1      82.289  -0.568 -10.470  1.00  0.00     0.293 HD
ENDBRANCH  17  20
ENDBRANCH   1  12
BRANCH   2  22
ATOM     22  O   UNL     1      85.732   2.950  -8.282  1.00  0.00    -0.502 OA
ATOM     23  H   UNL     1      85.840   3.851  -8.732  1.00  0.00     0.293 HD
ENDBRANCH   2  22
BRANCH   6  24
ATOM     24  O   UNL     1      87.118   5.983  -4.129  1.00  0.00    -0.507 OA
ATOM     25  H   UNL     1      88.010   6.435  -3.998  1.00  0.00     0.293 HD
ENDBRANCH   6  24
BRANCH   8  26
ATOM     26  O   UNL     1      86.700   2.822  -0.563  1.00  0.00    -0.508 OA
ATOM     27  H   UNL     1      85.900   2.535  -0.012  1.00  0.00     0.293 HD
ENDBRANCH   8  26
TORSDOF 6
ENDMDL
MODEL 9
REMARK VINA RESULT:    -5.064      8.490     10.275
REMARK INTER + INTRA:          -6.199
REMARK INTER:                  -6.404
REMARK INTRA:                   0.205
REMARK UNBOUND:                -0.099
REMARK SMILES O=c1c(O)c(-c2ccc(O)c(O)c2)oc2cc(O)cc(O)c12
REMARK SMILES IDX 5 1 3 2 2 3 1 4 22 5 20 6 19 7 17 8 16 9 15 10 14 11 6 12
REMARK SMILES IDX 7 13 8 14 9 15 13 16 11 17 10 18 12 20 4 22 21 24 18 26
REMARK H PARENT 10 19 12 21 4 23 21 25 18 27
REMARK Flexibility Score: inf
ROOT
ATOM      1  C   UNL     1      84.861   5.978   6.962  1.00  0.00     0.180 A 
ATOM      2  C   UNL     1      85.663   4.824   7.012  1.00  0.00     0.208 A 
ATOM      3  C   UNL     1      85.131   3.650   7.568  1.00  0.00     0.238 A 
ATOM      4  O   UNL     1      85.828   2.602   7.542  1.00  0.00    -0.285 OA
ATOM      5  C   UNL     1      83.826   3.657   8.119  1.00  0.00     0.111 A 
ATOM      6  C   UNL     1      83.204   2.537   8.748  1.00  0.00     0.134 A 
ATOM      7  C   UNL     1      81.869   2.630   9.160  1.00  0.00     0.093 A 
ATOM      8  C   UNL     1      81.155   3.820   9.026  1.00  0.00     0.123 A 
ATOM      9  C   UNL     1      81.770   4.938   8.462  1.00  0.00     0.094 A 
ATOM     10  C   UNL     1      83.089   4.865   8.006  1.00  0.00     0.146 A 
ATOM     11  O   UNL     1      83.629   5.946   7.457  1.00  0.00    -0.452 OA
ENDROOT
BRANCH   1  12
ATOM     12  C   UNL     1      85.345   7.250   6.377  1.00  0.00     0.025 A 
ATOM     13  C   UNL     1      86.685   7.652   6.507  1.00  0.00     0.016 A 
ATOM     14  C   UNL     1      87.124   8.844   5.925  1.00  0.00     0.051 A 
ATOM     15  C   UNL     1      86.236   9.644   5.195  1.00  0.00     0.157 A 
ATOM     16  C   UNL     1      84.462   8.045   5.627  1.00  0.00     0.062 A 
ATOM     17  C   UNL     1      84.898   9.239   5.044  1.00  0.00     0.158 A 
BRANCH  15  18
ATOM     18  O   UNL     1      86.675  10.834   4.618  1.00  0.00    -0.504 OA
ATOM     19  H   UNL     1      86.063  11.637   4.526  1.00  0.00     0.293 HD
ENDBRANCH  15  18
BRANCH  17  20
ATOM     20  O   UNL     1      83.990  10.009   4.318  1.00  0.00    -0.504 OA
ATOM     21  H   UNL     1      83.837   9.867   3.326  1.00  0.00     0.293 HD
ENDBRANCH  17  20
ENDBRANCH   1  12
BRANCH   2  22
ATOM     22  O   UNL     1      86.975   4.859   6.534  1.00  0.00    -0.502 OA
ATOM     23  H   UNL     1      87.269   5.487   5.796  1.00  0.00     0.293 HD
ENDBRANCH   2  22
BRANCH   6  24
ATOM     24  O   UNL     1      83.853   1.328   9.013  1.00  0.00    -0.507 OA
ATOM     25  H   UNL     1      84.122   1.004   9.930  1.00  0.00     0.293 HD
ENDBRANCH   6  24
BRANCH   8  26
ATOM     26  O   UNL     1      79.834   3.882   9.464  1.00  0.00    -0.508 OA
ATOM     27  H   UNL     1      79.058   3.724   8.832  1.00  0.00     0.293 HD
ENDBRANCH   8  26
TORSDOF 6
ENDMDL
