MODEL 1
REMARK VINA RESULT:    -5.824      0.000      0.000
REMARK INTER + INTRA:          -7.686
REMARK INTER:                  -7.186
REMARK INTRA:                  -0.500
REMARK UNBOUND:                -0.500
REMARK SMILES CC(C)=CCC[C@@H](C)c1ccc(C)cc1
REMARK SMILES IDX 6 1 7 2 8 3 9 4 13 5 12 6 11 7 14 8 10 9 15 10 5 11 4 12
REMARK SMILES IDX 2 13 1 14 3 15
REMARK H PARENT
REMARK Flexibility Score: inf
ROOT
ATOM      1  C   UNL     1       1.652 -26.118  -5.522  1.00  0.00     0.012 C 
ENDROOT
BRANCH   1   2
ATOM      2  C   UNL     1       1.354 -25.768  -6.998  1.00  0.00     0.016 C 
ATOM      3  C   UNL     1       1.934 -26.808  -7.971  1.00  0.00     0.013 C 
BRANCH   2   4
ATOM      4  C   UNL     1      -0.141 -25.622  -7.216  1.00  0.00    -0.045 A 
ATOM      5  C   UNL     1      -4.397 -25.172  -7.809  1.00  0.00     0.044 C 
ATOM      6  C   UNL     1      -2.923 -25.358  -7.594  1.00  0.00    -0.051 A 
ATOM      7  C   UNL     1      -2.345 -25.043  -6.356  1.00  0.00     0.004 A 
ATOM      8  C   UNL     1      -2.104 -25.780  -8.650  1.00  0.00     0.004 A 
ATOM      9  C   UNL     1      -0.967 -25.180  -6.167  1.00  0.00     0.004 A 
ATOM     10  C   UNL     1      -0.725 -25.917  -8.461  1.00  0.00     0.004 A 
ENDBRANCH   2   4
ENDBRANCH   1   2
BRANCH   1  11
ATOM     11  C   UNL     1       2.567 -27.343  -5.377  1.00  0.00     0.028 C 
BRANCH  11  12
ATOM     12  C   UNL     1       2.749 -27.703  -3.923  1.00  0.00    -0.028 C 
ATOM     13  C   UNL     1       3.545 -28.699  -3.477  1.00  0.00    -0.080 C 
ATOM     14  C   UNL     1       4.390 -29.531  -4.413  1.00  0.00     0.039 C 
ATOM     15  C   UNL     1       3.595 -28.967  -1.995  1.00  0.00     0.039 C 
ENDBRANCH  11  12
ENDBRANCH   1  11
TORSDOF 4
ENDMDL
MODEL 2
REMARK VINA RESULT:    -5.761      0.939      1.511
REMARK INTER + INTRA:          -7.608
REMARK INTER:                  -6.854
REMARK INTRA:                  -0.754
REMARK UNBOUND:                -0.500
REMARK SMILES CC(C)=CCC[C@@H](C)c1ccc(C)cc1
REMARK SMILES IDX 6 1 7 2 8 3 9 4 13 5 12 6 11 7 14 8 10 9 15 10 5 11 4 12
REMARK SMILES IDX 2 13 1 14 3 15
REMARK H PARENT
REMARK Flexibility Score: inf
ROOT
ATOM      1  C   UNL     1       2.715 -26.510  -6.110  1.00  0.00     0.012 C 
ENDROOT
BRANCH   1   2
ATOM      2  C   UNL     1       1.796 -25.708  -5.159  1.00  0.00     0.016 C 
ATOM      3  C   UNL     1       2.392 -24.339  -4.790  1.00  0.00     0.013 C 
BRANCH   2   4
ATOM      4  C   UNL     1       0.421 -25.532  -5.777  1.00  0.00    -0.045 A 
ATOM      5  C   UNL     1      -3.498 -24.995  -7.513  1.00  0.00     0.044 C 
ATOM      6  C   UNL     1      -2.146 -25.210  -6.901  1.00  0.00    -0.051 A 
ATOM      7  C   UNL     1      -1.899 -24.818  -5.578  1.00  0.00     0.004 A 
ATOM      8  C   UNL     1      -1.099 -25.739  -7.669  1.00  0.00     0.004 A 
ATOM      9  C   UNL     1      -0.628 -24.984  -5.018  1.00  0.00     0.004 A 
ATOM     10  C   UNL     1       0.172 -25.905  -7.111  1.00  0.00     0.004 A 
ENDBRANCH   2   4
ENDBRANCH   1   2
BRANCH   1  11
ATOM     11  C   UNL     1       2.852 -27.983  -5.698  1.00  0.00     0.028 C 
BRANCH  11  12
ATOM     12  C   UNL     1       2.811 -28.122  -4.196  1.00  0.00    -0.028 C 
ATOM     13  C   UNL     1       3.706 -28.824  -3.468  1.00  0.00    -0.080 C 
ATOM     14  C   UNL     1       4.895 -29.509  -4.104  1.00  0.00     0.039 C 
ATOM     15  C   UNL     1       3.514 -28.906  -1.976  1.00  0.00     0.039 C 
ENDBRANCH  11  12
ENDBRANCH   1  11
TORSDOF 4
ENDMDL
MODEL 3
REMARK VINA RESULT:    -5.477      1.323      2.552
REMARK INTER + INTRA:          -7.258
REMARK INTER:                  -6.311
REMARK INTRA:                  -0.947
REMARK UNBOUND:                -0.500
REMARK SMILES CC(C)=CCC[C@@H](C)c1ccc(C)cc1
REMARK SMILES IDX 6 1 7 2 8 3 9 4 13 5 12 6 11 7 14 8 10 9 15 10 5 11 4 12
REMARK SMILES IDX 2 13 1 14 3 15
REMARK H PARENT
REMARK Flexibility Score: inf
ROOT
ATOM      1  C   UNL     1       2.011 -24.955  -6.252  1.00  0.00     0.012 C 
ENDROOT
BRANCH   1   2
ATOM      2  C   UNL     1       0.781 -25.461  -5.463  1.00  0.00     0.016 C 
ATOM      3  C   UNL     1       0.541 -24.651  -4.178  1.00  0.00     0.013 C 
BRANCH   2   4
ATOM      4  C   UNL     1      -0.457 -25.433  -6.340  1.00  0.00    -0.045 A 
ATOM      5  C   UNL     1      -3.969 -25.390  -8.856  1.00  0.00     0.044 C 
ATOM      6  C   UNL     1      -2.743 -25.376  -7.991  1.00  0.00    -0.051 A 
ATOM      7  C   UNL     1      -1.514 -25.818  -8.500  1.00  0.00     0.004 A 
ATOM      8  C   UNL     1      -2.832 -24.986  -6.647  1.00  0.00     0.004 A 
ATOM      9  C   UNL     1      -0.379 -25.841  -7.684  1.00  0.00     0.004 A 
ATOM     10  C   UNL     1      -1.698 -25.009  -5.830  1.00  0.00     0.004 A 
ENDBRANCH   2   4
ENDBRANCH   1   2
BRANCH   1  11
ATOM     11  C   UNL     1       3.213 -25.906  -6.147  1.00  0.00     0.028 C 
BRANCH  11  12
ATOM     12  C   UNL     1       2.881 -27.252  -6.742  1.00  0.00    -0.028 C 
ATOM     13  C   UNL     1       2.748 -28.391  -6.029  1.00  0.00    -0.080 C 
ATOM     14  C   UNL     1       2.869 -28.412  -4.522  1.00  0.00     0.039 C 
ATOM     15  C   UNL     1       2.453 -29.671  -6.768  1.00  0.00     0.039 C 
ENDBRANCH  11  12
ENDBRANCH   1  11
TORSDOF 4
ENDMDL
MODEL 4
REMARK VINA RESULT:    -5.354      2.878      5.021
REMARK INTER + INTRA:          -7.106
REMARK INTER:                  -5.543
REMARK INTRA:                  -1.563
REMARK UNBOUND:                -0.500
REMARK SMILES CC(C)=CCC[C@@H](C)c1ccc(C)cc1
REMARK SMILES IDX 6 1 7 2 8 3 9 4 13 5 12 6 11 7 14 8 10 9 15 10 5 11 4 12
REMARK SMILES IDX 2 13 1 14 3 15
REMARK H PARENT
REMARK Flexibility Score: inf
ROOT
ATOM      1  C   UNL     1       1.777 -24.787  -6.546  1.00  0.00     0.012 C 
ENDROOT
BRANCH   1   2
ATOM      2  C   UNL     1       0.613 -25.455  -5.779  1.00  0.00     0.016 C 
ATOM      3  C   UNL     1       0.352 -24.786  -4.419  1.00  0.00     0.013 C 
BRANCH   2   4
ATOM      4  C   UNL     1      -0.650 -25.443  -6.620  1.00  0.00    -0.045 A 
ATOM      5  C   UNL     1      -4.259 -25.374  -8.994  1.00  0.00     0.044 C 
ATOM      6  C   UNL     1      -3.012 -25.427  -8.162  1.00  0.00    -0.051 A 
ATOM      7  C   UNL     1      -3.039 -25.015  -6.822  1.00  0.00     0.004 A 
ATOM      8  C   UNL     1      -1.796 -25.823  -8.736  1.00  0.00     0.004 A 
ATOM      9  C   UNL     1      -1.870 -25.029  -6.056  1.00  0.00     0.004 A 
ATOM     10  C   UNL     1      -0.626 -25.837  -7.971  1.00  0.00     0.004 A 
ENDBRANCH   2   4
ENDBRANCH   1   2
BRANCH   1  11
ATOM     11  C   UNL     1       1.756 -23.255  -6.437  1.00  0.00     0.028 C 
BRANCH  11  12
ATOM     12  C   UNL     1       0.997 -22.649  -7.592  1.00  0.00    -0.028 C 
ATOM     13  C   UNL     1      -0.135 -21.924  -7.466  1.00  0.00    -0.080 C 
ATOM     14  C   UNL     1      -0.732 -21.597  -6.116  1.00  0.00     0.039 C 
ATOM     15  C   UNL     1      -0.805 -21.415  -8.716  1.00  0.00     0.039 C 
ENDBRANCH  11  12
ENDBRANCH   1  11
TORSDOF 4
ENDMDL
MODEL 5
REMARK VINA RESULT:    -5.299     18.300     20.425
REMARK INTER + INTRA:          -7.038
REMARK INTER:                  -5.479
REMARK INTRA:                  -1.559
REMARK UNBOUND:                -0.500
REMARK SMILES CC(C)=CCC[C@@H](C)c1ccc(C)cc1
REMARK SMILES IDX 6 1 7 2 8 3 9 4 13 5 12 6 11 7 14 8 10 9 15 10 5 11 4 12
REMARK SMILES IDX 2 13 1 14 3 15
REMARK H PARENT
REMARK Flexibility Score: inf
ROOT
ATOM      1  C   UNL     1      -8.384 -14.633   9.085  1.00  0.00     0.012 C 
ENDROOT
BRANCH   1   2
ATOM      2  C   UNL     1      -9.383 -15.077   7.992  1.00  0.00     0.016 C 
ATOM      3  C   UNL     1     -10.739 -14.361   8.116  1.00  0.00     0.013 C 
BRANCH   2   4
ATOM      4  C   UNL     1      -8.793 -14.847   6.612  1.00  0.00    -0.045 A 
ATOM      5  C   UNL     1      -7.136 -14.156   2.683  1.00  0.00     0.044 C 
ATOM      6  C   UNL     1      -7.722 -14.424   4.038  1.00  0.00    -0.051 A 
ATOM      7  C   UNL     1      -9.019 -13.987   4.345  1.00  0.00     0.004 A 
ATOM      8  C   UNL     1      -6.953 -15.050   5.029  1.00  0.00     0.004 A 
ATOM      9  C   UNL     1      -9.552 -14.203   5.619  1.00  0.00     0.004 A 
ATOM     10  C   UNL     1      -7.486 -15.265   6.303  1.00  0.00     0.004 A 
ENDBRANCH   2   4
ENDBRANCH   1   2
BRANCH   1  11
ATOM     11  C   UNL     1      -8.227 -13.107   9.159  1.00  0.00     0.028 C 
BRANCH  11  12
ATOM     12  C   UNL     1      -6.783 -12.711   8.975  1.00  0.00    -0.028 C 
ATOM     13  C   UNL     1      -6.308 -12.025   7.912  1.00  0.00    -0.080 C 
ATOM     14  C   UNL     1      -7.213 -11.531   6.807  1.00  0.00     0.039 C 
ATOM     15  C   UNL     1      -4.831 -11.735   7.847  1.00  0.00     0.039 C 
ENDBRANCH  11  12
ENDBRANCH   1  11
TORSDOF 4
ENDMDL
MODEL 6
REMARK VINA RESULT:    -5.295      9.312     10.849
REMARK INTER + INTRA:          -7.033
REMARK INTER:                  -5.599
REMARK INTRA:                  -1.434
REMARK UNBOUND:                -0.500
REMARK SMILES CC(C)=CCC[C@@H](C)c1ccc(C)cc1
REMARK SMILES IDX 6 1 7 2 8 3 9 4 13 5 12 6 11 7 14 8 10 9 15 10 5 11 4 12
REMARK SMILES IDX 2 13 1 14 3 15
REMARK H PARENT
REMARK Flexibility Score: inf
ROOT
ATOM      1  C   UNL     1       5.645 -19.429  -0.089  1.00  0.00     0.012 C 
ENDROOT
BRANCH   1   2
ATOM      2  C   UNL     1       4.520 -20.364   0.412  1.00  0.00     0.016 C 
ATOM      3  C   UNL     1       4.789 -20.887   1.833  1.00  0.00     0.013 C 
BRANCH   2   4
ATOM      4  C   UNL     1       3.180 -19.653   0.359  1.00  0.00    -0.045 A 
ATOM      5  C   UNL     1      -0.654 -17.668   0.222  1.00  0.00     0.044 C 
ATOM      6  C   UNL     1       0.682 -18.349   0.240  1.00  0.00    -0.051 A 
ATOM      7  C   UNL     1       0.784 -19.712  -0.073  1.00  0.00     0.004 A 
ATOM      8  C   UNL     1       1.828 -17.646   0.637  1.00  0.00     0.004 A 
ATOM      9  C   UNL     1       2.023 -20.357  -0.020  1.00  0.00     0.004 A 
ATOM     10  C   UNL     1       3.067 -18.290   0.691  1.00  0.00     0.004 A 
ENDBRANCH   2   4
ENDBRANCH   1   2
BRANCH   1  11
ATOM     11  C   UNL     1       5.711 -19.352  -1.623  1.00  0.00     0.028 C 
BRANCH  11  12
ATOM     12  C   UNL     1       5.427 -17.949  -2.098  1.00  0.00    -0.028 C 
ATOM     13  C   UNL     1       4.322 -17.584  -2.784  1.00  0.00    -0.080 C 
ATOM     14  C   UNL     1       3.214 -18.562  -3.099  1.00  0.00     0.039 C 
ATOM     15  C   UNL     1       4.194 -16.150  -3.228  1.00  0.00     0.039 C 
ENDBRANCH  11  12
ENDBRANCH   1  11
TORSDOF 4
ENDMDL
MODEL 7
REMARK VINA RESULT:    -5.209      9.006     10.485
REMARK INTER + INTRA:          -6.927
REMARK INTER:                  -5.762
REMARK INTRA:                  -1.165
REMARK UNBOUND:                -0.500
REMARK SMILES CC(C)=CCC[C@@H](C)c1ccc(C)cc1
REMARK SMILES IDX 6 1 7 2 8 3 9 4 13 5 12 6 11 7 14 8 10 9 15 10 5 11 4 12
REMARK SMILES IDX 2 13 1 14 3 15
REMARK H PARENT
REMARK Flexibility Score: inf
ROOT
ATOM      1  C   UNL     1       5.504 -19.225   0.251  1.00  0.00     0.012 C 
ENDROOT
BRANCH   1   2
ATOM      2  C   UNL     1       4.347 -20.250   0.240  1.00  0.00     0.016 C 
ATOM      3  C   UNL     1       4.426 -21.229   1.423  1.00  0.00     0.013 C 
BRANCH   2   4
ATOM      4  C   UNL     1       3.008 -19.535   0.239  1.00  0.00    -0.045 A 
ATOM      5  C   UNL     1      -0.822 -17.538   0.249  1.00  0.00     0.044 C 
ATOM      6  C   UNL     1       0.512 -18.223   0.216  1.00  0.00    -0.051 A 
ATOM      7  C   UNL     1       0.599 -19.583  -0.116  1.00  0.00     0.004 A 
ATOM      8  C   UNL     1       1.672 -17.528   0.584  1.00  0.00     0.004 A 
ATOM      9  C   UNL     1       1.838 -20.232  -0.111  1.00  0.00     0.004 A 
ATOM     10  C   UNL     1       2.911 -18.176   0.590  1.00  0.00     0.004 A 
ENDBRANCH   2   4
ENDBRANCH   1   2
BRANCH   1  11
ATOM     11  C   UNL     1       6.240 -19.148  -1.096  1.00  0.00     0.028 C 
BRANCH  11  12
ATOM     12  C   UNL     1       5.389 -19.723  -2.201  1.00  0.00    -0.028 C 
ATOM     13  C   UNL     1       4.538 -19.002  -2.964  1.00  0.00    -0.080 C 
ATOM     14  C   UNL     1       4.398 -17.504  -2.812  1.00  0.00     0.039 C 
ATOM     15  C   UNL     1       3.723 -19.722  -4.006  1.00  0.00     0.039 C 
ENDBRANCH  11  12
ENDBRANCH   1  11
TORSDOF 4
ENDMDL
MODEL 8
REMARK VINA RESULT:    -5.193      1.319      6.748
REMARK INTER + INTRA:          -6.908
REMARK INTER:                  -6.384
REMARK INTRA:                  -0.524
REMARK UNBOUND:                -0.500
REMARK SMILES CC(C)=CCC[C@@H](C)c1ccc(C)cc1
REMARK SMILES IDX 6 1 7 2 8 3 9 4 13 5 12 6 11 7 14 8 10 9 15 10 5 11 4 12
REMARK SMILES IDX 2 13 1 14 3 15
REMARK H PARENT
REMARK Flexibility Score: inf
ROOT
ATOM      1  C   UNL     1      -0.266 -25.457  -6.462  1.00  0.00     0.012 C 
ENDROOT
BRANCH   1   2
ATOM      2  C   UNL     1       0.921 -25.294  -5.486  1.00  0.00     0.016 C 
ATOM      3  C   UNL     1       0.458 -25.004  -4.048  1.00  0.00     0.013 C 
BRANCH   2   4
ATOM      4  C   UNL     1       1.802 -26.531  -5.513  1.00  0.00    -0.045 A 
ATOM      5  C   UNL     1       4.290 -30.062  -5.554  1.00  0.00     0.044 C 
ATOM      6  C   UNL     1       3.451 -28.818  -5.544  1.00  0.00    -0.051 A 
ATOM      7  C   UNL     1       3.159 -28.173  -4.334  1.00  0.00     0.004 A 
ATOM      8  C   UNL     1       2.895 -28.332  -6.735  1.00  0.00     0.004 A 
ATOM      9  C   UNL     1       2.347 -27.035  -4.319  1.00  0.00     0.004 A 
ATOM     10  C   UNL     1       2.082 -27.195  -6.722  1.00  0.00     0.004 A 
ENDBRANCH   2   4
ENDBRANCH   1   2
BRANCH   1  11
ATOM     11  C   UNL     1      -1.470 -24.581  -6.081  1.00  0.00     0.028 C 
BRANCH  11  12
ATOM     12  C   UNL     1      -2.749 -25.170  -6.622  1.00  0.00    -0.028 C 
ATOM     13  C   UNL     1      -3.421 -24.688  -7.690  1.00  0.00    -0.080 C 
ATOM     14  C   UNL     1      -2.909 -23.515  -8.496  1.00  0.00     0.039 C 
ATOM     15  C   UNL     1      -4.709 -25.358  -8.091  1.00  0.00     0.039 C 
ENDBRANCH  11  12
ENDBRANCH   1  11
TORSDOF 4
ENDMDL
MODEL 9
REMARK VINA RESULT:    -5.156      8.780     10.379
REMARK INTER + INTRA:          -6.861
REMARK INTER:                  -5.367
REMARK INTRA:                  -1.495
REMARK UNBOUND:                -0.500
REMARK SMILES CC(C)=CCC[C@@H](C)c1ccc(C)cc1
REMARK SMILES IDX 6 1 7 2 8 3 9 4 13 5 12 6 11 7 14 8 10 9 15 10 5 11 4 12
REMARK SMILES IDX 2 13 1 14 3 15
REMARK H PARENT
REMARK Flexibility Score: inf
ROOT
ATOM      1  C   UNL     1       5.654 -18.003  -0.250  1.00  0.00     0.012 C 
ENDROOT
BRANCH   1   2
ATOM      2  C   UNL     1       4.393 -17.800   0.621  1.00  0.00     0.016 C 
ATOM      3  C   UNL     1       3.587 -16.560   0.197  1.00  0.00     0.013 C 
BRANCH   2   4
ATOM      4  C   UNL     1       3.515 -19.037   0.576  1.00  0.00    -0.045 A 
ATOM      5  C   UNL     1       1.036 -22.574   0.484  1.00  0.00     0.044 C 
ATOM      6  C   UNL     1       1.905 -21.351   0.486  1.00  0.00    -0.051 A 
ATOM      7  C   UNL     1       3.239 -21.434   0.909  1.00  0.00     0.004 A 
ATOM      8  C   UNL     1       1.370 -20.104   0.134  1.00  0.00     0.004 A 
ATOM      9  C   UNL     1       4.039 -20.288   0.947  1.00  0.00     0.004 A 
ATOM     10  C   UNL     1       2.169 -18.958   0.172  1.00  0.00     0.004 A 
ENDBRANCH   2   4
ENDBRANCH   1   2
BRANCH   1  11
ATOM     11  C   UNL     1       5.346 -17.968  -1.755  1.00  0.00     0.028 C 
BRANCH  11  12
ATOM     12  C   UNL     1       5.811 -19.238  -2.423  1.00  0.00    -0.028 C 
ATOM     13  C   UNL     1       4.988 -20.170  -2.950  1.00  0.00    -0.080 C 
ATOM     14  C   UNL     1       3.486 -19.995  -2.969  1.00  0.00     0.039 C 
ATOM     15  C   UNL     1       5.597 -21.410  -3.551  1.00  0.00     0.039 C 
ENDBRANCH  11  12
ENDBRANCH   1  11
TORSDOF 4
ENDMDL
