MODEL 1
REMARK VINA RESULT:    -4.386      0.000      0.000
REMARK INTER + INTRA:          -6.967
REMARK INTER:                  -6.693
REMARK INTRA:                  -0.274
REMARK UNBOUND:                -0.274
REMARK SMILES CCCCCCCCCCC(=O)[O-]
REMARK SMILES IDX 7 1 8 2 9 3 10 4 11 5 12 6 13 7 6 8 5 9 4 10 3 11 2 12 1 13
REMARK H PARENT
REMARK Flexibility Score: inf
ROOT
ATOM      1  C   UNL     1      37.917  26.241  16.225  1.00  0.00     0.000 C 
ENDROOT
BRANCH   1   2
ATOM      2  C   UNL     1      38.934  26.125  17.371  1.00  0.00     0.000 C 
BRANCH   2   3
ATOM      3  C   UNL     1      40.148  27.049  17.182  1.00  0.00     0.006 C 
BRANCH   3   4
ATOM      4  C   UNL     1      41.352  26.325  16.567  1.00  0.00     0.053 C 
BRANCH   4   5
ATOM      5  C   UNL     1      42.060  25.516  17.607  1.00  0.00     0.041 C 
ATOM      6  O   UNL     1      41.886  25.762  18.830  1.00  0.00    -0.550 OA
ATOM      7  O   UNL     1      42.951  24.521  17.225  1.00  0.00    -0.550 OA
ENDBRANCH   4   5
ENDBRANCH   3   4
ENDBRANCH   2   3
ENDBRANCH   1   2
BRANCH   1   8
ATOM      8  C   UNL     1      36.627  25.479  16.560  1.00  0.00     0.000 C 
BRANCH   8   9
ATOM      9  C   UNL     1      35.430  25.940  15.711  1.00  0.00    -0.000 C 
BRANCH   9  10
ATOM     10  C   UNL     1      35.006  27.386  16.022  1.00  0.00    -0.000 C 
BRANCH  10  11
ATOM     11  C   UNL     1      35.005  28.282  14.774  1.00  0.00    -0.000 C 
BRANCH  11  12
ATOM     12  C   UNL     1      34.979  29.777  15.122  1.00  0.00    -0.003 C 
ATOM     13  C   UNL     1      34.609  30.618  13.904  1.00  0.00     0.004 C 
ENDBRANCH  11  12
ENDBRANCH  10  11
ENDBRANCH   9  10
ENDBRANCH   8   9
ENDBRANCH   1   8
TORSDOF 9
ENDMDL
MODEL 2
REMARK VINA RESULT:    -4.371     12.427     13.234
REMARK INTER + INTRA:          -6.945
REMARK INTER:                  -6.389
REMARK INTRA:                  -0.557
REMARK UNBOUND:                -0.274
REMARK SMILES CCCCCCCCCCC(=O)[O-]
REMARK SMILES IDX 7 1 8 2 9 3 10 4 11 5 12 6 13 7 6 8 5 9 4 10 3 11 2 12 1 13
REMARK H PARENT
REMARK Flexibility Score: inf
ROOT
ATOM      1  C   UNL     1      34.540  28.811  28.718  1.00  0.00     0.000 C 
ENDROOT
BRANCH   1   2
ATOM      2  C   UNL     1      35.928  28.713  29.368  1.00  0.00     0.000 C 
BRANCH   2   3
ATOM      3  C   UNL     1      36.578  30.089  29.585  1.00  0.00     0.006 C 
BRANCH   3   4
ATOM      4  C   UNL     1      37.080  30.719  28.279  1.00  0.00     0.053 C 
BRANCH   4   5
ATOM      5  C   UNL     1      37.958  31.893  28.570  1.00  0.00     0.041 C 
ATOM      6  O   UNL     1      37.862  32.500  29.670  1.00  0.00    -0.550 OA
ATOM      7  O   UNL     1      38.851  32.348  27.608  1.00  0.00    -0.550 OA
ENDBRANCH   4   5
ENDBRANCH   3   4
ENDBRANCH   2   3
ENDBRANCH   1   2
BRANCH   1   8
ATOM      8  C   UNL     1      33.431  28.633  29.767  1.00  0.00     0.000 C 
BRANCH   8   9
ATOM      9  C   UNL     1      32.554  27.400  29.496  1.00  0.00    -0.000 C 
BRANCH   9  10
ATOM     10  C   UNL     1      31.474  27.663  28.432  1.00  0.00    -0.000 C 
BRANCH  10  11
ATOM     11  C   UNL     1      31.197  26.432  27.556  1.00  0.00    -0.000 C 
BRANCH  11  12
ATOM     12  C   UNL     1      32.364  26.104  26.614  1.00  0.00    -0.003 C 
ATOM     13  C   UNL     1      32.713  27.301  25.734  1.00  0.00     0.004 C 
ENDBRANCH  11  12
ENDBRANCH  10  11
ENDBRANCH   9  10
ENDBRANCH   8   9
ENDBRANCH   1   8
TORSDOF 9
ENDMDL
MODEL 3
REMARK VINA RESULT:    -4.349      4.910      8.163
REMARK INTER + INTRA:          -6.912
REMARK INTER:                  -6.569
REMARK INTRA:                  -0.343
REMARK UNBOUND:                -0.274
REMARK SMILES CCCCCCCCCCC(=O)[O-]
REMARK SMILES IDX 7 1 8 2 9 3 10 4 11 5 12 6 13 7 6 8 5 9 4 10 3 11 2 12 1 13
REMARK H PARENT
REMARK Flexibility Score: inf
ROOT
ATOM      1  C   UNL     1      42.516  29.719  16.125  1.00  0.00     0.000 C 
ENDROOT
BRANCH   1   2
ATOM      2  C   UNL     1      41.569  29.129  17.182  1.00  0.00     0.000 C 
BRANCH   2   3
ATOM      3  C   UNL     1      41.825  27.635  17.439  1.00  0.00     0.006 C 
BRANCH   3   4
ATOM      4  C   UNL     1      40.959  26.726  16.558  1.00  0.00     0.053 C 
BRANCH   4   5
ATOM      5  C   UNL     1      39.625  26.500  17.196  1.00  0.00     0.041 C 
ATOM      6  O   UNL     1      38.624  26.216  16.487  1.00  0.00    -0.550 OA
ATOM      7  O   UNL     1      39.477  26.650  18.569  1.00  0.00    -0.550 OA
ENDBRANCH   4   5
ENDBRANCH   3   4
ENDBRANCH   2   3
ENDBRANCH   1   2
BRANCH   1   8
ATOM      8  C   UNL     1      42.567  31.250  16.231  1.00  0.00     0.000 C 
BRANCH   8   9
ATOM      9  C   UNL     1      43.798  31.851  15.534  1.00  0.00    -0.000 C 
BRANCH   9  10
ATOM     10  C   UNL     1      45.119  31.443  16.210  1.00  0.00    -0.000 C 
BRANCH  10  11
ATOM     11  C   UNL     1      46.117  30.813  15.225  1.00  0.00    -0.000 C 
BRANCH  11  12
ATOM     12  C   UNL     1      47.372  30.272  15.924  1.00  0.00    -0.003 C 
ATOM     13  C   UNL     1      48.511  30.071  14.928  1.00  0.00     0.004 C 
ENDBRANCH  11  12
ENDBRANCH  10  11
ENDBRANCH   9  10
ENDBRANCH   8   9
ENDBRANCH   1   8
TORSDOF 9
ENDMDL
MODEL 4
REMARK VINA RESULT:    -4.328     12.379     13.799
REMARK INTER + INTRA:          -6.879
REMARK INTER:                  -6.428
REMARK INTRA:                  -0.452
REMARK UNBOUND:                -0.274
REMARK SMILES CCCCCCCCCCC(=O)[O-]
REMARK SMILES IDX 7 1 8 2 9 3 10 4 11 5 12 6 13 7 6 8 5 9 4 10 3 11 2 12 1 13
REMARK H PARENT
REMARK Flexibility Score: inf
ROOT
ATOM      1  C   UNL     1      35.290  27.838  29.620  1.00  0.00     0.000 C 
ENDROOT
BRANCH   1   2
ATOM      2  C   UNL     1      34.013  28.353  28.941  1.00  0.00     0.000 C 
BRANCH   2   3
ATOM      3  C   UNL     1      32.890  27.303  28.917  1.00  0.00     0.006 C 
BRANCH   3   4
ATOM      4  C   UNL     1      31.915  27.506  27.750  1.00  0.00     0.053 C 
BRANCH   4   5
ATOM      5  C   UNL     1      32.330  26.680  26.574  1.00  0.00     0.041 C 
ATOM      6  O   UNL     1      32.727  27.237  25.517  1.00  0.00    -0.550 OA
ATOM      7  O   UNL     1      32.233  25.296  26.629  1.00  0.00    -0.550 OA
ENDBRANCH   4   5
ENDBRANCH   3   4
ENDBRANCH   2   3
ENDBRANCH   1   2
BRANCH   1   8
ATOM      8  C   UNL     1      36.425  28.867  29.504  1.00  0.00     0.000 C 
BRANCH   8   9
ATOM      9  C   UNL     1      36.129  29.958  28.463  1.00  0.00    -0.000 C 
BRANCH   9  10
ATOM     10  C   UNL     1      37.356  30.838  28.163  1.00  0.00    -0.000 C 
BRANCH  10  11
ATOM     11  C   UNL     1      38.422  30.762  29.267  1.00  0.00    -0.000 C 
BRANCH  11  12
ATOM     12  C   UNL     1      39.432  31.915  29.191  1.00  0.00    -0.003 C 
ATOM     13  C   UNL     1      38.887  33.068  28.353  1.00  0.00     0.004 C 
ENDBRANCH  11  12
ENDBRANCH  10  11
ENDBRANCH   9  10
ENDBRANCH   8   9
ENDBRANCH   1   8
TORSDOF 9
ENDMDL
MODEL 5
REMARK VINA RESULT:    -4.305     12.805     13.979
REMARK INTER + INTRA:          -6.844
REMARK INTER:                  -6.347
REMARK INTRA:                  -0.497
REMARK UNBOUND:                -0.274
REMARK SMILES CCCCCCCCCCC(=O)[O-]
REMARK SMILES IDX 7 1 8 2 9 3 10 4 11 5 12 6 13 7 6 8 5 9 4 10 3 11 2 12 1 13
REMARK H PARENT
REMARK Flexibility Score: inf
ROOT
ATOM      1  C   UNL     1      41.655  31.622  29.720  1.00  0.00     0.000 C 
ENDROOT
BRANCH   1   2
ATOM      2  C   UNL     1      43.102  31.891  29.279  1.00  0.00     0.000 C 
BRANCH   2   3
ATOM      3  C   UNL     1      44.056  30.743  29.643  1.00  0.00     0.006 C 
BRANCH   3   4
ATOM      4  C   UNL     1      43.428  29.360  29.425  1.00  0.00     0.053 C 
BRANCH   4   5
ATOM      5  C   UNL     1      44.487  28.304  29.409  1.00  0.00     0.041 C 
ATOM      6  O   UNL     1      45.693  28.617  29.229  1.00  0.00    -0.550 OA
ATOM      7  O   UNL     1      44.135  26.967  29.545  1.00  0.00    -0.550 OA
ENDBRANCH   4   5
ENDBRANCH   3   4
ENDBRANCH   2   3
ENDBRANCH   1   2
BRANCH   1   8
ATOM      8  C   UNL     1      40.915  32.937  30.004  1.00  0.00     0.000 C 
BRANCH   8   9
ATOM      9  C   UNL     1      39.416  32.856  29.674  1.00  0.00    -0.000 C 
BRANCH   9  10
ATOM     10  C   UNL     1      39.144  32.827  28.160  1.00  0.00    -0.000 C 
BRANCH  10  11
ATOM     11  C   UNL     1      38.062  31.806  27.774  1.00  0.00    -0.000 C 
BRANCH  11  12
ATOM     12  C   UNL     1      37.808  30.771  28.879  1.00  0.00    -0.003 C 
ATOM     13  C   UNL     1      36.522  29.992  28.617  1.00  0.00     0.004 C 
ENDBRANCH  11  12
ENDBRANCH  10  11
ENDBRANCH   9  10
ENDBRANCH   8   9
ENDBRANCH   1   8
TORSDOF 9
ENDMDL
MODEL 6
REMARK VINA RESULT:    -4.294      0.759      1.232
REMARK INTER + INTRA:          -6.828
REMARK INTER:                  -6.470
REMARK INTRA:                  -0.358
REMARK UNBOUND:                -0.274
REMARK SMILES CCCCCCCCCCC(=O)[O-]
REMARK SMILES IDX 7 1 8 2 9 3 10 4 11 5 12 6 13 7 6 8 5 9 4 10 3 11 2 12 1 13
REMARK H PARENT
REMARK Flexibility Score: inf
ROOT
ATOM      1  C   UNL     1      37.754  26.178  15.993  1.00  0.00     0.000 C 
ENDROOT
BRANCH   1   2
ATOM      2  C   UNL     1      38.761  26.271  17.150  1.00  0.00     0.000 C 
BRANCH   2   3
ATOM      3  C   UNL     1      40.192  26.556  16.667  1.00  0.00     0.006 C 
BRANCH   3   4
ATOM      4  C   UNL     1      41.063  27.208  17.748  1.00  0.00     0.053 C 
BRANCH   4   5
ATOM      5  C   UNL     1      41.624  26.167  18.663  1.00  0.00     0.041 C 
ATOM      6  O   UNL     1      42.242  25.176  18.193  1.00  0.00    -0.550 OA
ATOM      7  O   UNL     1      41.424  26.266  20.034  1.00  0.00    -0.550 OA
ENDBRANCH   4   5
ENDBRANCH   3   4
ENDBRANCH   2   3
ENDBRANCH   1   2
BRANCH   1   8
ATOM      8  C   UNL     1      36.393  25.671  16.493  1.00  0.00     0.000 C 
BRANCH   8   9
ATOM      9  C   UNL     1      35.216  26.240  15.683  1.00  0.00    -0.000 C 
BRANCH   9  10
ATOM     10  C   UNL     1      35.031  27.754  15.891  1.00  0.00    -0.000 C 
BRANCH  10  11
ATOM     11  C   UNL     1      35.066  28.540  14.571  1.00  0.00    -0.000 C 
BRANCH  11  12
ATOM     12  C   UNL     1      34.975  30.057  14.786  1.00  0.00    -0.003 C 
ATOM     13  C   UNL     1      34.275  30.737  13.613  1.00  0.00     0.004 C 
ENDBRANCH  11  12
ENDBRANCH  10  11
ENDBRANCH   9  10
ENDBRANCH   8   9
ENDBRANCH   1   8
TORSDOF 9
ENDMDL
MODEL 7
REMARK VINA RESULT:    -4.264     12.469     13.362
REMARK INTER + INTRA:          -6.782
REMARK INTER:                  -6.400
REMARK INTRA:                  -0.382
REMARK UNBOUND:                -0.274
REMARK SMILES CCCCCCCCCCC(=O)[O-]
REMARK SMILES IDX 7 1 8 2 9 3 10 4 11 5 12 6 13 7 6 8 5 9 4 10 3 11 2 12 1 13
REMARK H PARENT
REMARK Flexibility Score: inf
ROOT
ATOM      1  C   UNL     1      36.232  29.609  28.701  1.00  0.00     0.000 C 
ENDROOT
BRANCH   1   2
ATOM      2  C   UNL     1      37.463  30.496  28.940  1.00  0.00     0.000 C 
BRANCH   2   3
ATOM      3  C   UNL     1      37.417  31.804  28.134  1.00  0.00     0.006 C 
BRANCH   3   4
ATOM      4  C   UNL     1      38.813  32.359  27.826  1.00  0.00     0.053 C 
BRANCH   4   5
ATOM      5  C   UNL     1      39.580  32.575  29.092  1.00  0.00     0.041 C 
ATOM      6  O   UNL     1      39.148  33.370  29.968  1.00  0.00    -0.550 OA
ATOM      7  O   UNL     1      40.796  31.933  29.285  1.00  0.00    -0.550 OA
ENDBRANCH   4   5
ENDBRANCH   3   4
ENDBRANCH   2   3
ENDBRANCH   1   2
BRANCH   1   8
ATOM      8  C   UNL     1      36.245  28.391  29.637  1.00  0.00     0.000 C 
BRANCH   8   9
ATOM      9  C   UNL     1      34.932  27.593  29.587  1.00  0.00    -0.000 C 
BRANCH   9  10
ATOM     10  C   UNL     1      33.793  28.368  28.902  1.00  0.00    -0.000 C 
BRANCH  10  11
ATOM     11  C   UNL     1      32.558  27.493  28.637  1.00  0.00    -0.000 C 
BRANCH  11  12
ATOM     12  C   UNL     1      32.285  27.297  27.138  1.00  0.00    -0.003 C 
ATOM     13  C   UNL     1      32.273  25.816  26.771  1.00  0.00     0.004 C 
ENDBRANCH  11  12
ENDBRANCH  10  11
ENDBRANCH   9  10
ENDBRANCH   8   9
ENDBRANCH   1   8
TORSDOF 9
ENDMDL
MODEL 8
REMARK VINA RESULT:    -4.173      4.873      8.154
REMARK INTER + INTRA:          -6.642
REMARK INTER:                  -6.318
REMARK INTRA:                  -0.324
REMARK UNBOUND:                -0.274
REMARK SMILES CCCCCCCCCCC(=O)[O-]
REMARK SMILES IDX 7 1 8 2 9 3 10 4 11 5 12 6 13 7 6 8 5 9 4 10 3 11 2 12 1 13
REMARK H PARENT
REMARK Flexibility Score: inf
ROOT
ATOM      1  C   UNL     1      42.518  29.848  15.927  1.00  0.00     0.000 C 
ENDROOT
BRANCH   1   2
ATOM      2  C   UNL     1      41.804  29.090  17.057  1.00  0.00     0.000 C 
BRANCH   2   3
ATOM      3  C   UNL     1      41.458  27.642  16.672  1.00  0.00     0.006 C 
BRANCH   3   4
ATOM      4  C   UNL     1      40.643  26.922  17.753  1.00  0.00     0.053 C 
BRANCH   4   5
ATOM      5  C   UNL     1      41.527  26.030  18.565  1.00  0.00     0.041 C 
ATOM      6  O   UNL     1      41.571  26.151  19.818  1.00  0.00    -0.550 OA
ATOM      7  O   UNL     1      42.340  25.096  17.935  1.00  0.00    -0.550 OA
ENDBRANCH   4   5
ENDBRANCH   3   4
ENDBRANCH   2   3
ENDBRANCH   1   2
BRANCH   1   8
ATOM      8  C   UNL     1      42.896  31.267  16.374  1.00  0.00     0.000 C 
BRANCH   8   9
ATOM      9  C   UNL     1      44.105  31.827  15.607  1.00  0.00    -0.000 C 
BRANCH   9  10
ATOM     10  C   UNL     1      45.447  31.322  16.166  1.00  0.00    -0.000 C 
BRANCH  10  11
ATOM     11  C   UNL     1      46.347  30.712  15.080  1.00  0.00    -0.000 C 
BRANCH  11  12
ATOM     12  C   UNL     1      47.582  30.012  15.663  1.00  0.00    -0.003 C 
ATOM     13  C   UNL     1      48.832  30.334  14.849  1.00  0.00     0.004 C 
ENDBRANCH  11  12
ENDBRANCH  10  11
ENDBRANCH   9  10
ENDBRANCH   8   9
ENDBRANCH   1   8
TORSDOF 9
ENDMDL
MODEL 9
REMARK VINA RESULT:    -4.017     13.082     13.994
REMARK INTER + INTRA:          -6.405
REMARK INTER:                  -5.859
REMARK INTRA:                  -0.545
REMARK UNBOUND:                -0.274
REMARK SMILES CCCCCCCCCCC(=O)[O-]
REMARK SMILES IDX 7 1 8 2 9 3 10 4 11 5 12 6 13 7 6 8 5 9 4 10 3 11 2 12 1 13
REMARK H PARENT
REMARK Flexibility Score: inf
ROOT
ATOM      1  C   UNL     1      39.038  33.015  28.347  1.00  0.00     0.000 C 
ENDROOT
BRANCH   1   2
ATOM      2  C   UNL     1      39.859  32.944  29.643  1.00  0.00     0.000 C 
BRANCH   2   3
ATOM      3  C   UNL     1      41.364  32.771  29.381  1.00  0.00     0.006 C 
BRANCH   3   4
ATOM      4  C   UNL     1      41.868  31.365  29.732  1.00  0.00     0.053 C 
BRANCH   4   5
ATOM      5  C   UNL     1      43.303  31.213  29.341  1.00  0.00     0.041 C 
ATOM      6  O   UNL     1      43.999  32.229  29.076  1.00  0.00    -0.550 OA
ATOM      7  O   UNL     1      43.860  29.946  29.222  1.00  0.00    -0.550 OA
ENDBRANCH   4   5
ENDBRANCH   3   4
ENDBRANCH   2   3
ENDBRANCH   1   2
BRANCH   1   8
ATOM      8  C   UNL     1      37.723  32.233  28.488  1.00  0.00     0.000 C 
BRANCH   8   9
ATOM      9  C   UNL     1      37.472  31.754  29.927  1.00  0.00    -0.000 C 
BRANCH   9  10
ATOM     10  C   UNL     1      36.902  30.325  29.984  1.00  0.00    -0.000 C 
BRANCH  10  11
ATOM     11  C   UNL     1      36.432  29.821  28.611  1.00  0.00    -0.000 C 
BRANCH  11  12
ATOM     12  C   UNL     1      35.036  29.186  28.662  1.00  0.00    -0.003 C 
ATOM     13  C   UNL     1      34.938  28.165  29.792  1.00  0.00     0.004 C 
ENDBRANCH  11  12
ENDBRANCH  10  11
ENDBRANCH   9  10
ENDBRANCH   8   9
ENDBRANCH   1   8
TORSDOF 9
ENDMDL
