MODEL 1
REMARK VINA RESULT:    -3.160      0.000      0.000
REMARK INTER + INTRA:          -4.357
REMARK INTER:                  -4.084
REMARK INTRA:                  -0.273
REMARK UNBOUND:                -0.273
REMARK SMILES CCCCCCC(=O)[O-]
REMARK SMILES IDX 5 1 6 2 7 3 8 4 9 5 4 6 3 7 2 8 1 9
REMARK H PARENT
REMARK Flexibility Score: inf
ROOT
ATOM      1  C   UNL     1     -21.819   0.682   2.557  1.00  0.00     0.006 C 
ENDROOT
BRANCH   1   2
ATOM      2  C   UNL     1     -20.828   0.196   1.490  1.00  0.00     0.053 C 
BRANCH   2   3
ATOM      3  C   UNL     1     -20.203   1.338   0.751  1.00  0.00     0.041 C 
ATOM      4  O   UNL     1     -20.911   2.093   0.032  1.00  0.00    -0.550 OA
ATOM      5  O   UNL     1     -18.843   1.590   0.881  1.00  0.00    -0.550 OA
ENDBRANCH   2   3
ENDBRANCH   1   2
BRANCH   1   6
ATOM      6  C   UNL     1     -23.280   0.590   2.081  1.00  0.00     0.000 C 
BRANCH   6   7
ATOM      7  C   UNL     1     -24.095   1.844   2.458  1.00  0.00    -0.000 C 
BRANCH   7   8
ATOM      8  C   UNL     1     -23.253   3.128   2.528  1.00  0.00    -0.003 C 
ATOM      9  C   UNL     1     -23.852   4.186   3.453  1.00  0.00     0.004 C 
ENDBRANCH   7   8
ENDBRANCH   6   7
ENDBRANCH   1   6
TORSDOF 5
ENDMDL
MODEL 2
REMARK VINA RESULT:    -3.037     14.781     16.090
REMARK INTER + INTRA:          -4.197
REMARK INTER:                  -3.818
REMARK INTRA:                  -0.379
REMARK UNBOUND:                -0.273
REMARK SMILES CCCCCCC(=O)[O-]
REMARK SMILES IDX 5 1 6 2 7 3 8 4 9 5 4 6 3 7 2 8 1 9
REMARK H PARENT
REMARK Flexibility Score: inf
ROOT
ATOM      1  C   UNL     1     -12.592 -11.210   2.755  1.00  0.00     0.006 C 
ENDROOT
BRANCH   1   2
ATOM      2  C   UNL     1     -12.593 -12.654   3.273  1.00  0.00     0.053 C 
BRANCH   2   3
ATOM      3  C   UNL     1     -12.568 -12.708   4.770  1.00  0.00     0.041 C 
ATOM      4  O   UNL     1     -13.609 -13.014   5.411  1.00  0.00    -0.550 OA
ATOM      5  O   UNL     1     -11.387 -12.456   5.456  1.00  0.00    -0.550 OA
ENDBRANCH   2   3
ENDBRANCH   1   2
BRANCH   1   6
ATOM      6  C   UNL     1     -13.811 -10.909   1.865  1.00  0.00     0.000 C 
BRANCH   6   7
ATOM      7  C   UNL     1     -14.804  -9.943   2.546  1.00  0.00    -0.000 C 
BRANCH   7   8
ATOM      8  C   UNL     1     -15.761 -10.636   3.530  1.00  0.00    -0.003 C 
ATOM      9  C   UNL     1     -16.314 -11.955   2.996  1.00  0.00     0.004 C 
ENDBRANCH   7   8
ENDBRANCH   6   7
ENDBRANCH   1   6
TORSDOF 5
ENDMDL
MODEL 3
REMARK VINA RESULT:    -2.950      1.620      2.019
REMARK INTER + INTRA:          -4.085
REMARK INTER:                  -3.923
REMARK INTRA:                  -0.163
REMARK UNBOUND:                -0.273
REMARK SMILES CCCCCCC(=O)[O-]
REMARK SMILES IDX 5 1 6 2 7 3 8 4 9 5 4 6 3 7 2 8 1 9
REMARK H PARENT
REMARK Flexibility Score: inf
ROOT
ATOM      1  C   UNL     1     -22.960   1.607   2.145  1.00  0.00     0.006 C 
ENDROOT
BRANCH   1   2
ATOM      2  C   UNL     1     -22.379   0.277   2.642  1.00  0.00     0.053 C 
BRANCH   2   3
ATOM      3  C   UNL     1     -21.403  -0.304   1.666  1.00  0.00     0.041 C 
ATOM      4  O   UNL     1     -21.677  -1.369   1.051  1.00  0.00    -0.550 OA
ATOM      5  O   UNL     1     -20.204   0.350   1.409  1.00  0.00    -0.550 OA
ENDBRANCH   2   3
ENDBRANCH   1   2
BRANCH   1   6
ATOM      6  C   UNL     1     -24.459   1.745   2.465  1.00  0.00     0.000 C 
BRANCH   6   7
ATOM      7  C   UNL     1     -24.823   3.165   2.947  1.00  0.00    -0.000 C 
BRANCH   7   8
ATOM      8  C   UNL     1     -23.602   4.072   3.170  1.00  0.00    -0.003 C 
ATOM      9  C   UNL     1     -23.926   5.320   3.988  1.00  0.00     0.004 C 
ENDBRANCH   7   8
ENDBRANCH   6   7
ENDBRANCH   1   6
TORSDOF 5
ENDMDL
MODEL 4
REMARK VINA RESULT:    -2.945     14.155     16.072
REMARK INTER + INTRA:          -4.079
REMARK INTER:                  -3.845
REMARK INTRA:                  -0.234
REMARK UNBOUND:                -0.273
REMARK SMILES CCCCCCC(=O)[O-]
REMARK SMILES IDX 5 1 6 2 7 3 8 4 9 5 4 6 3 7 2 8 1 9
REMARK H PARENT
REMARK Flexibility Score: inf
ROOT
ATOM      1  C   UNL     1     -12.702 -11.089   2.826  1.00  0.00     0.006 C 
ENDROOT
BRANCH   1   2
ATOM      2  C   UNL     1     -13.904 -10.935   1.884  1.00  0.00     0.053 C 
BRANCH   2   3
ATOM      3  C   UNL     1     -15.082 -10.326   2.580  1.00  0.00     0.041 C 
ATOM      4  O   UNL     1     -15.269  -9.081   2.540  1.00  0.00    -0.550 OA
ATOM      5  O   UNL     1     -15.995 -11.137   3.243  1.00  0.00    -0.550 OA
ENDBRANCH   2   3
ENDBRANCH   1   2
BRANCH   1   6
ATOM      6  C   UNL     1     -12.366 -12.565   3.105  1.00  0.00     0.000 C 
BRANCH   6   7
ATOM      7  C   UNL     1     -12.313 -12.874   4.616  1.00  0.00    -0.000 C 
BRANCH   7   8
ATOM      8  C   UNL     1     -13.699 -12.979   5.272  1.00  0.00    -0.003 C 
ATOM      9  C   UNL     1     -13.631 -13.125   6.791  1.00  0.00     0.004 C 
ENDBRANCH   7   8
ENDBRANCH   6   7
ENDBRANCH   1   6
TORSDOF 5
ENDMDL
MODEL 5
REMARK VINA RESULT:    -2.868      0.897      1.559
REMARK INTER + INTRA:          -3.979
REMARK INTER:                  -3.777
REMARK INTRA:                  -0.201
REMARK UNBOUND:                -0.273
REMARK SMILES CCCCCCC(=O)[O-]
REMARK SMILES IDX 5 1 6 2 7 3 8 4 9 5 4 6 3 7 2 8 1 9
REMARK H PARENT
REMARK Flexibility Score: inf
ROOT
ATOM      1  C   UNL     1     -21.672   0.420   2.600  1.00  0.00     0.006 C 
ENDROOT
BRANCH   1   2
ATOM      2  C   UNL     1     -20.864   0.062   1.345  1.00  0.00     0.053 C 
BRANCH   2   3
ATOM      3  C   UNL     1     -20.250   1.273   0.714  1.00  0.00     0.041 C 
ATOM      4  O   UNL     1     -20.951   2.047   0.010  1.00  0.00    -0.550 OA
ATOM      5  O   UNL     1     -18.909   1.567   0.932  1.00  0.00    -0.550 OA
ENDBRANCH   2   3
ENDBRANCH   1   2
BRANCH   1   6
ATOM      6  C   UNL     1     -23.165   0.631   2.292  1.00  0.00     0.000 C 
BRANCH   6   7
ATOM      7  C   UNL     1     -23.572   2.117   2.372  1.00  0.00    -0.000 C 
BRANCH   7   8
ATOM      8  C   UNL     1     -25.020   2.384   1.931  1.00  0.00    -0.003 C 
ATOM      9  C   UNL     1     -25.570   1.305   1.001  1.00  0.00     0.004 C 
ENDBRANCH   7   8
ENDBRANCH   6   7
ENDBRANCH   1   6
TORSDOF 5
ENDMDL
MODEL 6
REMARK VINA RESULT:    -2.830      2.962      4.507
REMARK INTER + INTRA:          -3.930
REMARK INTER:                  -3.690
REMARK INTRA:                  -0.240
REMARK UNBOUND:                -0.273
REMARK SMILES CCCCCCC(=O)[O-]
REMARK SMILES IDX 5 1 6 2 7 3 8 4 9 5 4 6 3 7 2 8 1 9
REMARK H PARENT
REMARK Flexibility Score: inf
ROOT
ATOM      1  C   UNL     1     -24.079   1.793   2.522  1.00  0.00     0.006 C 
ENDROOT
BRANCH   1   2
ATOM      2  C   UNL     1     -23.414   3.175   2.477  1.00  0.00     0.053 C 
BRANCH   2   3
ATOM      3  C   UNL     1     -24.206   4.200   3.228  1.00  0.00     0.041 C 
ATOM      4  O   UNL     1     -25.438   4.339   3.003  1.00  0.00    -0.550 OA
ATOM      5  O   UNL     1     -23.593   4.977   4.203  1.00  0.00    -0.550 OA
ENDBRANCH   2   3
ENDBRANCH   1   2
BRANCH   1   6
ATOM      6  C   UNL     1     -23.279   0.735   1.742  1.00  0.00     0.000 C 
BRANCH   6   7
ATOM      7  C   UNL     1     -22.118   0.152   2.575  1.00  0.00    -0.000 C 
BRANCH   7   8
ATOM      8  C   UNL     1     -20.807   0.007   1.786  1.00  0.00    -0.003 C 
ATOM      9  C   UNL     1     -20.561   1.162   0.818  1.00  0.00     0.004 C 
ENDBRANCH   7   8
ENDBRANCH   6   7
ENDBRANCH   1   6
TORSDOF 5
ENDMDL
MODEL 7
REMARK VINA RESULT:    -2.813     14.225     15.962
REMARK INTER + INTRA:          -3.908
REMARK INTER:                  -3.607
REMARK INTRA:                  -0.301
REMARK UNBOUND:                -0.273
REMARK SMILES CCCCCCC(=O)[O-]
REMARK SMILES IDX 5 1 6 2 7 3 8 4 9 5 4 6 3 7 2 8 1 9
REMARK H PARENT
REMARK Flexibility Score: inf
ROOT
ATOM      1  C   UNL     1     -12.347 -11.887   3.238  1.00  0.00     0.006 C 
ENDROOT
BRANCH   1   2
ATOM      2  C   UNL     1     -12.106 -12.775   2.009  1.00  0.00     0.053 C 
BRANCH   2   3
ATOM      3  C   UNL     1     -12.096 -11.979   0.741  1.00  0.00     0.041 C 
ATOM      4  O   UNL     1     -11.005 -11.681   0.186  1.00  0.00    -0.550 OA
ATOM      5  O   UNL     1     -13.294 -11.595   0.151  1.00  0.00    -0.550 OA
ENDBRANCH   2   3
ENDBRANCH   1   2
BRANCH   1   6
ATOM      6  C   UNL     1     -13.592 -12.318   4.034  1.00  0.00     0.000 C 
BRANCH   6   7
ATOM      7  C   UNL     1     -14.894 -12.115   3.232  1.00  0.00    -0.000 C 
BRANCH   7   8
ATOM      8  C   UNL     1     -15.623 -10.803   3.563  1.00  0.00    -0.003 C 
ATOM      9  C   UNL     1     -15.232  -9.652   2.639  1.00  0.00     0.004 C 
ENDBRANCH   7   8
ENDBRANCH   6   7
ENDBRANCH   1   6
TORSDOF 5
ENDMDL
MODEL 8
REMARK VINA RESULT:    -2.800      2.900      4.651
REMARK INTER + INTRA:          -3.891
REMARK INTER:                  -3.719
REMARK INTRA:                  -0.172
REMARK UNBOUND:                -0.273
REMARK SMILES CCCCCCC(=O)[O-]
REMARK SMILES IDX 5 1 6 2 7 3 8 4 9 5 4 6 3 7 2 8 1 9
REMARK H PARENT
REMARK Flexibility Score: inf
ROOT
ATOM      1  C   UNL     1     -22.697   1.732   2.172  1.00  0.00     0.006 C 
ENDROOT
BRANCH   1   2
ATOM      2  C   UNL     1     -24.209   1.473   2.111  1.00  0.00     0.053 C 
BRANCH   2   3
ATOM      3  C   UNL     1     -24.992   2.605   2.700  1.00  0.00     0.041 C 
ATOM      4  O   UNL     1     -24.923   3.756   2.192  1.00  0.00    -0.550 OA
ATOM      5  O   UNL     1     -25.825   2.383   3.789  1.00  0.00    -0.550 OA
ENDBRANCH   2   3
ENDBRANCH   1   2
BRANCH   1   6
ATOM      6  C   UNL     1     -21.906   0.474   2.574  1.00  0.00     0.000 C 
BRANCH   6   7
ATOM      7  C   UNL     1     -20.734   0.191   1.611  1.00  0.00    -0.000 C 
BRANCH   7   8
ATOM      8  C   UNL     1     -20.418   1.361   0.665  1.00  0.00    -0.003 C 
ATOM      9  C   UNL     1     -18.938   1.737   0.653  1.00  0.00     0.004 C 
ENDBRANCH   7   8
ENDBRANCH   6   7
ENDBRANCH   1   6
TORSDOF 5
ENDMDL
MODEL 9
REMARK VINA RESULT:    -2.735     16.094     17.396
REMARK INTER + INTRA:          -3.807
REMARK INTER:                  -3.563
REMARK INTRA:                  -0.244
REMARK UNBOUND:                -0.273
REMARK SMILES CCCCCCC(=O)[O-]
REMARK SMILES IDX 5 1 6 2 7 3 8 4 9 5 4 6 3 7 2 8 1 9
REMARK H PARENT
REMARK Flexibility Score: inf
ROOT
ATOM      1  C   UNL     1     -20.544   5.903  16.867  1.00  0.00     0.006 C 
ENDROOT
BRANCH   1   2
ATOM      2  C   UNL     1     -21.850   6.656  16.581  1.00  0.00     0.053 C 
BRANCH   2   3
ATOM      3  C   UNL     1     -22.734   6.717  17.788  1.00  0.00     0.041 C 
ATOM      4  O   UNL     1     -22.230   6.734  18.943  1.00  0.00    -0.550 OA
ATOM      5  O   UNL     1     -24.113   6.790  17.638  1.00  0.00    -0.550 OA
ENDBRANCH   2   3
ENDBRANCH   1   2
BRANCH   1   6
ATOM      6  C   UNL     1     -19.322   6.838  16.879  1.00  0.00     0.000 C 
BRANCH   6   7
ATOM      7  C   UNL     1     -18.231   6.358  17.859  1.00  0.00    -0.000 C 
BRANCH   7   8
ATOM      8  C   UNL     1     -18.787   5.854  19.201  1.00  0.00    -0.003 C 
ATOM      9  C   UNL     1     -17.866   4.848  19.888  1.00  0.00     0.004 C 
ENDBRANCH   7   8
ENDBRANCH   6   7
ENDBRANCH   1   6
TORSDOF 5
ENDMDL
