MODEL 1
REMARK VINA RESULT:    -3.446      0.000      0.000
REMARK INTER + INTRA:          -4.185
REMARK INTER:                  -4.050
REMARK INTRA:                  -0.134
REMARK UNBOUND:                -0.134
REMARK SMILES O=C([O-])C=Cc1ccc(O)c(O)c1
REMARK SMILES IDX 6 1 13 2 7 3 11 4 8 5 9 6 5 7 4 8 2 9 1 10 3 11 12 12 10 14
REMARK H PARENT 12 13 10 15
REMARK Flexibility Score: inf
ROOT
ATOM      1  C   UNL     1       8.078 -21.192  13.224  1.00  0.00    -0.022 A 
ATOM      2  C   UNL     1       7.163 -21.984  12.509  1.00  0.00     0.058 A 
ATOM      3  C   UNL     1       9.070 -20.489  12.513  1.00  0.00     0.012 A 
ATOM      4  C   UNL     1       7.218 -22.054  11.109  1.00  0.00     0.157 A 
ATOM      5  C   UNL     1       9.125 -20.560  11.118  1.00  0.00     0.051 A 
ATOM      6  C   UNL     1       8.199 -21.338  10.413  1.00  0.00     0.157 A 
ENDROOT
BRANCH   1   7
ATOM      7  C   UNL     1       7.983 -21.162  14.705  1.00  0.00     0.010 C 
ATOM      8  C   UNL     1       7.021 -21.782  15.403  1.00  0.00     0.025 C 
BRANCH   8   9
ATOM      9  C   UNL     1       6.972 -21.735  16.871  1.00  0.00     0.064 C 
ATOM     10  O   UNL     1       8.024 -21.924  17.536  1.00  0.00    -0.545 OA
ATOM     11  O   UNL     1       5.779 -21.489  17.542  1.00  0.00    -0.545 OA
ENDBRANCH   8   9
ENDBRANCH   1   7
BRANCH   4  12
ATOM     12  O   UNL     1       6.302 -22.833  10.405  1.00  0.00    -0.504 OA
ATOM     13  H   UNL     1       5.712 -22.435   9.681  1.00  0.00     0.293 HD
ENDBRANCH   4  12
BRANCH   6  14
ATOM     14  O   UNL     1       8.250 -21.409   9.022  1.00  0.00    -0.504 OA
ATOM     15  H   UNL     1       8.212 -20.575   8.446  1.00  0.00     0.293 HD
ENDBRANCH   6  14
TORSDOF 4
ENDMDL
MODEL 2
REMARK VINA RESULT:    -3.428      1.145      2.058
REMARK INTER + INTRA:          -4.164
REMARK INTER:                  -4.031
REMARK INTRA:                  -0.133
REMARK UNBOUND:                -0.134
REMARK SMILES O=C([O-])C=Cc1ccc(O)c(O)c1
REMARK SMILES IDX 6 1 13 2 7 3 11 4 8 5 9 6 5 7 4 8 2 9 1 10 3 11 12 12 10 14
REMARK H PARENT 12 13 10 15
REMARK Flexibility Score: inf
ROOT
ATOM      1  C   UNL     1       7.079 -22.331  12.677  1.00  0.00    -0.022 A 
ATOM      2  C   UNL     1       7.961 -21.320  12.258  1.00  0.00     0.058 A 
ATOM      3  C   UNL     1       6.429 -23.113  11.701  1.00  0.00     0.012 A 
ATOM      4  C   UNL     1       8.211 -21.107  10.895  1.00  0.00     0.157 A 
ATOM      5  C   UNL     1       6.678 -22.900  10.342  1.00  0.00     0.051 A 
ATOM      6  C   UNL     1       7.570 -21.901   9.936  1.00  0.00     0.157 A 
ENDROOT
BRANCH   1   7
ATOM      7  C   UNL     1       6.841 -22.508  14.131  1.00  0.00     0.010 C 
ATOM      8  C   UNL     1       7.462 -21.793  15.079  1.00  0.00     0.025 C 
BRANCH   8   9
ATOM      9  C   UNL     1       7.186 -21.992  16.509  1.00  0.00     0.064 C 
ATOM     10  O   UNL     1       7.647 -23.006  17.097  1.00  0.00    -0.545 OA
ATOM     11  O   UNL     1       6.421 -21.080  17.227  1.00  0.00    -0.545 OA
ENDBRANCH   8   9
ENDBRANCH   1   7
BRANCH   4  12
ATOM     12  O   UNL     1       9.094 -20.109  10.486  1.00  0.00    -0.504 OA
ATOM     13  H   UNL     1       8.762 -19.240  10.081  1.00  0.00     0.293 HD
ENDBRANCH   4  12
BRANCH   6  14
ATOM     14  O   UNL     1       7.822 -21.687   8.581  1.00  0.00    -0.504 OA
ATOM     15  H   UNL     1       8.516 -22.228   8.078  1.00  0.00     0.293 HD
ENDBRANCH   6  14
TORSDOF 4
ENDMDL
MODEL 3
REMARK VINA RESULT:    -3.080     17.773     20.036
REMARK INTER + INTRA:          -3.755
REMARK INTER:                  -3.624
REMARK INTRA:                  -0.130
REMARK UNBOUND:                -0.134
REMARK SMILES O=C([O-])C=Cc1ccc(O)c(O)c1
REMARK SMILES IDX 6 1 13 2 7 3 11 4 8 5 9 6 5 7 4 8 2 9 1 10 3 11 12 12 10 14
REMARK H PARENT 12 13 10 15
REMARK Flexibility Score: inf
ROOT
ATOM      1  C   UNL     1     -10.544 -20.355  20.742  1.00  0.00    -0.022 A 
ATOM      2  C   UNL     1     -10.056 -19.053  20.538  1.00  0.00     0.058 A 
ATOM      3  C   UNL     1     -10.928 -20.742  22.041  1.00  0.00     0.012 A 
ATOM      4  C   UNL     1      -9.977 -18.143  21.603  1.00  0.00     0.157 A 
ATOM      5  C   UNL     1     -10.848 -19.835  23.103  1.00  0.00     0.051 A 
ATOM      6  C   UNL     1     -10.376 -18.535  22.886  1.00  0.00     0.157 A 
ENDROOT
BRANCH   1   7
ATOM      7  C   UNL     1     -10.597 -21.282  19.584  1.00  0.00     0.010 C 
ATOM      8  C   UNL     1      -9.563 -21.507  18.763  1.00  0.00     0.025 C 
BRANCH   8   9
ATOM      9  C   UNL     1      -9.656 -22.444  17.633  1.00  0.00     0.064 C 
ATOM     10  O   UNL     1     -10.767 -22.638  17.075  1.00  0.00    -0.545 OA
ATOM     11  O   UNL     1      -8.534 -23.125  17.171  1.00  0.00    -0.545 OA
ENDBRANCH   8   9
ENDBRANCH   1   7
BRANCH   4  12
ATOM     12  O   UNL     1      -9.501 -16.850  21.392  1.00  0.00    -0.504 OA
ATOM     13  H   UNL     1      -9.965 -16.042  21.794  1.00  0.00     0.293 HD
ENDBRANCH   4  12
BRANCH   6  14
ATOM     14  O   UNL     1     -10.297 -17.628  23.942  1.00  0.00    -0.504 OA
ATOM     15  H   UNL     1      -9.781 -17.843  24.788  1.00  0.00     0.293 HD
ENDBRANCH   6  14
TORSDOF 4
ENDMDL
MODEL 4
REMARK VINA RESULT:    -2.906     18.371     19.150
REMARK INTER + INTRA:          -3.550
REMARK INTER:                  -3.416
REMARK INTRA:                  -0.134
REMARK UNBOUND:                -0.134
REMARK SMILES O=C([O-])C=Cc1ccc(O)c(O)c1
REMARK SMILES IDX 6 1 13 2 7 3 11 4 8 5 9 6 5 7 4 8 2 9 1 10 3 11 12 12 10 14
REMARK H PARENT 12 13 10 15
REMARK Flexibility Score: inf
ROOT
ATOM      1  C   UNL     1     -10.659 -19.873  19.212  1.00  0.00    -0.022 A 
ATOM      2  C   UNL     1     -10.168 -21.126  18.806  1.00  0.00     0.058 A 
ATOM      3  C   UNL     1     -11.125 -18.976  18.231  1.00  0.00     0.012 A 
ATOM      4  C   UNL     1     -10.165 -21.490  17.452  1.00  0.00     0.157 A 
ATOM      5  C   UNL     1     -11.121 -19.339  16.881  1.00  0.00     0.051 A 
ATOM      6  C   UNL     1     -10.645 -20.595  16.488  1.00  0.00     0.157 A 
ENDROOT
BRANCH   1   7
ATOM      7  C   UNL     1     -10.629 -19.534  20.656  1.00  0.00     0.010 C 
ATOM      8  C   UNL     1      -9.985 -18.471  21.159  1.00  0.00     0.025 C 
BRANCH   8   9
ATOM      9  C   UNL     1      -9.992 -18.165  22.597  1.00  0.00     0.064 C 
ATOM     10  O   UNL     1     -10.870 -18.679  23.338  1.00  0.00    -0.545 OA
ATOM     11  O   UNL     1      -9.045 -17.312  23.153  1.00  0.00    -0.545 OA
ENDBRANCH   8   9
ENDBRANCH   1   7
BRANCH   4  12
ATOM     12  O   UNL     1      -9.685 -22.738  17.057  1.00  0.00    -0.504 OA
ATOM     13  H   UNL     1      -9.006 -22.834  16.310  1.00  0.00     0.293 HD
ENDBRANCH   4  12
BRANCH   6  14
ATOM     14  O   UNL     1     -10.641 -20.960  15.143  1.00  0.00    -0.504 OA
ATOM     15  H   UNL     1     -10.238 -20.361  14.432  1.00  0.00     0.293 HD
ENDBRANCH   6  14
TORSDOF 4
ENDMDL
MODEL 5
REMARK VINA RESULT:    -2.852     19.014     19.630
REMARK INTER + INTRA:          -3.487
REMARK INTER:                  -3.353
REMARK INTRA:                  -0.134
REMARK UNBOUND:                -0.134
REMARK SMILES O=C([O-])C=Cc1ccc(O)c(O)c1
REMARK SMILES IDX 6 1 13 2 7 3 11 4 8 5 9 6 5 7 4 8 2 9 1 10 3 11 12 12 10 14
REMARK H PARENT 12 13 10 15
REMARK Flexibility Score: inf
ROOT
ATOM      1  C   UNL     1     -10.498 -20.890  20.666  1.00  0.00    -0.022 A 
ATOM      2  C   UNL     1     -10.479 -20.249  19.415  1.00  0.00     0.058 A 
ATOM      3  C   UNL     1     -10.615 -22.293  20.710  1.00  0.00     0.012 A 
ATOM      4  C   UNL     1     -10.548 -20.993  18.229  1.00  0.00     0.157 A 
ATOM      5  C   UNL     1     -10.685 -23.034  19.526  1.00  0.00     0.051 A 
ATOM      6  C   UNL     1     -10.648 -22.388  18.285  1.00  0.00     0.157 A 
ENDROOT
BRANCH   1   7
ATOM      7  C   UNL     1     -10.434 -20.055  21.892  1.00  0.00     0.010 C 
ATOM      8  C   UNL     1     -10.125 -18.751  21.889  1.00  0.00     0.025 C 
BRANCH   8   9
ATOM      9  C   UNL     1     -10.084 -17.958  23.127  1.00  0.00     0.064 C 
ATOM     10  O   UNL     1     -11.083 -17.946  23.892  1.00  0.00    -0.545 OA
ATOM     11  O   UNL     1      -8.957 -17.217  23.467  1.00  0.00    -0.545 OA
ENDBRANCH   8   9
ENDBRANCH   1   7
BRANCH   4  12
ATOM     12  O   UNL     1     -10.518 -20.353  16.991  1.00  0.00    -0.504 OA
ATOM     13  H   UNL     1     -11.364 -20.001  16.555  1.00  0.00     0.293 HD
ENDBRANCH   4  12
BRANCH   6  14
ATOM     14  O   UNL     1     -10.716 -23.125  17.104  1.00  0.00    -0.504 OA
ATOM     15  H   UNL     1      -9.879 -23.427  16.618  1.00  0.00     0.293 HD
ENDBRANCH   6  14
TORSDOF 4
ENDMDL
MODEL 6
REMARK VINA RESULT:    -2.783     19.449     19.958
REMARK INTER + INTRA:          -3.405
REMARK INTER:                  -3.277
REMARK INTRA:                  -0.128
REMARK UNBOUND:                -0.134
REMARK SMILES O=C([O-])C=Cc1ccc(O)c(O)c1
REMARK SMILES IDX 6 1 13 2 7 3 11 4 8 5 9 6 5 7 4 8 2 9 1 10 3 11 12 12 10 14
REMARK H PARENT 12 13 10 15
REMARK Flexibility Score: inf
ROOT
ATOM      1  C   UNL     1     -11.008 -20.089  20.998  1.00  0.00    -0.022 A 
ATOM      2  C   UNL     1     -10.997 -20.754  19.760  1.00  0.00     0.058 A 
ATOM      3  C   UNL     1     -11.036 -18.681  21.013  1.00  0.00     0.012 A 
ATOM      4  C   UNL     1     -11.040 -20.032  18.559  1.00  0.00     0.157 A 
ATOM      5  C   UNL     1     -11.077 -17.961  19.815  1.00  0.00     0.051 A 
ATOM      6  C   UNL     1     -11.082 -18.633  18.587  1.00  0.00     0.157 A 
ENDROOT
BRANCH   1   7
ATOM      7  C   UNL     1     -10.951 -20.900  22.240  1.00  0.00     0.010 C 
ATOM      8  C   UNL     1      -9.887 -21.629  22.605  1.00  0.00     0.025 C 
BRANCH   8   9
ATOM      9  C   UNL     1      -9.869 -22.409  23.851  1.00  0.00     0.064 C 
ATOM     10  O   UNL     1      -8.801 -22.958  24.227  1.00  0.00    -0.545 OA
ATOM     11  O   UNL     1     -11.017 -22.554  24.623  1.00  0.00    -0.545 OA
ENDBRANCH   8   9
ENDBRANCH   1   7
BRANCH   4  12
ATOM     12  O   UNL     1     -11.038 -20.698  17.334  1.00  0.00    -0.504 OA
ATOM     13  H   UNL     1     -10.176 -21.011  16.901  1.00  0.00     0.293 HD
ENDBRANCH   4  12
BRANCH   6  14
ATOM     14  O   UNL     1     -11.125 -17.918  17.391  1.00  0.00    -0.504 OA
ATOM     15  H   UNL     1     -11.191 -18.386  16.495  1.00  0.00     0.293 HD
ENDBRANCH   6  14
TORSDOF 4
ENDMDL
MODEL 7
REMARK VINA RESULT:    -2.699     15.446     17.355
REMARK INTER + INTRA:          -3.307
REMARK INTER:                  -3.178
REMARK INTRA:                  -0.129
REMARK UNBOUND:                -0.134
REMARK SMILES O=C([O-])C=Cc1ccc(O)c(O)c1
REMARK SMILES IDX 6 1 13 2 7 3 11 4 8 5 9 6 5 7 4 8 2 9 1 10 3 11 12 12 10 14
REMARK H PARENT 12 13 10 15
REMARK Flexibility Score: inf
ROOT
ATOM      1  C   UNL     1      -8.369 -22.850  19.885  1.00  0.00    -0.022 A 
ATOM      2  C   UNL     1      -7.033 -23.104  19.532  1.00  0.00     0.058 A 
ATOM      3  C   UNL     1      -9.241 -22.322  18.912  1.00  0.00     0.012 A 
ATOM      4  C   UNL     1      -6.578 -22.861  18.227  1.00  0.00     0.157 A 
ATOM      5  C   UNL     1      -8.787 -22.079  17.612  1.00  0.00     0.051 A 
ATOM      6  C   UNL     1      -7.458 -22.351  17.266  1.00  0.00     0.157 A 
ENDROOT
BRANCH   1   7
ATOM      7  C   UNL     1      -8.796 -23.114  21.282  1.00  0.00     0.010 C 
ATOM      8  C   UNL     1      -9.089 -22.150  22.166  1.00  0.00     0.025 C 
BRANCH   8   9
ATOM      9  C   UNL     1      -9.520 -22.457  23.537  1.00  0.00     0.064 C 
ATOM     10  O   UNL     1      -8.766 -23.125  24.292  1.00  0.00    -0.545 OA
ATOM     11  O   UNL     1     -10.752 -22.024  24.016  1.00  0.00    -0.545 OA
ENDBRANCH   8   9
ENDBRANCH   1   7
BRANCH   4  12
ATOM     12  O   UNL     1      -5.254 -23.125  17.881  1.00  0.00    -0.504 OA
ATOM     13  H   UNL     1      -4.485 -22.605  18.289  1.00  0.00     0.293 HD
ENDBRANCH   4  12
BRANCH   6  14
ATOM     14  O   UNL     1      -7.003 -22.111  15.970  1.00  0.00    -0.504 OA
ATOM     15  H   UNL     1      -6.320 -22.714  15.527  1.00  0.00     0.293 HD
ENDBRANCH   6  14
TORSDOF 4
ENDMDL
MODEL 8
REMARK VINA RESULT:    -2.634     14.800     16.621
REMARK INTER + INTRA:          -3.231
REMARK INTER:                  -3.091
REMARK INTRA:                  -0.140
REMARK UNBOUND:                -0.134
REMARK SMILES O=C([O-])C=Cc1ccc(O)c(O)c1
REMARK SMILES IDX 6 1 13 2 7 3 11 4 8 5 9 6 5 7 4 8 2 9 1 10 3 11 12 12 10 14
REMARK H PARENT 12 13 10 15
REMARK Flexibility Score: inf
ROOT
ATOM      1  C   UNL     1      -7.679 -22.804  19.276  1.00  0.00    -0.022 A 
ATOM      2  C   UNL     1      -7.975 -22.484  17.940  1.00  0.00     0.058 A 
ATOM      3  C   UNL     1      -6.351 -23.125  19.620  1.00  0.00     0.012 A 
ATOM      4  C   UNL     1      -6.963 -22.460  16.969  1.00  0.00     0.157 A 
ATOM      5  C   UNL     1      -5.343 -23.101  18.652  1.00  0.00     0.051 A 
ATOM      6  C   UNL     1      -5.645 -22.766  17.327  1.00  0.00     0.157 A 
ENDROOT
BRANCH   1   7
ATOM      7  C   UNL     1      -8.788 -22.826  20.263  1.00  0.00     0.010 C 
ATOM      8  C   UNL     1      -8.610 -22.707  21.586  1.00  0.00     0.025 C 
BRANCH   8   9
ATOM      9  C   UNL     1      -9.739 -22.722  22.527  1.00  0.00     0.064 C 
ATOM     10  O   UNL     1     -10.868 -23.123  22.139  1.00  0.00    -0.545 OA
ATOM     11  O   UNL     1      -9.583 -22.298  23.842  1.00  0.00    -0.545 OA
ENDBRANCH   8   9
ENDBRANCH   1   7
BRANCH   4  12
ATOM     12  O   UNL     1      -7.262 -22.133  15.647  1.00  0.00    -0.504 OA
ATOM     13  H   UNL     1      -6.549 -21.795  15.010  1.00  0.00     0.293 HD
ENDBRANCH   4  12
BRANCH   6  14
ATOM     14  O   UNL     1      -4.642 -22.740  16.359  1.00  0.00    -0.504 OA
ATOM     15  H   UNL     1      -4.857 -22.634  15.374  1.00  0.00     0.293 HD
ENDBRANCH   6  14
TORSDOF 4
ENDMDL
