MODEL 1
REMARK VINA RESULT:    -3.057      0.000      0.000
REMARK INTER + INTRA:          -4.869
REMARK INTER:                  -4.309
REMARK INTRA:                  -0.561
REMARK UNBOUND:                -0.561
REMARK SMILES CCCCCCCCC(=O)[O-]
REMARK SMILES IDX 6 1 7 2 8 3 9 4 10 5 11 6 5 7 4 8 3 9 2 10 1 11
REMARK H PARENT
REMARK Flexibility Score: inf
ROOT
ATOM      1  C   UNL     1      -0.409  -1.199   8.531  1.00  0.00     0.000 C 
ENDROOT
BRANCH   1   2
ATOM      2  C   UNL     1       0.740  -0.540   7.750  1.00  0.00     0.006 C 
BRANCH   2   3
ATOM      3  C   UNL     1       0.629   0.990   7.740  1.00  0.00     0.053 C 
BRANCH   3   4
ATOM      4  C   UNL     1       0.049   1.498   6.455  1.00  0.00     0.041 C 
ATOM      5  O   UNL     1       0.587   1.204   5.356  1.00  0.00    -0.550 OA
ATOM      6  O   UNL     1      -1.071   2.319   6.476  1.00  0.00    -0.550 OA
ENDBRANCH   3   4
ENDBRANCH   2   3
ENDBRANCH   1   2
BRANCH   1   7
ATOM      7  C   UNL     1      -1.219  -2.193   7.678  1.00  0.00     0.000 C 
BRANCH   7   8
ATOM      8  C   UNL     1      -0.375  -3.194   6.869  1.00  0.00    -0.000 C 
BRANCH   8   9
ATOM      9  C   UNL     1       0.038  -4.429   7.689  1.00  0.00    -0.000 C 
BRANCH   9  10
ATOM     10  C   UNL     1       1.562  -4.617   7.743  1.00  0.00    -0.003 C 
ATOM     11  C   UNL     1       2.211  -3.845   8.891  1.00  0.00     0.004 C 
ENDBRANCH   9  10
ENDBRANCH   8   9
ENDBRANCH   7   8
ENDBRANCH   1   7
TORSDOF 7
ENDMDL
MODEL 2
REMARK VINA RESULT:    -3.055      1.303      2.022
REMARK INTER + INTRA:          -4.866
REMARK INTER:                  -4.616
REMARK INTRA:                  -0.250
REMARK UNBOUND:                -0.561
REMARK SMILES CCCCCCCCC(=O)[O-]
REMARK SMILES IDX 6 1 7 2 8 3 9 4 10 5 11 6 5 7 4 8 3 9 2 10 1 11
REMARK H PARENT
REMARK Flexibility Score: inf
ROOT
ATOM      1  C   UNL     1       0.751  -1.453   8.359  1.00  0.00     0.000 C 
ENDROOT
BRANCH   1   2
ATOM      2  C   UNL     1       0.156  -0.938   7.037  1.00  0.00     0.006 C 
BRANCH   2   3
ATOM      3  C   UNL     1      -0.809   0.235   7.256  1.00  0.00     0.053 C 
BRANCH   3   4
ATOM      4  C   UNL     1      -0.553   1.354   6.294  1.00  0.00     0.041 C 
ATOM      5  O   UNL     1       0.461   1.330   5.548  1.00  0.00    -0.550 OA
ATOM      6  O   UNL     1      -1.420   2.438   6.242  1.00  0.00    -0.550 OA
ENDBRANCH   3   4
ENDBRANCH   2   3
ENDBRANCH   1   2
BRANCH   1   7
ATOM      7  C   UNL     1       1.004  -2.972   8.349  1.00  0.00     0.000 C 
BRANCH   7   8
ATOM      8  C   UNL     1       2.143  -3.447   9.269  1.00  0.00    -0.000 C 
BRANCH   8   9
ATOM      9  C   UNL     1       2.820  -4.735   8.766  1.00  0.00    -0.000 C 
BRANCH   9  10
ATOM     10  C   UNL     1       2.137  -5.308   7.515  1.00  0.00    -0.003 C 
ATOM     11  C   UNL     1       3.101  -6.095   6.625  1.00  0.00     0.004 C 
ENDBRANCH   9  10
ENDBRANCH   8   9
ENDBRANCH   7   8
ENDBRANCH   1   7
TORSDOF 7
ENDMDL
MODEL 3
REMARK VINA RESULT:    -3.024      1.380      2.509
REMARK INTER + INTRA:          -4.823
REMARK INTER:                  -4.219
REMARK INTRA:                  -0.603
REMARK UNBOUND:                -0.561
REMARK SMILES CCCCCCCCC(=O)[O-]
REMARK SMILES IDX 6 1 7 2 8 3 9 4 10 5 11 6 5 7 4 8 3 9 2 10 1 11
REMARK H PARENT
REMARK Flexibility Score: inf
ROOT
ATOM      1  C   UNL     1       0.854  -0.840   8.962  1.00  0.00     0.000 C 
ENDROOT
BRANCH   1   2
ATOM      2  C   UNL     1       1.095   0.286   7.943  1.00  0.00     0.006 C 
BRANCH   2   3
ATOM      3  C   UNL     1      -0.066   1.288   7.903  1.00  0.00     0.053 C 
BRANCH   3   4
ATOM      4  C   UNL     1      -0.368   1.735   6.505  1.00  0.00     0.041 C 
ATOM      5  O   UNL     1       0.404   1.426   5.560  1.00  0.00    -0.550 OA
ATOM      6  O   UNL     1      -1.487   2.517   6.252  1.00  0.00    -0.550 OA
ENDBRANCH   3   4
ENDBRANCH   2   3
ENDBRANCH   1   2
BRANCH   1   7
ATOM      7  C   UNL     1       0.797  -2.235   8.311  1.00  0.00     0.000 C 
BRANCH   7   8
ATOM      8  C   UNL     1      -0.026  -2.312   7.012  1.00  0.00    -0.000 C 
BRANCH   8   9
ATOM      9  C   UNL     1      -1.208  -3.293   7.110  1.00  0.00    -0.000 C 
BRANCH   9  10
ATOM     10  C   UNL     1      -2.501  -2.718   6.512  1.00  0.00    -0.003 C 
ATOM     11  C   UNL     1      -2.695  -1.237   6.840  1.00  0.00     0.004 C 
ENDBRANCH   9  10
ENDBRANCH   8   9
ENDBRANCH   7   8
ENDBRANCH   1   7
TORSDOF 7
ENDMDL
MODEL 4
REMARK VINA RESULT:    -2.994      0.392      1.052
REMARK INTER + INTRA:          -4.780
REMARK INTER:                  -4.285
REMARK INTRA:                  -0.494
REMARK UNBOUND:                -0.561
REMARK SMILES CCCCCCCCC(=O)[O-]
REMARK SMILES IDX 6 1 7 2 8 3 9 4 10 5 11 6 5 7 4 8 3 9 2 10 1 11
REMARK H PARENT
REMARK Flexibility Score: inf
ROOT
ATOM      1  C   UNL     1      -0.009  -1.299   8.315  1.00  0.00     0.000 C 
ENDROOT
BRANCH   1   2
ATOM      2  C   UNL     1       0.921  -0.176   7.825  1.00  0.00     0.006 C 
BRANCH   2   3
ATOM      3  C   UNL     1       0.262   1.206   7.925  1.00  0.00     0.053 C 
BRANCH   3   4
ATOM      4  C   UNL     1      -0.175   1.712   6.583  1.00  0.00     0.041 C 
ATOM      5  O   UNL     1      -1.172   2.474   6.487  1.00  0.00    -0.550 OA
ATOM      6  O   UNL     1       0.505   1.319   5.438  1.00  0.00    -0.550 OA
ENDBRANCH   3   4
ENDBRANCH   2   3
ENDBRANCH   1   2
BRANCH   1   7
ATOM      7  C   UNL     1      -0.880  -1.887   7.190  1.00  0.00     0.000 C 
BRANCH   7   8
ATOM      8  C   UNL     1      -0.602  -3.365   6.858  1.00  0.00    -0.000 C 
BRANCH   8   9
ATOM      9  C   UNL     1       0.005  -4.140   8.041  1.00  0.00    -0.000 C 
BRANCH   9  10
ATOM     10  C   UNL     1       1.427  -4.643   7.747  1.00  0.00    -0.003 C 
ATOM     11  C   UNL     1       2.459  -4.110   8.741  1.00  0.00     0.004 C 
ENDBRANCH   9  10
ENDBRANCH   8   9
ENDBRANCH   7   8
ENDBRANCH   1   7
TORSDOF 7
ENDMDL
MODEL 5
REMARK VINA RESULT:    -2.977      1.237      2.331
REMARK INTER + INTRA:          -4.756
REMARK INTER:                  -4.199
REMARK INTRA:                  -0.557
REMARK UNBOUND:                -0.561
REMARK SMILES CCCCCCCCC(=O)[O-]
REMARK SMILES IDX 6 1 7 2 8 3 9 4 10 5 11 6 5 7 4 8 3 9 2 10 1 11
REMARK H PARENT
REMARK Flexibility Score: inf
ROOT
ATOM      1  C   UNL     1       0.638  -1.287   8.605  1.00  0.00     0.000 C 
ENDROOT
BRANCH   1   2
ATOM      2  C   UNL     1       0.368  -0.806   7.169  1.00  0.00     0.006 C 
BRANCH   2   3
ATOM      3  C   UNL     1      -0.870   0.098   7.086  1.00  0.00     0.053 C 
BRANCH   3   4
ATOM      4  C   UNL     1      -0.614   1.316   6.252  1.00  0.00     0.041 C 
ATOM      5  O   UNL     1      -1.430   2.275   6.263  1.00  0.00    -0.550 OA
ATOM      6  O   UNL     1       0.511   1.379   5.441  1.00  0.00    -0.550 OA
ENDBRANCH   3   4
ENDBRANCH   2   3
ENDBRANCH   1   2
BRANCH   1   7
ATOM      7  C   UNL     1       0.923  -2.799   8.686  1.00  0.00     0.000 C 
BRANCH   7   8
ATOM      8  C   UNL     1       0.398  -3.624   7.497  1.00  0.00    -0.000 C 
BRANCH   8   9
ATOM      9  C   UNL     1      -0.405  -4.861   7.936  1.00  0.00    -0.000 C 
BRANCH   9  10
ATOM     10  C   UNL     1      -1.870  -4.805   7.477  1.00  0.00    -0.003 C 
ATOM     11  C   UNL     1      -2.240  -3.463   6.846  1.00  0.00     0.004 C 
ENDBRANCH   9  10
ENDBRANCH   8   9
ENDBRANCH   7   8
ENDBRANCH   1   7
TORSDOF 7
ENDMDL
MODEL 6
REMARK VINA RESULT:    -2.870      2.007      3.294
REMARK INTER + INTRA:          -4.606
REMARK INTER:                  -3.790
REMARK INTRA:                  -0.816
REMARK UNBOUND:                -0.561
REMARK SMILES CCCCCCCCC(=O)[O-]
REMARK SMILES IDX 6 1 7 2 8 3 9 4 10 5 11 6 5 7 4 8 3 9 2 10 1 11
REMARK H PARENT
REMARK Flexibility Score: inf
ROOT
ATOM      1  C   UNL     1       1.080   0.344   6.587  1.00  0.00     0.000 C 
ENDROOT
BRANCH   1   2
ATOM      2  C   UNL     1      -0.019   1.299   6.093  1.00  0.00     0.006 C 
BRANCH   2   3
ATOM      3  C   UNL     1      -0.555   2.194   7.219  1.00  0.00     0.053 C 
BRANCH   3   4
ATOM      4  C   UNL     1      -2.009   2.507   7.037  1.00  0.00     0.041 C 
ATOM      5  O   UNL     1      -2.393   3.182   6.046  1.00  0.00    -0.550 OA
ATOM      6  O   UNL     1      -2.936   2.076   7.977  1.00  0.00    -0.550 OA
ENDBRANCH   3   4
ENDBRANCH   2   3
ENDBRANCH   1   2
BRANCH   1   7
ATOM      7  C   UNL     1       0.881  -0.093   8.050  1.00  0.00     0.000 C 
BRANCH   7   8
ATOM      8  C   UNL     1       0.701  -1.607   8.258  1.00  0.00    -0.000 C 
BRANCH   8   9
ATOM      9  C   UNL     1      -0.476  -2.185   7.452  1.00  0.00    -0.000 C 
BRANCH   9  10
ATOM     10  C   UNL     1      -1.829  -1.600   7.884  1.00  0.00    -0.003 C 
ATOM     11  C   UNL     1      -2.724  -1.244   6.696  1.00  0.00     0.004 C 
ENDBRANCH   9  10
ENDBRANCH   8   9
ENDBRANCH   7   8
ENDBRANCH   1   7
TORSDOF 7
ENDMDL
MODEL 7
REMARK VINA RESULT:    -2.770      1.155      1.403
REMARK INTER + INTRA:          -4.464
REMARK INTER:                  -3.795
REMARK INTRA:                  -0.669
REMARK UNBOUND:                -0.561
REMARK SMILES CCCCCCCCC(=O)[O-]
REMARK SMILES IDX 6 1 7 2 8 3 9 4 10 5 11 6 5 7 4 8 3 9 2 10 1 11
REMARK H PARENT
REMARK Flexibility Score: inf
ROOT
ATOM      1  C   UNL     1      -2.289  -1.120   7.240  1.00  0.00     0.000 C 
ENDROOT
BRANCH   1   2
ATOM      2  C   UNL     1      -1.617   0.012   8.036  1.00  0.00     0.006 C 
BRANCH   2   3
ATOM      3  C   UNL     1      -0.240   0.379   7.468  1.00  0.00     0.053 C 
BRANCH   3   4
ATOM      4  C   UNL     1      -0.348   1.323   6.310  1.00  0.00     0.041 C 
ATOM      5  O   UNL     1       0.519   1.310   5.397  1.00  0.00    -0.550 OA
ATOM      6  O   UNL     1      -1.393   2.236   6.253  1.00  0.00    -0.550 OA
ENDBRANCH   3   4
ENDBRANCH   2   3
ENDBRANCH   1   2
BRANCH   1   7
ATOM      7  C   UNL     1      -1.814  -2.519   7.674  1.00  0.00     0.000 C 
BRANCH   7   8
ATOM      8  C   UNL     1      -0.740  -3.150   6.770  1.00  0.00    -0.000 C 
BRANCH   8   9
ATOM      9  C   UNL     1       0.413  -3.786   7.566  1.00  0.00    -0.000 C 
BRANCH   9  10
ATOM     10  C   UNL     1       0.408  -3.370   9.045  1.00  0.00    -0.003 C 
ATOM     11  C   UNL     1       1.462  -2.309   9.363  1.00  0.00     0.004 C 
ENDBRANCH   9  10
ENDBRANCH   8   9
ENDBRANCH   7   8
ENDBRANCH   1   7
TORSDOF 7
ENDMDL
MODEL 8
REMARK VINA RESULT:    -2.696      3.267      4.814
REMARK INTER + INTRA:          -4.360
REMARK INTER:                  -3.750
REMARK INTRA:                  -0.610
REMARK UNBOUND:                -0.561
REMARK SMILES CCCCCCCCC(=O)[O-]
REMARK SMILES IDX 6 1 7 2 8 3 9 4 10 5 11 6 5 7 4 8 3 9 2 10 1 11
REMARK H PARENT
REMARK Flexibility Score: inf
ROOT
ATOM      1  C   UNL     1      -1.418   2.429   8.288  1.00  0.00     0.000 C 
ENDROOT
BRANCH   1   2
ATOM      2  C   UNL     1       0.093   2.576   8.038  1.00  0.00     0.006 C 
BRANCH   2   3
ATOM      3  C   UNL     1       0.799   1.217   7.950  1.00  0.00     0.053 C 
BRANCH   3   4
ATOM      4  C   UNL     1       0.625   0.585   6.603  1.00  0.00     0.041 C 
ATOM      5  O   UNL     1       0.648   1.294   5.563  1.00  0.00    -0.550 OA
ATOM      6  O   UNL     1       0.410  -0.783   6.499  1.00  0.00    -0.550 OA
ENDBRANCH   3   4
ENDBRANCH   2   3
ENDBRANCH   1   2
BRANCH   1   7
ATOM      7  C   UNL     1      -2.272   2.986   7.133  1.00  0.00     0.000 C 
BRANCH   7   8
ATOM      8  C   UNL     1      -2.779   1.932   6.132  1.00  0.00    -0.000 C 
BRANCH   8   9
ATOM      9  C   UNL     1      -4.238   1.516   6.389  1.00  0.00    -0.000 C 
BRANCH   9  10
ATOM     10  C   UNL     1      -4.414  -0.009   6.449  1.00  0.00    -0.003 C 
ATOM     11  C   UNL     1      -3.106  -0.742   6.750  1.00  0.00     0.004 C 
ENDBRANCH   9  10
ENDBRANCH   8   9
ENDBRANCH   7   8
ENDBRANCH   1   7
TORSDOF 7
ENDMDL
MODEL 9
REMARK VINA RESULT:    -2.667      1.431      2.585
REMARK INTER + INTRA:          -4.318
REMARK INTER:                  -3.717
REMARK INTRA:                  -0.602
REMARK UNBOUND:                -0.561
REMARK SMILES CCCCCCCCC(=O)[O-]
REMARK SMILES IDX 6 1 7 2 8 3 9 4 10 5 11 6 5 7 4 8 3 9 2 10 1 11
REMARK H PARENT
REMARK Flexibility Score: inf
ROOT
ATOM      1  C   UNL     1       0.040   0.816   9.990  1.00  0.00     0.000 C 
ENDROOT
BRANCH   1   2
ATOM      2  C   UNL     1       0.998   1.452   8.968  1.00  0.00     0.006 C 
BRANCH   2   3
ATOM      3  C   UNL     1       0.258   2.333   7.953  1.00  0.00     0.053 C 
BRANCH   3   4
ATOM      4  C   UNL     1       0.081   1.637   6.637  1.00  0.00     0.041 C 
ATOM      5  O   UNL     1      -1.001   1.747   6.002  1.00  0.00    -0.550 OA
ATOM      6  O   UNL     1       1.101   0.845   6.127  1.00  0.00    -0.550 OA
ENDBRANCH   3   4
ENDBRANCH   2   3
ENDBRANCH   1   2
BRANCH   1   7
ATOM      7  C   UNL     1      -0.060  -0.713   9.845  1.00  0.00     0.000 C 
BRANCH   7   8
ATOM      8  C   UNL     1       1.182  -1.392   9.238  1.00  0.00    -0.000 C 
BRANCH   8   9
ATOM      9  C   UNL     1       0.827  -2.529   8.264  1.00  0.00    -0.000 C 
BRANCH   9  10
ATOM     10  C   UNL     1      -0.315  -2.149   7.308  1.00  0.00    -0.003 C 
ATOM     11  C   UNL     1      -1.036  -3.370   6.737  1.00  0.00     0.004 C 
ENDBRANCH   9  10
ENDBRANCH   8   9
ENDBRANCH   7   8
ENDBRANCH   1   7
TORSDOF 7
ENDMDL
