MODEL 1
REMARK VINA RESULT:    97.401      0.000      0.000
REMARK INTER + INTRA:         154.994
REMARK INTER:                 154.342
REMARK INTRA:                   0.652
REMARK UNBOUND:                 0.652
REMARK SMILES CC[C@H](C=C[C@H](C)[C@@H]1CC[C@H]2[C@H]3CC=C4C[C@@H](O[C@H]5O[C@H](CO)[C@H](O)[C@H](O)[C@@H]5O)CC[C@@]4(C)[C@H]3CC[C@@]21C)C(C)C
REMARK SMILES IDX 8 1 9 2 10 3 11 4 37 5 36 6 35 7 34 8 12 9 13 10 14 11 15 12
REMARK SMILES IDX 32 13 31 14 30 15 17 16 16 17 33 18 38 19 6 20 7 21 5 22
REMARK SMILES IDX 4 23 3 24 2 25 1 26 39 27 40 28 41 29 18 30 19 31 28 32
REMARK SMILES IDX 20 33 26 34 21 35 24 36 29 37 27 39 22 41 23 42 25 44
REMARK H PARENT 29 38 27 40 23 43 25 45
REMARK Flexibility Score: inf
ROOT
ATOM      1  C   UNL     1      -9.512  14.179 -15.891  1.00  0.00     0.002 C 
ATOM      2  C   UNL     1      -9.184  15.702 -15.779  1.00  0.00     0.005 C 
ATOM      3  C   UNL     1      -8.283  16.066 -16.971  1.00  0.00     0.005 C 
ATOM      4  C   UNL     1      -8.054  14.739 -17.686  1.00  0.00    -0.001 C 
ATOM      5  C   UNL     1      -8.226  13.638 -16.619  1.00  0.00    -0.026 C 
ATOM      6  C   UNL     1      -8.285  12.260 -17.343  1.00  0.00     0.007 C 
ATOM      7  C   UNL     1      -7.088  12.052 -18.311  1.00  0.00     0.005 C 
ATOM      8  C   UNL     1      -6.953  13.196 -19.361  1.00  0.00     0.003 C 
ATOM      9  C   UNL     1      -6.871  14.591 -18.674  1.00  0.00     0.000 C 
ATOM     10  C   UNL     1      -5.476  14.862 -18.091  1.00  0.00     0.031 C 
ATOM     11  C   UNL     1      -4.387  14.594 -19.080  1.00  0.00    -0.027 C 
ATOM     12  C   UNL     1      -4.484  13.674 -20.060  1.00  0.00    -0.065 C 
ATOM     13  C   UNL     1      -5.817  13.018 -20.459  1.00  0.00    -0.008 C 
ATOM     14  C   UNL     1      -5.547  11.511 -20.774  1.00  0.00     0.014 C 
ATOM     15  C   UNL     1      -4.358  11.281 -21.721  1.00  0.00     0.033 C 
ATOM     16  C   UNL     1      -3.067  11.905 -21.159  1.00  0.00     0.125 C 
ATOM     17  C   UNL     1      -3.263  13.407 -20.927  1.00  0.00     0.063 C 
ATOM     18  C   UNL     1      -6.319  13.712 -21.758  1.00  0.00     0.016 C 
ATOM     19  C   UNL     1      -7.084  13.571 -15.547  1.00  0.00     0.012 C 
ENDROOT
BRANCH   1  20
ATOM     20  C   UNL     1     -10.889  13.771 -16.581  1.00  0.00     0.012 C 
ATOM     21  C   UNL     1     -11.607  15.069 -16.995  1.00  0.00     0.012 C 
BRANCH  20  22
ATOM     22  C   UNL     1     -10.762  12.727 -17.701  1.00  0.00    -0.028 C 
ATOM     23  C   UNL     1     -11.131  11.424 -17.775  1.00  0.00    -0.027 C 
BRANCH  23  24
ATOM     24  C   UNL     1     -11.824  10.529 -16.757  1.00  0.00     0.014 C 
BRANCH  24  25
ATOM     25  C   UNL     1     -11.928   9.092 -17.320  1.00  0.00     0.004 C 
ATOM     26  C   UNL     1     -12.480   9.071 -18.747  1.00  0.00     0.004 C 
ENDBRANCH  24  25
BRANCH  24  27
ATOM     27  C   UNL     1     -11.084  10.542 -15.382  1.00  0.00    -0.011 C 
ATOM     28  C   UNL     1     -11.896  11.190 -14.245  1.00  0.00     0.008 C 
ATOM     29  C   UNL     1     -10.644   9.130 -14.968  1.00  0.00     0.008 C 
ENDBRANCH  24  27
ENDBRANCH  23  24
ENDBRANCH  20  22
ENDBRANCH   1  20
BRANCH  16  30
ATOM     30  O   UNL     1      -2.724  11.300 -19.922  1.00  0.00    -0.346 OA
BRANCH  30  31
ATOM     31  C   UNL     1      -1.484  10.612 -20.001  1.00  0.00     0.282 C 
ATOM     32  C   UNL     1      -1.120  10.367 -21.482  1.00  0.00     0.202 C 
ATOM     33  O   UNL     1      -1.508   9.393 -19.267  1.00  0.00    -0.341 OA
ATOM     34  C   UNL     1      -2.072   9.313 -22.094  1.00  0.00     0.179 C 
ATOM     35  C   UNL     1      -2.495   8.498 -19.764  1.00  0.00     0.178 C 
ATOM     36  C   UNL     1      -2.155   8.058 -21.203  1.00  0.00     0.177 C 
BRANCH  32  37
ATOM     37  O   UNL     1       0.215   9.935 -21.580  1.00  0.00    -0.385 OA
ATOM     38  H   UNL     1       0.397   9.763 -22.539  1.00  0.00     0.211 HD
ENDBRANCH  32  37
BRANCH  34  39
ATOM     39  O   UNL     1      -1.723   8.990 -23.418  1.00  0.00    -0.387 OA
ATOM     40  H   UNL     1      -1.416   8.048 -23.440  1.00  0.00     0.211 HD
ENDBRANCH  34  39
BRANCH  35  41
ATOM     41  C   UNL     1      -2.590   7.287 -18.825  1.00  0.00     0.191 C 
BRANCH  41  42
ATOM     42  O   UNL     1      -3.712   6.507 -19.146  1.00  0.00    -0.394 OA
ATOM     43  H   UNL     1      -4.161   6.285 -18.289  1.00  0.00     0.210 HD
ENDBRANCH  41  42
ENDBRANCH  35  41
BRANCH  36  44
ATOM     44  O   UNL     1      -0.924   7.374 -21.216  1.00  0.00    -0.387 OA
ATOM     45  H   UNL     1      -0.249   7.961 -20.785  1.00  0.00     0.211 HD
ENDBRANCH  36  44
ENDBRANCH  30  31
ENDBRANCH  16  30
TORSDOF 12
ENDMDL
MODEL 2
REMARK VINA RESULT:    98.846      1.199      2.158
REMARK INTER + INTRA:         157.284
REMARK INTER:                 155.030
REMARK INTRA:                   2.254
REMARK UNBOUND:                 0.652
REMARK SMILES CC[C@H](C=C[C@H](C)[C@@H]1CC[C@H]2[C@H]3CC=C4C[C@@H](O[C@H]5O[C@H](CO)[C@H](O)[C@H](O)[C@@H]5O)CC[C@@]4(C)[C@H]3CC[C@@]21C)C(C)C
REMARK SMILES IDX 8 1 9 2 10 3 11 4 37 5 36 6 35 7 34 8 12 9 13 10 14 11 15 12
REMARK SMILES IDX 32 13 31 14 30 15 17 16 16 17 33 18 38 19 6 20 7 21 5 22
REMARK SMILES IDX 4 23 3 24 2 25 1 26 39 27 40 28 41 29 18 30 19 31 28 32
REMARK SMILES IDX 20 33 26 34 21 35 24 36 29 37 27 39 22 41 23 42 25 44
REMARK H PARENT 29 38 27 40 23 43 25 45
REMARK Flexibility Score: inf
ROOT
ATOM      1  C   UNL     1      -9.761  14.611 -15.860  1.00  0.00     0.002 C 
ATOM      2  C   UNL     1      -9.301  16.099 -15.739  1.00  0.00     0.005 C 
ATOM      3  C   UNL     1      -8.355  16.383 -16.917  1.00  0.00     0.005 C 
ATOM      4  C   UNL     1      -8.234  15.043 -17.633  1.00  0.00    -0.001 C 
ATOM      5  C   UNL     1      -8.519  13.960 -16.572  1.00  0.00    -0.026 C 
ATOM      6  C   UNL     1      -8.690  12.593 -17.300  1.00  0.00     0.007 C 
ATOM      7  C   UNL     1      -7.503  12.281 -18.253  1.00  0.00     0.005 C 
ATOM      8  C   UNL     1      -7.252  13.411 -19.298  1.00  0.00     0.003 C 
ATOM      9  C   UNL     1      -7.055  14.792 -18.605  1.00  0.00     0.000 C 
ATOM     10  C   UNL     1      -5.650  14.936 -18.001  1.00  0.00     0.031 C 
ATOM     11  C   UNL     1      -4.576  14.574 -18.977  1.00  0.00    -0.027 C 
ATOM     12  C   UNL     1      -4.741  13.668 -19.961  1.00  0.00    -0.065 C 
ATOM     13  C   UNL     1      -6.121  13.135 -20.379  1.00  0.00    -0.008 C 
ATOM     14  C   UNL     1      -5.982  11.610 -20.695  1.00  0.00     0.014 C 
ATOM     15  C   UNL     1      -4.805  11.277 -21.627  1.00  0.00     0.033 C 
ATOM     16  C   UNL     1      -3.471  11.781 -21.046  1.00  0.00     0.125 C 
ATOM     17  C   UNL     1      -3.536  13.295 -20.811  1.00  0.00     0.063 C 
ATOM     18  C   UNL     1      -6.541  13.872 -21.683  1.00  0.00     0.016 C 
ATOM     19  C   UNL     1      -7.403  13.789 -15.485  1.00  0.00     0.012 C 
ENDROOT
BRANCH   1  20
ATOM     20  C   UNL     1     -11.160  14.329 -16.570  1.00  0.00     0.012 C 
ATOM     21  C   UNL     1     -11.782  15.689 -16.935  1.00  0.00     0.012 C 
BRANCH  20  22
ATOM     22  C   UNL     1     -11.100  13.323 -17.730  1.00  0.00    -0.028 C 
ATOM     23  C   UNL     1     -11.025  11.970 -17.755  1.00  0.00    -0.027 C 
BRANCH  23  24
ATOM     24  C   UNL     1     -10.986  10.955 -16.621  1.00  0.00     0.014 C 
BRANCH  24  25
ATOM     25  C   UNL     1     -11.416  11.640 -15.301  1.00  0.00     0.004 C 
ATOM     26  C   UNL     1     -11.736  10.623 -14.203  1.00  0.00     0.004 C 
ENDBRANCH  24  25
BRANCH  24  27
ATOM     27  C   UNL     1     -11.880   9.714 -16.928  1.00  0.00    -0.011 C 
ATOM     28  C   UNL     1     -12.083   9.450 -18.432  1.00  0.00     0.008 C 
ATOM     29  C   UNL     1     -11.338   8.449 -16.247  1.00  0.00     0.008 C 
ENDBRANCH  24  27
ENDBRANCH  23  24
ENDBRANCH  20  22
ENDBRANCH   1  20
BRANCH  16  30
ATOM     30  O   UNL     1      -3.201  11.146 -19.805  1.00  0.00    -0.346 OA
BRANCH  30  31
ATOM     31  C   UNL     1      -1.995  10.398 -19.852  1.00  0.00     0.282 C 
ATOM     32  C   UNL     1      -2.289   8.971 -20.363  1.00  0.00     0.202 C 
ATOM     33  O   UNL     1      -1.341  10.370 -18.588  1.00  0.00    -0.341 OA
ATOM     34  C   UNL     1      -3.077   8.178 -19.294  1.00  0.00     0.179 C 
ATOM     35  C   UNL     1      -2.151   9.762 -17.590  1.00  0.00     0.178 C 
ATOM     36  C   UNL     1      -2.392   8.274 -17.916  1.00  0.00     0.177 C 
BRANCH  32  37
ATOM     37  O   UNL     1      -1.083   8.315 -20.667  1.00  0.00    -0.385 OA
ATOM     38  H   UNL     1      -0.451   8.507 -19.927  1.00  0.00     0.211 HD
ENDBRANCH  32  37
BRANCH  34  39
ATOM     39  O   UNL     1      -3.291   6.841 -19.677  1.00  0.00    -0.387 OA
ATOM     40  H   UNL     1      -3.852   6.404 -18.987  1.00  0.00     0.211 HD
ENDBRANCH  34  39
BRANCH  35  41
ATOM     41  C   UNL     1      -1.467   9.924 -16.224  1.00  0.00     0.191 C 
BRANCH  41  42
ATOM     42  O   UNL     1      -1.650  11.226 -15.737  1.00  0.00    -0.394 OA
ATOM     43  H   UNL     1      -2.618  11.429 -15.819  1.00  0.00     0.210 HD
ENDBRANCH  41  42
ENDBRANCH  35  41
BRANCH  36  44
ATOM     44  O   UNL     1      -1.165   7.584 -17.937  1.00  0.00    -0.387 OA
ATOM     45  H   UNL     1      -1.093   7.072 -17.090  1.00  0.00     0.211 HD
ENDBRANCH  36  44
ENDBRANCH  30  31
ENDBRANCH  16  30
TORSDOF 12
ENDMDL
