MODEL 1
REMARK VINA RESULT:    -4.940      0.000      0.000
REMARK INTER + INTRA:          -6.303
REMARK INTER:                  -6.096
REMARK INTRA:                  -0.208
REMARK UNBOUND:                -0.208
REMARK SMILES C=CC[C@H](C)C(=O)CC
REMARK SMILES IDX 4 1 5 2 6 3 7 4 8 5 9 6 3 7 2 8 1 9
REMARK H PARENT
REMARK Flexibility Score: inf
ROOT
ATOM      1  C   UNL     1      16.152  16.010  31.593  1.00  0.00     0.057 C 
ATOM      2  C   UNL     1      15.161  16.122  32.759  1.00  0.00     0.016 C 
ENDROOT
BRANCH   1   3
ATOM      3  C   UNL     1      15.927  17.144  30.617  1.00  0.00     0.135 C 
ATOM      4  O   UNL     1      16.584  17.197  29.587  1.00  0.00    -0.299 OA
BRANCH   3   5
ATOM      5  C   UNL     1      14.910  18.221  30.893  1.00  0.00     0.072 C 
ATOM      6  C   UNL     1      15.263  19.502  30.146  1.00  0.00     0.012 C 
ENDBRANCH   3   5
ENDBRANCH   1   3
BRANCH   1   7
ATOM      7  C   UNL     1      16.027  14.655  30.865  1.00  0.00     0.038 C 
BRANCH   7   8
ATOM      8  C   UNL     1      17.373  14.013  30.658  1.00  0.00    -0.034 C 
ATOM      9  C   UNL     1      18.251  13.875  31.655  1.00  0.00     0.004 C 
ENDBRANCH   7   8
ENDBRANCH   1   7
TORSDOF 4
ENDMDL
MODEL 2
REMARK VINA RESULT:    -4.927      1.745      3.910
REMARK INTER + INTRA:          -6.286
REMARK INTER:                  -5.922
REMARK INTRA:                  -0.365
REMARK UNBOUND:                -0.208
REMARK SMILES C=CC[C@H](C)C(=O)CC
REMARK SMILES IDX 4 1 5 2 6 3 7 4 8 5 9 6 3 7 2 8 1 9
REMARK H PARENT
REMARK Flexibility Score: inf
ROOT
ATOM      1  C   UNL     1      17.378  16.648  30.586  1.00  0.00     0.057 C 
ATOM      2  C   UNL     1      18.655  16.293  29.812  1.00  0.00     0.016 C 
ENDROOT
BRANCH   1   3
ATOM      3  C   UNL     1      17.053  15.547  31.572  1.00  0.00     0.135 C 
ATOM      4  O   UNL     1      17.138  14.377  31.225  1.00  0.00    -0.299 OA
BRANCH   3   5
ATOM      5  C   UNL     1      16.617  15.864  32.979  1.00  0.00     0.072 C 
ATOM      6  C   UNL     1      15.102  16.026  33.052  1.00  0.00     0.012 C 
ENDBRANCH   3   5
ENDBRANCH   1   3
BRANCH   1   7
ATOM      7  C   UNL     1      16.182  16.878  29.640  1.00  0.00     0.038 C 
BRANCH   7   8
ATOM      8  C   UNL     1      15.704  18.305  29.690  1.00  0.00    -0.034 C 
ATOM      9  C   UNL     1      14.875  18.740  30.644  1.00  0.00     0.004 C 
ENDBRANCH   7   8
ENDBRANCH   1   7
TORSDOF 4
ENDMDL
MODEL 3
REMARK VINA RESULT:    -4.867      1.883      2.632
REMARK INTER + INTRA:          -6.213
REMARK INTER:                  -5.778
REMARK INTRA:                  -0.435
REMARK UNBOUND:                -0.208
REMARK SMILES C=CC[C@H](C)C(=O)CC
REMARK SMILES IDX 4 1 5 2 6 3 7 4 8 5 9 6 3 7 2 8 1 9
REMARK H PARENT
REMARK Flexibility Score: inf
ROOT
ATOM      1  C   UNL     1      16.866  14.388  31.418  1.00  0.00     0.057 C 
ATOM      2  C   UNL     1      15.999  14.183  30.168  1.00  0.00     0.016 C 
ENDROOT
BRANCH   1   3
ATOM      3  C   UNL     1      16.408  15.623  32.162  1.00  0.00     0.135 C 
ATOM      4  O   UNL     1      17.049  16.023  33.125  1.00  0.00    -0.299 OA
BRANCH   3   5
ATOM      5  C   UNL     1      15.168  16.370  31.746  1.00  0.00     0.072 C 
ATOM      6  C   UNL     1      15.530  17.604  30.926  1.00  0.00     0.012 C 
ENDBRANCH   3   5
ENDBRANCH   1   3
BRANCH   1   7
ATOM      7  C   UNL     1      18.361  14.510  31.062  1.00  0.00     0.038 C 
BRANCH   7   8
ATOM      8  C   UNL     1      18.562  15.224  29.751  1.00  0.00    -0.034 C 
ATOM      9  C   UNL     1      18.906  16.513  29.695  1.00  0.00     0.004 C 
ENDBRANCH   7   8
ENDBRANCH   1   7
TORSDOF 4
ENDMDL
MODEL 4
REMARK VINA RESULT:    -4.857      1.579      3.657
REMARK INTER + INTRA:          -6.200
REMARK INTER:                  -5.838
REMARK INTRA:                  -0.362
REMARK UNBOUND:                -0.208
REMARK SMILES C=CC[C@H](C)C(=O)CC
REMARK SMILES IDX 4 1 5 2 6 3 7 4 8 5 9 6 3 7 2 8 1 9
REMARK H PARENT
REMARK Flexibility Score: inf
ROOT
ATOM      1  C   UNL     1      16.030  15.430  31.980  1.00  0.00     0.057 C 
ATOM      2  C   UNL     1      17.072  15.772  33.054  1.00  0.00     0.016 C 
ENDROOT
BRANCH   1   3
ATOM      3  C   UNL     1      16.710  14.782  30.794  1.00  0.00     0.135 C 
ATOM      4  O   UNL     1      16.035  14.355  29.867  1.00  0.00    -0.299 OA
BRANCH   3   5
ATOM      5  C   UNL     1      18.208  14.641  30.734  1.00  0.00     0.072 C 
ATOM      6  C   UNL     1      18.809  15.665  29.777  1.00  0.00     0.012 C 
ENDBRANCH   3   5
ENDBRANCH   1   3
BRANCH   1   7
ATOM      7  C   UNL     1      15.249  16.679  31.523  1.00  0.00     0.038 C 
BRANCH   7   8
ATOM      8  C   UNL     1      16.147  17.670  30.831  1.00  0.00    -0.034 C 
ATOM      9  C   UNL     1      15.737  18.373  29.771  1.00  0.00     0.004 C 
ENDBRANCH   7   8
ENDBRANCH   1   7
TORSDOF 4
ENDMDL
MODEL 5
REMARK VINA RESULT:    -4.323      1.656      3.753
REMARK INTER + INTRA:          -5.541
REMARK INTER:                  -5.246
REMARK INTRA:                  -0.296
REMARK UNBOUND:                -0.208
REMARK SMILES C=CC[C@H](C)C(=O)CC
REMARK SMILES IDX 4 1 5 2 6 3 7 4 8 5 9 6 3 7 2 8 1 9
REMARK H PARENT
REMARK Flexibility Score: inf
ROOT
ATOM      1  C   UNL     1      17.288  16.710  30.793  1.00  0.00     0.057 C 
ATOM      2  C   UNL     1      17.401  18.157  30.296  1.00  0.00     0.016 C 
ENDROOT
BRANCH   1   3
ATOM      3  C   UNL     1      18.261  15.830  30.038  1.00  0.00     0.135 C 
ATOM      4  O   UNL     1      19.077  16.339  29.282  1.00  0.00    -0.299 OA
BRANCH   3   5
ATOM      5  C   UNL     1      18.239  14.332  30.191  1.00  0.00     0.072 C 
ATOM      6  C   UNL     1      18.289  13.938  31.663  1.00  0.00     0.012 C 
ENDBRANCH   3   5
ENDBRANCH   1   3
BRANCH   1   7
ATOM      7  C   UNL     1      15.854  16.163  30.639  1.00  0.00     0.038 C 
BRANCH   7   8
ATOM      8  C   UNL     1      15.176  16.006  31.975  1.00  0.00    -0.034 C 
ATOM      9  C   UNL     1      15.860  16.043  33.123  1.00  0.00     0.004 C 
ENDBRANCH   7   8
ENDBRANCH   1   7
TORSDOF 4
ENDMDL
MODEL 6
REMARK VINA RESULT:    -3.634     20.187     21.780
REMARK INTER + INTRA:          -4.691
REMARK INTER:                  -4.205
REMARK INTRA:                  -0.486
REMARK UNBOUND:                -0.208
REMARK SMILES C=CC[C@H](C)C(=O)CC
REMARK SMILES IDX 4 1 5 2 6 3 7 4 8 5 9 6 3 7 2 8 1 9
REMARK H PARENT
REMARK Flexibility Score: inf
ROOT
ATOM      1  C   UNL     1      30.867  32.823  29.201  1.00  0.00     0.057 C 
ATOM      2  C   UNL     1      32.340  33.241  29.309  1.00  0.00     0.016 C 
ENDROOT
BRANCH   1   3
ATOM      3  C   UNL     1      30.774  31.397  28.704  1.00  0.00     0.135 C 
ATOM      4  O   UNL     1      31.065  31.139  27.544  1.00  0.00    -0.299 OA
BRANCH   3   5
ATOM      5  C   UNL     1      30.318  30.283  29.610  1.00  0.00     0.072 C 
ATOM      6  C   UNL     1      30.217  30.767  31.053  1.00  0.00     0.012 C 
ENDBRANCH   3   5
ENDBRANCH   1   3
BRANCH   1   7
ATOM      7  C   UNL     1      30.074  33.761  28.268  1.00  0.00     0.038 C 
BRANCH   7   8
ATOM      8  C   UNL     1      28.628  33.855  28.678  1.00  0.00    -0.034 C 
ATOM      9  C   UNL     1      28.251  33.789  29.958  1.00  0.00     0.004 C 
ENDBRANCH   7   8
ENDBRANCH   1   7
TORSDOF 4
ENDMDL
MODEL 7
REMARK VINA RESULT:    -3.625     15.262     16.756
REMARK INTER + INTRA:          -4.680
REMARK INTER:                  -4.199
REMARK INTRA:                  -0.481
REMARK UNBOUND:                -0.208
REMARK SMILES C=CC[C@H](C)C(=O)CC
REMARK SMILES IDX 4 1 5 2 6 3 7 4 8 5 9 6 3 7 2 8 1 9
REMARK H PARENT
REMARK Flexibility Score: inf
ROOT
ATOM      1  C   UNL     1      17.671  32.272  28.906  1.00  0.00     0.057 C 
ATOM      2  C   UNL     1      17.896  30.805  29.300  1.00  0.00     0.016 C 
ENDROOT
BRANCH   1   3
ATOM      3  C   UNL     1      18.729  33.143  29.548  1.00  0.00     0.135 C 
ATOM      4  O   UNL     1      19.149  34.125  28.951  1.00  0.00    -0.299 OA
BRANCH   3   5
ATOM      5  C   UNL     1      19.286  32.820  30.910  1.00  0.00     0.072 C 
ATOM      6  C   UNL     1      18.980  33.940  31.898  1.00  0.00     0.012 C 
ENDBRANCH   3   5
ENDBRANCH   1   3
BRANCH   1   7
ATOM      7  C   UNL     1      16.267  32.763  29.310  1.00  0.00     0.038 C 
BRANCH   7   8
ATOM      8  C   UNL     1      15.676  31.912  30.404  1.00  0.00    -0.034 C 
ATOM      9  C   UNL     1      15.587  32.344  31.665  1.00  0.00     0.004 C 
ENDBRANCH   7   8
ENDBRANCH   1   7
TORSDOF 4
ENDMDL
MODEL 8
REMARK VINA RESULT:    -3.416     20.853     22.116
REMARK INTER + INTRA:          -4.423
REMARK INTER:                  -3.952
REMARK INTRA:                  -0.471
REMARK UNBOUND:                -0.208
REMARK SMILES C=CC[C@H](C)C(=O)CC
REMARK SMILES IDX 4 1 5 2 6 3 7 4 8 5 9 6 3 7 2 8 1 9
REMARK H PARENT
REMARK Flexibility Score: inf
ROOT
ATOM      1  C   UNL     1      30.348  32.711  27.896  1.00  0.00     0.057 C 
ATOM      2  C   UNL     1      29.679  31.330  27.923  1.00  0.00     0.016 C 
ENDROOT
BRANCH   1   3
ATOM      3  C   UNL     1      31.732  32.623  28.502  1.00  0.00     0.135 C 
ATOM      4  O   UNL     1      32.664  32.208  27.827  1.00  0.00    -0.299 OA
BRANCH   3   5
ATOM      5  C   UNL     1      31.986  33.028  29.930  1.00  0.00     0.072 C 
ATOM      6  C   UNL     1      31.862  31.829  30.863  1.00  0.00     0.012 C 
ENDBRANCH   3   5
ENDBRANCH   1   3
BRANCH   1   7
ATOM      7  C   UNL     1      29.510  33.767  28.646  1.00  0.00     0.038 C 
BRANCH   7   8
ATOM      8  C   UNL     1      28.408  33.129  29.450  1.00  0.00    -0.034 C 
ATOM      9  C   UNL     1      28.240  33.389  30.749  1.00  0.00     0.004 C 
ENDBRANCH   7   8
ENDBRANCH   1   7
TORSDOF 4
ENDMDL
