MODEL 1
REMARK VINA RESULT:    -2.239      0.000      0.000
REMARK INTER + INTRA:          -3.686
REMARK INTER:                  -3.025
REMARK INTRA:                  -0.661
REMARK UNBOUND:                -0.661
REMARK SMILES CCCCCCC=CC(=O)[O-]
REMARK SMILES IDX 5 1 6 2 7 3 8 4 9 5 10 6 11 7 4 8 3 9 2 10 1 11
REMARK H PARENT
REMARK Flexibility Score: inf
ROOT
ATOM      1  C   UNL     1      -0.454   6.890  14.600  1.00  0.00     0.004 C 
ENDROOT
BRANCH   1   2
ATOM      2  C   UNL     1       1.023   6.478  14.507  1.00  0.00     0.027 C 
BRANCH   2   3
ATOM      3  C   UNL     1       1.928   7.664  14.677  1.00  0.00    -0.025 C 
ATOM      4  C   UNL     1       1.449   8.866  15.011  1.00  0.00     0.020 C 
BRANCH   4   5
ATOM      5  C   UNL     1       2.316  10.045  15.168  1.00  0.00     0.064 C 
ATOM      6  O   UNL     1       3.420   9.966  15.770  1.00  0.00    -0.545 OA
ATOM      7  O   UNL     1       1.908  11.266  14.647  1.00  0.00    -0.545 OA
ENDBRANCH   4   5
ENDBRANCH   2   3
ENDBRANCH   1   2
BRANCH   1   8
ATOM      8  C   UNL     1      -1.311   5.858  15.348  1.00  0.00     0.000 C 
BRANCH   8   9
ATOM      9  C   UNL     1      -1.572   6.253  16.809  1.00  0.00    -0.000 C 
BRANCH   9  10
ATOM     10  C   UNL     1      -1.535   7.776  16.981  1.00  0.00    -0.003 C 
ATOM     11  C   UNL     1      -0.588   8.181  18.107  1.00  0.00     0.004 C 
ENDBRANCH   9  10
ENDBRANCH   8   9
ENDBRANCH   1   8
TORSDOF 6
ENDMDL
MODEL 2
REMARK VINA RESULT:    -2.209     18.201     19.329
REMARK INTER + INTRA:          -3.645
REMARK INTER:                  -3.090
REMARK INTRA:                  -0.555
REMARK UNBOUND:                -0.661
REMARK SMILES CCCCCCC=CC(=O)[O-]
REMARK SMILES IDX 5 1 6 2 7 3 8 4 9 5 10 6 11 7 4 8 3 9 2 10 1 11
REMARK H PARENT
REMARK Flexibility Score: inf
ROOT
ATOM      1  C   UNL     1       0.030  -2.426  32.724  1.00  0.00     0.004 C 
ENDROOT
BRANCH   1   2
ATOM      2  C   UNL     1      -0.525  -2.594  31.301  1.00  0.00     0.027 C 
BRANCH   2   3
ATOM      3  C   UNL     1      -1.566  -1.554  31.001  1.00  0.00    -0.025 C 
ATOM      4  C   UNL     1      -2.007  -0.713  31.943  1.00  0.00     0.020 C 
BRANCH   4   5
ATOM      5  C   UNL     1      -3.036   0.303  31.674  1.00  0.00     0.064 C 
ATOM      6  O   UNL     1      -3.511   1.010  32.602  1.00  0.00    -0.545 OA
ATOM      7  O   UNL     1      -3.495   0.483  30.376  1.00  0.00    -0.545 OA
ENDBRANCH   4   5
ENDBRANCH   2   3
ENDBRANCH   1   2
BRANCH   1   8
ATOM      8  C   UNL     1       1.566  -2.433  32.764  1.00  0.00     0.000 C 
BRANCH   8   9
ATOM      9  C   UNL     1       2.143  -1.243  33.545  1.00  0.00    -0.000 C 
BRANCH   9  10
ATOM     10  C   UNL     1       1.053  -0.212  33.858  1.00  0.00    -0.003 C 
ATOM     11  C   UNL     1       1.468   1.185  33.405  1.00  0.00     0.004 C 
ENDBRANCH   9  10
ENDBRANCH   8   9
ENDBRANCH   1   8
TORSDOF 6
ENDMDL
MODEL 3
REMARK VINA RESULT:    -2.151      0.853      1.331
REMARK INTER + INTRA:          -3.567
REMARK INTER:                  -3.119
REMARK INTRA:                  -0.448
REMARK UNBOUND:                -0.661
REMARK SMILES CCCCCCC=CC(=O)[O-]
REMARK SMILES IDX 5 1 6 2 7 3 8 4 9 5 10 6 11 7 4 8 3 9 2 10 1 11
REMARK H PARENT
REMARK Flexibility Score: inf
ROOT
ATOM      1  C   UNL     1       0.978   5.920  14.485  1.00  0.00     0.004 C 
ENDROOT
BRANCH   1   2
ATOM      2  C   UNL     1       2.153   6.902  14.361  1.00  0.00     0.027 C 
BRANCH   2   3
ATOM      3  C   UNL     1       1.723   8.305  14.680  1.00  0.00    -0.025 C 
ATOM      4  C   UNL     1       2.612   9.255  14.988  1.00  0.00     0.020 C 
BRANCH   4   5
ATOM      5  C   UNL     1       2.212  10.632  15.317  1.00  0.00     0.064 C 
ATOM      6  O   UNL     1       2.004  10.981  16.510  1.00  0.00    -0.545 OA
ATOM      7  O   UNL     1       2.059  11.561  14.297  1.00  0.00    -0.545 OA
ENDBRANCH   4   5
ENDBRANCH   2   3
ENDBRANCH   1   2
BRANCH   1   8
ATOM      8  C   UNL     1      -0.367   6.631  14.703  1.00  0.00     0.000 C 
BRANCH   8   9
ATOM      9  C   UNL     1      -1.393   5.748  15.428  1.00  0.00    -0.000 C 
BRANCH   9  10
ATOM     10  C   UNL     1      -1.640   6.252  16.854  1.00  0.00    -0.003 C 
ATOM     11  C   UNL     1      -1.517   7.771  16.931  1.00  0.00     0.004 C 
ENDBRANCH   9  10
ENDBRANCH   8   9
ENDBRANCH   1   8
TORSDOF 6
ENDMDL
MODEL 4
REMARK VINA RESULT:    -2.139     17.431     19.103
REMARK INTER + INTRA:          -3.551
REMARK INTER:                  -3.117
REMARK INTRA:                  -0.434
REMARK UNBOUND:                -0.661
REMARK SMILES CCCCCCC=CC(=O)[O-]
REMARK SMILES IDX 5 1 6 2 7 3 8 4 9 5 10 6 11 7 4 8 3 9 2 10 1 11
REMARK H PARENT
REMARK Flexibility Score: inf
ROOT
ATOM      1  C   UNL     1      -0.641  -1.883  33.216  1.00  0.00     0.004 C 
ENDROOT
BRANCH   1   2
ATOM      2  C   UNL     1      -1.426  -1.637  31.919  1.00  0.00     0.027 C 
BRANCH   2   3
ATOM      3  C   UNL     1      -0.988  -2.578  30.834  1.00  0.00    -0.025 C 
ATOM      4  C   UNL     1      -1.143  -2.273  29.541  1.00  0.00     0.020 C 
BRANCH   4   5
ATOM      5  C   UNL     1      -0.735  -3.186  28.461  1.00  0.00     0.064 C 
ATOM      6  O   UNL     1      -0.734  -4.434  28.630  1.00  0.00    -0.545 OA
ATOM      7  O   UNL     1      -0.342  -2.662  27.237  1.00  0.00    -0.545 OA
ENDBRANCH   4   5
ENDBRANCH   2   3
ENDBRANCH   1   2
BRANCH   1   8
ATOM      8  C   UNL     1       0.764  -2.450  32.959  1.00  0.00     0.000 C 
BRANCH   8   9
ATOM      9  C   UNL     1       1.879  -1.483  33.385  1.00  0.00    -0.000 C 
BRANCH   9  10
ATOM     10  C   UNL     1       1.302  -0.271  34.124  1.00  0.00    -0.003 C 
ATOM     11  C   UNL     1       1.801   1.036  33.514  1.00  0.00     0.004 C 
ENDBRANCH   9  10
ENDBRANCH   8   9
ENDBRANCH   1   8
TORSDOF 6
ENDMDL
MODEL 5
REMARK VINA RESULT:    -2.060      2.923      4.559
REMARK INTER + INTRA:          -3.444
REMARK INTER:                  -2.964
REMARK INTRA:                  -0.479
REMARK UNBOUND:                -0.661
REMARK SMILES CCCCCCC=CC(=O)[O-]
REMARK SMILES IDX 5 1 6 2 7 3 8 4 9 5 10 6 11 7 4 8 3 9 2 10 1 11
REMARK H PARENT
REMARK Flexibility Score: inf
ROOT
ATOM      1  C   UNL     1       0.117   7.542  14.493  1.00  0.00     0.004 C 
ENDROOT
BRANCH   1   2
ATOM      2  C   UNL     1      -0.684   6.313  14.949  1.00  0.00     0.027 C 
BRANCH   2   3
ATOM      3  C   UNL     1      -1.319   6.547  16.289  1.00  0.00    -0.025 C 
ATOM      4  C   UNL     1      -1.488   7.781  16.777  1.00  0.00     0.020 C 
BRANCH   4   5
ATOM      5  C   UNL     1      -2.095   8.032  18.093  1.00  0.00     0.064 C 
ATOM      6  O   UNL     1      -1.702   7.416  19.120  1.00  0.00    -0.545 OA
ATOM      7  O   UNL     1      -3.119   8.962  18.206  1.00  0.00    -0.545 OA
ENDBRANCH   4   5
ENDBRANCH   2   3
ENDBRANCH   1   2
BRANCH   1   8
ATOM      8  C   UNL     1       1.599   7.224  14.242  1.00  0.00     0.000 C 
BRANCH   8   9
ATOM      9  C   UNL     1       2.536   8.333  14.744  1.00  0.00    -0.000 C 
BRANCH   9  10
ATOM     10  C   UNL     1       1.741   9.464  15.406  1.00  0.00    -0.003 C 
ATOM     11  C   UNL     1       2.178  10.827  14.878  1.00  0.00     0.004 C 
ENDBRANCH   9  10
ENDBRANCH   8   9
ENDBRANCH   1   8
TORSDOF 6
ENDMDL
MODEL 6
REMARK VINA RESULT:    -2.036      1.485      2.934
REMARK INTER + INTRA:          -3.411
REMARK INTER:                  -2.724
REMARK INTRA:                  -0.687
REMARK UNBOUND:                -0.661
REMARK SMILES CCCCCCC=CC(=O)[O-]
REMARK SMILES IDX 5 1 6 2 7 3 8 4 9 5 10 6 11 7 4 8 3 9 2 10 1 11
REMARK H PARENT
REMARK Flexibility Score: inf
ROOT
ATOM      1  C   UNL     1      -0.120   7.773  15.073  1.00  0.00     0.004 C 
ENDROOT
BRANCH   1   2
ATOM      2  C   UNL     1       0.575   8.195  16.376  1.00  0.00     0.027 C 
BRANCH   2   3
ATOM      3  C   UNL     1       1.604   9.259  16.120  1.00  0.00    -0.025 C 
ATOM      4  C   UNL     1       1.985   9.578  14.879  1.00  0.00     0.020 C 
BRANCH   4   5
ATOM      5  C   UNL     1       3.002  10.607  14.606  1.00  0.00     0.064 C 
ATOM      6  O   UNL     1       2.732  11.620  13.908  1.00  0.00    -0.545 OA
ATOM      7  O   UNL     1       4.281  10.456  15.125  1.00  0.00    -0.545 OA
ENDBRANCH   4   5
ENDBRANCH   2   3
ENDBRANCH   1   2
BRANCH   1   8
ATOM      8  C   UNL     1      -0.457   6.274  15.040  1.00  0.00     0.000 C 
BRANCH   8   9
ATOM      9  C   UNL     1       0.795   5.387  14.963  1.00  0.00    -0.000 C 
BRANCH   9  10
ATOM     10  C   UNL     1       1.754   5.886  13.876  1.00  0.00    -0.003 C 
ATOM     11  C   UNL     1       3.171   6.041  14.419  1.00  0.00     0.004 C 
ENDBRANCH   9  10
ENDBRANCH   8   9
ENDBRANCH   1   8
TORSDOF 6
ENDMDL
MODEL 7
REMARK VINA RESULT:    -1.963     19.222     20.158
REMARK INTER + INTRA:          -3.312
REMARK INTER:                  -2.593
REMARK INTRA:                  -0.719
REMARK UNBOUND:                -0.661
REMARK SMILES CCCCCCC=CC(=O)[O-]
REMARK SMILES IDX 5 1 6 2 7 3 8 4 9 5 10 6 11 7 4 8 3 9 2 10 1 11
REMARK H PARENT
REMARK Flexibility Score: inf
ROOT
ATOM      1  C   UNL     1       1.292  -2.391  32.620  1.00  0.00     0.004 C 
ENDROOT
BRANCH   1   2
ATOM      2  C   UNL     1       0.328  -3.174  33.523  1.00  0.00     0.027 C 
BRANCH   2   3
ATOM      3  C   UNL     1      -1.079  -3.106  33.002  1.00  0.00    -0.025 C 
ATOM      4  C   UNL     1      -1.334  -2.899  31.705  1.00  0.00     0.020 C 
BRANCH   4   5
ATOM      5  C   UNL     1      -2.704  -2.814  31.175  1.00  0.00     0.064 C 
ATOM      6  O   UNL     1      -3.610  -2.207  31.805  1.00  0.00    -0.545 OA
ATOM      7  O   UNL     1      -3.003  -3.416  29.960  1.00  0.00    -0.545 OA
ENDBRANCH   4   5
ENDBRANCH   2   3
ENDBRANCH   1   2
BRANCH   1   8
ATOM      8  C   UNL     1       2.094  -1.330  33.389  1.00  0.00     0.000 C 
BRANCH   8   9
ATOM      9  C   UNL     1       1.194  -0.326  34.125  1.00  0.00    -0.000 C 
BRANCH   9  10
ATOM     10  C   UNL     1       0.582   0.682  33.146  1.00  0.00    -0.003 C 
ATOM     11  C   UNL     1      -0.942   0.597  33.147  1.00  0.00     0.004 C 
ENDBRANCH   9  10
ENDBRANCH   8   9
ENDBRANCH   1   8
TORSDOF 6
ENDMDL
MODEL 8
REMARK VINA RESULT:    -1.953      1.302      2.322
REMARK INTER + INTRA:          -3.299
REMARK INTER:                  -2.813
REMARK INTRA:                  -0.486
REMARK UNBOUND:                -0.661
REMARK SMILES CCCCCCC=CC(=O)[O-]
REMARK SMILES IDX 5 1 6 2 7 3 8 4 9 5 10 6 11 7 4 8 3 9 2 10 1 11
REMARK H PARENT
REMARK Flexibility Score: inf
ROOT
ATOM      1  C   UNL     1      -0.667   7.731  16.266  1.00  0.00     0.004 C 
ENDROOT
BRANCH   1   2
ATOM      2  C   UNL     1      -0.155   7.690  14.818  1.00  0.00     0.027 C 
BRANCH   2   3
ATOM      3  C   UNL     1       1.273   8.148  14.735  1.00  0.00    -0.025 C 
ATOM      4  C   UNL     1       1.628   9.394  15.070  1.00  0.00     0.020 C 
BRANCH   4   5
ATOM      5  C   UNL     1       3.018   9.868  14.983  1.00  0.00     0.064 C 
ATOM      6  O   UNL     1       3.423  10.830  15.689  1.00  0.00    -0.545 OA
ATOM      7  O   UNL     1       3.897   9.248  14.106  1.00  0.00    -0.545 OA
ENDBRANCH   4   5
ENDBRANCH   2   3
ENDBRANCH   1   2
BRANCH   1   8
ATOM      8  C   UNL     1      -1.435   6.460  16.658  1.00  0.00     0.000 C 
BRANCH   8   9
ATOM      9  C   UNL     1      -1.513   5.438  15.513  1.00  0.00    -0.000 C 
BRANCH   9  10
ATOM     10  C   UNL     1      -0.881   4.104  15.925  1.00  0.00    -0.003 C 
ATOM     11  C   UNL     1       0.642   4.165  15.841  1.00  0.00     0.004 C 
ENDBRANCH   9  10
ENDBRANCH   8   9
ENDBRANCH   1   8
TORSDOF 6
ENDMDL
MODEL 9
REMARK VINA RESULT:    -1.946      3.617      5.219
REMARK INTER + INTRA:          -3.290
REMARK INTER:                  -2.828
REMARK INTRA:                  -0.462
REMARK UNBOUND:                -0.661
REMARK SMILES CCCCCCC=CC(=O)[O-]
REMARK SMILES IDX 5 1 6 2 7 3 8 4 9 5 10 6 11 7 4 8 3 9 2 10 1 11
REMARK H PARENT
REMARK Flexibility Score: inf
ROOT
ATOM      1  C   UNL     1       1.329   7.352  14.358  1.00  0.00     0.004 C 
ENDROOT
BRANCH   1   2
ATOM      2  C   UNL     1      -0.133   7.705  14.671  1.00  0.00     0.027 C 
BRANCH   2   3
ATOM      3  C   UNL     1      -0.823   6.574  15.378  1.00  0.00    -0.025 C 
ATOM      4  C   UNL     1      -0.231   5.386  15.541  1.00  0.00     0.020 C 
BRANCH   4   5
ATOM      5  C   UNL     1      -0.894   4.261  16.218  1.00  0.00     0.064 C 
ATOM      6  O   UNL     1      -0.825   4.121  17.468  1.00  0.00    -0.545 OA
ATOM      7  O   UNL     1      -1.605   3.336  15.466  1.00  0.00    -0.545 OA
ENDBRANCH   4   5
ENDBRANCH   2   3
ENDBRANCH   1   2
BRANCH   1   8
ATOM      8  C   UNL     1       2.313   8.434  14.827  1.00  0.00     0.000 C 
BRANCH   8   9
ATOM      9  C   UNL     1       1.835   9.158  16.095  1.00  0.00    -0.000 C 
BRANCH   9  10
ATOM     10  C   UNL     1       2.176  10.652  16.035  1.00  0.00    -0.003 C 
ATOM     11  C   UNL     1       2.318  11.128  14.593  1.00  0.00     0.004 C 
ENDBRANCH   9  10
ENDBRANCH   8   9
ENDBRANCH   1   8
TORSDOF 6
ENDMDL
