MODEL 1
REMARK VINA RESULT:    -3.110      0.000      0.000
REMARK INTER + INTRA:          -3.501
REMARK INTER:                  -3.474
REMARK INTRA:                  -0.027
REMARK UNBOUND:                -0.027
REMARK SMILES CCCC(=O)[O-]
REMARK SMILES IDX 3 1 4 2 5 3 6 4 2 5 1 6
REMARK H PARENT
REMARK Flexibility Score: inf
ROOT
ATOM      1  C   UNL     1      44.774 -49.481 164.380  1.00  0.00     0.052 C 
ENDROOT
BRANCH   1   2
ATOM      2  C   UNL     1      45.489 -49.176 163.100  1.00  0.00     0.041 C 
ATOM      3  O   UNL     1      46.654 -49.613 162.906  1.00  0.00    -0.550 OA
ATOM      4  O   UNL     1      44.856 -48.439 162.108  1.00  0.00    -0.550 OA
ENDBRANCH   1   2
BRANCH   1   5
ATOM      5  C   UNL     1      44.317 -48.202 165.095  1.00  0.00     0.003 C 
ATOM      6  C   UNL     1      42.834 -48.238 165.459  1.00  0.00     0.004 C 
ENDBRANCH   1   5
TORSDOF 2
ENDMDL
MODEL 2
REMARK VINA RESULT:    -3.092      2.392      3.392
REMARK INTER + INTRA:          -3.480
REMARK INTER:                  -3.443
REMARK INTRA:                  -0.037
REMARK UNBOUND:                -0.027
REMARK SMILES CCCC(=O)[O-]
REMARK SMILES IDX 3 1 4 2 5 3 6 4 2 5 1 6
REMARK H PARENT
REMARK Flexibility Score: inf
ROOT
ATOM      1  C   UNL     1      44.129 -49.262 164.509  1.00  0.00     0.052 C 
ENDROOT
BRANCH   1   2
ATOM      2  C   UNL     1      43.616 -48.034 165.196  1.00  0.00     0.041 C 
ATOM      3  O   UNL     1      44.312 -46.985 165.221  1.00  0.00    -0.550 OA
ATOM      4  O   UNL     1      42.355 -48.038 165.779  1.00  0.00    -0.550 OA
ENDBRANCH   1   2
BRANCH   1   5
ATOM      5  C   UNL     1      45.661 -49.278 164.439  1.00  0.00     0.003 C 
ATOM      6  C   UNL     1      46.178 -49.286 163.001  1.00  0.00     0.004 C 
ENDBRANCH   1   5
TORSDOF 2
ENDMDL
MODEL 3
REMARK VINA RESULT:    -3.087      2.858      3.721
REMARK INTER + INTRA:          -3.475
REMARK INTER:                  -3.449
REMARK INTRA:                  -0.026
REMARK UNBOUND:                -0.027
REMARK SMILES CCCC(=O)[O-]
REMARK SMILES IDX 3 1 4 2 5 3 6 4 2 5 1 6
REMARK H PARENT
REMARK Flexibility Score: inf
ROOT
ATOM      1  C   UNL     1      44.972 -46.436 163.154  1.00  0.00     0.052 C 
ENDROOT
BRANCH   1   2
ATOM      2  C   UNL     1      44.876 -46.607 164.639  1.00  0.00     0.041 C 
ATOM      3  O   UNL     1      44.124 -47.491 165.126  1.00  0.00    -0.550 OA
ATOM      4  O   UNL     1      45.644 -45.814 165.481  1.00  0.00    -0.550 OA
ENDBRANCH   1   2
BRANCH   1   5
ATOM      5  C   UNL     1      45.163 -47.778 162.436  1.00  0.00     0.003 C 
ATOM      6  C   UNL     1      44.266 -47.913 161.207  1.00  0.00     0.004 C 
ENDBRANCH   1   5
TORSDOF 2
ENDMDL
MODEL 4
REMARK VINA RESULT:    -3.084      1.970      2.382
REMARK INTER + INTRA:          -3.471
REMARK INTER:                  -3.433
REMARK INTRA:                  -0.038
REMARK UNBOUND:                -0.027
REMARK SMILES CCCC(=O)[O-]
REMARK SMILES IDX 3 1 4 2 5 3 6 4 2 5 1 6
REMARK H PARENT
REMARK Flexibility Score: inf
ROOT
ATOM      1  C   UNL     1      44.649 -46.531 162.883  1.00  0.00     0.052 C 
ENDROOT
BRANCH   1   2
ATOM      2  C   UNL     1      44.942 -47.756 162.073  1.00  0.00     0.041 C 
ATOM      3  O   UNL     1      45.776 -48.604 162.487  1.00  0.00    -0.550 OA
ATOM      4  O   UNL     1      44.269 -47.977 160.878  1.00  0.00    -0.550 OA
ENDBRANCH   1   2
BRANCH   1   5
ATOM      5  C   UNL     1      44.642 -46.831 164.388  1.00  0.00     0.003 C 
ATOM      6  C   UNL     1      45.723 -46.058 165.140  1.00  0.00     0.004 C 
ENDBRANCH   1   5
TORSDOF 2
ENDMDL
MODEL 5
REMARK VINA RESULT:    -3.074      2.029      2.291
REMARK INTER + INTRA:          -3.460
REMARK INTER:                  -3.399
REMARK INTRA:                  -0.061
REMARK UNBOUND:                -0.027
REMARK SMILES CCCC(=O)[O-]
REMARK SMILES IDX 3 1 4 2 5 3 6 4 2 5 1 6
REMARK H PARENT
REMARK Flexibility Score: inf
ROOT
ATOM      1  C   UNL     1      45.011 -47.974 162.056  1.00  0.00     0.052 C 
ENDROOT
BRANCH   1   2
ATOM      2  C   UNL     1      45.618 -49.043 162.912  1.00  0.00     0.041 C 
ATOM      3  O   UNL     1      46.831 -49.351 162.775  1.00  0.00    -0.550 OA
ATOM      4  O   UNL     1      44.853 -49.673 163.885  1.00  0.00    -0.550 OA
ENDBRANCH   1   2
BRANCH   1   5
ATOM      5  C   UNL     1      44.277 -46.920 162.895  1.00  0.00     0.003 C 
ATOM      6  C   UNL     1      45.211 -46.190 163.859  1.00  0.00     0.004 C 
ENDBRANCH   1   5
TORSDOF 2
ENDMDL
MODEL 6
REMARK VINA RESULT:    -3.062      3.236      3.799
REMARK INTER + INTRA:          -3.446
REMARK INTER:                  -3.408
REMARK INTRA:                  -0.038
REMARK UNBOUND:                -0.027
REMARK SMILES CCCC(=O)[O-]
REMARK SMILES IDX 3 1 4 2 5 3 6 4 2 5 1 6
REMARK H PARENT
REMARK Flexibility Score: inf
ROOT
ATOM      1  C   UNL     1      44.917 -46.623 164.450  1.00  0.00     0.052 C 
ENDROOT
BRANCH   1   2
ATOM      2  C   UNL     1      46.189 -46.163 165.095  1.00  0.00     0.041 C 
ATOM      3  O   UNL     1      47.300 -46.442 164.574  1.00  0.00    -0.550 OA
ATOM      4  O   UNL     1      46.144 -45.397 166.252  1.00  0.00    -0.550 OA
ENDBRANCH   1   2
BRANCH   1   5
ATOM      5  C   UNL     1      44.964 -46.468 162.925  1.00  0.00     0.003 C 
ATOM      6  C   UNL     1      44.981 -47.815 162.203  1.00  0.00     0.004 C 
ENDBRANCH   1   5
TORSDOF 2
ENDMDL
MODEL 7
REMARK VINA RESULT:    -3.042      1.537      2.114
REMARK INTER + INTRA:          -3.424
REMARK INTER:                  -3.366
REMARK INTRA:                  -0.058
REMARK UNBOUND:                -0.027
REMARK SMILES CCCC(=O)[O-]
REMARK SMILES IDX 3 1 4 2 5 3 6 4 2 5 1 6
REMARK H PARENT
REMARK Flexibility Score: inf
ROOT
ATOM      1  C   UNL     1      45.820 -48.602 163.215  1.00  0.00     0.052 C 
ENDROOT
BRANCH   1   2
ATOM      2  C   UNL     1      44.948 -47.654 162.450  1.00  0.00     0.041 C 
ATOM      3  O   UNL     1      44.203 -48.082 161.530  1.00  0.00    -0.550 OA
ATOM      4  O   UNL     1      44.932 -46.305 162.778  1.00  0.00    -0.550 OA
ENDBRANCH   1   2
BRANCH   1   5
ATOM      5  C   UNL     1      45.000 -49.517 164.133  1.00  0.00     0.003 C 
ATOM      6  C   UNL     1      44.193 -48.732 165.166  1.00  0.00     0.004 C 
ENDBRANCH   1   5
TORSDOF 2
ENDMDL
MODEL 8
REMARK VINA RESULT:    -3.008      2.971      3.363
REMARK INTER + INTRA:          -3.387
REMARK INTER:                  -3.345
REMARK INTRA:                  -0.042
REMARK UNBOUND:                -0.027
REMARK SMILES CCCC(=O)[O-]
REMARK SMILES IDX 3 1 4 2 5 3 6 4 2 5 1 6
REMARK H PARENT
REMARK Flexibility Score: inf
ROOT
ATOM      1  C   UNL     1      44.951 -46.572 164.353  1.00  0.00     0.052 C 
ENDROOT
BRANCH   1   2
ATOM      2  C   UNL     1      46.186 -46.159 165.094  1.00  0.00     0.041 C 
ATOM      3  O   UNL     1      47.319 -46.538 164.696  1.00  0.00    -0.550 OA
ATOM      4  O   UNL     1      46.087 -45.329 166.203  1.00  0.00    -0.550 OA
ENDBRANCH   1   2
BRANCH   1   5
ATOM      5  C   UNL     1      44.171 -47.658 165.105  1.00  0.00     0.003 C 
ATOM      6  C   UNL     1      44.620 -49.067 164.722  1.00  0.00     0.004 C 
ENDBRANCH   1   5
TORSDOF 2
ENDMDL
MODEL 9
REMARK VINA RESULT:    -2.998      5.282      5.976
REMARK INTER + INTRA:          -3.375
REMARK INTER:                  -3.366
REMARK INTRA:                  -0.010
REMARK UNBOUND:                -0.027
REMARK SMILES CCCC(=O)[O-]
REMARK SMILES IDX 3 1 4 2 5 3 6 4 2 5 1 6
REMARK H PARENT
REMARK Flexibility Score: inf
ROOT
ATOM      1  C   UNL     1      49.845 -46.525 164.793  1.00  0.00     0.052 C 
ENDROOT
BRANCH   1   2
ATOM      2  C   UNL     1      48.652 -47.430 164.827  1.00  0.00     0.041 C 
ATOM      3  O   UNL     1      48.805 -48.676 164.924  1.00  0.00    -0.550 OA
ATOM      4  O   UNL     1      47.371 -46.895 164.787  1.00  0.00    -0.550 OA
ENDBRANCH   1   2
BRANCH   1   5
ATOM      5  C   UNL     1      51.072 -47.175 165.445  1.00  0.00     0.003 C 
ATOM      6  C   UNL     1      52.156 -46.155 165.789  1.00  0.00     0.004 C 
ENDBRANCH   1   5
TORSDOF 2
ENDMDL
