MODEL 1
REMARK VINA RESULT:     1.636      0.000      0.000
REMARK INTER + INTRA:           2.393
REMARK INTER:                   2.497
REMARK INTRA:                  -0.104
REMARK UNBOUND:                -0.104
REMARK SMILES O=C([O-])CCCCCCCCC(=O)[O-]
REMARK SMILES IDX 7 1 6 2 5 3 4 4 2 5 1 6 3 7 8 8 9 9 10 10 11 11 12 12 13 13
REMARK SMILES IDX 14 14
REMARK H PARENT
REMARK Flexibility Score: inf
ROOT
ATOM      1  C   UNL     1      17.935  22.267  48.834  1.00  0.00     0.000 C 
ENDROOT
BRANCH   1   2
ATOM      2  C   UNL     1      16.814  22.441  49.871  1.00  0.00     0.000 C 
BRANCH   2   3
ATOM      3  C   UNL     1      16.189  21.103  50.294  1.00  0.00     0.006 C 
BRANCH   3   4
ATOM      4  C   UNL     1      16.496  20.797  51.764  1.00  0.00     0.053 C 
BRANCH   4   5
ATOM      5  C   UNL     1      15.308  20.174  52.428  1.00  0.00     0.041 C 
ATOM      6  O   UNL     1      15.349  19.879  53.650  1.00  0.00    -0.550 OA
ATOM      7  O   UNL     1      14.174  19.875  51.684  1.00  0.00    -0.550 OA
ENDBRANCH   4   5
ENDBRANCH   3   4
ENDBRANCH   2   3
ENDBRANCH   1   2
BRANCH   1   8
ATOM      8  C   UNL     1      17.919  20.876  48.174  1.00  0.00     0.000 C 
BRANCH   8   9
ATOM      9  C   UNL     1      19.094  19.995  48.626  1.00  0.00     0.000 C 
BRANCH   9  10
ATOM     10  C   UNL     1      19.205  19.898  50.156  1.00  0.00     0.006 C 
BRANCH  10  11
ATOM     11  C   UNL     1      20.656  20.080  50.611  1.00  0.00     0.053 C 
BRANCH  11  12
ATOM     12  C   UNL     1      20.736  20.112  52.105  1.00  0.00     0.041 C 
ATOM     13  O   UNL     1      19.709  19.895  52.800  1.00  0.00    -0.550 OA
ATOM     14  O   UNL     1      21.957  20.332  52.731  1.00  0.00    -0.550 OA
ENDBRANCH  11  12
ENDBRANCH  10  11
ENDBRANCH   9  10
ENDBRANCH   8   9
ENDBRANCH   1   8
TORSDOF 9
ENDMDL
MODEL 2
REMARK VINA RESULT:     2.411     16.644     18.551
REMARK INTER + INTRA:           3.575
REMARK INTER:                   2.948
REMARK INTRA:                   0.627
REMARK UNBOUND:                -0.104
REMARK SMILES O=C([O-])CCCCCCCCC(=O)[O-]
REMARK SMILES IDX 7 1 6 2 5 3 4 4 2 5 1 6 3 7 8 8 9 9 10 10 11 11 12 12 13 13
REMARK SMILES IDX 14 14
REMARK H PARENT
REMARK Flexibility Score: inf
ROOT
ATOM      1  C   UNL     1      15.313  39.988  47.465  1.00  0.00     0.000 C 
ENDROOT
BRANCH   1   2
ATOM      2  C   UNL     1      16.085  38.664  47.358  1.00  0.00     0.000 C 
BRANCH   2   3
ATOM      3  C   UNL     1      17.027  38.626  46.145  1.00  0.00     0.006 C 
BRANCH   3   4
ATOM      4  C   UNL     1      18.173  37.636  46.373  1.00  0.00     0.053 C 
BRANCH   4   5
ATOM      5  C   UNL     1      19.386  38.347  46.885  1.00  0.00     0.041 C 
ATOM      6  O   UNL     1      20.401  37.694  47.241  1.00  0.00    -0.550 OA
ATOM      7  O   UNL     1      19.376  39.730  47.015  1.00  0.00    -0.550 OA
ENDBRANCH   4   5
ENDBRANCH   3   4
ENDBRANCH   2   3
ENDBRANCH   1   2
BRANCH   1   8
ATOM      8  C   UNL     1      14.184  40.100  46.424  1.00  0.00     0.000 C 
BRANCH   8   9
ATOM      9  C   UNL     1      13.295  38.847  46.381  1.00  0.00     0.000 C 
BRANCH   9  10
ATOM     10  C   UNL     1      13.640  37.839  47.488  1.00  0.00     0.006 C 
BRANCH  10  11
ATOM     11  C   UNL     1      12.707  36.626  47.435  1.00  0.00     0.053 C 
BRANCH  11  12
ATOM     12  C   UNL     1      13.451  35.376  47.785  1.00  0.00     0.041 C 
ATOM     13  O   UNL     1      14.497  35.436  48.482  1.00  0.00    -0.550 OA
ATOM     14  O   UNL     1      12.961  34.140  47.383  1.00  0.00    -0.550 OA
ENDBRANCH  11  12
ENDBRANCH  10  11
ENDBRANCH   9  10
ENDBRANCH   8   9
ENDBRANCH   1   8
TORSDOF 9
ENDMDL
MODEL 3
REMARK VINA RESULT:     2.449     16.646     17.971
REMARK INTER + INTRA:           3.634
REMARK INTER:                   3.044
REMARK INTRA:                   0.590
REMARK UNBOUND:                -0.104
REMARK SMILES O=C([O-])CCCCCCCCC(=O)[O-]
REMARK SMILES IDX 7 1 6 2 5 3 4 4 2 5 1 6 3 7 8 8 9 9 10 10 11 11 12 12 13 13
REMARK SMILES IDX 14 14
REMARK H PARENT
REMARK Flexibility Score: inf
ROOT
ATOM      1  C   UNL     1      14.193  40.061  46.394  1.00  0.00     0.000 C 
ENDROOT
BRANCH   1   2
ATOM      2  C   UNL     1      13.261  38.839  46.398  1.00  0.00     0.000 C 
BRANCH   2   3
ATOM      3  C   UNL     1      13.639  37.813  47.477  1.00  0.00     0.006 C 
BRANCH   3   4
ATOM      4  C   UNL     1      12.628  36.662  47.515  1.00  0.00     0.053 C 
BRANCH   4   5
ATOM      5  C   UNL     1      13.315  35.373  47.839  1.00  0.00     0.041 C 
ATOM      6  O   UNL     1      14.399  35.375  48.478  1.00  0.00    -0.550 OA
ATOM      7  O   UNL     1      12.781  34.170  47.393  1.00  0.00    -0.550 OA
ENDBRANCH   4   5
ENDBRANCH   3   4
ENDBRANCH   2   3
ENDBRANCH   1   2
BRANCH   1   8
ATOM      8  C   UNL     1      15.261  39.994  47.501  1.00  0.00     0.000 C 
BRANCH   8   9
ATOM      9  C   UNL     1      16.101  38.709  47.433  1.00  0.00     0.000 C 
BRANCH   9  10
ATOM     10  C   UNL     1      16.960  38.631  46.162  1.00  0.00     0.006 C 
BRANCH  10  11
ATOM     11  C   UNL     1      18.110  37.635  46.339  1.00  0.00     0.053 C 
BRANCH  11  12
ATOM     12  C   UNL     1      19.333  38.332  46.846  1.00  0.00     0.041 C 
ATOM     13  O   UNL     1      20.353  37.669  47.169  1.00  0.00    -0.550 OA
ATOM     14  O   UNL     1      19.364  39.719  46.915  1.00  0.00    -0.550 OA
ENDBRANCH  11  12
ENDBRANCH  10  11
ENDBRANCH   9  10
ENDBRANCH   8   9
ENDBRANCH   1   8
TORSDOF 9
ENDMDL
MODEL 4
REMARK VINA RESULT:     2.954     16.756     18.039
REMARK INTER + INTRA:           4.404
REMARK INTER:                   4.557
REMARK INTRA:                  -0.152
REMARK UNBOUND:                -0.104
REMARK SMILES O=C([O-])CCCCCCCCC(=O)[O-]
REMARK SMILES IDX 7 1 6 2 5 3 4 4 2 5 1 6 3 7 8 8 9 9 10 10 11 11 12 12 13 13
REMARK SMILES IDX 14 14
REMARK H PARENT
REMARK Flexibility Score: inf
ROOT
ATOM      1  C   UNL     1      17.555  37.890  46.264  1.00  0.00     0.000 C 
ENDROOT
BRANCH   1   2
ATOM      2  C   UNL     1      16.312  38.791  46.197  1.00  0.00     0.000 C 
BRANCH   2   3
ATOM      3  C   UNL     1      15.803  39.200  47.588  1.00  0.00     0.006 C 
BRANCH   3   4
ATOM      4  C   UNL     1      14.527  40.041  47.478  1.00  0.00     0.053 C 
BRANCH   4   5
ATOM      5  C   UNL     1      13.541  39.380  46.567  1.00  0.00     0.041 C 
ATOM      6  O   UNL     1      13.012  40.030  45.628  1.00  0.00    -0.550 OA
ATOM      7  O   UNL     1      13.170  38.060  46.786  1.00  0.00    -0.550 OA
ENDBRANCH   4   5
ENDBRANCH   3   4
ENDBRANCH   2   3
ENDBRANCH   1   2
BRANCH   1   8
ATOM      8  C   UNL     1      18.791  38.628  46.810  1.00  0.00     0.000 C 
BRANCH   8   9
ATOM      9  C   UNL     1      19.985  37.688  47.039  1.00  0.00     0.000 C 
BRANCH   9  10
ATOM     10  C   UNL     1      19.791  36.314  46.379  1.00  0.00     0.006 C 
BRANCH  10  11
ATOM     11  C   UNL     1      20.200  36.354  44.903  1.00  0.00     0.053 C 
BRANCH  11  12
ATOM     12  C   UNL     1      20.795  35.046  44.489  1.00  0.00     0.041 C 
ATOM     13  O   UNL     1      20.754  34.056  45.266  1.00  0.00    -0.550 OA
ATOM     14  O   UNL     1      21.351  34.905  43.223  1.00  0.00    -0.550 OA
ENDBRANCH  11  12
ENDBRANCH  10  11
ENDBRANCH   9  10
ENDBRANCH   8   9
ENDBRANCH   1   8
TORSDOF 9
ENDMDL
MODEL 5
REMARK VINA RESULT:     3.145     16.677     18.680
REMARK INTER + INTRA:           4.695
REMARK INTER:                   4.923
REMARK INTRA:                  -0.228
REMARK UNBOUND:                -0.104
REMARK SMILES O=C([O-])CCCCCCCCC(=O)[O-]
REMARK SMILES IDX 7 1 6 2 5 3 4 4 2 5 1 6 3 7 8 8 9 9 10 10 11 11 12 12 13 13
REMARK SMILES IDX 14 14
REMARK H PARENT
REMARK Flexibility Score: inf
ROOT
ATOM      1  C   UNL     1      18.794  38.537  46.817  1.00  0.00     0.000 C 
ENDROOT
BRANCH   1   2
ATOM      2  C   UNL     1      19.981  37.574  46.973  1.00  0.00     0.000 C 
BRANCH   2   3
ATOM      3  C   UNL     1      19.778  36.258  46.207  1.00  0.00     0.006 C 
BRANCH   3   4
ATOM      4  C   UNL     1      20.458  36.314  44.835  1.00  0.00     0.053 C 
BRANCH   4   5
ATOM      5  C   UNL     1      20.852  34.941  44.390  1.00  0.00     0.041 C 
ATOM      6  O   UNL     1      20.871  33.989  45.213  1.00  0.00    -0.550 OA
ATOM      7  O   UNL     1      21.245  34.722  43.075  1.00  0.00    -0.550 OA
ENDBRANCH   4   5
ENDBRANCH   3   4
ENDBRANCH   2   3
ENDBRANCH   1   2
BRANCH   1   8
ATOM      8  C   UNL     1      17.574  37.870  46.157  1.00  0.00     0.000 C 
BRANCH   8   9
ATOM      9  C   UNL     1      16.324  38.765  46.185  1.00  0.00     0.000 C 
BRANCH   9  10
ATOM     10  C   UNL     1      15.936  39.191  47.609  1.00  0.00     0.006 C 
BRANCH  10  11
ATOM     11  C   UNL     1      14.594  39.930  47.612  1.00  0.00     0.053 C 
BRANCH  11  12
ATOM     12  C   UNL     1      13.622  39.254  46.697  1.00  0.00     0.041 C 
ATOM     13  O   UNL     1      13.194  39.851  45.674  1.00  0.00    -0.550 OA
ATOM     14  O   UNL     1      13.227  37.946  46.946  1.00  0.00    -0.550 OA
ENDBRANCH  11  12
ENDBRANCH  10  11
ENDBRANCH   9  10
ENDBRANCH   8   9
ENDBRANCH   1   8
TORSDOF 9
ENDMDL
MODEL 6
REMARK VINA RESULT:     4.009     16.454     17.808
REMARK INTER + INTRA:           6.013
REMARK INTER:                   5.751
REMARK INTRA:                   0.263
REMARK UNBOUND:                -0.104
REMARK SMILES O=C([O-])CCCCCCCCC(=O)[O-]
REMARK SMILES IDX 7 1 6 2 5 3 4 4 2 5 1 6 3 7 8 8 9 9 10 10 11 11 12 12 13 13
REMARK SMILES IDX 14 14
REMARK H PARENT
REMARK Flexibility Score: inf
ROOT
ATOM      1  C   UNL     1      13.798  38.488  46.240  1.00  0.00     0.000 C 
ENDROOT
BRANCH   1   2
ATOM      2  C   UNL     1      12.845  37.775  47.212  1.00  0.00     0.000 C 
BRANCH   2   3
ATOM      3  C   UNL     1      13.444  36.480  47.783  1.00  0.00     0.006 C 
BRANCH   3   4
ATOM      4  C   UNL     1      14.749  36.765  48.533  1.00  0.00     0.053 C 
BRANCH   4   5
ATOM      5  C   UNL     1      15.173  35.565  49.320  1.00  0.00     0.041 C 
ATOM      6  O   UNL     1      14.868  34.409  48.926  1.00  0.00    -0.550 OA
ATOM      7  O   UNL     1      15.865  35.726  50.514  1.00  0.00    -0.550 OA
ENDBRANCH   4   5
ENDBRANCH   3   4
ENDBRANCH   2   3
ENDBRANCH   1   2
BRANCH   1   8
ATOM      8  C   UNL     1      14.211  39.885  46.735  1.00  0.00     0.000 C 
BRANCH   8   9
ATOM      9  C   UNL     1      15.635  39.909  47.316  1.00  0.00     0.000 C 
BRANCH   9  10
ATOM     10  C   UNL     1      16.371  38.573  47.129  1.00  0.00     0.006 C 
BRANCH  10  11
ATOM     11  C   UNL     1      17.452  38.690  46.051  1.00  0.00     0.053 C 
BRANCH  11  12
ATOM     12  C   UNL     1      18.802  38.406  46.630  1.00  0.00     0.041 C 
ATOM     13  O   UNL     1      19.245  37.228  46.657  1.00  0.00    -0.550 OA
ATOM     14  O   UNL     1      19.592  39.450  47.093  1.00  0.00    -0.550 OA
ENDBRANCH  11  12
ENDBRANCH  10  11
ENDBRANCH   9  10
ENDBRANCH   8   9
ENDBRANCH   1   8
TORSDOF 9
ENDMDL
