MODEL 1
REMARK VINA RESULT:    -2.936      0.000      0.000
REMARK INTER + INTRA:          -4.480
REMARK INTER:                  -3.966
REMARK INTRA:                  -0.515
REMARK UNBOUND:                -0.515
REMARK SMILES CCCCCCCC(=O)[O-]
REMARK SMILES IDX 5 1 6 2 7 3 8 4 9 5 10 6 4 7 3 8 2 9 1 10
REMARK H PARENT
REMARK Flexibility Score: inf
ROOT
ATOM      1  C   UNL     1      53.655  81.692  30.849  1.00  0.00     0.000 C 
ENDROOT
BRANCH   1   2
ATOM      2  C   UNL     1      52.788  81.926  32.095  1.00  0.00     0.006 C 
BRANCH   2   3
ATOM      3  C   UNL     1      51.695  82.975  31.852  1.00  0.00     0.053 C 
BRANCH   3   4
ATOM      4  C   UNL     1      52.098  84.327  32.357  1.00  0.00     0.041 C 
ATOM      5  O   UNL     1      53.027  84.963  31.793  1.00  0.00    -0.550 OA
ATOM      6  O   UNL     1      51.423  84.900  33.427  1.00  0.00    -0.550 OA
ENDBRANCH   3   4
ENDBRANCH   2   3
ENDBRANCH   1   2
BRANCH   1   7
ATOM      7  C   UNL     1      55.147  81.720  31.205  1.00  0.00     0.000 C 
BRANCH   7   8
ATOM      8  C   UNL     1      55.365  82.248  32.628  1.00  0.00    -0.000 C 
BRANCH   8   9
ATOM      9  C   UNL     1      56.091  83.597  32.607  1.00  0.00    -0.003 C 
ATOM     10  C   UNL     1      56.634  83.911  31.215  1.00  0.00     0.004 C 
ENDBRANCH   8   9
ENDBRANCH   7   8
ENDBRANCH   1   7
TORSDOF 6
ENDMDL
MODEL 2
REMARK VINA RESULT:    -2.927      2.309      3.083
REMARK INTER + INTRA:          -4.469
REMARK INTER:                  -4.050
REMARK INTRA:                  -0.419
REMARK UNBOUND:                -0.515
REMARK SMILES CCCCCCCC(=O)[O-]
REMARK SMILES IDX 5 1 6 2 7 3 8 4 9 5 10 6 4 7 3 8 2 9 1 10
REMARK H PARENT
REMARK Flexibility Score: inf
ROOT
ATOM      1  C   UNL     1      55.832  83.024  32.663  1.00  0.00     0.000 C 
ENDROOT
BRANCH   1   2
ATOM      2  C   UNL     1      55.058  81.750  32.295  1.00  0.00     0.006 C 
BRANCH   2   3
ATOM      3  C   UNL     1      53.545  81.992  32.217  1.00  0.00     0.053 C 
BRANCH   3   4
ATOM      4  C   UNL     1      52.980  81.562  30.898  1.00  0.00     0.041 C 
ATOM      5  O   UNL     1      53.592  81.827  29.830  1.00  0.00    -0.550 OA
ATOM      6  O   UNL     1      51.795  80.838  30.850  1.00  0.00    -0.550 OA
ENDBRANCH   3   4
ENDBRANCH   2   3
ENDBRANCH   1   2
BRANCH   1   7
ATOM      7  C   UNL     1      55.161  84.267  32.064  1.00  0.00     0.000 C 
BRANCH   7   8
ATOM      8  C   UNL     1      55.776  84.624  30.706  1.00  0.00    -0.000 C 
BRANCH   8   9
ATOM      9  C   UNL     1      57.263  84.255  30.662  1.00  0.00    -0.003 C 
ATOM     10  C   UNL     1      57.781  84.224  29.227  1.00  0.00     0.004 C 
ENDBRANCH   8   9
ENDBRANCH   7   8
ENDBRANCH   1   7
TORSDOF 6
ENDMDL
MODEL 3
REMARK VINA RESULT:    -2.926      2.003      2.795
REMARK INTER + INTRA:          -4.467
REMARK INTER:                  -3.992
REMARK INTRA:                  -0.475
REMARK UNBOUND:                -0.515
REMARK SMILES CCCCCCCC(=O)[O-]
REMARK SMILES IDX 5 1 6 2 7 3 8 4 9 5 10 6 4 7 3 8 2 9 1 10
REMARK H PARENT
REMARK Flexibility Score: inf
ROOT
ATOM      1  C   UNL     1      53.952  85.043  31.704  1.00  0.00     0.000 C 
ENDROOT
BRANCH   1   2
ATOM      2  C   UNL     1      52.715  84.349  32.295  1.00  0.00     0.006 C 
BRANCH   2   3
ATOM      3  C   UNL     1      52.094  83.342  31.319  1.00  0.00     0.053 C 
BRANCH   3   4
ATOM      4  C   UNL     1      52.436  81.929  31.683  1.00  0.00     0.041 C 
ATOM      5  O   UNL     1      51.904  80.969  31.066  1.00  0.00    -0.550 OA
ATOM      6  O   UNL     1      53.370  81.673  32.679  1.00  0.00    -0.550 OA
ENDBRANCH   3   4
ENDBRANCH   2   3
ENDBRANCH   1   2
BRANCH   1   7
ATOM      7  C   UNL     1      55.096  85.089  32.724  1.00  0.00     0.000 C 
BRANCH   7   8
ATOM      8  C   UNL     1      56.062  83.916  32.523  1.00  0.00    -0.000 C 
BRANCH   8   9
ATOM      9  C   UNL     1      56.188  83.557  31.038  1.00  0.00    -0.003 C 
ATOM     10  C   UNL     1      57.361  84.290  30.392  1.00  0.00     0.004 C 
ENDBRANCH   8   9
ENDBRANCH   7   8
ENDBRANCH   1   7
TORSDOF 6
ENDMDL
MODEL 4
REMARK VINA RESULT:    -2.896      1.762      1.946
REMARK INTER + INTRA:          -4.427
REMARK INTER:                  -3.961
REMARK INTRA:                  -0.466
REMARK UNBOUND:                -0.515
REMARK SMILES CCCCCCCC(=O)[O-]
REMARK SMILES IDX 5 1 6 2 7 3 8 4 9 5 10 6 4 7 3 8 2 9 1 10
REMARK H PARENT
REMARK Flexibility Score: inf
ROOT
ATOM      1  C   UNL     1      53.602  81.737  30.693  1.00  0.00     0.000 C 
ENDROOT
BRANCH   1   2
ATOM      2  C   UNL     1      52.705  81.922  31.926  1.00  0.00     0.006 C 
BRANCH   2   3
ATOM      3  C   UNL     1      51.794  83.151  31.801  1.00  0.00     0.053 C 
BRANCH   3   4
ATOM      4  C   UNL     1      50.369  82.765  31.548  1.00  0.00     0.041 C 
ATOM      5  O   UNL     1      50.056  82.155  30.492  1.00  0.00    -0.550 OA
ATOM      6  O   UNL     1      49.392  83.048  32.495  1.00  0.00    -0.550 OA
ENDBRANCH   3   4
ENDBRANCH   2   3
ENDBRANCH   1   2
BRANCH   1   7
ATOM      7  C   UNL     1      55.083  81.703  31.091  1.00  0.00     0.000 C 
BRANCH   7   8
ATOM      8  C   UNL     1      55.296  82.330  32.474  1.00  0.00    -0.000 C 
BRANCH   8   9
ATOM      9  C   UNL     1      56.073  83.647  32.366  1.00  0.00    -0.003 C 
ATOM     10  C   UNL     1      55.142  84.849  32.501  1.00  0.00     0.004 C 
ENDBRANCH   8   9
ENDBRANCH   7   8
ENDBRANCH   1   7
TORSDOF 6
ENDMDL
MODEL 5
REMARK VINA RESULT:    -2.888      1.768      2.380
REMARK INTER + INTRA:          -4.415
REMARK INTER:                  -3.814
REMARK INTRA:                  -0.601
REMARK UNBOUND:                -0.515
REMARK SMILES CCCCCCCC(=O)[O-]
REMARK SMILES IDX 5 1 6 2 7 3 8 4 9 5 10 6 4 7 3 8 2 9 1 10
REMARK H PARENT
REMARK Flexibility Score: inf
ROOT
ATOM      1  C   UNL     1      55.509  81.853  30.096  1.00  0.00     0.000 C 
ENDROOT
BRANCH   1   2
ATOM      2  C   UNL     1      54.037  81.451  29.919  1.00  0.00     0.006 C 
BRANCH   2   3
ATOM      3  C   UNL     1      53.075  82.543  30.404  1.00  0.00     0.053 C 
BRANCH   3   4
ATOM      4  C   UNL     1      52.473  82.206  31.734  1.00  0.00     0.041 C 
ATOM      5  O   UNL     1      53.201  81.781  32.669  1.00  0.00    -0.550 OA
ATOM      6  O   UNL     1      51.114  82.394  31.951  1.00  0.00    -0.550 OA
ENDBRANCH   3   4
ENDBRANCH   2   3
ENDBRANCH   1   2
BRANCH   1   7
ATOM      7  C   UNL     1      55.684  83.371  29.959  1.00  0.00     0.000 C 
BRANCH   7   8
ATOM      8  C   UNL     1      56.676  83.907  30.998  1.00  0.00    -0.000 C 
BRANCH   8   9
ATOM      9  C   UNL     1      56.063  83.890  32.402  1.00  0.00    -0.003 C 
ATOM     10  C   UNL     1      55.044  85.014  32.573  1.00  0.00     0.004 C 
ENDBRANCH   8   9
ENDBRANCH   7   8
ENDBRANCH   1   7
TORSDOF 6
ENDMDL
MODEL 6
REMARK VINA RESULT:    -2.851      1.315      1.899
REMARK INTER + INTRA:          -4.366
REMARK INTER:                  -3.970
REMARK INTRA:                  -0.396
REMARK UNBOUND:                -0.515
REMARK SMILES CCCCCCCC(=O)[O-]
REMARK SMILES IDX 5 1 6 2 7 3 8 4 9 5 10 6 4 7 3 8 2 9 1 10
REMARK H PARENT
REMARK Flexibility Score: inf
ROOT
ATOM      1  C   UNL     1      55.060  81.914  31.976  1.00  0.00     0.000 C 
ENDROOT
BRANCH   1   2
ATOM      2  C   UNL     1      53.715  81.695  32.685  1.00  0.00     0.006 C 
BRANCH   2   3
ATOM      3  C   UNL     1      52.532  81.735  31.710  1.00  0.00     0.053 C 
BRANCH   3   4
ATOM      4  C   UNL     1      51.653  82.923  31.948  1.00  0.00     0.041 C 
ATOM      5  O   UNL     1      52.075  83.898  32.624  1.00  0.00    -0.550 OA
ATOM      6  O   UNL     1      50.379  82.971  31.394  1.00  0.00    -0.550 OA
ENDBRANCH   3   4
ENDBRANCH   2   3
ENDBRANCH   1   2
BRANCH   1   7
ATOM      7  C   UNL     1      55.881  83.002  32.680  1.00  0.00     0.000 C 
BRANCH   7   8
ATOM      8  C   UNL     1      55.526  84.394  32.144  1.00  0.00    -0.000 C 
BRANCH   8   9
ATOM      9  C   UNL     1      55.908  84.527  30.666  1.00  0.00    -0.003 C 
ATOM     10  C   UNL     1      57.406  84.318  30.462  1.00  0.00     0.004 C 
ENDBRANCH   8   9
ENDBRANCH   7   8
ENDBRANCH   1   7
TORSDOF 6
ENDMDL
MODEL 7
REMARK VINA RESULT:    -2.728      1.913      3.918
REMARK INTER + INTRA:          -4.200
REMARK INTER:                  -3.560
REMARK INTRA:                  -0.640
REMARK UNBOUND:                -0.515
REMARK SMILES CCCCCCCC(=O)[O-]
REMARK SMILES IDX 5 1 6 2 7 3 8 4 9 5 10 6 4 7 3 8 2 9 1 10
REMARK H PARENT
REMARK Flexibility Score: inf
ROOT
ATOM      1  C   UNL     1      55.082  81.780  32.101  1.00  0.00     0.000 C 
ENDROOT
BRANCH   1   2
ATOM      2  C   UNL     1      55.885  82.819  32.897  1.00  0.00     0.006 C 
BRANCH   2   3
ATOM      3  C   UNL     1      55.629  84.250  32.406  1.00  0.00     0.053 C 
BRANCH   3   4
ATOM      4  C   UNL     1      55.956  84.408  30.953  1.00  0.00     0.041 C 
ATOM      5  O   UNL     1      55.052  84.707  30.129  1.00  0.00    -0.550 OA
ATOM      6  O   UNL     1      57.266  84.260  30.513  1.00  0.00    -0.550 OA
ENDBRANCH   3   4
ENDBRANCH   2   3
ENDBRANCH   1   2
BRANCH   1   7
ATOM      7  C   UNL     1      53.601  81.809  32.497  1.00  0.00     0.000 C 
BRANCH   7   8
ATOM      8  C   UNL     1      52.700  81.852  31.257  1.00  0.00    -0.000 C 
BRANCH   8   9
ATOM      9  C   UNL     1      52.060  83.235  31.092  1.00  0.00    -0.003 C 
ATOM     10  C   UNL     1      52.018  83.986  32.420  1.00  0.00     0.004 C 
ENDBRANCH   8   9
ENDBRANCH   7   8
ENDBRANCH   1   7
TORSDOF 6
ENDMDL
MODEL 8
REMARK VINA RESULT:    -2.685      1.846      2.714
REMARK INTER + INTRA:          -4.142
REMARK INTER:                  -3.763
REMARK INTRA:                  -0.379
REMARK UNBOUND:                -0.515
REMARK SMILES CCCCCCCC(=O)[O-]
REMARK SMILES IDX 5 1 6 2 7 3 8 4 9 5 10 6 4 7 3 8 2 9 1 10
REMARK H PARENT
REMARK Flexibility Score: inf
ROOT
ATOM      1  C   UNL     1      53.885  85.038  31.577  1.00  0.00     0.000 C 
ENDROOT
BRANCH   1   2
ATOM      2  C   UNL     1      52.537  84.787  32.270  1.00  0.00     0.006 C 
BRANCH   2   3
ATOM      3  C   UNL     1      51.484  84.227  31.305  1.00  0.00     0.053 C 
BRANCH   3   4
ATOM      4  C   UNL     1      50.865  82.967  31.825  1.00  0.00     0.041 C 
ATOM      5  O   UNL     1      51.528  81.896  31.843  1.00  0.00    -0.550 OA
ATOM      6  O   UNL     1      49.569  82.982  32.325  1.00  0.00    -0.550 OA
ENDBRANCH   3   4
ENDBRANCH   2   3
ENDBRANCH   1   2
BRANCH   1   7
ATOM      7  C   UNL     1      55.031  85.063  32.597  1.00  0.00     0.000 C 
BRANCH   7   8
ATOM      8  C   UNL     1      56.074  83.986  32.280  1.00  0.00    -0.000 C 
BRANCH   8   9
ATOM      9  C   UNL     1      55.439  82.811  31.529  1.00  0.00    -0.003 C 
ATOM     10  C   UNL     1      55.037  81.695  32.490  1.00  0.00     0.004 C 
ENDBRANCH   8   9
ENDBRANCH   7   8
ENDBRANCH   1   7
TORSDOF 6
ENDMDL
MODEL 9
REMARK VINA RESULT:    -2.642     23.941     24.830
REMARK INTER + INTRA:          -4.084
REMARK INTER:                  -3.670
REMARK INTRA:                  -0.414
REMARK UNBOUND:                -0.515
REMARK SMILES CCCCCCCC(=O)[O-]
REMARK SMILES IDX 5 1 6 2 7 3 8 4 9 5 10 6 4 7 3 8 2 9 1 10
REMARK H PARENT
REMARK Flexibility Score: inf
ROOT
ATOM      1  C   UNL     1      67.212  68.812  48.131  1.00  0.00     0.000 C 
ENDROOT
BRANCH   1   2
ATOM      2  C   UNL     1      66.055  68.631  49.125  1.00  0.00     0.006 C 
BRANCH   2   3
ATOM      3  C   UNL     1      65.016  67.618  48.628  1.00  0.00     0.053 C 
BRANCH   3   4
ATOM      4  C   UNL     1      63.933  68.276  47.830  1.00  0.00     0.041 C 
ATOM      5  O   UNL     1      62.871  68.653  48.393  1.00  0.00    -0.550 OA
ATOM      6  O   UNL     1      64.110  68.508  46.472  1.00  0.00    -0.550 OA
ENDBRANCH   3   4
ENDBRANCH   2   3
ENDBRANCH   1   2
BRANCH   1   7
ATOM      7  C   UNL     1      67.598  67.473  47.488  1.00  0.00     0.000 C 
BRANCH   7   8
ATOM      8  C   UNL     1      67.555  67.564  45.959  1.00  0.00    -0.000 C 
BRANCH   8   9
ATOM      9  C   UNL     1      66.641  66.484  45.370  1.00  0.00    -0.003 C 
ATOM     10  C   UNL     1      66.835  66.360  43.861  1.00  0.00     0.004 C 
ENDBRANCH   8   9
ENDBRANCH   7   8
ENDBRANCH   1   7
TORSDOF 6
ENDMDL
