MODEL 1
REMARK VINA RESULT:    -3.290      0.000      0.000
REMARK INTER + INTRA:          -5.344
REMARK INTER:                  -4.829
REMARK INTRA:                  -0.516
REMARK UNBOUND:                -0.516
REMARK SMILES O=C([O-])CCCCCCCC(=O)[O-]
REMARK SMILES IDX 7 1 6 2 5 3 4 4 2 5 1 6 3 7 8 8 9 9 10 10 11 11 12 12 13 13
REMARK H PARENT
REMARK Flexibility Score: inf
ROOT
ATOM      1  C   UNL     1     -15.770 -16.623   6.162  1.00  0.00     0.000 C 
ENDROOT
BRANCH   1   2
ATOM      2  C   UNL     1     -15.100 -17.936   6.606  1.00  0.00     0.000 C 
BRANCH   2   3
ATOM      3  C   UNL     1     -14.480 -18.717   5.437  1.00  0.00     0.006 C 
BRANCH   3   4
ATOM      4  C   UNL     1     -13.052 -19.160   5.771  1.00  0.00     0.053 C 
BRANCH   4   5
ATOM      5  C   UNL     1     -12.079 -18.556   4.808  1.00  0.00     0.041 C 
ATOM      6  O   UNL     1     -10.868 -18.424   5.130  1.00  0.00    -0.550 OA
ATOM      7  O   UNL     1     -12.517 -18.095   3.573  1.00  0.00    -0.550 OA
ENDBRANCH   4   5
ENDBRANCH   3   4
ENDBRANCH   2   3
ENDBRANCH   1   2
BRANCH   1   8
ATOM      8  C   UNL     1     -15.324 -16.096   4.786  1.00  0.00     0.000 C 
BRANCH   8   9
ATOM      9  C   UNL     1     -14.215 -15.034   4.881  1.00  0.00     0.006 C 
BRANCH   9  10
ATOM     10  C   UNL     1     -14.736 -13.701   5.434  1.00  0.00     0.053 C 
BRANCH  10  11
ATOM     11  C   UNL     1     -13.684 -12.634   5.401  1.00  0.00     0.041 C 
ATOM     12  O   UNL     1     -13.800 -11.656   4.616  1.00  0.00    -0.550 OA
ATOM     13  O   UNL     1     -12.564 -12.734   6.216  1.00  0.00    -0.550 OA
ENDBRANCH  10  11
ENDBRANCH   9  10
ENDBRANCH   8   9
ENDBRANCH   1   8
TORSDOF 8
ENDMDL
MODEL 2
REMARK VINA RESULT:    -3.287      0.497      5.243
REMARK INTER + INTRA:          -5.340
REMARK INTER:                  -4.955
REMARK INTRA:                  -0.385
REMARK UNBOUND:                -0.516
REMARK SMILES O=C([O-])CCCCCCCC(=O)[O-]
REMARK SMILES IDX 7 1 6 2 5 3 4 4 2 5 1 6 3 7 8 8 9 9 10 10 11 11 12 12 13 13
REMARK H PARENT
REMARK Flexibility Score: inf
ROOT
ATOM      1  C   UNL     1     -15.768 -16.628   6.205  1.00  0.00     0.000 C 
ENDROOT
BRANCH   1   2
ATOM      2  C   UNL     1     -14.962 -15.813   5.177  1.00  0.00     0.000 C 
BRANCH   2   3
ATOM      3  C   UNL     1     -14.951 -14.308   5.481  1.00  0.00     0.006 C 
BRANCH   3   4
ATOM      4  C   UNL     1     -14.163 -13.540   4.415  1.00  0.00     0.053 C 
BRANCH   4   5
ATOM      5  C   UNL     1     -13.318 -12.482   5.050  1.00  0.00     0.041 C 
ATOM      6  O   UNL     1     -12.769 -12.694   6.163  1.00  0.00    -0.550 OA
ATOM      7  O   UNL     1     -13.176 -11.243   4.438  1.00  0.00    -0.550 OA
ENDBRANCH   4   5
ENDBRANCH   3   4
ENDBRANCH   2   3
ENDBRANCH   1   2
BRANCH   1   8
ATOM      8  C   UNL     1     -15.105 -17.939   6.663  1.00  0.00     0.000 C 
BRANCH   8   9
ATOM      9  C   UNL     1     -14.544 -18.767   5.495  1.00  0.00     0.006 C 
BRANCH   9  10
ATOM     10  C   UNL     1     -13.110 -19.245   5.761  1.00  0.00     0.053 C 
BRANCH  10  11
ATOM     11  C   UNL     1     -12.115 -18.536   4.891  1.00  0.00     0.041 C 
ATOM     12  O   UNL     1     -12.476 -18.040   3.792  1.00  0.00    -0.550 OA
ATOM     13  O   UNL     1     -10.785 -18.450   5.282  1.00  0.00    -0.550 OA
ENDBRANCH  10  11
ENDBRANCH   9  10
ENDBRANCH   8   9
ENDBRANCH   1   8
TORSDOF 8
ENDMDL
MODEL 3
REMARK VINA RESULT:    -3.258      1.829      2.398
REMARK INTER + INTRA:          -5.298
REMARK INTER:                  -4.914
REMARK INTRA:                  -0.384
REMARK UNBOUND:                -0.516
REMARK SMILES O=C([O-])CCCCCCCC(=O)[O-]
REMARK SMILES IDX 7 1 6 2 5 3 4 4 2 5 1 6 3 7 8 8 9 9 10 10 11 11 12 12 13 13
REMARK H PARENT
REMARK Flexibility Score: inf
ROOT
ATOM      1  C   UNL     1     -14.086 -15.058   3.192  1.00  0.00     0.000 C 
ENDROOT
BRANCH   1   2
ATOM      2  C   UNL     1     -13.486 -16.349   2.605  1.00  0.00     0.000 C 
BRANCH   2   3
ATOM      3  C   UNL     1     -13.677 -17.568   3.520  1.00  0.00     0.006 C 
BRANCH   3   4
ATOM      4  C   UNL     1     -12.423 -18.448   3.529  1.00  0.00     0.053 C 
BRANCH   4   5
ATOM      5  C   UNL     1     -11.950 -18.670   4.931  1.00  0.00     0.041 C 
ATOM      6  O   UNL     1     -12.756 -19.056   5.818  1.00  0.00    -0.550 OA
ATOM      7  O   UNL     1     -10.630 -18.404   5.270  1.00  0.00    -0.550 OA
ENDBRANCH   4   5
ENDBRANCH   3   4
ENDBRANCH   2   3
ENDBRANCH   1   2
BRANCH   1   8
ATOM      8  C   UNL     1     -14.232 -15.044   4.724  1.00  0.00     0.000 C 
BRANCH   8   9
ATOM      9  C   UNL     1     -14.696 -13.682   5.270  1.00  0.00     0.006 C 
BRANCH   9  10
ATOM     10  C   UNL     1     -13.516 -12.788   5.675  1.00  0.00     0.053 C 
BRANCH  10  11
ATOM     11  C   UNL     1     -13.269 -11.702   4.672  1.00  0.00     0.041 C 
ATOM     12  O   UNL     1     -13.902 -10.617   4.746  1.00  0.00    -0.550 OA
ATOM     13  O   UNL     1     -12.360 -11.900   3.641  1.00  0.00    -0.550 OA
ENDBRANCH  10  11
ENDBRANCH   9  10
ENDBRANCH   8   9
ENDBRANCH   1   8
TORSDOF 8
ENDMDL
MODEL 4
REMARK VINA RESULT:    -3.201      1.824      5.720
REMARK INTER + INTRA:          -5.213
REMARK INTER:                  -4.768
REMARK INTRA:                  -0.446
REMARK UNBOUND:                -0.516
REMARK SMILES O=C([O-])CCCCCCCC(=O)[O-]
REMARK SMILES IDX 7 1 6 2 5 3 4 4 2 5 1 6 3 7 8 8 9 9 10 10 11 11 12 12 13 13
REMARK H PARENT
REMARK Flexibility Score: inf
ROOT
ATOM      1  C   UNL     1     -15.064 -14.659   5.311  1.00  0.00     0.000 C 
ENDROOT
BRANCH   1   2
ATOM      2  C   UNL     1     -14.781 -13.147   5.392  1.00  0.00     0.000 C 
BRANCH   2   3
ATOM      3  C   UNL     1     -13.283 -12.823   5.487  1.00  0.00     0.006 C 
BRANCH   3   4
ATOM      4  C   UNL     1     -12.928 -11.611   4.620  1.00  0.00     0.053 C 
BRANCH   4   5
ATOM      5  C   UNL     1     -13.195 -11.905   3.177  1.00  0.00     0.041 C 
ATOM      6  O   UNL     1     -12.494 -12.751   2.563  1.00  0.00    -0.550 OA
ATOM      7  O   UNL     1     -14.187 -11.209   2.497  1.00  0.00    -0.550 OA
ENDBRANCH   4   5
ENDBRANCH   3   4
ENDBRANCH   2   3
ENDBRANCH   1   2
BRANCH   1   8
ATOM      8  C   UNL     1     -14.184 -15.435   4.315  1.00  0.00     0.000 C 
BRANCH   8   9
ATOM      9  C   UNL     1     -14.142 -16.946   4.603  1.00  0.00     0.006 C 
BRANCH   9  10
ATOM     10  C   UNL     1     -12.903 -17.616   3.995  1.00  0.00     0.053 C 
BRANCH  10  11
ATOM     11  C   UNL     1     -12.206 -18.502   4.983  1.00  0.00     0.041 C 
ATOM     12  O   UNL     1     -12.873 -19.276   5.719  1.00  0.00    -0.550 OA
ATOM     13  O   UNL     1     -10.824 -18.453   5.110  1.00  0.00    -0.550 OA
ENDBRANCH  10  11
ENDBRANCH   9  10
ENDBRANCH   8   9
ENDBRANCH   1   8
TORSDOF 8
ENDMDL
MODEL 5
REMARK VINA RESULT:    -3.164      1.168      1.653
REMARK INTER + INTRA:          -5.160
REMARK INTER:                  -4.824
REMARK INTRA:                  -0.336
REMARK UNBOUND:                -0.516
REMARK SMILES O=C([O-])CCCCCCCC(=O)[O-]
REMARK SMILES IDX 7 1 6 2 5 3 4 4 2 5 1 6 3 7 8 8 9 9 10 10 11 11 12 12 13 13
REMARK H PARENT
REMARK Flexibility Score: inf
ROOT
ATOM      1  C   UNL     1     -15.751 -16.001   5.562  1.00  0.00     0.000 C 
ENDROOT
BRANCH   1   2
ATOM      2  C   UNL     1     -14.601 -16.866   5.013  1.00  0.00     0.000 C 
BRANCH   2   3
ATOM      3  C   UNL     1     -14.758 -18.356   5.354  1.00  0.00     0.006 C 
BRANCH   3   4
ATOM      4  C   UNL     1     -13.488 -18.904   6.011  1.00  0.00     0.053 C 
BRANCH   4   5
ATOM      5  C   UNL     1     -12.418 -19.116   4.987  1.00  0.00     0.041 C 
ATOM      6  O   UNL     1     -12.608 -19.913   4.029  1.00  0.00    -0.550 OA
ATOM      7  O   UNL     1     -11.194 -18.473   5.114  1.00  0.00    -0.550 OA
ENDBRANCH   4   5
ENDBRANCH   3   4
ENDBRANCH   2   3
ENDBRANCH   1   2
BRANCH   1   8
ATOM      8  C   UNL     1     -15.511 -14.482   5.498  1.00  0.00     0.000 C 
BRANCH   8   9
ATOM      9  C   UNL     1     -14.129 -14.116   4.931  1.00  0.00     0.006 C 
BRANCH   9  10
ATOM     10  C   UNL     1     -13.525 -12.888   5.626  1.00  0.00     0.053 C 
BRANCH  10  11
ATOM     11  C   UNL     1     -13.249 -11.778   4.657  1.00  0.00     0.041 C 
ATOM     12  O   UNL     1     -12.375 -11.921   3.763  1.00  0.00    -0.550 OA
ATOM     13  O   UNL     1     -13.938 -10.576   4.762  1.00  0.00    -0.550 OA
ENDBRANCH  10  11
ENDBRANCH   9  10
ENDBRANCH   8   9
ENDBRANCH   1   8
TORSDOF 8
ENDMDL
MODEL 6
REMARK VINA RESULT:    -3.150      1.828      5.758
REMARK INTER + INTRA:          -5.139
REMARK INTER:                  -4.769
REMARK INTRA:                  -0.370
REMARK UNBOUND:                -0.516
REMARK SMILES O=C([O-])CCCCCCCC(=O)[O-]
REMARK SMILES IDX 7 1 6 2 5 3 4 4 2 5 1 6 3 7 8 8 9 9 10 10 11 11 12 12 13 13
REMARK H PARENT
REMARK Flexibility Score: inf
ROOT
ATOM      1  C   UNL     1     -13.489 -16.732   2.949  1.00  0.00     0.000 C 
ENDROOT
BRANCH   1   2
ATOM      2  C   UNL     1     -14.097 -15.963   4.137  1.00  0.00     0.000 C 
BRANCH   2   3
ATOM      3  C   UNL     1     -14.176 -14.448   3.892  1.00  0.00     0.006 C 
BRANCH   3   4
ATOM      4  C   UNL     1     -14.344 -13.689   5.212  1.00  0.00     0.053 C 
BRANCH   4   5
ATOM      5  C   UNL     1     -13.290 -12.636   5.348  1.00  0.00     0.041 C 
ATOM      6  O   UNL     1     -13.146 -11.764   4.450  1.00  0.00    -0.550 OA
ATOM      7  O   UNL     1     -12.433 -12.645   6.441  1.00  0.00    -0.550 OA
ENDBRANCH   4   5
ENDBRANCH   3   4
ENDBRANCH   2   3
ENDBRANCH   1   2
BRANCH   1   8
ATOM      8  C   UNL     1     -13.509 -18.264   3.086  1.00  0.00     0.000 C 
BRANCH   8   9
ATOM      9  C   UNL     1     -12.188 -18.835   3.632  1.00  0.00     0.006 C 
BRANCH   9  10
ATOM     10  C   UNL     1     -12.113 -18.758   5.162  1.00  0.00     0.053 C 
BRANCH  10  11
ATOM     11  C   UNL     1     -13.322 -19.361   5.812  1.00  0.00     0.041 C 
ATOM     12  O   UNL     1     -14.034 -18.670   6.586  1.00  0.00    -0.550 OA
ATOM     13  O   UNL     1     -13.644 -20.692   5.583  1.00  0.00    -0.550 OA
ENDBRANCH  10  11
ENDBRANCH   9  10
ENDBRANCH   8   9
ENDBRANCH   1   8
TORSDOF 8
ENDMDL
MODEL 7
REMARK VINA RESULT:    -3.050      2.260      2.896
REMARK INTER + INTRA:          -4.993
REMARK INTER:                  -4.072
REMARK INTRA:                  -0.921
REMARK UNBOUND:                -0.516
REMARK SMILES O=C([O-])CCCCCCCC(=O)[O-]
REMARK SMILES IDX 7 1 6 2 5 3 4 4 2 5 1 6 3 7 8 8 9 9 10 10 11 11 12 12 13 13
REMARK H PARENT
REMARK Flexibility Score: inf
ROOT
ATOM      1  C   UNL     1     -15.315 -17.991   6.788  1.00  0.00     0.000 C 
ENDROOT
BRANCH   1   2
ATOM      2  C   UNL     1     -15.547 -19.045   5.691  1.00  0.00     0.000 C 
BRANCH   2   3
ATOM      3  C   UNL     1     -14.242 -19.671   5.176  1.00  0.00     0.006 C 
BRANCH   3   4
ATOM      4  C   UNL     1     -13.023 -18.993   5.809  1.00  0.00     0.053 C 
BRANCH   4   5
ATOM      5  C   UNL     1     -11.930 -18.836   4.800  1.00  0.00     0.041 C 
ATOM      6  O   UNL     1     -12.134 -19.133   3.593  1.00  0.00    -0.550 OA
ATOM      7  O   UNL     1     -10.670 -18.407   5.199  1.00  0.00    -0.550 OA
ENDBRANCH   4   5
ENDBRANCH   3   4
ENDBRANCH   2   3
ENDBRANCH   1   2
BRANCH   1   8
ATOM      8  C   UNL     1     -15.893 -16.597   6.486  1.00  0.00     0.000 C 
BRANCH   8   9
ATOM      9  C   UNL     1     -15.897 -16.262   4.985  1.00  0.00     0.006 C 
BRANCH   9  10
ATOM     10  C   UNL     1     -14.527 -15.770   4.498  1.00  0.00     0.053 C 
BRANCH  10  11
ATOM     11  C   UNL     1     -14.189 -16.314   3.142  1.00  0.00     0.041 C 
ATOM     12  O   UNL     1     -14.818 -17.302   2.681  1.00  0.00    -0.550 OA
ATOM     13  O   UNL     1     -13.160 -15.746   2.401  1.00  0.00    -0.550 OA
ENDBRANCH  10  11
ENDBRANCH   9  10
ENDBRANCH   8   9
ENDBRANCH   1   8
TORSDOF 8
ENDMDL
MODEL 8
REMARK VINA RESULT:    -2.918      2.008      2.510
REMARK INTER + INTRA:          -4.799
REMARK INTER:                  -4.435
REMARK INTRA:                  -0.364
REMARK UNBOUND:                -0.516
REMARK SMILES O=C([O-])CCCCCCCC(=O)[O-]
REMARK SMILES IDX 7 1 6 2 5 3 4 4 2 5 1 6 3 7 8 8 9 9 10 10 11 11 12 12 13 13
REMARK H PARENT
REMARK Flexibility Score: inf
ROOT
ATOM      1  C   UNL     1     -13.598 -16.560   3.900  1.00  0.00     0.000 C 
ENDROOT
BRANCH   1   2
ATOM      2  C   UNL     1     -12.994 -17.921   3.509  1.00  0.00     0.000 C 
BRANCH   2   3
ATOM      3  C   UNL     1     -12.129 -18.534   4.621  1.00  0.00     0.006 C 
BRANCH   3   4
ATOM      4  C   UNL     1     -13.004 -19.136   5.726  1.00  0.00     0.053 C 
BRANCH   4   5
ATOM      5  C   UNL     1     -13.844 -20.247   5.180  1.00  0.00     0.041 C 
ATOM      6  O   UNL     1     -15.100 -20.184   5.248  1.00  0.00    -0.550 OA
ATOM      7  O   UNL     1     -13.241 -21.376   4.640  1.00  0.00    -0.550 OA
ENDBRANCH   4   5
ENDBRANCH   3   4
ENDBRANCH   2   3
ENDBRANCH   1   2
BRANCH   1   8
ATOM      8  C   UNL     1     -13.680 -15.531   2.758  1.00  0.00     0.000 C 
BRANCH   8   9
ATOM      9  C   UNL     1     -14.028 -14.116   3.250  1.00  0.00     0.006 C 
BRANCH   9  10
ATOM     10  C   UNL     1     -14.265 -14.071   4.765  1.00  0.00     0.053 C 
BRANCH  10  11
ATOM     11  C   UNL     1     -13.813 -12.773   5.363  1.00  0.00     0.041 C 
ATOM     12  O   UNL     1     -14.450 -11.713   5.128  1.00  0.00    -0.550 OA
ATOM     13  O   UNL     1     -12.674 -12.731   6.156  1.00  0.00    -0.550 OA
ENDBRANCH  10  11
ENDBRANCH   9  10
ENDBRANCH   8   9
ENDBRANCH   1   8
TORSDOF 8
ENDMDL
MODEL 9
REMARK VINA RESULT:    -2.897      2.319      5.944
REMARK INTER + INTRA:          -4.768
REMARK INTER:                  -4.121
REMARK INTRA:                  -0.648
REMARK UNBOUND:                -0.516
REMARK SMILES O=C([O-])CCCCCCCC(=O)[O-]
REMARK SMILES IDX 7 1 6 2 5 3 4 4 2 5 1 6 3 7 8 8 9 9 10 10 11 11 12 12 13 13
REMARK H PARENT
REMARK Flexibility Score: inf
ROOT
ATOM      1  C   UNL     1     -13.524 -19.385   5.877  1.00  0.00     0.000 C 
ENDROOT
BRANCH   1   2
ATOM      2  C   UNL     1     -14.527 -18.375   6.464  1.00  0.00     0.000 C 
BRANCH   2   3
ATOM      3  C   UNL     1     -15.295 -17.598   5.384  1.00  0.00     0.006 C 
BRANCH   3   4
ATOM      4  C   UNL     1     -15.360 -16.106   5.725  1.00  0.00     0.053 C 
BRANCH   4   5
ATOM      5  C   UNL     1     -14.452 -15.324   4.830  1.00  0.00     0.041 C 
ATOM      6  O   UNL     1     -14.262 -14.097   5.035  1.00  0.00    -0.550 OA
ATOM      7  O   UNL     1     -13.852 -15.940   3.739  1.00  0.00    -0.550 OA
ENDBRANCH   4   5
ENDBRANCH   3   4
ENDBRANCH   2   3
ENDBRANCH   1   2
BRANCH   1   8
ATOM      8  C   UNL     1     -12.277 -18.763   5.226  1.00  0.00     0.000 C 
BRANCH   8   9
ATOM      9  C   UNL     1     -12.157 -19.088   3.727  1.00  0.00     0.006 C 
BRANCH   9  10
ATOM     10  C   UNL     1     -13.295 -19.995   3.239  1.00  0.00     0.053 C 
BRANCH  10  11
ATOM     11  C   UNL     1     -12.781 -21.305   2.722  1.00  0.00     0.041 C 
ATOM     12  O   UNL     1     -12.178 -21.356   1.618  1.00  0.00    -0.550 OA
ATOM     13  O   UNL     1     -12.995 -22.471   3.445  1.00  0.00    -0.550 OA
ENDBRANCH  10  11
ENDBRANCH   9  10
ENDBRANCH   8   9
ENDBRANCH   1   8
TORSDOF 8
ENDMDL
