MODEL 1
REMARK VINA RESULT:    -1.498      0.000      0.000
REMARK INTER + INTRA:          -1.705
REMARK INTER:                  -1.674
REMARK INTRA:                  -0.031
REMARK UNBOUND:                -0.031
REMARK SMILES CCCC(=O)[O-]
REMARK SMILES IDX 3 1 4 2 5 3 6 4 2 5 1 6
REMARK H PARENT
REMARK Flexibility Score: inf
ROOT
ATOM      1  C   UNL     1      31.115   6.751  14.485  1.00  0.00     0.052 C 
ENDROOT
BRANCH   1   2
ATOM      2  C   UNL     1      31.124   8.116  15.099  1.00  0.00     0.041 C 
ATOM      3  O   UNL     1      31.098   9.141  14.367  1.00  0.00    -0.550 OA
ATOM      4  O   UNL     1      31.125   8.259  16.482  1.00  0.00    -0.550 OA
ENDBRANCH   1   2
BRANCH   1   5
ATOM      5  C   UNL     1      29.707   6.335  14.039  1.00  0.00     0.003 C 
ATOM      6  C   UNL     1      28.762   6.124  15.223  1.00  0.00     0.004 C 
ENDBRANCH   1   5
TORSDOF 2
ENDMDL
MODEL 2
REMARK VINA RESULT:     0.915     16.526     16.999
REMARK INTER + INTRA:           0.990
REMARK INTER:                   1.001
REMARK INTRA:                  -0.010
REMARK UNBOUND:                -0.031
REMARK SMILES CCCC(=O)[O-]
REMARK SMILES IDX 3 1 4 2 5 3 6 4 2 5 1 6
REMARK H PARENT
REMARK Flexibility Score: inf
ROOT
ATOM      1  C   UNL     1      18.021  18.179  13.875  1.00  0.00     0.052 C 
ENDROOT
BRANCH   1   2
ATOM      2  C   UNL     1      17.250  17.091  14.556  1.00  0.00     0.041 C 
ATOM      3  O   UNL     1      16.353  17.379  15.391  1.00  0.00    -0.550 OA
ATOM      4  O   UNL     1      17.498  15.760  14.244  1.00  0.00    -0.550 OA
ENDBRANCH   1   2
BRANCH   1   5
ATOM      5  C   UNL     1      17.913  19.512  14.628  1.00  0.00     0.003 C 
ATOM      6  C   UNL     1      18.753  20.614  13.982  1.00  0.00     0.004 C 
ENDBRANCH   1   5
TORSDOF 2
ENDMDL
MODEL 3
REMARK VINA RESULT:     1.139      2.356      2.850
REMARK INTER + INTRA:           1.241
REMARK INTER:                   1.262
REMARK INTRA:                  -0.021
REMARK UNBOUND:                -0.031
REMARK SMILES CCCC(=O)[O-]
REMARK SMILES IDX 3 1 4 2 5 3 6 4 2 5 1 6
REMARK H PARENT
REMARK Flexibility Score: inf
ROOT
ATOM      1  C   UNL     1      29.343   8.007  13.875  1.00  0.00     0.052 C 
ENDROOT
BRANCH   1   2
ATOM      2  C   UNL     1      30.126   7.197  14.862  1.00  0.00     0.041 C 
ATOM      3  O   UNL     1      30.174   5.943  14.756  1.00  0.00    -0.550 OA
ATOM      4  O   UNL     1      30.831   7.829  15.878  1.00  0.00    -0.550 OA
ENDBRANCH   1   2
BRANCH   1   5
ATOM      5  C   UNL     1      29.662   9.504  13.986  1.00  0.00     0.003 C 
ATOM      6  C   UNL     1      28.404  10.371  13.925  1.00  0.00     0.004 C 
ENDBRANCH   1   5
TORSDOF 2
ENDMDL
