MODEL 1
REMARK VINA RESULT:     0.000      0.000      0.000
REMARK INTER + INTRA:          -0.953
REMARK INTER:                   0.000
REMARK INTRA:                  -0.953
REMARK UNBOUND:                -0.953
REMARK SMILES CCCCCCCCC(=O)[O-]
REMARK SMILES IDX 6 1 7 2 8 3 9 4 10 5 11 6 5 7 4 8 3 9 2 10 1 11
REMARK H PARENT
REMARK Flexibility Score: inf
ROOT
ATOM      1  C   UNL     1     183.727 184.199 190.512  1.00  0.00     0.000 C 
ENDROOT
BRANCH   1   2
ATOM      2  C   UNL     1     184.369 184.222 189.115  1.00  0.00     0.006 C 
BRANCH   2   3
ATOM      3  C   UNL     1     185.700 184.987 189.101  1.00  0.00     0.053 C 
BRANCH   3   4
ATOM      4  C   UNL     1     186.874 184.066 189.227  1.00  0.00     0.041 C 
ATOM      5  O   UNL     1     186.726 182.826 189.066  1.00  0.00    -0.550 OA
ATOM      6  O   UNL     1     188.126 184.573 189.551  1.00  0.00    -0.550 OA
ENDBRANCH   3   4
ENDBRANCH   2   3
ENDBRANCH   1   2
BRANCH   1   7
ATOM      7  C   UNL     1     183.821 182.820 191.183  1.00  0.00     0.000 C 
BRANCH   7   8
ATOM      8  C   UNL     1     184.964 182.733 192.205  1.00  0.00    -0.000 C 
BRANCH   8   9
ATOM      9  C   UNL     1     185.146 184.066 192.941  1.00  0.00    -0.000 C 
BRANCH   9  10
ATOM     10  C   UNL     1     186.612 184.513 192.916  1.00  0.00    -0.003 C 
ATOM     11  C   UNL     1     186.731 185.990 192.553  1.00  0.00     0.004 C 
ENDBRANCH   9  10
ENDBRANCH   8   9
ENDBRANCH   7   8
ENDBRANCH   1   7
TORSDOF 7
ENDMDL
MODEL 2
REMARK VINA RESULT:     0.000      6.009      7.786
REMARK INTER + INTRA:          -0.952
REMARK INTER:                   0.000
REMARK INTRA:                  -0.952
REMARK UNBOUND:                -0.953
REMARK SMILES CCCCCCCCC(=O)[O-]
REMARK SMILES IDX 6 1 7 2 8 3 9 4 10 5 11 6 5 7 4 8 3 9 2 10 1 11
REMARK H PARENT
REMARK Flexibility Score: inf
ROOT
ATOM      1  C   UNL     1     184.968 190.227 194.028  1.00  0.00     0.000 C 
ENDROOT
BRANCH   1   2
ATOM      2  C   UNL     1     185.693 188.913 194.368  1.00  0.00     0.006 C 
BRANCH   2   3
ATOM      3  C   UNL     1     186.890 188.655 193.442  1.00  0.00     0.053 C 
BRANCH   3   4
ATOM      4  C   UNL     1     188.179 189.102 194.061  1.00  0.00     0.041 C 
ATOM      5  O   UNL     1     188.231 189.373 195.289  1.00  0.00    -0.550 OA
ATOM      6  O   UNL     1     189.316 189.246 193.276  1.00  0.00    -0.550 OA
ENDBRANCH   3   4
ENDBRANCH   2   3
ENDBRANCH   1   2
BRANCH   1   7
ATOM      7  C   UNL     1     185.223 191.328 195.069  1.00  0.00     0.000 C 
BRANCH   7   8
ATOM      8  C   UNL     1     186.295 192.332 194.622  1.00  0.00    -0.000 C 
BRANCH   8   9
ATOM      9  C   UNL     1     186.224 192.574 193.109  1.00  0.00    -0.000 C 
BRANCH   9  10
ATOM     10  C   UNL     1     187.604 192.416 192.461  1.00  0.00    -0.003 C 
ATOM     11  C   UNL     1     187.525 191.573 191.192  1.00  0.00     0.004 C 
ENDBRANCH   9  10
ENDBRANCH   8   9
ENDBRANCH   7   8
ENDBRANCH   1   7
TORSDOF 7
ENDMDL
MODEL 3
REMARK VINA RESULT:     0.000      4.597      6.094
REMARK INTER + INTRA:          -0.952
REMARK INTER:                   0.000
REMARK INTRA:                  -0.952
REMARK UNBOUND:                -0.953
REMARK SMILES CCCCCCCCC(=O)[O-]
REMARK SMILES IDX 6 1 7 2 8 3 9 4 10 5 11 6 5 7 4 8 3 9 2 10 1 11
REMARK H PARENT
REMARK Flexibility Score: inf
ROOT
ATOM      1  C   UNL     1     183.688 188.528 192.113  1.00  0.00     0.000 C 
ENDROOT
BRANCH   1   2
ATOM      2  C   UNL     1     184.690 187.434 192.517  1.00  0.00     0.006 C 
BRANCH   2   3
ATOM      3  C   UNL     1     185.957 187.460 191.650  1.00  0.00     0.053 C 
BRANCH   3   4
ATOM      4  C   UNL     1     187.070 188.213 192.312  1.00  0.00     0.041 C 
ATOM      5  O   UNL     1     186.996 188.507 193.534  1.00  0.00    -0.550 OA
ATOM      6  O   UNL     1     188.176 188.615 191.573  1.00  0.00    -0.550 OA
ENDBRANCH   3   4
ENDBRANCH   2   3
ENDBRANCH   1   2
BRANCH   1   7
ATOM      7  C   UNL     1     183.619 189.673 193.135  1.00  0.00     0.000 C 
BRANCH   7   8
ATOM      8  C   UNL     1     184.439 190.900 192.710  1.00  0.00    -0.000 C 
BRANCH   8   9
ATOM      9  C   UNL     1     184.386 191.096 191.190  1.00  0.00    -0.000 C 
BRANCH   9  10
ATOM     10  C   UNL     1     185.793 191.268 190.607  1.00  0.00    -0.003 C 
ATOM     11  C   UNL     1     185.981 190.415 189.357  1.00  0.00     0.004 C 
ENDBRANCH   9  10
ENDBRANCH   8   9
ENDBRANCH   7   8
ENDBRANCH   1   7
TORSDOF 7
ENDMDL
MODEL 4
REMARK VINA RESULT:     0.001      9.221      9.970
REMARK INTER + INTRA:          -0.952
REMARK INTER:                   0.000
REMARK INTRA:                  -0.952
REMARK UNBOUND:                -0.953
REMARK SMILES CCCCCCCCC(=O)[O-]
REMARK SMILES IDX 6 1 7 2 8 3 9 4 10 5 11 6 5 7 4 8 3 9 2 10 1 11
REMARK H PARENT
REMARK Flexibility Score: inf
ROOT
ATOM      1  C   UNL     1     178.485 182.197 186.433  1.00  0.00     0.000 C 
ENDROOT
BRANCH   1   2
ATOM      2  C   UNL     1     179.061 181.930 185.032  1.00  0.00     0.006 C 
BRANCH   2   3
ATOM      3  C   UNL     1     179.717 180.546 184.929  1.00  0.00     0.053 C 
BRANCH   3   4
ATOM      4  C   UNL     1     178.786 179.531 184.340  1.00  0.00     0.041 C 
ATOM      5  O   UNL     1     177.728 179.900 183.765  1.00  0.00    -0.550 OA
ATOM      6  O   UNL     1     179.070 178.176 184.452  1.00  0.00    -0.550 OA
ENDBRANCH   3   4
ENDBRANCH   2   3
ENDBRANCH   1   2
BRANCH   1   7
ATOM      7  C   UNL     1     176.949 182.148 186.460  1.00  0.00     0.000 C 
BRANCH   7   8
ATOM      8  C   UNL     1     176.406 180.812 186.986  1.00  0.00    -0.000 C 
BRANCH   8   9
ATOM      9  C   UNL     1     177.307 180.249 188.092  1.00  0.00    -0.000 C 
BRANCH   9  10
ATOM     10  C   UNL     1     177.671 178.786 187.815  1.00  0.00    -0.003 C 
ATOM     11  C   UNL     1     179.160 178.537 188.034  1.00  0.00     0.004 C 
ENDBRANCH   9  10
ENDBRANCH   8   9
ENDBRANCH   7   8
ENDBRANCH   1   7
TORSDOF 7
ENDMDL
MODEL 5
REMARK VINA RESULT:     0.001      4.896      6.183
REMARK INTER + INTRA:          -0.952
REMARK INTER:                   0.000
REMARK INTRA:                  -0.952
REMARK UNBOUND:                -0.953
REMARK SMILES CCCCCCCCC(=O)[O-]
REMARK SMILES IDX 6 1 7 2 8 3 9 4 10 5 11 6 5 7 4 8 3 9 2 10 1 11
REMARK H PARENT
REMARK Flexibility Score: inf
ROOT
ATOM      1  C   UNL     1     185.359 187.445 193.645  1.00  0.00     0.000 C 
ENDROOT
BRANCH   1   2
ATOM      2  C   UNL     1     186.273 187.212 194.860  1.00  0.00     0.006 C 
BRANCH   2   3
ATOM      3  C   UNL     1     187.735 186.985 194.450  1.00  0.00     0.053 C 
BRANCH   3   4
ATOM      4  C   UNL     1     188.542 188.244 194.544  1.00  0.00     0.041 C 
ATOM      5  O   UNL     1     188.086 189.244 195.159  1.00  0.00    -0.550 OA
ATOM      6  O   UNL     1     189.785 188.322 193.929  1.00  0.00    -0.550 OA
ENDBRANCH   3   4
ENDBRANCH   2   3
ENDBRANCH   1   2
BRANCH   1   7
ATOM      7  C   UNL     1     184.907 188.908 193.517  1.00  0.00     0.000 C 
BRANCH   7   8
ATOM      8  C   UNL     1     185.724 189.694 192.481  1.00  0.00    -0.000 C 
BRANCH   8   9
ATOM      9  C   UNL     1     186.112 188.801 191.295  1.00  0.00    -0.000 C 
BRANCH   9  10
ATOM     10  C   UNL     1     187.613 188.902 190.998  1.00  0.00    -0.003 C 
ATOM     11  C   UNL     1     188.226 187.522 190.781  1.00  0.00     0.004 C 
ENDBRANCH   9  10
ENDBRANCH   8   9
ENDBRANCH   7   8
ENDBRANCH   1   7
TORSDOF 7
ENDMDL
MODEL 6
REMARK VINA RESULT:     0.001      5.611      6.846
REMARK INTER + INTRA:          -0.952
REMARK INTER:                   0.000
REMARK INTRA:                  -0.952
REMARK UNBOUND:                -0.953
REMARK SMILES CCCCCCCCC(=O)[O-]
REMARK SMILES IDX 6 1 7 2 8 3 9 4 10 5 11 6 5 7 4 8 3 9 2 10 1 11
REMARK H PARENT
REMARK Flexibility Score: inf
ROOT
ATOM      1  C   UNL     1     180.213 186.741 191.275  1.00  0.00     0.000 C 
ENDROOT
BRANCH   1   2
ATOM      2  C   UNL     1     181.210 187.503 192.165  1.00  0.00     0.006 C 
BRANCH   2   3
ATOM      3  C   UNL     1     180.842 187.418 193.653  1.00  0.00     0.053 C 
BRANCH   3   4
ATOM      4  C   UNL     1     181.602 186.334 194.354  1.00  0.00     0.041 C 
ATOM      5  O   UNL     1     182.601 185.803 193.802  1.00  0.00    -0.550 OA
ATOM      6  O   UNL     1     181.191 185.892 195.605  1.00  0.00    -0.550 OA
ENDBRANCH   3   4
ENDBRANCH   2   3
ENDBRANCH   1   2
BRANCH   1   7
ATOM      7  C   UNL     1     180.800 185.438 190.712  1.00  0.00     0.000 C 
BRANCH   7   8
ATOM      8  C   UNL     1     180.353 184.197 191.497  1.00  0.00    -0.000 C 
BRANCH   8   9
ATOM      9  C   UNL     1     178.908 184.349 191.990  1.00  0.00    -0.000 C 
BRANCH   9  10
ATOM     10  C   UNL     1     178.802 184.037 193.487  1.00  0.00    -0.003 C 
ATOM     11  C   UNL     1     177.969 185.089 194.212  1.00  0.00     0.004 C 
ENDBRANCH   9  10
ENDBRANCH   8   9
ENDBRANCH   7   8
ENDBRANCH   1   7
TORSDOF 7
ENDMDL
MODEL 7
REMARK VINA RESULT:     0.001      9.603     11.183
REMARK INTER + INTRA:          -0.952
REMARK INTER:                   0.000
REMARK INTRA:                  -0.952
REMARK UNBOUND:                -0.953
REMARK SMILES CCCCCCCCC(=O)[O-]
REMARK SMILES IDX 6 1 7 2 8 3 9 4 10 5 11 6 5 7 4 8 3 9 2 10 1 11
REMARK H PARENT
REMARK Flexibility Score: inf
ROOT
ATOM      1  C   UNL     1     175.519 182.014 186.438  1.00  0.00     0.000 C 
ENDROOT
BRANCH   1   2
ATOM      2  C   UNL     1     174.958 180.603 186.191  1.00  0.00     0.006 C 
BRANCH   2   3
ATOM      3  C   UNL     1     175.377 180.045 184.823  1.00  0.00     0.053 C 
BRANCH   3   4
ATOM      4  C   UNL     1     176.575 179.152 184.930  1.00  0.00     0.041 C 
ATOM      5  O   UNL     1     176.956 178.735 186.055  1.00  0.00    -0.550 OA
ATOM      6  O   UNL     1     177.288 178.803 183.790  1.00  0.00    -0.550 OA
ENDBRANCH   3   4
ENDBRANCH   2   3
ENDBRANCH   1   2
BRANCH   1   7
ATOM      7  C   UNL     1     176.657 182.024 187.470  1.00  0.00     0.000 C 
BRANCH   7   8
ATOM      8  C   UNL     1     178.048 182.079 186.821  1.00  0.00    -0.000 C 
BRANCH   8   9
ATOM      9  C   UNL     1     178.025 182.929 185.545  1.00  0.00    -0.000 C 
BRANCH   9  10
ATOM     10  C   UNL     1     178.668 182.180 184.372  1.00  0.00    -0.003 C 
ATOM     11  C   UNL     1     177.821 182.300 183.110  1.00  0.00     0.004 C 
ENDBRANCH   9  10
ENDBRANCH   8   9
ENDBRANCH   7   8
ENDBRANCH   1   7
TORSDOF 7
ENDMDL
MODEL 8
REMARK VINA RESULT:     0.001     11.295     12.640
REMARK INTER + INTRA:          -0.952
REMARK INTER:                   0.000
REMARK INTRA:                  -0.952
REMARK UNBOUND:                -0.953
REMARK SMILES CCCCCCCCC(=O)[O-]
REMARK SMILES IDX 6 1 7 2 8 3 9 4 10 5 11 6 5 7 4 8 3 9 2 10 1 11
REMARK H PARENT
REMARK Flexibility Score: inf
ROOT
ATOM      1  C   UNL     1     173.663 188.104 186.831  1.00  0.00     0.000 C 
ENDROOT
BRANCH   1   2
ATOM      2  C   UNL     1     173.032 187.079 185.872  1.00  0.00     0.006 C 
BRANCH   2   3
ATOM      3  C   UNL     1     173.524 187.257 184.429  1.00  0.00     0.053 C 
BRANCH   3   4
ATOM      4  C   UNL     1     174.649 186.321 184.104  1.00  0.00     0.041 C 
ATOM      5  O   UNL     1     174.907 185.354 184.868  1.00  0.00    -0.550 OA
ATOM      6  O   UNL     1     175.428 186.534 182.975  1.00  0.00    -0.550 OA
ENDBRANCH   3   4
ENDBRANCH   2   3
ENDBRANCH   1   2
BRANCH   1   7
ATOM      7  C   UNL     1     174.710 187.475 187.763  1.00  0.00     0.000 C 
BRANCH   7   8
ATOM      8  C   UNL     1     176.150 187.713 187.285  1.00  0.00    -0.000 C 
BRANCH   8   9
ATOM      9  C   UNL     1     176.291 189.093 186.631  1.00  0.00    -0.000 C 
BRANCH   9  10
ATOM     10  C   UNL     1     176.976 188.987 185.264  1.00  0.00    -0.003 C 
ATOM     11  C   UNL     1     176.243 189.816 184.214  1.00  0.00     0.004 C 
ENDBRANCH   9  10
ENDBRANCH   8   9
ENDBRANCH   7   8
ENDBRANCH   1   7
TORSDOF 7
ENDMDL
MODEL 9
REMARK VINA RESULT:     0.001     11.618     12.611
REMARK INTER + INTRA:          -0.952
REMARK INTER:                   0.000
REMARK INTRA:                  -0.952
REMARK UNBOUND:                -0.953
REMARK SMILES CCCCCCCCC(=O)[O-]
REMARK SMILES IDX 6 1 7 2 8 3 9 4 10 5 11 6 5 7 4 8 3 9 2 10 1 11
REMARK H PARENT
REMARK Flexibility Score: inf
ROOT
ATOM      1  C   UNL     1     176.007 187.843 188.522  1.00  0.00     0.000 C 
ENDROOT
BRANCH   1   2
ATOM      2  C   UNL     1     175.077 188.154 187.337  1.00  0.00     0.006 C 
BRANCH   2   3
ATOM      3  C   UNL     1     173.925 187.145 187.224  1.00  0.00     0.053 C 
BRANCH   3   4
ATOM      4  C   UNL     1     172.672 187.655 187.867  1.00  0.00     0.041 C 
ATOM      5  O   UNL     1     172.572 188.870 188.183  1.00  0.00    -0.550 OA
ATOM      6  O   UNL     1     171.627 186.784 188.145  1.00  0.00    -0.550 OA
ENDBRANCH   3   4
ENDBRANCH   2   3
ENDBRANCH   1   2
BRANCH   1   7
ATOM      7  C   UNL     1     175.839 188.838 189.682  1.00  0.00     0.000 C 
BRANCH   7   8
ATOM      8  C   UNL     1     174.959 188.288 190.814  1.00  0.00    -0.000 C 
BRANCH   8   9
ATOM      9  C   UNL     1     175.171 186.779 190.991  1.00  0.00    -0.000 C 
BRANCH   9  10
ATOM     10  C   UNL     1     173.832 186.034 191.013  1.00  0.00    -0.003 C 
ATOM     11  C   UNL     1     173.877 184.791 190.130  1.00  0.00     0.004 C 
ENDBRANCH   9  10
ENDBRANCH   8   9
ENDBRANCH   7   8
ENDBRANCH   1   7
TORSDOF 7
ENDMDL
