MODEL 1
REMARK VINA RESULT:    -5.010      0.000      0.000
REMARK INTER + INTRA:          -5.678
REMARK INTER:                  -5.449
REMARK INTRA:                  -0.229
REMARK UNBOUND:                -0.229
REMARK SMILES CC1=C2C[C@@H](C(C)(C)O)CC[C@@]2(C)CCC1
REMARK SMILES IDX 6 1 7 2 8 3 5 4 1 5 2 6 3 7 16 8 4 9 12 10 15 11 11 12 14 13
REMARK SMILES IDX 13 14 10 15 9 16
REMARK H PARENT 9 17
REMARK Flexibility Score: inf
ROOT
ATOM      1  C   UNL     1     141.400 137.104 142.734  1.00  0.00     0.062 C 
ATOM      2  C   UNL     1     142.312 136.063 143.435  1.00  0.00     0.042 C 
ATOM      3  C   UNL     1     141.911 137.305 141.294  1.00  0.00     0.042 C 
ENDROOT
BRANCH   1   4
ATOM      4  C   UNL     1     139.884 136.683 142.718  1.00  0.00     0.024 C 
ATOM      5  C   UNL     1     138.326 134.464 139.277  1.00  0.00     0.039 C 
ATOM      6  C   UNL     1     137.454 134.953 140.412  1.00  0.00    -0.074 C 
ATOM      7  C   UNL     1     137.928 135.805 141.367  1.00  0.00    -0.065 C 
ATOM      8  C   UNL     1     136.036 134.412 140.487  1.00  0.00     0.031 C 
ATOM      9  C   UNL     1     139.345 136.365 141.303  1.00  0.00     0.038 C 
ATOM     10  C   UNL     1     136.970 136.372 142.416  1.00  0.00    -0.011 C 
ATOM     11  C   UNL     1     134.998 135.380 141.098  1.00  0.00     0.005 C 
ATOM     12  C   UNL     1     137.510 137.730 142.940  1.00  0.00     0.011 C 
ATOM     13  C   UNL     1     135.603 136.637 141.739  1.00  0.00     0.011 C 
ATOM     14  C   UNL     1     136.801 135.388 143.599  1.00  0.00     0.016 C 
ATOM     15  C   UNL     1     138.950 137.667 143.484  1.00  0.00     0.008 C 
ENDBRANCH   1   4
BRANCH   1  16
ATOM     16  O   UNL     1     141.526 138.357 143.372  1.00  0.00    -0.390 OA
ATOM     17  H   UNL     1     140.840 138.431 144.085  1.00  0.00     0.211 HD
ENDBRANCH   1  16
TORSDOF 2
ENDMDL
MODEL 2
REMARK VINA RESULT:    -4.915      9.510     11.345
REMARK INTER + INTRA:          -5.575
REMARK INTER:                  -5.354
REMARK INTRA:                  -0.221
REMARK UNBOUND:                -0.229
REMARK SMILES CC1=C2C[C@@H](C(C)(C)O)CC[C@@]2(C)CCC1
REMARK SMILES IDX 6 1 7 2 8 3 5 4 1 5 2 6 3 7 16 8 4 9 12 10 15 11 11 12 14 13
REMARK SMILES IDX 13 14 10 15 9 16
REMARK H PARENT 9 17
REMARK Flexibility Score: inf
ROOT
ATOM      1  C   UNL     1     135.062 129.989 134.874  1.00  0.00     0.062 C 
ATOM      2  C   UNL     1     136.346 129.126 134.752  1.00  0.00     0.042 C 
ATOM      3  C   UNL     1     134.608 130.387 133.455  1.00  0.00     0.042 C 
ENDROOT
BRANCH   1   4
ATOM      4  C   UNL     1     133.894 129.252 135.629  1.00  0.00     0.024 C 
ATOM      5  C   UNL     1     134.279 128.496 139.927  1.00  0.00     0.039 C 
ATOM      6  C   UNL     1     133.125 127.983 139.095  1.00  0.00    -0.074 C 
ATOM      7  C   UNL     1     133.128 128.064 137.733  1.00  0.00    -0.065 C 
ATOM      8  C   UNL     1     131.923 127.422 139.837  1.00  0.00     0.031 C 
ATOM      9  C   UNL     1     134.328 128.615 136.971  1.00  0.00     0.038 C 
ATOM     10  C   UNL     1     131.998 127.413 136.934  1.00  0.00    -0.011 C 
ATOM     11  C   UNL     1     131.160 126.302 139.096  1.00  0.00     0.005 C 
ATOM     12  C   UNL     1     132.501 127.055 135.510  1.00  0.00     0.011 C 
ATOM     13  C   UNL     1     131.597 126.094 137.638  1.00  0.00     0.011 C 
ATOM     14  C   UNL     1     130.777 128.360 136.832  1.00  0.00     0.016 C 
ATOM     15  C   UNL     1     133.108 128.244 134.740  1.00  0.00     0.008 C 
ENDBRANCH   1   4
BRANCH   1  16
ATOM     16  O   UNL     1     135.358 131.195 135.544  1.00  0.00    -0.390 OA
ATOM     17  H   UNL     1     136.168 131.602 135.141  1.00  0.00     0.211 HD
ENDBRANCH   1  16
TORSDOF 2
ENDMDL
MODEL 3
REMARK VINA RESULT:    -4.871      1.072      2.665
REMARK INTER + INTRA:          -5.526
REMARK INTER:                  -5.316
REMARK INTRA:                  -0.210
REMARK UNBOUND:                -0.229
REMARK SMILES CC1=C2C[C@@H](C(C)(C)O)CC[C@@]2(C)CCC1
REMARK SMILES IDX 6 1 7 2 8 3 5 4 1 5 2 6 3 7 16 8 4 9 12 10 15 11 11 12 14 13
REMARK SMILES IDX 13 14 10 15 9 16
REMARK H PARENT 9 17
REMARK Flexibility Score: inf
ROOT
ATOM      1  C   UNL     1     141.908 137.352 142.490  1.00  0.00     0.062 C 
ATOM      2  C   UNL     1     142.785 136.354 143.291  1.00  0.00     0.042 C 
ATOM      3  C   UNL     1     142.723 137.851 141.280  1.00  0.00     0.042 C 
ENDROOT
BRANCH   1   4
ATOM      4  C   UNL     1     140.548 136.726 142.006  1.00  0.00     0.024 C 
ATOM      5  C   UNL     1     136.785 138.324 143.582  1.00  0.00     0.039 C 
ATOM      6  C   UNL     1     136.858 137.116 142.675  1.00  0.00    -0.074 C 
ATOM      7  C   UNL     1     138.046 136.524 142.359  1.00  0.00    -0.065 C 
ATOM      8  C   UNL     1     135.555 136.614 142.074  1.00  0.00     0.031 C 
ATOM      9  C   UNL     1     139.362 137.008 142.959  1.00  0.00     0.038 C 
ATOM     10  C   UNL     1     138.053 135.229 141.546  1.00  0.00    -0.011 C 
ATOM     11  C   UNL     1     135.499 135.092 141.813  1.00  0.00     0.005 C 
ATOM     12  C   UNL     1     139.343 134.422 141.854  1.00  0.00     0.011 C 
ATOM     13  C   UNL     1     136.843 134.369 141.985  1.00  0.00     0.011 C 
ATOM     14  C   UNL     1     137.976 135.528 140.029  1.00  0.00     0.016 C 
ATOM     15  C   UNL     1     140.646 135.215 141.640  1.00  0.00     0.008 C 
ENDBRANCH   1   4
BRANCH   1  16
ATOM     16  O   UNL     1     141.639 138.492 143.278  1.00  0.00    -0.390 OA
ATOM     17  H   UNL     1     142.212 139.242 142.974  1.00  0.00     0.211 HD
ENDBRANCH   1  16
TORSDOF 2
ENDMDL
MODEL 4
REMARK VINA RESULT:    -4.765      9.631     12.030
REMARK INTER + INTRA:          -5.411
REMARK INTER:                  -5.154
REMARK INTRA:                  -0.257
REMARK UNBOUND:                -0.229
REMARK SMILES CC1=C2C[C@@H](C(C)(C)O)CC[C@@]2(C)CCC1
REMARK SMILES IDX 6 1 7 2 8 3 5 4 1 5 2 6 3 7 16 8 4 9 12 10 15 11 11 12 14 13
REMARK SMILES IDX 13 14 10 15 9 16
REMARK H PARENT 9 17
REMARK Flexibility Score: inf
ROOT
ATOM      1  C   UNL     1     132.915 128.193 136.943  1.00  0.00     0.062 C 
ATOM      2  C   UNL     1     134.110 129.087 137.365  1.00  0.00     0.042 C 
ATOM      3  C   UNL     1     133.473 126.918 136.279  1.00  0.00     0.042 C 
ENDROOT
BRANCH   1   4
ATOM      4  C   UNL     1     131.977 127.810 138.147  1.00  0.00     0.024 C 
ATOM      5  C   UNL     1     132.996 129.209 142.172  1.00  0.00     0.039 C 
ATOM      6  C   UNL     1     131.842 128.274 141.887  1.00  0.00    -0.074 C 
ATOM      7  C   UNL     1     131.667 127.701 140.660  1.00  0.00    -0.065 C 
ATOM      8  C   UNL     1     130.842 128.036 143.006  1.00  0.00     0.031 C 
ATOM      9  C   UNL     1     132.665 127.920 139.528  1.00  0.00     0.038 C 
ATOM     10  C   UNL     1     130.563 126.662 140.462  1.00  0.00    -0.011 C 
ATOM     11  C   UNL     1     130.177 126.642 143.005  1.00  0.00     0.005 C 
ATOM     12  C   UNL     1     130.937 125.715 139.291  1.00  0.00     0.011 C 
ATOM     13  C   UNL     1     130.460 125.805 141.748  1.00  0.00     0.011 C 
ATOM     14  C   UNL     1     129.206 127.346 140.165  1.00  0.00     0.016 C 
ATOM     15  C   UNL     1     131.254 126.442 137.971  1.00  0.00     0.008 C 
ENDBRANCH   1   4
BRANCH   1  16
ATOM     16  O   UNL     1     132.153 128.849 135.953  1.00  0.00    -0.390 OA
ATOM     17  H   UNL     1     131.658 129.603 136.367  1.00  0.00     0.211 HD
ENDBRANCH   1  16
TORSDOF 2
ENDMDL
MODEL 5
REMARK VINA RESULT:    -4.741      2.148      4.266
REMARK INTER + INTRA:          -5.385
REMARK INTER:                  -5.162
REMARK INTRA:                  -0.224
REMARK UNBOUND:                -0.229
REMARK SMILES CC1=C2C[C@@H](C(C)(C)O)CC[C@@]2(C)CCC1
REMARK SMILES IDX 6 1 7 2 8 3 5 4 1 5 2 6 3 7 16 8 4 9 12 10 15 11 11 12 14 13
REMARK SMILES IDX 13 14 10 15 9 16
REMARK H PARENT 9 17
REMARK Flexibility Score: inf
ROOT
ATOM      1  C   UNL     1     139.068 134.539 138.517  1.00  0.00     0.062 C 
ATOM      2  C   UNL     1     140.252 133.699 139.064  1.00  0.00     0.042 C 
ATOM      3  C   UNL     1     138.265 133.663 137.534  1.00  0.00     0.042 C 
ENDROOT
BRANCH   1   4
ATOM      4  C   UNL     1     138.124 135.086 139.651  1.00  0.00     0.024 C 
ATOM      5  C   UNL     1     139.744 137.882 142.608  1.00  0.00     0.039 C 
ATOM      6  C   UNL     1     138.343 137.317 142.682  1.00  0.00    -0.074 C 
ATOM      7  C   UNL     1     137.932 136.304 141.865  1.00  0.00    -0.065 C 
ATOM      8  C   UNL     1     137.381 137.960 143.667  1.00  0.00     0.031 C 
ATOM      9  C   UNL     1     138.886 135.640 140.878  1.00  0.00     0.038 C 
ATOM     10  C   UNL     1     136.551 135.681 142.069  1.00  0.00    -0.011 C 
ATOM     11  C   UNL     1     136.317 137.009 144.259  1.00  0.00     0.005 C 
ATOM     12  C   UNL     1     136.549 134.223 141.537  1.00  0.00     0.011 C 
ATOM     13  C   UNL     1     136.257 135.628 143.589  1.00  0.00     0.011 C 
ATOM     14  C   UNL     1     135.460 136.503 141.340  1.00  0.00     0.016 C 
ATOM     15  C   UNL     1     137.004 134.088 140.071  1.00  0.00     0.008 C 
ENDBRANCH   1   4
BRANCH   1  16
ATOM     16  O   UNL     1     139.560 135.625 137.761  1.00  0.00    -0.390 OA
ATOM     17  H   UNL     1     138.820 136.260 137.582  1.00  0.00     0.211 HD
ENDBRANCH   1  16
TORSDOF 2
ENDMDL
MODEL 6
REMARK VINA RESULT:    -4.713      1.649      3.354
REMARK INTER + INTRA:          -5.355
REMARK INTER:                  -5.114
REMARK INTRA:                  -0.241
REMARK UNBOUND:                -0.229
REMARK SMILES CC1=C2C[C@@H](C(C)(C)O)CC[C@@]2(C)CCC1
REMARK SMILES IDX 6 1 7 2 8 3 5 4 1 5 2 6 3 7 16 8 4 9 12 10 15 11 11 12 14 13
REMARK SMILES IDX 13 14 10 15 9 16
REMARK H PARENT 9 17
REMARK Flexibility Score: inf
ROOT
ATOM      1  C   UNL     1     141.691 137.463 142.769  1.00  0.00     0.062 C 
ATOM      2  C   UNL     1     142.473 136.294 143.425  1.00  0.00     0.042 C 
ATOM      3  C   UNL     1     141.990 137.457 141.256  1.00  0.00     0.042 C 
ENDROOT
BRANCH   1   4
ATOM      4  C   UNL     1     140.139 137.381 143.015  1.00  0.00     0.024 C 
ATOM      5  C   UNL     1     138.667 136.011 146.907  1.00  0.00     0.039 C 
ATOM      6  C   UNL     1     137.759 136.306 145.734  1.00  0.00    -0.074 C 
ATOM      7  C   UNL     1     138.252 136.540 144.483  1.00  0.00    -0.065 C 
ATOM      8  C   UNL     1     136.267 136.391 146.009  1.00  0.00     0.031 C 
ATOM      9  C   UNL     1     139.746 136.450 144.186  1.00  0.00     0.038 C 
ATOM     10  C   UNL     1     137.288 136.702 143.308  1.00  0.00    -0.011 C 
ATOM     11  C   UNL     1     135.359 135.957 144.837  1.00  0.00     0.005 C 
ATOM     12  C   UNL     1     138.000 136.310 141.986  1.00  0.00     0.011 C 
ATOM     13  C   UNL     1     136.101 135.729 143.511  1.00  0.00     0.011 C 
ATOM     14  C   UNL     1     136.775 138.160 143.210  1.00  0.00     0.016 C 
ATOM     15  C   UNL     1     139.315 137.071 141.730  1.00  0.00     0.008 C 
ENDBRANCH   1   4
BRANCH   1  16
ATOM     16  O   UNL     1     142.174 138.695 143.258  1.00  0.00    -0.390 OA
ATOM     17  H   UNL     1     142.934 138.527 143.873  1.00  0.00     0.211 HD
ENDBRANCH   1  16
TORSDOF 2
ENDMDL
MODEL 7
REMARK VINA RESULT:    -4.663      6.918      9.564
REMARK INTER + INTRA:          -5.301
REMARK INTER:                  -5.053
REMARK INTRA:                  -0.248
REMARK UNBOUND:                -0.229
REMARK SMILES CC1=C2C[C@@H](C(C)(C)O)CC[C@@]2(C)CCC1
REMARK SMILES IDX 6 1 7 2 8 3 5 4 1 5 2 6 3 7 16 8 4 9 12 10 15 11 11 12 14 13
REMARK SMILES IDX 13 14 10 15 9 16
REMARK H PARENT 9 17
REMARK Flexibility Score: inf
ROOT
ATOM      1  C   UNL     1     131.390 128.618 142.600  1.00  0.00     0.062 C 
ATOM      2  C   UNL     1     130.946 127.439 141.695  1.00  0.00     0.042 C 
ATOM      3  C   UNL     1     131.518 128.097 144.046  1.00  0.00     0.042 C 
ENDROOT
BRANCH   1   4
ATOM      4  C   UNL     1     132.744 129.273 142.139  1.00  0.00     0.024 C 
ATOM      5  C   UNL     1     133.765 129.282 137.879  1.00  0.00     0.039 C 
ATOM      6  C   UNL     1     134.702 129.778 138.957  1.00  0.00    -0.074 C 
ATOM      7  C   UNL     1     134.441 129.585 140.282  1.00  0.00    -0.065 C 
ATOM      8  C   UNL     1     135.929 130.558 138.513  1.00  0.00     0.031 C 
ATOM      9  C   UNL     1     133.221 128.796 140.747  1.00  0.00     0.038 C 
ATOM     10  C   UNL     1     135.483 129.988 141.325  1.00  0.00    -0.011 C 
ATOM     11  C   UNL     1     137.165 130.410 139.426  1.00  0.00     0.005 C 
ATOM     12  C   UNL     1     135.302 129.133 142.608  1.00  0.00     0.011 C 
ATOM     13  C   UNL     1     136.891 129.687 140.753  1.00  0.00     0.011 C 
ATOM     14  C   UNL     1     135.358 131.490 141.680  1.00  0.00     0.016 C 
ATOM     15  C   UNL     1     133.880 129.182 143.200  1.00  0.00     0.008 C 
ENDBRANCH   1   4
BRANCH   1  16
ATOM     16  O   UNL     1     130.382 129.606 142.627  1.00  0.00    -0.390 OA
ATOM     17  H   UNL     1     129.955 129.662 141.733  1.00  0.00     0.211 HD
ENDBRANCH   1  16
TORSDOF 2
ENDMDL
MODEL 8
REMARK VINA RESULT:    -4.572      8.793     11.683
REMARK INTER + INTRA:          -5.202
REMARK INTER:                  -4.947
REMARK INTRA:                  -0.255
REMARK UNBOUND:                -0.229
REMARK SMILES CC1=C2C[C@@H](C(C)(C)O)CC[C@@]2(C)CCC1
REMARK SMILES IDX 6 1 7 2 8 3 5 4 1 5 2 6 3 7 16 8 4 9 12 10 15 11 11 12 14 13
REMARK SMILES IDX 13 14 10 15 9 16
REMARK H PARENT 9 17
REMARK Flexibility Score: inf
ROOT
ATOM      1  C   UNL     1     128.774 127.377 140.967  1.00  0.00     0.062 C 
ATOM      2  C   UNL     1     128.987 126.889 139.510  1.00  0.00     0.042 C 
ATOM      3  C   UNL     1     128.459 126.151 141.847  1.00  0.00     0.042 C 
ENDROOT
BRANCH   1   4
ATOM      4  C   UNL     1     130.015 128.153 141.544  1.00  0.00     0.024 C 
ATOM      5  C   UNL     1     133.747 128.217 139.250  1.00  0.00     0.039 C 
ATOM      6  C   UNL     1     133.615 128.810 140.635  1.00  0.00    -0.074 C 
ATOM      7  C   UNL     1     132.505 128.606 141.402  1.00  0.00    -0.065 C 
ATOM      8  C   UNL     1     134.746 129.699 141.126  1.00  0.00     0.031 C 
ATOM      9  C   UNL     1     131.364 127.710 140.931  1.00  0.00     0.038 C 
ATOM     10  C   UNL     1     132.477 129.117 142.843  1.00  0.00    -0.011 C 
ATOM     11  C   UNL     1     134.980 129.678 142.653  1.00  0.00     0.005 C 
ATOM     12  C   UNL     1     131.494 128.261 143.685  1.00  0.00     0.011 C 
ATOM     13  C   UNL     1     133.891 128.945 143.451  1.00  0.00     0.011 C 
ATOM     14  C   UNL     1     132.048 130.604 142.895  1.00  0.00     0.016 C 
ATOM     15  C   UNL     1     130.070 128.181 143.101  1.00  0.00     0.008 C 
ENDBRANCH   1   4
BRANCH   1  16
ATOM     16  O   UNL     1     127.636 128.209 141.031  1.00  0.00    -0.390 OA
ATOM     17  H   UNL     1     127.924 129.143 141.201  1.00  0.00     0.211 HD
ENDBRANCH   1  16
TORSDOF 2
ENDMDL
MODEL 9
REMARK VINA RESULT:    -4.560      8.193     10.938
REMARK INTER + INTRA:          -5.188
REMARK INTER:                  -4.958
REMARK INTRA:                  -0.231
REMARK UNBOUND:                -0.229
REMARK SMILES CC1=C2C[C@@H](C(C)(C)O)CC[C@@]2(C)CCC1
REMARK SMILES IDX 6 1 7 2 8 3 5 4 1 5 2 6 3 7 16 8 4 9 12 10 15 11 11 12 14 13
REMARK SMILES IDX 13 14 10 15 9 16
REMARK H PARENT 9 17
REMARK Flexibility Score: inf
ROOT
ATOM      1  C   UNL     1     133.392 128.467 136.362  1.00  0.00     0.062 C 
ATOM      2  C   UNL     1     133.394 126.922 136.493  1.00  0.00     0.042 C 
ATOM      3  C   UNL     1     133.444 129.075 137.778  1.00  0.00     0.042 C 
ENDROOT
BRANCH   1   4
ATOM      4  C   UNL     1     134.586 129.014 135.494  1.00  0.00     0.024 C 
ATOM      5  C   UNL     1     138.072 130.739 137.509  1.00  0.00     0.039 C 
ATOM      6  C   UNL     1     137.898 130.740 136.007  1.00  0.00    -0.074 C 
ATOM      7  C   UNL     1     136.721 130.376 135.419  1.00  0.00    -0.065 C 
ATOM      8  C   UNL     1     139.107 131.110 135.163  1.00  0.00     0.031 C 
ATOM      9  C   UNL     1     135.495 130.012 136.249  1.00  0.00     0.038 C 
ATOM     10  C   UNL     1     136.555 130.522 133.906  1.00  0.00    -0.011 C 
ATOM     11  C   UNL     1     138.782 131.806 133.823  1.00  0.00     0.005 C 
ATOM     12  C   UNL     1     135.053 130.689 133.556  1.00  0.00     0.011 C 
ATOM     13  C   UNL     1     137.291 131.807 133.454  1.00  0.00     0.011 C 
ATOM     14  C   UNL     1     137.128 129.288 133.166  1.00  0.00     0.016 C 
ATOM     15  C   UNL     1     134.150 129.567 134.105  1.00  0.00     0.008 C 
ENDBRANCH   1   4
BRANCH   1  16
ATOM     16  O   UNL     1     132.173 128.898 135.796  1.00  0.00    -0.390 OA
ATOM     17  H   UNL     1     131.599 129.281 136.509  1.00  0.00     0.211 HD
ENDBRANCH   1  16
TORSDOF 2
ENDMDL
