MODEL 1
REMARK VINA RESULT:    -2.507      0.000      0.000
REMARK INTER + INTRA:          -3.053
REMARK INTER:                  -2.947
REMARK INTRA:                  -0.106
REMARK UNBOUND:                -0.106
REMARK SMILES CCCCC(=O)[O-]
REMARK SMILES IDX 4 1 5 2 6 3 7 4 3 5 2 6 1 7
REMARK H PARENT
REMARK Flexibility Score: inf
ROOT
ATOM      1  C   UNL     1      -9.748 -17.542  21.191  1.00  0.00     0.053 C 
ENDROOT
BRANCH   1   2
ATOM      2  C   UNL     1      -9.701 -17.877  22.649  1.00  0.00     0.041 C 
ATOM      3  O   UNL     1     -10.429 -18.794  23.112  1.00  0.00    -0.550 OA
ATOM      4  O   UNL     1      -8.891 -17.141  23.505  1.00  0.00    -0.550 OA
ENDBRANCH   1   2
BRANCH   1   5
ATOM      5  C   UNL     1     -11.123 -17.888  20.606  1.00  0.00     0.006 C 
BRANCH   5   6
ATOM      6  C   UNL     1     -11.032 -18.863  19.422  1.00  0.00    -0.003 C 
ATOM      7  C   UNL     1     -10.367 -20.187  19.796  1.00  0.00     0.004 C 
ENDBRANCH   5   6
ENDBRANCH   1   5
TORSDOF 3
ENDMDL
MODEL 2
REMARK VINA RESULT:    -2.500      2.442      2.996
REMARK INTER + INTRA:          -3.045
REMARK INTER:                  -2.984
REMARK INTRA:                  -0.061
REMARK UNBOUND:                -0.106
REMARK SMILES CCCCC(=O)[O-]
REMARK SMILES IDX 4 1 5 2 6 3 7 4 3 5 2 6 1 7
REMARK H PARENT
REMARK Flexibility Score: inf
ROOT
ATOM      1  C   UNL     1     -10.819 -18.788  23.085  1.00  0.00     0.053 C 
ENDROOT
BRANCH   1   2
ATOM      2  C   UNL     1      -9.776 -17.887  22.503  1.00  0.00     0.041 C 
ATOM      3  O   UNL     1      -8.943 -17.313  23.252  1.00  0.00    -0.550 OA
ATOM      4  O   UNL     1      -9.755 -17.641  21.136  1.00  0.00    -0.550 OA
ENDBRANCH   1   2
BRANCH   1   5
ATOM      5  C   UNL     1     -10.828 -20.137  22.356  1.00  0.00     0.006 C 
BRANCH   5   6
ATOM      6  C   UNL     1     -10.428 -21.305  23.272  1.00  0.00    -0.003 C 
ATOM      7  C   UNL     1      -8.921 -21.555  23.284  1.00  0.00     0.004 C 
ENDBRANCH   5   6
ENDBRANCH   1   5
TORSDOF 3
ENDMDL
MODEL 3
REMARK VINA RESULT:    -2.470     19.135     19.651
REMARK INTER + INTRA:          -3.009
REMARK INTER:                  -2.988
REMARK INTRA:                  -0.021
REMARK UNBOUND:                -0.106
REMARK SMILES CCCCC(=O)[O-]
REMARK SMILES IDX 4 1 5 2 6 3 7 4 3 5 2 6 1 7
REMARK H PARENT
REMARK Flexibility Score: inf
ROOT
ATOM      1  C   UNL     1       8.435 -20.634  14.489  1.00  0.00     0.053 C 
ENDROOT
BRANCH   1   2
ATOM      2  C   UNL     1       8.032 -20.472  13.057  1.00  0.00     0.041 C 
ATOM      3  O   UNL     1       7.221 -21.278  12.531  1.00  0.00    -0.550 OA
ATOM      4  O   UNL     1       8.591 -19.458  12.288  1.00  0.00    -0.550 OA
ENDBRANCH   1   2
BRANCH   1   5
ATOM      5  C   UNL     1       7.487 -21.605  15.204  1.00  0.00     0.006 C 
BRANCH   5   6
ATOM      6  C   UNL     1       7.651 -21.571  16.732  1.00  0.00    -0.003 C 
ATOM      7  C   UNL     1       6.313 -21.513  17.467  1.00  0.00     0.004 C 
ENDBRANCH   5   6
ENDBRANCH   1   5
TORSDOF 3
ENDMDL
MODEL 4
REMARK VINA RESULT:    -2.421      2.232      3.150
REMARK INTER + INTRA:          -2.953
REMARK INTER:                  -2.872
REMARK INTRA:                  -0.080
REMARK UNBOUND:                -0.106
REMARK SMILES CCCCC(=O)[O-]
REMARK SMILES IDX 4 1 5 2 6 3 7 4 3 5 2 6 1 7
REMARK H PARENT
REMARK Flexibility Score: inf
ROOT
ATOM      1  C   UNL     1     -10.645 -19.542  22.696  1.00  0.00     0.053 C 
ENDROOT
BRANCH   1   2
ATOM      2  C   UNL     1      -9.991 -20.880  22.545  1.00  0.00     0.041 C 
ATOM      3  O   UNL     1      -9.411 -21.416  23.525  1.00  0.00    -0.550 OA
ATOM      4  O   UNL     1      -9.979 -21.511  21.307  1.00  0.00    -0.550 OA
ENDBRANCH   1   2
BRANCH   1   5
ATOM      5  C   UNL     1      -9.594 -18.426  22.660  1.00  0.00     0.006 C 
BRANCH   5   6
ATOM      6  C   UNL     1      -9.731 -17.526  21.422  1.00  0.00    -0.003 C 
ATOM      7  C   UNL     1     -10.880 -17.952  20.508  1.00  0.00     0.004 C 
ENDBRANCH   5   6
ENDBRANCH   1   5
TORSDOF 3
ENDMDL
MODEL 5
REMARK VINA RESULT:    -2.402     18.595     19.191
REMARK INTER + INTRA:          -2.930
REMARK INTER:                  -2.904
REMARK INTRA:                  -0.026
REMARK UNBOUND:                -0.106
REMARK SMILES CCCCC(=O)[O-]
REMARK SMILES IDX 4 1 5 2 6 3 7 4 3 5 2 6 1 7
REMARK H PARENT
REMARK Flexibility Score: inf
ROOT
ATOM      1  C   UNL     1       7.883 -21.607  14.164  1.00  0.00     0.053 C 
ENDROOT
BRANCH   1   2
ATOM      2  C   UNL     1       6.998 -21.535  12.960  1.00  0.00     0.041 C 
ATOM      3  O   UNL     1       7.326 -20.825  11.974  1.00  0.00    -0.550 OA
ATOM      4  O   UNL     1       5.786 -22.214  12.948  1.00  0.00    -0.550 OA
ENDBRANCH   1   2
BRANCH   1   5
ATOM      5  C   UNL     1       7.160 -22.312  15.319  1.00  0.00     0.006 C 
BRANCH   5   6
ATOM      6  C   UNL     1       7.441 -21.655  16.679  1.00  0.00    -0.003 C 
ATOM      7  C   UNL     1       6.181 -21.494  17.528  1.00  0.00     0.004 C 
ENDBRANCH   5   6
ENDBRANCH   1   5
TORSDOF 3
ENDMDL
MODEL 6
REMARK VINA RESULT:    -2.271     18.645     19.116
REMARK INTER + INTRA:          -2.776
REMARK INTER:                  -2.757
REMARK INTRA:                  -0.019
REMARK UNBOUND:                -0.106
REMARK SMILES CCCCC(=O)[O-]
REMARK SMILES IDX 4 1 5 2 6 3 7 4 3 5 2 6 1 7
REMARK H PARENT
REMARK Flexibility Score: inf
ROOT
ATOM      1  C   UNL     1       7.987 -21.351  15.983  1.00  0.00     0.053 C 
ENDROOT
BRANCH   1   2
ATOM      2  C   UNL     1       6.643 -21.895  16.354  1.00  0.00     0.041 C 
ATOM      3  O   UNL     1       6.145 -21.639  17.482  1.00  0.00    -0.550 OA
ATOM      4  O   UNL     1       5.963 -22.727  15.474  1.00  0.00    -0.550 OA
ENDBRANCH   1   2
BRANCH   1   5
ATOM      5  C   UNL     1       8.073 -21.129  14.467  1.00  0.00     0.006 C 
BRANCH   5   6
ATOM      6  C   UNL     1       8.807 -19.829  14.103  1.00  0.00    -0.003 C 
ATOM      7  C   UNL     1       8.531 -19.377  12.670  1.00  0.00     0.004 C 
ENDBRANCH   5   6
ENDBRANCH   1   5
TORSDOF 3
ENDMDL
MODEL 7
REMARK VINA RESULT:    -2.208      2.699      4.046
REMARK INTER + INTRA:          -2.702
REMARK INTER:                  -2.673
REMARK INTRA:                  -0.029
REMARK UNBOUND:                -0.106
REMARK SMILES CCCCC(=O)[O-]
REMARK SMILES IDX 4 1 5 2 6 3 7 4 3 5 2 6 1 7
REMARK H PARENT
REMARK Flexibility Score: inf
ROOT
ATOM      1  C   UNL     1     -10.405 -19.486  19.754  1.00  0.00     0.053 C 
ENDROOT
BRANCH   1   2
ATOM      2  C   UNL     1      -9.972 -20.898  19.511  1.00  0.00     0.041 C 
ATOM      3  O   UNL     1      -9.831 -21.693  20.477  1.00  0.00    -0.550 OA
ATOM      4  O   UNL     1      -9.676 -21.321  18.222  1.00  0.00    -0.550 OA
ENDBRANCH   1   2
BRANCH   1   5
ATOM      5  C   UNL     1     -10.400 -19.176  21.256  1.00  0.00     0.006 C 
BRANCH   5   6
ATOM      6  C   UNL     1      -9.816 -17.791  21.571  1.00  0.00    -0.003 C 
ATOM      7  C   UNL     1      -9.296 -17.681  23.004  1.00  0.00     0.004 C 
ENDBRANCH   5   6
ENDBRANCH   1   5
TORSDOF 3
ENDMDL
MODEL 8
REMARK VINA RESULT:    -2.122      1.953      2.544
REMARK INTER + INTRA:          -2.601
REMARK INTER:                  -2.564
REMARK INTRA:                  -0.036
REMARK UNBOUND:                -0.106
REMARK SMILES CCCCC(=O)[O-]
REMARK SMILES IDX 4 1 5 2 6 3 7 4 3 5 2 6 1 7
REMARK H PARENT
REMARK Flexibility Score: inf
ROOT
ATOM      1  C   UNL     1     -10.559 -19.560  20.795  1.00  0.00     0.053 C 
ENDROOT
BRANCH   1   2
ATOM      2  C   UNL     1     -10.459 -18.069  20.726  1.00  0.00     0.041 C 
ATOM      3  O   UNL     1     -11.124 -17.428  19.871  1.00  0.00    -0.550 OA
ATOM      4  O   UNL     1      -9.591 -17.391  21.572  1.00  0.00    -0.550 OA
ENDBRANCH   1   2
BRANCH   1   5
ATOM      5  C   UNL     1     -10.768 -20.148  19.394  1.00  0.00     0.006 C 
BRANCH   5   6
ATOM      6  C   UNL     1      -9.588 -21.020  18.938  1.00  0.00    -0.003 C 
ATOM      7  C   UNL     1      -9.426 -22.282  19.784  1.00  0.00     0.004 C 
ENDBRANCH   5   6
ENDBRANCH   1   5
TORSDOF 3
ENDMDL
MODEL 9
REMARK VINA RESULT:    -2.027     18.111     18.614
REMARK INTER + INTRA:          -2.489
REMARK INTER:                  -2.417
REMARK INTRA:                  -0.072
REMARK UNBOUND:                -0.106
REMARK SMILES CCCCC(=O)[O-]
REMARK SMILES IDX 4 1 5 2 6 3 7 4 3 5 2 6 1 7
REMARK H PARENT
REMARK Flexibility Score: inf
ROOT
ATOM      1  C   UNL     1       7.691 -21.265  15.533  1.00  0.00     0.053 C 
ENDROOT
BRANCH   1   2
ATOM      2  C   UNL     1       7.190 -21.939  16.771  1.00  0.00     0.041 C 
ATOM      3  O   UNL     1       7.629 -23.073  17.098  1.00  0.00    -0.550 OA
ATOM      4  O   UNL     1       6.199 -21.338  17.537  1.00  0.00    -0.550 OA
ENDBRANCH   1   2
BRANCH   1   5
ATOM      5  C   UNL     1       7.797 -22.272  14.381  1.00  0.00     0.006 C 
BRANCH   5   6
ATOM      6  C   UNL     1       6.755 -22.022  13.280  1.00  0.00    -0.003 C 
ATOM      7  C   UNL     1       5.470 -22.822  13.491  1.00  0.00     0.004 C 
ENDBRANCH   5   6
ENDBRANCH   1   5
TORSDOF 3
ENDMDL
