MODEL 1
REMARK VINA RESULT:     0.090      0.000      0.000
REMARK INTER + INTRA:           0.098
REMARK INTER:                   0.098
REMARK INTRA:                   0.000
REMARK UNBOUND:                 0.000
REMARK SMILES Cc1cc(O)c2c(c1)C(=O)c1cc(O)cc(O)c1C2=O
REMARK SMILES IDX 1 1 2 2 8 3 7 4 6 5 4 6 3 7 19 8 20 9 18 10 11 11 9 12 10 13
REMARK SMILES IDX 12 14 13 15 15 16 16 17 5 18 17 20 14 22
REMARK H PARENT 5 19 17 21 14 23
REMARK Flexibility Score: inf
ROOT
ATOM      1  C   UNL     1      61.187   9.404  49.956  1.00  0.00     0.044 C 
ATOM      2  C   UNL     1      59.739   9.436  50.353  1.00  0.00    -0.047 A 
ATOM      3  C   UNL     1      58.747   9.601  49.381  1.00  0.00     0.016 A 
ATOM      4  C   UNL     1      57.388   9.604  49.737  1.00  0.00     0.038 A 
ATOM      5  C   UNL     1      57.017   9.437  51.090  1.00  0.00     0.076 A 
ATOM      6  C   UNL     1      58.022   9.185  52.058  1.00  0.00     0.127 A 
ATOM      7  C   UNL     1      59.369   9.208  51.682  1.00  0.00     0.050 A 
ATOM      8  C   UNL     1      55.583   9.593  51.449  1.00  0.00     0.201 C 
ATOM      9  O   UNL     1      55.266  10.021  52.591  1.00  0.00    -0.288 OA
ATOM     10  C   UNL     1      54.539   9.428  50.405  1.00  0.00     0.076 A 
ATOM     11  C   UNL     1      54.915   9.591  49.053  1.00  0.00     0.041 A 
ATOM     12  C   UNL     1      56.343   9.772  48.700  1.00  0.00     0.194 C 
ATOM     13  O   UNL     1      56.670  10.043  47.512  1.00  0.00    -0.289 OA
ATOM     14  C   UNL     1      53.932   9.578  48.048  1.00  0.00     0.059 A 
ATOM     15  C   UNL     1      52.589   9.389  48.371  1.00  0.00     0.120 A 
ATOM     16  C   UNL     1      52.217   9.186  49.703  1.00  0.00     0.093 A 
ATOM     17  C   UNL     1      53.178   9.174  50.719  1.00  0.00     0.131 A 
ENDROOT
BRANCH   6  18
ATOM     18  O   UNL     1      57.729   8.875  53.388  1.00  0.00    -0.507 OA
ATOM     19  H   UNL     1      57.191   8.067  53.667  1.00  0.00     0.293 HD
ENDBRANCH   6  18
BRANCH  17  20
ATOM     20  O   UNL     1      52.743   8.875  52.012  1.00  0.00    -0.507 OA
ATOM     21  H   UNL     1      53.301   9.035  52.840  1.00  0.00     0.293 HD
ENDBRANCH  17  20
BRANCH  15  22
ATOM     22  O   UNL     1      51.632   9.394  47.359  1.00  0.00    -0.508 OA
ATOM     23  H   UNL     1      51.808   9.838  46.465  1.00  0.00     0.293 HD
ENDBRANCH  15  22
TORSDOF 3
ENDMDL
MODEL 2
REMARK VINA RESULT:     0.187      1.976      5.111
REMARK INTER + INTRA:           0.204
REMARK INTER:                   0.204
REMARK INTRA:                   0.000
REMARK UNBOUND:                 0.000
REMARK SMILES Cc1cc(O)c2c(c1)C(=O)c1cc(O)cc(O)c1C2=O
REMARK SMILES IDX 1 1 2 2 8 3 7 4 6 5 4 6 3 7 19 8 20 9 18 10 11 11 9 12 10 13
REMARK SMILES IDX 12 14 13 15 15 16 16 17 5 18 17 20 14 22
REMARK H PARENT 5 19 17 21 14 23
REMARK Flexibility Score: inf
ROOT
ATOM      1  C   UNL     1      55.625   8.875  44.927  1.00  0.00     0.044 C 
ATOM      2  C   UNL     1      55.366   9.175  46.374  1.00  0.00    -0.047 A 
ATOM      3  C   UNL     1      56.420   9.549  47.215  1.00  0.00     0.016 A 
ATOM      4  C   UNL     1      56.184   9.859  48.565  1.00  0.00     0.038 A 
ATOM      5  C   UNL     1      54.870   9.795  49.081  1.00  0.00     0.076 A 
ATOM      6  C   UNL     1      53.795   9.499  48.204  1.00  0.00     0.127 A 
ATOM      7  C   UNL     1      54.058   9.173  46.870  1.00  0.00     0.050 A 
ATOM      8  C   UNL     1      54.679   9.985  50.543  1.00  0.00     0.201 C 
ATOM      9  O   UNL     1      53.727   9.406  51.131  1.00  0.00    -0.288 OA
ATOM     10  C   UNL     1      55.716  10.696  51.335  1.00  0.00     0.076 A 
ATOM     11  C   UNL     1      57.028  10.762  50.814  1.00  0.00     0.041 A 
ATOM     12  C   UNL     1      57.305  10.261  49.447  1.00  0.00     0.194 C 
ATOM     13  O   UNL     1      58.492  10.201  49.026  1.00  0.00    -0.289 OA
ATOM     14  C   UNL     1      58.063  11.305  51.594  1.00  0.00     0.059 A 
ATOM     15  C   UNL     1      57.805  11.795  52.874  1.00  0.00     0.120 A 
ATOM     16  C   UNL     1      56.502  11.770  53.377  1.00  0.00     0.093 A 
ATOM     17  C   UNL     1      55.450  11.254  52.614  1.00  0.00     0.131 A 
ENDROOT
BRANCH   6  18
ATOM     18  O   UNL     1      52.458   9.550  48.604  1.00  0.00    -0.507 OA
ATOM     19  H   UNL     1      52.023  10.376  48.991  1.00  0.00     0.293 HD
ENDBRANCH   6  18
BRANCH  17  20
ATOM     20  O   UNL     1      54.162  11.346  53.146  1.00  0.00    -0.507 OA
ATOM     21  H   UNL     1      53.723  12.221  53.399  1.00  0.00     0.293 HD
ENDBRANCH  17  20
BRANCH  15  22
ATOM     22  O   UNL     1      58.850  12.317  53.633  1.00  0.00    -0.508 OA
ATOM     23  H   UNL     1      59.250  11.801  54.409  1.00  0.00     0.293 HD
ENDBRANCH  15  22
TORSDOF 3
ENDMDL
