MODEL 1
REMARK VINA RESULT:    -2.832      0.000      0.000
REMARK INTER + INTRA:          -3.365
REMARK INTER:                  -3.329
REMARK INTRA:                  -0.036
REMARK UNBOUND:                -0.036
REMARK SMILES O=C([O-])CCC(=O)[O-]
REMARK SMILES IDX 4 1 2 2 1 3 3 4 5 5 6 6 7 7 8 8
REMARK H PARENT
REMARK Flexibility Score: inf
ROOT
ATOM      1  C   UNL     1      19.129  23.329  46.495  1.00  0.00     0.059 C 
ENDROOT
BRANCH   1   2
ATOM      2  C   UNL     1      17.842  23.776  45.874  1.00  0.00     0.042 C 
ATOM      3  O   UNL     1      16.875  24.124  46.602  1.00  0.00    -0.550 OA
ATOM      4  O   UNL     1      17.695  23.770  44.492  1.00  0.00    -0.550 OA
ENDBRANCH   1   2
BRANCH   1   5
ATOM      5  C   UNL     1      20.139  22.875  45.436  1.00  0.00     0.059 C 
BRANCH   5   6
ATOM      6  C   UNL     1      21.240  22.056  46.039  1.00  0.00     0.042 C 
ATOM      7  O   UNL     1      22.436  22.249  45.696  1.00  0.00    -0.550 OA
ATOM      8  O   UNL     1      20.948  21.108  47.011  1.00  0.00    -0.550 OA
ENDBRANCH   5   6
ENDBRANCH   1   5
TORSDOF 3
ENDMDL
MODEL 2
REMARK VINA RESULT:    -2.747      0.683      4.212
REMARK INTER + INTRA:          -3.265
REMARK INTER:                  -3.232
REMARK INTRA:                  -0.033
REMARK UNBOUND:                -0.036
REMARK SMILES O=C([O-])CCC(=O)[O-]
REMARK SMILES IDX 4 1 2 2 1 3 3 4 5 5 6 6 7 7 8 8
REMARK H PARENT
REMARK Flexibility Score: inf
ROOT
ATOM      1  C   UNL     1      19.663  22.679  46.575  1.00  0.00     0.059 C 
ENDROOT
BRANCH   1   2
ATOM      2  C   UNL     1      20.905  21.847  46.485  1.00  0.00     0.042 C 
ATOM      3  O   UNL     1      20.990  20.766  47.125  1.00  0.00    -0.550 OA
ATOM      4  O   UNL     1      21.984  22.286  45.728  1.00  0.00    -0.550 OA
ENDBRANCH   1   2
BRANCH   1   5
ATOM      5  C   UNL     1      19.356  23.382  45.248  1.00  0.00     0.059 C 
BRANCH   5   6
ATOM      6  C   UNL     1      17.912  23.770  45.151  1.00  0.00     0.042 C 
ATOM      7  O   UNL     1      17.209  23.865  46.191  1.00  0.00    -0.550 OA
ATOM      8  O   UNL     1      17.354  24.067  43.914  1.00  0.00    -0.550 OA
ENDBRANCH   5   6
ENDBRANCH   1   5
TORSDOF 3
ENDMDL
MODEL 3
REMARK VINA RESULT:    -2.123     21.002     22.300
REMARK INTER + INTRA:          -2.531
REMARK INTER:                  -2.408
REMARK INTRA:                  -0.123
REMARK UNBOUND:                -0.036
REMARK SMILES O=C([O-])CCC(=O)[O-]
REMARK SMILES IDX 4 1 2 2 1 3 3 4 5 5 6 6 7 7 8 8
REMARK H PARENT
REMARK Flexibility Score: inf
ROOT
ATOM      1  C   UNL     1      31.964  21.606  27.242  1.00  0.00     0.059 C 
ENDROOT
BRANCH   1   2
ATOM      2  C   UNL     1      30.559  21.806  27.721  1.00  0.00     0.042 C 
ATOM      3  O   UNL     1      29.634  21.064  27.297  1.00  0.00    -0.550 OA
ATOM      4  O   UNL     1      30.264  22.837  28.604  1.00  0.00    -0.550 OA
ENDBRANCH   1   2
BRANCH   1   5
ATOM      5  C   UNL     1      32.630  22.936  26.876  1.00  0.00     0.059 C 
BRANCH   5   6
ATOM      6  C   UNL     1      33.776  23.248  27.790  1.00  0.00     0.042 C 
ATOM      7  O   UNL     1      33.572  23.456  29.015  1.00  0.00    -0.550 OA
ATOM      8  O   UNL     1      35.074  23.269  27.295  1.00  0.00    -0.550 OA
ENDBRANCH   5   6
ENDBRANCH   1   5
TORSDOF 3
ENDMDL
MODEL 4
REMARK VINA RESULT:    -1.345     19.533     20.774
REMARK INTER + INTRA:          -1.617
REMARK INTER:                  -1.542
REMARK INTRA:                  -0.075
REMARK UNBOUND:                -0.036
REMARK SMILES O=C([O-])CCC(=O)[O-]
REMARK SMILES IDX 4 1 2 2 1 3 3 4 5 5 6 6 7 7 8 8
REMARK H PARENT
REMARK Flexibility Score: inf
ROOT
ATOM      1  C   UNL     1      29.916  22.840  28.738  1.00  0.00     0.059 C 
ENDROOT
BRANCH   1   2
ATOM      2  C   UNL     1      30.263  21.860  27.660  1.00  0.00     0.042 C 
ATOM      3  O   UNL     1      29.460  20.938  27.360  1.00  0.00    -0.550 OA
ATOM      4  O   UNL     1      31.491  21.940  27.015  1.00  0.00    -0.550 OA
ENDBRANCH   1   2
BRANCH   1   5
ATOM      5  C   UNL     1      30.905  24.010  28.779  1.00  0.00     0.059 C 
BRANCH   5   6
ATOM      6  C   UNL     1      31.666  24.044  30.070  1.00  0.00     0.042 C 
ATOM      7  O   UNL     1      31.052  24.123  31.166  1.00  0.00    -0.550 OA
ATOM      8  O   UNL     1      33.052  23.946  30.062  1.00  0.00    -0.550 OA
ENDBRANCH   5   6
ENDBRANCH   1   5
TORSDOF 3
ENDMDL
MODEL 5
REMARK VINA RESULT:    -0.973     18.909     20.356
REMARK INTER + INTRA:          -1.180
REMARK INTER:                  -1.146
REMARK INTRA:                  -0.034
REMARK UNBOUND:                -0.036
REMARK SMILES O=C([O-])CCC(=O)[O-]
REMARK SMILES IDX 4 1 2 2 1 3 3 4 5 5 6 6 7 7 8 8
REMARK H PARENT
REMARK Flexibility Score: inf
ROOT
ATOM      1  C   UNL     1      30.686  23.015  29.063  1.00  0.00     0.059 C 
ENDROOT
BRANCH   1   2
ATOM      2  C   UNL     1      31.568  22.578  27.934  1.00  0.00     0.042 C 
ATOM      3  O   UNL     1      32.550  23.285  27.587  1.00  0.00    -0.550 OA
ATOM      4  O   UNL     1      31.281  21.409  27.239  1.00  0.00    -0.550 OA
ENDBRANCH   1   2
BRANCH   1   5
ATOM      5  C   UNL     1      31.376  24.057  29.949  1.00  0.00     0.059 C 
BRANCH   5   6
ATOM      6  C   UNL     1      30.758  24.117  31.313  1.00  0.00     0.042 C 
ATOM      7  O   UNL     1      29.506  24.125  31.442  1.00  0.00    -0.550 OA
ATOM      8  O   UNL     1      31.566  24.123  32.442  1.00  0.00    -0.550 OA
ENDBRANCH   5   6
ENDBRANCH   1   5
TORSDOF 3
ENDMDL
