MODEL 1
REMARK VINA RESULT:    -4.881      0.000      0.000
REMARK INTER + INTRA:          -5.024
REMARK INTER:                  -5.024
REMARK INTRA:                   0.000
REMARK UNBOUND:                 0.000
REMARK SMILES Nc1ncnc2nc[nH]c12
REMARK SMILES IDX 8 1 7 2 6 3 5 4 4 5 3 6 2 7 10 8 9 9 1 11
REMARK H PARENT 9 10 1 12 1 13
REMARK Flexibility Score: inf
ROOT
ATOM      1  C   UNL     1       5.567  -5.468   5.622  1.00  0.00     0.199 A 
ATOM      2  N   UNL     1       5.725  -6.816   5.730  1.00  0.00    -0.217 NA
ATOM      3  C   UNL     1       4.684  -7.283   5.022  1.00  0.00     0.182 A 
ATOM      4  N   UNL     1       4.370  -8.584   4.808  1.00  0.00    -0.215 NA
ATOM      5  C   UNL     1       3.264  -8.866   4.057  1.00  0.00     0.226 A 
ATOM      6  N   UNL     1       2.499  -7.852   3.536  1.00  0.00    -0.217 NA
ATOM      7  C   UNL     1       2.814  -6.540   3.750  1.00  0.00     0.152 A 
ATOM      8  C   UNL     1       3.943  -6.269   4.518  1.00  0.00     0.127 A 
ATOM      9  N   UNL     1       4.486  -5.103   4.887  1.00  0.00    -0.340 N 
ATOM     10  H   UNL     1       4.164  -4.135   4.668  1.00  0.00     0.168 HD
ENDROOT
BRANCH   7  11
ATOM     11  N   UNL     1       2.003  -5.502   3.198  1.00  0.00    -0.382 N 
ATOM     12  H   UNL     1       1.951  -5.343   2.168  1.00  0.00     0.158 HD
ATOM     13  H   UNL     1       1.446  -4.884   3.829  1.00  0.00     0.158 HD
ENDBRANCH   7  11
TORSDOF 1
ENDMDL
MODEL 2
REMARK VINA RESULT:    -4.859     12.156     13.534
REMARK INTER + INTRA:          -5.001
REMARK INTER:                  -5.001
REMARK INTRA:                   0.000
REMARK UNBOUND:                 0.000
REMARK SMILES Nc1ncnc2nc[nH]c12
REMARK SMILES IDX 8 1 7 2 6 3 5 4 4 5 3 6 2 7 10 8 9 9 1 11
REMARK H PARENT 9 10 1 12 1 13
REMARK Flexibility Score: inf
ROOT
ATOM      1  C   UNL     1      13.013  -0.104   1.398  1.00  0.00     0.199 A 
ATOM      2  N   UNL     1      13.612  -0.601   0.281  1.00  0.00    -0.217 NA
ATOM      3  C   UNL     1      13.552   0.442  -0.563  1.00  0.00     0.182 A 
ATOM      4  N   UNL     1      14.016   0.479  -1.835  1.00  0.00    -0.215 NA
ATOM      5  C   UNL     1      13.863   1.638  -2.544  1.00  0.00     0.226 A 
ATOM      6  N   UNL     1      13.255   2.728  -1.974  1.00  0.00    -0.217 NA
ATOM      7  C   UNL     1      12.787   2.692  -0.691  1.00  0.00     0.152 A 
ATOM      8  C   UNL     1      12.950   1.505   0.018  1.00  0.00     0.127 A 
ATOM      9  N   UNL     1      12.598   1.181   1.268  1.00  0.00    -0.340 N 
ATOM     10  H   UNL     1      12.117   1.770   1.984  1.00  0.00     0.168 HD
ENDROOT
BRANCH   7  11
ATOM     11  N   UNL     1      12.158   3.839  -0.118  1.00  0.00    -0.382 N 
ATOM     12  H   UNL     1      12.697   4.527   0.452  1.00  0.00     0.158 HD
ATOM     13  H   UNL     1      11.137   4.004  -0.267  1.00  0.00     0.158 HD
ENDBRANCH   7  11
TORSDOF 1
ENDMDL
MODEL 3
REMARK VINA RESULT:    -4.801     10.658     12.145
REMARK INTER + INTRA:          -4.941
REMARK INTER:                  -4.941
REMARK INTRA:                   0.000
REMARK UNBOUND:                 0.000
REMARK SMILES Nc1ncnc2nc[nH]c12
REMARK SMILES IDX 8 1 7 2 6 3 5 4 4 5 3 6 2 7 10 8 9 9 1 11
REMARK H PARENT 9 10 1 12 1 13
REMARK Flexibility Score: inf
ROOT
ATOM      1  C   UNL     1       3.056   2.627   3.981  1.00  0.00     0.199 A 
ATOM      2  N   UNL     1       2.741   2.750   2.662  1.00  0.00    -0.217 NA
ATOM      3  C   UNL     1       2.980   4.052   2.433  1.00  0.00     0.182 A 
ATOM      4  N   UNL     1       2.825   4.707   1.257  1.00  0.00    -0.215 NA
ATOM      5  C   UNL     1       3.120   6.041   1.217  1.00  0.00     0.226 A 
ATOM      6  N   UNL     1       3.561   6.690   2.343  1.00  0.00    -0.217 NA
ATOM      7  C   UNL     1       3.719   6.031   3.529  1.00  0.00     0.152 A 
ATOM      8  C   UNL     1       3.413   4.673   3.554  1.00  0.00     0.127 A 
ATOM      9  N   UNL     1       3.470   3.785   4.554  1.00  0.00    -0.340 N 
ATOM     10  H   UNL     1       3.762   3.936   5.544  1.00  0.00     0.168 HD
ENDROOT
BRANCH   7  11
ATOM     11  N   UNL     1       4.180   6.728   4.687  1.00  0.00    -0.382 N 
ATOM     12  H   UNL     1       5.033   7.329   4.657  1.00  0.00     0.158 HD
ATOM     13  H   UNL     1       3.661   6.642   5.590  1.00  0.00     0.158 HD
ENDBRANCH   7  11
TORSDOF 1
ENDMDL
MODEL 4
REMARK VINA RESULT:    -4.800     10.282     11.197
REMARK INTER + INTRA:          -4.940
REMARK INTER:                  -4.940
REMARK INTRA:                   0.000
REMARK UNBOUND:                 0.000
REMARK SMILES Nc1ncnc2nc[nH]c12
REMARK SMILES IDX 8 1 7 2 6 3 5 4 4 5 3 6 2 7 10 8 9 9 1 11
REMARK H PARENT 9 10 1 12 1 13
REMARK Flexibility Score: inf
ROOT
ATOM      1  C   UNL     1      12.194  -0.536   0.476  1.00  0.00     0.199 A 
ATOM      2  N   UNL     1      13.483  -0.840   0.162  1.00  0.00    -0.217 NA
ATOM      3  C   UNL     1      13.341  -1.949  -0.583  1.00  0.00     0.182 A 
ATOM      4  N   UNL     1      14.334  -2.670  -1.158  1.00  0.00    -0.215 NA
ATOM      5  C   UNL     1      13.991  -3.776  -1.883  1.00  0.00     0.226 A 
ATOM      6  N   UNL     1      12.674  -4.138  -2.021  1.00  0.00    -0.217 NA
ATOM      7  C   UNL     1      11.672  -3.412  -1.443  1.00  0.00     0.152 A 
ATOM      8  C   UNL     1      12.037  -2.289  -0.706  1.00  0.00     0.127 A 
ATOM      9  N   UNL     1      11.287  -1.402  -0.040  1.00  0.00    -0.340 N 
ATOM     10  H   UNL     1      10.249  -1.374   0.066  1.00  0.00     0.168 HD
ENDROOT
BRANCH   7  11
ATOM     11  N   UNL     1      10.309  -3.808  -1.600  1.00  0.00    -0.382 N 
ATOM     12  H   UNL     1       9.943  -4.682  -1.162  1.00  0.00     0.158 HD
ATOM     13  H   UNL     1       9.655  -3.219  -2.162  1.00  0.00     0.158 HD
ENDBRANCH   7  11
TORSDOF 1
ENDMDL
MODEL 5
REMARK VINA RESULT:    -4.718      2.034      2.856
REMARK INTER + INTRA:          -4.856
REMARK INTER:                  -4.856
REMARK INTRA:                   0.000
REMARK UNBOUND:                 0.000
REMARK SMILES Nc1ncnc2nc[nH]c12
REMARK SMILES IDX 8 1 7 2 6 3 5 4 4 5 3 6 2 7 10 8 9 9 1 11
REMARK H PARENT 9 10 1 12 1 13
REMARK Flexibility Score: inf
ROOT
ATOM      1  C   UNL     1       3.131  -7.570   7.713  1.00  0.00     0.199 A 
ATOM      2  N   UNL     1       4.023  -6.894   6.938  1.00  0.00    -0.217 NA
ATOM      3  C   UNL     1       3.760  -7.379   5.713  1.00  0.00     0.182 A 
ATOM      4  N   UNL     1       4.377  -7.032   4.557  1.00  0.00    -0.215 NA
ATOM      5  C   UNL     1       3.970  -7.639   3.402  1.00  0.00     0.226 A 
ATOM      6  N   UNL     1       2.962  -8.571   3.422  1.00  0.00    -0.217 NA
ATOM      7  C   UNL     1       2.339  -8.920   4.586  1.00  0.00     0.152 A 
ATOM      8  C   UNL     1       2.765  -8.295   5.754  1.00  0.00     0.127 A 
ATOM      9  N   UNL     1       2.348  -8.433   7.019  1.00  0.00    -0.340 N 
ATOM     10  H   UNL     1       1.599  -9.055   7.394  1.00  0.00     0.168 HD
ENDROOT
BRANCH   7  11
ATOM     11  N   UNL     1       1.293  -9.893   4.582  1.00  0.00    -0.382 N 
ATOM     12  H   UNL     1       0.857 -10.225   5.470  1.00  0.00     0.158 HD
ATOM     13  H   UNL     1       0.949 -10.287   3.678  1.00  0.00     0.158 HD
ENDBRANCH   7  11
TORSDOF 1
ENDMDL
MODEL 6
REMARK VINA RESULT:    -4.703     11.350     13.128
REMARK INTER + INTRA:          -4.840
REMARK INTER:                  -4.840
REMARK INTRA:                   0.000
REMARK UNBOUND:                 0.000
REMARK SMILES Nc1ncnc2nc[nH]c12
REMARK SMILES IDX 8 1 7 2 6 3 5 4 4 5 3 6 2 7 10 8 9 9 1 11
REMARK H PARENT 9 10 1 12 1 13
REMARK Flexibility Score: inf
ROOT
ATOM      1  C   UNL     1      12.675  -1.614   1.042  1.00  0.00     0.199 A 
ATOM      2  N   UNL     1      13.521  -1.032   0.149  1.00  0.00    -0.217 NA
ATOM      3  C   UNL     1      14.651  -0.909   0.865  1.00  0.00     0.182 A 
ATOM      4  N   UNL     1      15.824  -0.382   0.439  1.00  0.00    -0.215 NA
ATOM      5  C   UNL     1      16.870  -0.343   1.318  1.00  0.00     0.226 A 
ATOM      6  N   UNL     1      16.727  -0.828   2.594  1.00  0.00    -0.217 NA
ATOM      7  C   UNL     1      15.544  -1.361   3.024  1.00  0.00     0.152 A 
ATOM      8  C   UNL     1      14.488  -1.392   2.118  1.00  0.00     0.127 A 
ATOM      9  N   UNL     1      13.237  -1.847   2.254  1.00  0.00    -0.340 N 
ATOM     10  H   UNL     1      12.787  -2.280   3.091  1.00  0.00     0.168 HD
ENDROOT
BRANCH   7  11
ATOM     11  N   UNL     1      15.418  -1.859   4.357  1.00  0.00    -0.382 N 
ATOM     12  H   UNL     1      16.081  -1.570   5.110  1.00  0.00     0.158 HD
ATOM     13  H   UNL     1      14.651  -2.525   4.595  1.00  0.00     0.158 HD
ENDBRANCH   7  11
TORSDOF 1
ENDMDL
MODEL 7
REMARK VINA RESULT:    -4.677      2.133      2.670
REMARK INTER + INTRA:          -4.814
REMARK INTER:                  -4.814
REMARK INTRA:                   0.000
REMARK UNBOUND:                 0.000
REMARK SMILES Nc1ncnc2nc[nH]c12
REMARK SMILES IDX 8 1 7 2 6 3 5 4 4 5 3 6 2 7 10 8 9 9 1 11
REMARK H PARENT 9 10 1 12 1 13
REMARK Flexibility Score: inf
ROOT
ATOM      1  C   UNL     1       5.437  -8.480   5.042  1.00  0.00     0.199 A 
ATOM      2  N   UNL     1       5.014  -7.957   6.226  1.00  0.00    -0.217 NA
ATOM      3  C   UNL     1       3.690  -7.846   6.031  1.00  0.00     0.182 A 
ATOM      4  N   UNL     1       2.780  -7.373   6.917  1.00  0.00    -0.215 NA
ATOM      5  C   UNL     1       1.468  -7.336   6.536  1.00  0.00     0.226 A 
ATOM      6  N   UNL     1       1.092  -7.771   5.289  1.00  0.00    -0.217 NA
ATOM      7  C   UNL     1       2.008  -8.250   4.396  1.00  0.00     0.152 A 
ATOM      8  C   UNL     1       3.340  -8.279   4.798  1.00  0.00     0.127 A 
ATOM      9  N   UNL     1       4.438  -8.688   4.149  1.00  0.00    -0.340 N 
ATOM     10  H   UNL     1       4.518  -9.077   3.184  1.00  0.00     0.168 HD
ENDROOT
BRANCH   7  11
ATOM     11  N   UNL     1       1.594  -8.696   3.105  1.00  0.00    -0.382 N 
ATOM     12  H   UNL     1       1.482  -9.712   2.891  1.00  0.00     0.158 HD
ATOM     13  H   UNL     1       1.395  -8.002   2.350  1.00  0.00     0.158 HD
ENDBRANCH   7  11
TORSDOF 1
ENDMDL
MODEL 8
REMARK VINA RESULT:    -4.654     10.670     11.727
REMARK INTER + INTRA:          -4.790
REMARK INTER:                  -4.790
REMARK INTRA:                   0.000
REMARK UNBOUND:                 0.000
REMARK SMILES Nc1ncnc2nc[nH]c12
REMARK SMILES IDX 8 1 7 2 6 3 5 4 4 5 3 6 2 7 10 8 9 9 1 11
REMARK H PARENT 9 10 1 12 1 13
REMARK Flexibility Score: inf
ROOT
ATOM      1  C   UNL     1      10.991  -4.417  -1.130  1.00  0.00     0.199 A 
ATOM      2  N   UNL     1      12.175  -4.934  -1.556  1.00  0.00    -0.217 NA
ATOM      3  C   UNL     1      12.964  -3.848  -1.593  1.00  0.00     0.182 A 
ATOM      4  N   UNL     1      14.269  -3.808  -1.957  1.00  0.00    -0.215 NA
ATOM      5  C   UNL     1      14.909  -2.601  -1.932  1.00  0.00     0.226 A 
ATOM      6  N   UNL     1      14.241  -1.466  -1.546  1.00  0.00    -0.217 NA
ATOM      7  C   UNL     1      12.926  -1.504  -1.178  1.00  0.00     0.152 A 
ATOM      8  C   UNL     1      12.287  -2.741  -1.210  1.00  0.00     0.127 A 
ATOM      9  N   UNL     1      11.027  -3.079  -0.909  1.00  0.00    -0.340 N 
ATOM     10  H   UNL     1      10.248  -2.467  -0.582  1.00  0.00     0.168 HD
ENDROOT
BRANCH   7  11
ATOM     11  N   UNL     1      12.251  -0.310  -0.780  1.00  0.00    -0.382 N 
ATOM     12  H   UNL     1      11.948   0.402  -1.480  1.00  0.00     0.158 HD
ATOM     13  H   UNL     1      12.051  -0.134   0.230  1.00  0.00     0.158 HD
ENDBRANCH   7  11
TORSDOF 1
ENDMDL
MODEL 9
REMARK VINA RESULT:    -4.364     10.808     12.507
REMARK INTER + INTRA:          -4.491
REMARK INTER:                  -4.491
REMARK INTRA:                   0.000
REMARK UNBOUND:                 0.000
REMARK SMILES Nc1ncnc2nc[nH]c12
REMARK SMILES IDX 8 1 7 2 6 3 5 4 4 5 3 6 2 7 10 8 9 9 1 11
REMARK H PARENT 9 10 1 12 1 13
REMARK Flexibility Score: inf
ROOT
ATOM      1  C   UNL     1       9.120   1.330   9.531  1.00  0.00     0.199 A 
ATOM      2  N   UNL     1       9.946   2.254  10.093  1.00  0.00    -0.217 NA
ATOM      3  C   UNL     1      10.455   1.582  11.140  1.00  0.00     0.182 A 
ATOM      4  N   UNL     1      11.347   2.052  12.045  1.00  0.00    -0.215 NA
ATOM      5  C   UNL     1      11.750   1.214  13.047  1.00  0.00     0.226 A 
ATOM      6  N   UNL     1      11.261  -0.066  13.125  1.00  0.00    -0.217 NA
ATOM      7  C   UNL     1      10.362  -0.541  12.212  1.00  0.00     0.152 A 
ATOM      8  C   UNL     1       9.960   0.325  11.198  1.00  0.00     0.127 A 
ATOM      9  N   UNL     1       9.107   0.140  10.183  1.00  0.00    -0.340 N 
ATOM     10  H   UNL     1       8.556  -0.712   9.940  1.00  0.00     0.168 HD
ENDROOT
BRANCH   7  11
ATOM     11  N   UNL     1       9.866  -1.876  12.314  1.00  0.00    -0.382 N 
ATOM     12  H   UNL     1       9.344  -2.323  11.528  1.00  0.00     0.158 HD
ATOM     13  H   UNL     1      10.023  -2.427  13.187  1.00  0.00     0.158 HD
ENDBRANCH   7  11
TORSDOF 1
ENDMDL
