MODEL 1
REMARK VINA RESULT:    -3.661      0.000      0.000
REMARK INTER + INTRA:          -8.681
REMARK INTER:                  -6.657
REMARK INTRA:                  -2.024
REMARK UNBOUND:                -2.024
REMARK SMILES CCCCCCCCCCCCCC[C@@H](C)C(=O)[O-]
REMARK SMILES IDX 9 1 10 2 11 3 12 4 13 5 14 6 15 7 16 8 17 9 18 10 19 11 8 12
REMARK SMILES IDX 7 13 6 14 5 15 4 16 3 17 2 18 1 19
REMARK H PARENT
REMARK Flexibility Score: inf
ROOT
ATOM      1  C   UNL     1     -15.697 -15.944   3.833  1.00  0.00     0.000 C 
ENDROOT
BRANCH   1   2
ATOM      2  C   UNL     1     -14.984 -15.902   5.192  1.00  0.00     0.000 C 
BRANCH   2   3
ATOM      3  C   UNL     1     -15.810 -16.551   6.313  1.00  0.00     0.000 C 
BRANCH   3   4
ATOM      4  C   UNL     1     -15.124 -17.790   6.911  1.00  0.00     0.000 C 
BRANCH   4   5
ATOM      5  C   UNL     1     -14.731 -18.828   5.844  1.00  0.00     0.001 C 
BRANCH   5   6
ATOM      6  C   UNL     1     -13.247 -19.251   5.857  1.00  0.00     0.009 C 
BRANCH   6   7
ATOM      7  C   UNL     1     -12.384 -18.651   4.722  1.00  0.00     0.032 C 
ATOM      8  C   UNL     1     -10.916 -18.479   5.134  1.00  0.00     0.014 C 
BRANCH   7   9
ATOM      9  C   UNL     1     -12.470 -19.536   3.509  1.00  0.00     0.044 C 
ATOM     10  O   UNL     1     -12.865 -20.726   3.619  1.00  0.00    -0.550 OA
ATOM     11  O   UNL     1     -12.098 -19.052   2.259  1.00  0.00    -0.550 OA
ENDBRANCH   7   9
ENDBRANCH   6   7
ENDBRANCH   5   6
ENDBRANCH   4   5
ENDBRANCH   3   4
ENDBRANCH   2   3
ENDBRANCH   1   2
BRANCH   1  12
ATOM     12  C   UNL     1     -14.772 -16.502   2.744  1.00  0.00     0.000 C 
BRANCH  12  13
ATOM     13  C   UNL     1     -13.455 -15.715   2.684  1.00  0.00    -0.000 C 
BRANCH  13  14
ATOM     14  C   UNL     1     -13.317 -14.869   1.405  1.00  0.00    -0.000 C 
BRANCH  14  15
ATOM     15  C   UNL     1     -12.530 -13.556   1.575  1.00  0.00    -0.000 C 
BRANCH  15  16
ATOM     16  C   UNL     1     -13.422 -12.309   1.515  1.00  0.00    -0.000 C 
BRANCH  16  17
ATOM     17  C   UNL     1     -13.841 -11.866   2.924  1.00  0.00    -0.000 C 
BRANCH  17  18
ATOM     18  C   UNL     1     -12.763 -12.158   3.980  1.00  0.00    -0.003 C 
ATOM     19  C   UNL     1     -13.351 -12.464   5.357  1.00  0.00     0.004 C 
ENDBRANCH  17  18
ENDBRANCH  16  17
ENDBRANCH  15  16
ENDBRANCH  14  15
ENDBRANCH  13  14
ENDBRANCH  12  13
ENDBRANCH   1  12
TORSDOF 14
ENDMDL
MODEL 2
REMARK VINA RESULT:    -3.540      3.549      7.035
REMARK INTER + INTRA:          -8.461
REMARK INTER:                  -6.436
REMARK INTRA:                  -2.025
REMARK UNBOUND:                -2.024
REMARK SMILES CCCCCCCCCCCCCC[C@@H](C)C(=O)[O-]
REMARK SMILES IDX 9 1 10 2 11 3 12 4 13 5 14 6 15 7 16 8 17 9 18 10 19 11 8 12
REMARK SMILES IDX 7 13 6 14 5 15 4 16 3 17 2 18 1 19
REMARK H PARENT
REMARK Flexibility Score: inf
ROOT
ATOM      1  C   UNL     1     -13.905 -15.605   4.277  1.00  0.00     0.000 C 
ENDROOT
BRANCH   1   2
ATOM      2  C   UNL     1     -14.457 -15.957   2.889  1.00  0.00     0.000 C 
BRANCH   2   3
ATOM      3  C   UNL     1     -14.423 -14.765   1.920  1.00  0.00     0.000 C 
BRANCH   3   4
ATOM      4  C   UNL     1     -13.057 -14.057   1.903  1.00  0.00     0.000 C 
BRANCH   4   5
ATOM      5  C   UNL     1     -13.158 -12.559   2.242  1.00  0.00     0.001 C 
BRANCH   5   6
ATOM      6  C   UNL     1     -14.437 -12.142   2.999  1.00  0.00     0.009 C 
BRANCH   6   7
ATOM      7  C   UNL     1     -14.217 -11.708   4.467  1.00  0.00     0.032 C 
ATOM      8  C   UNL     1     -12.839 -12.121   4.997  1.00  0.00     0.014 C 
BRANCH   7   9
ATOM      9  C   UNL     1     -14.376 -10.216   4.576  1.00  0.00     0.044 C 
ATOM     10  O   UNL     1     -13.430  -9.453   4.249  1.00  0.00    -0.550 OA
ATOM     11  O   UNL     1     -15.563  -9.669   5.053  1.00  0.00    -0.550 OA
ENDBRANCH   7   9
ENDBRANCH   6   7
ENDBRANCH   5   6
ENDBRANCH   4   5
ENDBRANCH   3   4
ENDBRANCH   2   3
ENDBRANCH   1   2
BRANCH   1  12
ATOM     12  C   UNL     1     -15.033 -15.515   5.312  1.00  0.00     0.000 C 
BRANCH  12  13
ATOM     13  C   UNL     1     -15.760 -16.860   5.452  1.00  0.00    -0.000 C 
BRANCH  13  14
ATOM     14  C   UNL     1     -15.339 -17.644   6.707  1.00  0.00    -0.000 C 
BRANCH  14  15
ATOM     15  C   UNL     1     -14.171 -18.627   6.499  1.00  0.00    -0.000 C 
BRANCH  15  16
ATOM     16  C   UNL     1     -14.147 -19.241   5.092  1.00  0.00    -0.000 C 
BRANCH  16  17
ATOM     17  C   UNL     1     -12.717 -19.626   4.687  1.00  0.00    -0.000 C 
BRANCH  17  18
ATOM     18  C   UNL     1     -11.799 -18.404   4.523  1.00  0.00    -0.003 C 
ATOM     19  C   UNL     1     -10.504 -18.525   5.326  1.00  0.00     0.004 C 
ENDBRANCH  17  18
ENDBRANCH  16  17
ENDBRANCH  15  16
ENDBRANCH  14  15
ENDBRANCH  13  14
ENDBRANCH  12  13
ENDBRANCH   1  12
TORSDOF 14
ENDMDL
MODEL 3
REMARK VINA RESULT:    -3.434      3.181      6.366
REMARK INTER + INTRA:          -8.269
REMARK INTER:                  -5.733
REMARK INTRA:                  -2.536
REMARK UNBOUND:                -2.024
REMARK SMILES CCCCCCCCCCCCCC[C@@H](C)C(=O)[O-]
REMARK SMILES IDX 9 1 10 2 11 3 12 4 13 5 14 6 15 7 16 8 17 9 18 10 19 11 8 12
REMARK SMILES IDX 7 13 6 14 5 15 4 16 3 17 2 18 1 19
REMARK H PARENT
REMARK Flexibility Score: inf
ROOT
ATOM      1  C   UNL     1     -13.490 -19.305   5.957  1.00  0.00     0.000 C 
ENDROOT
BRANCH   1   2
ATOM      2  C   UNL     1     -14.615 -18.366   6.412  1.00  0.00     0.000 C 
BRANCH   2   3
ATOM      3  C   UNL     1     -15.742 -18.248   5.374  1.00  0.00     0.000 C 
BRANCH   3   4
ATOM      4  C   UNL     1     -15.848 -16.835   4.776  1.00  0.00     0.000 C 
BRANCH   4   5
ATOM      5  C   UNL     1     -14.947 -15.814   5.494  1.00  0.00     0.001 C 
BRANCH   5   6
ATOM      6  C   UNL     1     -14.220 -14.816   4.568  1.00  0.00     0.009 C 
BRANCH   6   7
ATOM      7  C   UNL     1     -14.546 -13.326   4.824  1.00  0.00     0.032 C 
ATOM      8  C   UNL     1     -15.569 -13.138   5.952  1.00  0.00     0.014 C 
BRANCH   7   9
ATOM      9  C   UNL     1     -13.279 -12.588   5.160  1.00  0.00     0.044 C 
ATOM     10  O   UNL     1     -12.742 -11.831   4.309  1.00  0.00    -0.550 OA
ATOM     11  O   UNL     1     -12.682 -12.747   6.406  1.00  0.00    -0.550 OA
ENDBRANCH   7   9
ENDBRANCH   6   7
ENDBRANCH   5   6
ENDBRANCH   4   5
ENDBRANCH   3   4
ENDBRANCH   2   3
ENDBRANCH   1   2
BRANCH   1  12
ATOM     12  C   UNL     1     -12.305 -18.511   5.392  1.00  0.00     0.000 C 
BRANCH  12  13
ATOM     13  C   UNL     1     -12.040 -18.885   3.927  1.00  0.00    -0.000 C 
BRANCH  13  14
ATOM     14  C   UNL     1     -12.882 -18.064   2.934  1.00  0.00    -0.000 C 
BRANCH  14  15
ATOM     15  C   UNL     1     -13.946 -18.868   2.162  1.00  0.00    -0.000 C 
BRANCH  15  16
ATOM     16  C   UNL     1     -13.747 -20.386   2.273  1.00  0.00    -0.000 C 
BRANCH  16  17
ATOM     17  C   UNL     1     -14.996 -21.061   2.858  1.00  0.00    -0.000 C 
BRANCH  17  18
ATOM     18  C   UNL     1     -14.677 -21.933   4.082  1.00  0.00    -0.003 C 
ATOM     19  C   UNL     1     -13.266 -22.518   4.040  1.00  0.00     0.004 C 
ENDBRANCH  17  18
ENDBRANCH  16  17
ENDBRANCH  15  16
ENDBRANCH  14  15
ENDBRANCH  13  14
ENDBRANCH  12  13
ENDBRANCH   1  12
TORSDOF 14
ENDMDL
MODEL 4
REMARK VINA RESULT:    -3.357      3.917      7.387
REMARK INTER + INTRA:          -8.128
REMARK INTER:                  -6.307
REMARK INTRA:                  -1.821
REMARK UNBOUND:                -2.024
REMARK SMILES CCCCCCCCCCCCCC[C@@H](C)C(=O)[O-]
REMARK SMILES IDX 9 1 10 2 11 3 12 4 13 5 14 6 15 7 16 8 17 9 18 10 19 11 8 12
REMARK SMILES IDX 7 13 6 14 5 15 4 16 3 17 2 18 1 19
REMARK H PARENT
REMARK Flexibility Score: inf
ROOT
ATOM      1  C   UNL     1     -14.631 -15.061   5.005  1.00  0.00     0.000 C 
ENDROOT
BRANCH   1   2
ATOM      2  C   UNL     1     -14.698 -13.534   5.139  1.00  0.00     0.000 C 
BRANCH   2   3
ATOM      3  C   UNL     1     -13.387 -12.929   5.665  1.00  0.00     0.000 C 
BRANCH   3   4
ATOM      4  C   UNL     1     -12.741 -11.957   4.663  1.00  0.00     0.000 C 
BRANCH   4   5
ATOM      5  C   UNL     1     -13.435 -11.968   3.289  1.00  0.00     0.001 C 
BRANCH   5   6
ATOM      6  C   UNL     1     -14.162 -10.660   2.912  1.00  0.00     0.009 C 
BRANCH   6   7
ATOM      7  C   UNL     1     -13.788  -9.430   3.771  1.00  0.00     0.032 C 
ATOM      8  C   UNL     1     -13.470  -8.196   2.916  1.00  0.00     0.014 C 
BRANCH   7   9
ATOM      9  C   UNL     1     -14.917  -9.116   4.714  1.00  0.00     0.044 C 
ATOM     10  O   UNL     1     -15.691 -10.031   5.102  1.00  0.00    -0.550 OA
ATOM     11  O   UNL     1     -15.125  -7.813   5.153  1.00  0.00    -0.550 OA
ENDBRANCH   7   9
ENDBRANCH   6   7
ENDBRANCH   5   6
ENDBRANCH   4   5
ENDBRANCH   3   4
ENDBRANCH   2   3
ENDBRANCH   1   2
BRANCH   1  12
ATOM     12  C   UNL     1     -14.814 -15.494   3.545  1.00  0.00     0.000 C 
BRANCH  12  13
ATOM     13  C   UNL     1     -13.512 -16.077   2.976  1.00  0.00    -0.000 C 
BRANCH  13  14
ATOM     14  C   UNL     1     -13.675 -17.514   2.451  1.00  0.00    -0.000 C 
BRANCH  14  15
ATOM     15  C   UNL     1     -12.845 -18.577   3.195  1.00  0.00    -0.000 C 
BRANCH  15  16
ATOM     16  C   UNL     1     -12.484 -18.161   4.628  1.00  0.00    -0.000 C 
BRANCH  16  17
ATOM     17  C   UNL     1     -13.094 -19.130   5.651  1.00  0.00    -0.000 C 
BRANCH  17  18
ATOM     18  C   UNL     1     -14.267 -18.509   6.426  1.00  0.00    -0.003 C 
ATOM     19  C   UNL     1     -15.599 -18.641   5.688  1.00  0.00     0.004 C 
ENDBRANCH  17  18
ENDBRANCH  16  17
ENDBRANCH  15  16
ENDBRANCH  14  15
ENDBRANCH  13  14
ENDBRANCH  12  13
ENDBRANCH   1  12
TORSDOF 14
ENDMDL
MODEL 5
REMARK VINA RESULT:    -3.349      1.484      3.180
REMARK INTER + INTRA:          -8.114
REMARK INTER:                  -6.058
REMARK INTRA:                  -2.056
REMARK UNBOUND:                -2.024
REMARK SMILES CCCCCCCCCCCCCC[C@@H](C)C(=O)[O-]
REMARK SMILES IDX 9 1 10 2 11 3 12 4 13 5 14 6 15 7 16 8 17 9 18 10 19 11 8 12
REMARK SMILES IDX 7 13 6 14 5 15 4 16 3 17 2 18 1 19
REMARK H PARENT
REMARK Flexibility Score: inf
ROOT
ATOM      1  C   UNL     1     -14.861 -12.614   5.731  1.00  0.00     0.000 C 
ENDROOT
BRANCH   1   2
ATOM      2  C   UNL     1     -15.441 -13.806   4.956  1.00  0.00     0.000 C 
BRANCH   2   3
ATOM      3  C   UNL     1     -14.585 -15.074   5.095  1.00  0.00     0.000 C 
BRANCH   3   4
ATOM      4  C   UNL     1     -15.396 -16.282   5.595  1.00  0.00     0.000 C 
BRANCH   4   5
ATOM      5  C   UNL     1     -15.254 -17.514   4.684  1.00  0.00     0.001 C 
BRANCH   5   6
ATOM      6  C   UNL     1     -13.819 -17.809   4.199  1.00  0.00     0.009 C 
BRANCH   6   7
ATOM      7  C   UNL     1     -12.909 -18.512   5.233  1.00  0.00     0.032 C 
ATOM      8  C   UNL     1     -13.487 -19.853   5.702  1.00  0.00     0.014 C 
BRANCH   7   9
ATOM      9  C   UNL     1     -11.546 -18.729   4.634  1.00  0.00     0.044 C 
ATOM     10  O   UNL     1     -11.432 -19.246   3.492  1.00  0.00    -0.550 OA
ATOM     11  O   UNL     1     -10.402 -18.376   5.342  1.00  0.00    -0.550 OA
ENDBRANCH   7   9
ENDBRANCH   6   7
ENDBRANCH   5   6
ENDBRANCH   4   5
ENDBRANCH   3   4
ENDBRANCH   2   3
ENDBRANCH   1   2
BRANCH   1  12
ATOM     12  C   UNL     1     -13.378 -12.412   5.400  1.00  0.00     0.000 C 
BRANCH  12  13
ATOM     13  C   UNL     1     -13.181 -11.212   4.463  1.00  0.00    -0.000 C 
BRANCH  13  14
ATOM     14  C   UNL     1     -13.329 -11.579   2.976  1.00  0.00    -0.000 C 
BRANCH  14  15
ATOM     15  C   UNL     1     -12.467 -12.769   2.511  1.00  0.00    -0.000 C 
BRANCH  15  16
ATOM     16  C   UNL     1     -13.063 -13.505   1.303  1.00  0.00    -0.000 C 
BRANCH  16  17
ATOM     17  C   UNL     1     -13.096 -15.021   1.548  1.00  0.00    -0.000 C 
BRANCH  17  18
ATOM     18  C   UNL     1     -14.518 -15.599   1.480  1.00  0.00    -0.003 C 
ATOM     19  C   UNL     1     -15.585 -14.523   1.281  1.00  0.00     0.004 C 
ENDBRANCH  17  18
ENDBRANCH  16  17
ENDBRANCH  15  16
ENDBRANCH  14  15
ENDBRANCH  13  14
ENDBRANCH  12  13
ENDBRANCH   1  12
TORSDOF 14
ENDMDL
MODEL 6
REMARK VINA RESULT:    -3.323      2.004      4.000
REMARK INTER + INTRA:          -8.066
REMARK INTER:                  -6.111
REMARK INTRA:                  -1.956
REMARK UNBOUND:                -2.024
REMARK SMILES CCCCCCCCCCCCCC[C@@H](C)C(=O)[O-]
REMARK SMILES IDX 9 1 10 2 11 3 12 4 13 5 14 6 15 7 16 8 17 9 18 10 19 11 8 12
REMARK SMILES IDX 7 13 6 14 5 15 4 16 3 17 2 18 1 19
REMARK H PARENT
REMARK Flexibility Score: inf
ROOT
ATOM      1  C   UNL     1     -13.533 -19.132   6.100  1.00  0.00     0.000 C 
ENDROOT
BRANCH   1   2
ATOM      2  C   UNL     1     -12.270 -18.781   5.302  1.00  0.00     0.000 C 
BRANCH   2   3
ATOM      3  C   UNL     1     -12.588 -18.228   3.905  1.00  0.00     0.000 C 
BRANCH   3   4
ATOM      4  C   UNL     1     -12.408 -19.280   2.797  1.00  0.00     0.000 C 
BRANCH   4   5
ATOM      5  C   UNL     1     -13.748 -19.802   2.247  1.00  0.00     0.001 C 
BRANCH   5   6
ATOM      6  C   UNL     1     -14.174 -21.190   2.769  1.00  0.00     0.009 C 
BRANCH   6   7
ATOM      7  C   UNL     1     -13.045 -22.021   3.422  1.00  0.00     0.032 C 
ATOM      8  C   UNL     1     -13.452 -22.582   4.791  1.00  0.00     0.014 C 
BRANCH   7   9
ATOM      9  C   UNL     1     -12.660 -23.150   2.506  1.00  0.00     0.044 C 
ATOM     10  O   UNL     1     -13.284 -24.243   2.550  1.00  0.00    -0.550 OA
ATOM     11  O   UNL     1     -11.604 -23.002   1.614  1.00  0.00    -0.550 OA
ENDBRANCH   7   9
ENDBRANCH   6   7
ENDBRANCH   5   6
ENDBRANCH   4   5
ENDBRANCH   3   4
ENDBRANCH   2   3
ENDBRANCH   1   2
BRANCH   1  12
ATOM     12  C   UNL     1     -14.762 -18.413   5.529  1.00  0.00     0.000 C 
BRANCH  12  13
ATOM     13  C   UNL     1     -15.390 -17.480   6.574  1.00  0.00    -0.000 C 
BRANCH  13  14
ATOM     14  C   UNL     1     -15.734 -16.090   6.010  1.00  0.00    -0.000 C 
BRANCH  14  15
ATOM     15  C   UNL     1     -15.353 -15.875   4.533  1.00  0.00    -0.000 C 
BRANCH  15  16
ATOM     16  C   UNL     1     -14.197 -14.882   4.350  1.00  0.00    -0.000 C 
BRANCH  16  17
ATOM     17  C   UNL     1     -14.313 -13.717   5.343  1.00  0.00    -0.000 C 
BRANCH  17  18
ATOM     18  C   UNL     1     -14.207 -12.344   4.659  1.00  0.00    -0.003 C 
ATOM     19  C   UNL     1     -12.759 -11.901   4.447  1.00  0.00     0.004 C 
ENDBRANCH  17  18
ENDBRANCH  16  17
ENDBRANCH  15  16
ENDBRANCH  14  15
ENDBRANCH  13  14
ENDBRANCH  12  13
ENDBRANCH   1  12
TORSDOF 14
ENDMDL
MODEL 7
REMARK VINA RESULT:    -3.304      1.167      2.681
REMARK INTER + INTRA:          -8.032
REMARK INTER:                  -6.297
REMARK INTRA:                  -1.736
REMARK UNBOUND:                -2.024
REMARK SMILES CCCCCCCCCCCCCC[C@@H](C)C(=O)[O-]
REMARK SMILES IDX 9 1 10 2 11 3 12 4 13 5 14 6 15 7 16 8 17 9 18 10 19 11 8 12
REMARK SMILES IDX 7 13 6 14 5 15 4 16 3 17 2 18 1 19
REMARK H PARENT
REMARK Flexibility Score: inf
ROOT
ATOM      1  C   UNL     1     -14.335 -15.146   4.907  1.00  0.00     0.000 C 
ENDROOT
BRANCH   1   2
ATOM      2  C   UNL     1     -14.895 -16.184   3.925  1.00  0.00     0.000 C 
BRANCH   2   3
ATOM      3  C   UNL     1     -15.445 -17.431   4.635  1.00  0.00     0.000 C 
BRANCH   3   4
ATOM      4  C   UNL     1     -14.873 -17.605   6.052  1.00  0.00     0.000 C 
BRANCH   4   5
ATOM      5  C   UNL     1     -14.009 -18.871   6.195  1.00  0.00     0.001 C 
BRANCH   5   6
ATOM      6  C   UNL     1     -12.777 -18.933   5.268  1.00  0.00     0.009 C 
BRANCH   6   7
ATOM      7  C   UNL     1     -12.765 -20.115   4.271  1.00  0.00     0.032 C 
ATOM      8  C   UNL     1     -13.881 -21.129   4.556  1.00  0.00     0.014 C 
BRANCH   7   9
ATOM      9  C   UNL     1     -12.904 -19.589   2.869  1.00  0.00     0.044 C 
ATOM     10  O   UNL     1     -12.557 -18.409   2.598  1.00  0.00    -0.550 OA
ATOM     11  O   UNL     1     -13.430 -20.394   1.865  1.00  0.00    -0.550 OA
ENDBRANCH   7   9
ENDBRANCH   6   7
ENDBRANCH   5   6
ENDBRANCH   4   5
ENDBRANCH   3   4
ENDBRANCH   2   3
ENDBRANCH   1   2
BRANCH   1  12
ATOM     12  C   UNL     1     -15.366 -14.048   5.194  1.00  0.00     0.000 C 
BRANCH  12  13
ATOM     13  C   UNL     1     -14.679 -12.754   5.655  1.00  0.00    -0.000 C 
BRANCH  13  14
ATOM     14  C   UNL     1     -13.187 -12.699   5.282  1.00  0.00    -0.000 C 
BRANCH  14  15
ATOM     15  C   UNL     1     -12.832 -11.701   4.164  1.00  0.00    -0.000 C 
BRANCH  15  16
ATOM     16  C   UNL     1     -13.945 -11.553   3.116  1.00  0.00    -0.000 C 
BRANCH  16  17
ATOM     17  C   UNL     1     -13.458 -12.006   1.733  1.00  0.00    -0.000 C 
BRANCH  17  18
ATOM     18  C   UNL     1     -12.790 -13.390   1.765  1.00  0.00    -0.003 C 
ATOM     19  C   UNL     1     -11.430 -13.407   1.069  1.00  0.00     0.004 C 
ENDBRANCH  17  18
ENDBRANCH  16  17
ENDBRANCH  15  16
ENDBRANCH  14  15
ENDBRANCH  13  14
ENDBRANCH  12  13
ENDBRANCH   1  12
TORSDOF 14
ENDMDL
MODEL 8
REMARK VINA RESULT:    -3.208      2.458      4.535
REMARK INTER + INTRA:          -7.857
REMARK INTER:                  -5.817
REMARK INTRA:                  -2.040
REMARK UNBOUND:                -2.024
REMARK SMILES CCCCCCCCCCCCCC[C@@H](C)C(=O)[O-]
REMARK SMILES IDX 9 1 10 2 11 3 12 4 13 5 14 6 15 7 16 8 17 9 18 10 19 11 8 12
REMARK SMILES IDX 7 13 6 14 5 15 4 16 3 17 2 18 1 19
REMARK H PARENT
REMARK Flexibility Score: inf
ROOT
ATOM      1  C   UNL     1     -12.243 -18.697   5.280  1.00  0.00     0.000 C 
ENDROOT
BRANCH   1   2
ATOM      2  C   UNL     1     -11.998 -19.099   3.818  1.00  0.00     0.000 C 
BRANCH   2   3
ATOM      3  C   UNL     1     -12.803 -18.244   2.828  1.00  0.00     0.000 C 
BRANCH   3   4
ATOM      4  C   UNL     1     -14.031 -18.984   2.271  1.00  0.00     0.000 C 
BRANCH   4   5
ATOM      5  C   UNL     1     -13.818 -20.506   2.179  1.00  0.00     0.001 C 
BRANCH   5   6
ATOM      6  C   UNL     1     -14.987 -21.364   2.707  1.00  0.00     0.009 C 
BRANCH   6   7
ATOM      7  C   UNL     1     -14.570 -22.660   3.440  1.00  0.00     0.032 C 
ATOM      8  C   UNL     1     -13.140 -22.585   3.989  1.00  0.00     0.014 C 
BRANCH   7   9
ATOM      9  C   UNL     1     -15.532 -22.929   4.566  1.00  0.00     0.044 C 
ATOM     10  O   UNL     1     -15.892 -24.108   4.823  1.00  0.00    -0.550 OA
ATOM     11  O   UNL     1     -16.042 -21.878   5.321  1.00  0.00    -0.550 OA
ENDBRANCH   7   9
ENDBRANCH   6   7
ENDBRANCH   5   6
ENDBRANCH   4   5
ENDBRANCH   3   4
ENDBRANCH   2   3
ENDBRANCH   1   2
BRANCH   1  12
ATOM     12  C   UNL     1     -13.443 -19.452   5.864  1.00  0.00     0.000 C 
BRANCH  12  13
ATOM     13  C   UNL     1     -14.409 -18.488   6.569  1.00  0.00    -0.000 C 
BRANCH  13  14
ATOM     14  C   UNL     1     -15.363 -17.773   5.596  1.00  0.00    -0.000 C 
BRANCH  14  15
ATOM     15  C   UNL     1     -15.343 -16.235   5.679  1.00  0.00    -0.000 C 
BRANCH  15  16
ATOM     16  C   UNL     1     -14.332 -15.595   4.717  1.00  0.00    -0.000 C 
BRANCH  16  17
ATOM     17  C   UNL     1     -14.740 -14.156   4.371  1.00  0.00    -0.000 C 
BRANCH  17  18
ATOM     18  C   UNL     1     -14.530 -13.184   5.543  1.00  0.00    -0.003 C 
ATOM     19  C   UNL     1     -13.093 -12.669   5.633  1.00  0.00     0.004 C 
ENDBRANCH  17  18
ENDBRANCH  16  17
ENDBRANCH  15  16
ENDBRANCH  14  15
ENDBRANCH  13  14
ENDBRANCH  12  13
ENDBRANCH   1  12
TORSDOF 14
ENDMDL
MODEL 9
REMARK VINA RESULT:    -3.138      3.081      6.485
REMARK INTER + INTRA:          -7.730
REMARK INTER:                  -5.582
REMARK INTRA:                  -2.148
REMARK UNBOUND:                -2.024
REMARK SMILES CCCCCCCCCCCCCC[C@@H](C)C(=O)[O-]
REMARK SMILES IDX 9 1 10 2 11 3 12 4 13 5 14 6 15 7 16 8 17 9 18 10 19 11 8 12
REMARK SMILES IDX 7 13 6 14 5 15 4 16 3 17 2 18 1 19
REMARK H PARENT
REMARK Flexibility Score: inf
ROOT
ATOM      1  C   UNL     1     -11.808 -18.880   3.924  1.00  0.00     0.000 C 
ENDROOT
BRANCH   1   2
ATOM      2  C   UNL     1     -12.290 -18.459   5.320  1.00  0.00     0.000 C 
BRANCH   2   3
ATOM      3  C   UNL     1     -13.483 -19.294   5.809  1.00  0.00     0.000 C 
BRANCH   3   4
ATOM      4  C   UNL     1     -14.629 -18.425   6.353  1.00  0.00     0.000 C 
BRANCH   4   5
ATOM      5  C   UNL     1     -15.265 -17.531   5.272  1.00  0.00     0.001 C 
BRANCH   5   6
ATOM      6  C   UNL     1     -15.239 -16.018   5.575  1.00  0.00     0.009 C 
BRANCH   6   7
ATOM      7  C   UNL     1     -14.285 -15.188   4.685  1.00  0.00     0.032 C 
ATOM      8  C   UNL     1     -14.574 -15.372   3.189  1.00  0.00     0.014 C 
BRANCH   7   9
ATOM      9  C   UNL     1     -14.403 -13.732   5.048  1.00  0.00     0.044 C 
ATOM     10  O   UNL     1     -13.528 -13.188   5.771  1.00  0.00    -0.550 OA
ATOM     11  O   UNL     1     -15.485 -12.982   4.602  1.00  0.00    -0.550 OA
ENDBRANCH   7   9
ENDBRANCH   6   7
ENDBRANCH   5   6
ENDBRANCH   4   5
ENDBRANCH   3   4
ENDBRANCH   2   3
ENDBRANCH   1   2
BRANCH   1  12
ATOM     12  C   UNL     1     -12.735 -18.329   2.833  1.00  0.00     0.000 C 
BRANCH  12  13
ATOM     13  C   UNL     1     -12.590 -19.130   1.531  1.00  0.00    -0.000 C 
BRANCH  13  14
ATOM     14  C   UNL     1     -13.805 -20.028   1.240  1.00  0.00    -0.000 C 
BRANCH  14  15
ATOM     15  C   UNL     1     -14.582 -20.496   2.485  1.00  0.00    -0.000 C 
BRANCH  15  16
ATOM     16  C   UNL     1     -14.436 -22.001   2.753  1.00  0.00    -0.000 C 
BRANCH  16  17
ATOM     17  C   UNL     1     -13.133 -22.298   3.509  1.00  0.00    -0.000 C 
BRANCH  17  18
ATOM     18  C   UNL     1     -13.383 -22.851   4.921  1.00  0.00    -0.003 C 
ATOM     19  C   UNL     1     -14.861 -22.824   5.314  1.00  0.00     0.004 C 
ENDBRANCH  17  18
ENDBRANCH  16  17
ENDBRANCH  15  16
ENDBRANCH  14  15
ENDBRANCH  13  14
ENDBRANCH  12  13
ENDBRANCH   1  12
TORSDOF 14
ENDMDL
