MODEL 1
REMARK VINA RESULT:    -2.466      0.000      0.000
REMARK INTER + INTRA:          -2.466
REMARK INTER:                  -2.466
REMARK INTRA:                   0.000
REMARK UNBOUND:                 0.000
REMARK SMILES CC(=O)[O-]
REMARK SMILES IDX 1 1 2 2 3 3 4 4
REMARK H PARENT
REMARK Flexibility Score: inf
ROOT
ATOM      1  C   UNL     1       4.586  54.614   4.452  1.00  0.00     0.063 C 
ATOM      2  C   UNL     1       5.635  54.548   3.395  1.00  0.00     0.038 C 
ATOM      3  O   UNL     1       5.341  54.798   2.197  1.00  0.00    -0.550 OA
ATOM      4  O   UNL     1       6.952  54.265   3.737  1.00  0.00    -0.550 OA
ENDROOT
TORSDOF 0
ENDMDL
MODEL 2
REMARK VINA RESULT:    -2.412      1.402      2.045
REMARK INTER + INTRA:          -2.412
REMARK INTER:                  -2.412
REMARK INTRA:                   0.000
REMARK UNBOUND:                 0.000
REMARK SMILES CC(=O)[O-]
REMARK SMILES IDX 1 1 2 2 3 3 4 4
REMARK H PARENT
REMARK Flexibility Score: inf
ROOT
ATOM      1  C   UNL     1       3.418  54.972   4.778  1.00  0.00     0.063 C 
ATOM      2  C   UNL     1       4.724  54.378   4.373  1.00  0.00     0.038 C 
ATOM      3  O   UNL     1       5.273  53.506   5.095  1.00  0.00    -0.550 OA
ATOM      4  O   UNL     1       5.312  54.746   3.168  1.00  0.00    -0.550 OA
ENDROOT
TORSDOF 0
ENDMDL
MODEL 3
REMARK VINA RESULT:    -2.405      1.458      1.603
REMARK INTER + INTRA:          -2.405
REMARK INTER:                  -2.405
REMARK INTRA:                   0.000
REMARK UNBOUND:                 0.000
REMARK SMILES CC(=O)[O-]
REMARK SMILES IDX 1 1 2 2 3 3 4 4
REMARK H PARENT
REMARK Flexibility Score: inf
ROOT
ATOM      1  C   UNL     1       3.423  54.927   4.811  1.00  0.00     0.063 C 
ATOM      2  C   UNL     1       4.727  54.336   4.395  1.00  0.00     0.038 C 
ATOM      3  O   UNL     1       5.299  54.740   3.349  1.00  0.00    -0.550 OA
ATOM      4  O   UNL     1       5.342  53.377   5.190  1.00  0.00    -0.550 OA
ENDROOT
TORSDOF 0
ENDMDL
MODEL 4
REMARK VINA RESULT:    -2.342      7.331      7.647
REMARK INTER + INTRA:          -2.342
REMARK INTER:                  -2.342
REMARK INTRA:                   0.000
REMARK UNBOUND:                 0.000
REMARK SMILES CC(=O)[O-]
REMARK SMILES IDX 1 1 2 2 3 3 4 4
REMARK H PARENT
REMARK Flexibility Score: inf
ROOT
ATOM      1  C   UNL     1      -1.226  56.552   2.653  1.00  0.00     0.063 C 
ATOM      2  C   UNL     1      -1.279  56.998   4.074  1.00  0.00     0.038 C 
ATOM      3  O   UNL     1      -1.165  56.158   5.005  1.00  0.00    -0.550 OA
ATOM      4  O   UNL     1      -1.398  58.349   4.376  1.00  0.00    -0.550 OA
ENDROOT
TORSDOF 0
ENDMDL
MODEL 5
REMARK VINA RESULT:    -2.337      6.981      7.622
REMARK INTER + INTRA:          -2.337
REMARK INTER:                  -2.337
REMARK INTRA:                   0.000
REMARK UNBOUND:                 0.000
REMARK SMILES CC(=O)[O-]
REMARK SMILES IDX 1 1 2 2 3 3 4 4
REMARK H PARENT
REMARK Flexibility Score: inf
ROOT
ATOM      1  C   UNL     1      -1.103  56.480   4.663  1.00  0.00     0.063 C 
ATOM      2  C   UNL     1      -1.610  56.708   3.280  1.00  0.00     0.038 C 
ATOM      3  O   UNL     1      -2.688  57.331   3.097  1.00  0.00    -0.550 OA
ATOM      4  O   UNL     1      -0.867  56.280   2.187  1.00  0.00    -0.550 OA
ENDROOT
TORSDOF 0
ENDMDL
MODEL 6
REMARK VINA RESULT:    -2.334      6.227      6.965
REMARK INTER + INTRA:          -2.334
REMARK INTER:                  -2.334
REMARK INTRA:                   0.000
REMARK UNBOUND:                 0.000
REMARK SMILES CC(=O)[O-]
REMARK SMILES IDX 1 1 2 2 3 3 4 4
REMARK H PARENT
REMARK Flexibility Score: inf
ROOT
ATOM      1  C   UNL     1      -1.270  57.976   4.282  1.00  0.00     0.063 C 
ATOM      2  C   UNL     1      -0.517  57.242   3.226  1.00  0.00     0.038 C 
ATOM      3  O   UNL     1       0.480  56.538   3.535  1.00  0.00    -0.550 OA
ATOM      4  O   UNL     1      -0.945  57.287   1.905  1.00  0.00    -0.550 OA
ENDROOT
TORSDOF 0
ENDMDL
MODEL 7
REMARK VINA RESULT:    -2.267     17.918     18.265
REMARK INTER + INTRA:          -2.267
REMARK INTER:                  -2.267
REMARK INTRA:                   0.000
REMARK UNBOUND:                 0.000
REMARK SMILES CC(=O)[O-]
REMARK SMILES IDX 1 1 2 2 3 3 4 4
REMARK H PARENT
REMARK Flexibility Score: inf
ROOT
ATOM      1  C   UNL     1      -9.096  64.152   2.605  1.00  0.00     0.063 C 
ATOM      2  C   UNL     1      -8.834  65.501   2.028  1.00  0.00     0.038 C 
ATOM      3  O   UNL     1      -8.181  66.354   2.685  1.00  0.00    -0.550 OA
ATOM      4  O   UNL     1      -9.264  65.804   0.742  1.00  0.00    -0.550 OA
ENDROOT
TORSDOF 0
ENDMDL
MODEL 8
REMARK VINA RESULT:    -2.239     12.618     13.342
REMARK INTER + INTRA:          -2.239
REMARK INTER:                  -2.239
REMARK INTRA:                   0.000
REMARK UNBOUND:                 0.000
REMARK SMILES CC(=O)[O-]
REMARK SMILES IDX 1 1 2 2 3 3 4 4
REMARK H PARENT
REMARK Flexibility Score: inf
ROOT
ATOM      1  C   UNL     1      -6.646  60.719   4.068  1.00  0.00     0.063 C 
ATOM      2  C   UNL     1      -6.432  59.855   2.871  1.00  0.00     0.038 C 
ATOM      3  O   UNL     1      -5.367  59.196   2.750  1.00  0.00    -0.550 OA
ATOM      4  O   UNL     1      -7.431  59.733   1.913  1.00  0.00    -0.550 OA
ENDROOT
TORSDOF 0
ENDMDL
MODEL 9
REMARK VINA RESULT:    -2.166     10.285     10.788
REMARK INTER + INTRA:          -2.166
REMARK INTER:                  -2.166
REMARK INTRA:                   0.000
REMARK UNBOUND:                 0.000
REMARK SMILES CC(=O)[O-]
REMARK SMILES IDX 1 1 2 2 3 3 4 4
REMARK H PARENT
REMARK Flexibility Score: inf
ROOT
ATOM      1  C   UNL     1       0.057  58.067  -4.810  1.00  0.00     0.063 C 
ATOM      2  C   UNL     1      -0.918  56.993  -4.467  1.00  0.00     0.038 C 
ATOM      3  O   UNL     1      -0.511  55.837  -4.183  1.00  0.00    -0.550 OA
ATOM      4  O   UNL     1      -2.277  57.279  -4.407  1.00  0.00    -0.550 OA
ENDROOT
TORSDOF 0
ENDMDL
