MODEL 1
REMARK VINA RESULT:    -4.088      0.000      0.000
REMARK INTER + INTRA:          -8.578
REMARK INTER:                  -6.957
REMARK INTRA:                  -1.621
REMARK UNBOUND:                -1.621
REMARK SMILES CCCCCCCCCCCCCC(=O)[O-]
REMARK SMILES IDX 8 1 9 2 10 3 11 4 12 5 13 6 14 7 15 8 16 9 7 10 6 11 5 12
REMARK SMILES IDX 4 13 3 14 2 15 1 16
REMARK H PARENT
REMARK Flexibility Score: inf
ROOT
ATOM      1  C   UNL     1      45.290  10.432  17.514  1.00  0.00     0.000 C 
ENDROOT
BRANCH   1   2
ATOM      2  C   UNL     1      44.170   9.547  18.082  1.00  0.00     0.000 C 
BRANCH   2   3
ATOM      3  C   UNL     1      44.682   8.167  18.531  1.00  0.00     0.000 C 
BRANCH   3   4
ATOM      4  C   UNL     1      46.212   8.123  18.705  1.00  0.00     0.000 C 
BRANCH   4   5
ATOM      5  C   UNL     1      46.715   7.224  19.853  1.00  0.00     0.006 C 
BRANCH   5   6
ATOM      6  C   UNL     1      46.518   7.810  21.260  1.00  0.00     0.053 C 
BRANCH   6   7
ATOM      7  C   UNL     1      47.665   7.489  22.168  1.00  0.00     0.041 C 
ATOM      8  O   UNL     1      48.124   6.317  22.218  1.00  0.00    -0.550 OA
ATOM      9  O   UNL     1      48.251   8.490  22.932  1.00  0.00    -0.550 OA
ENDBRANCH   6   7
ENDBRANCH   5   6
ENDBRANCH   4   5
ENDBRANCH   3   4
ENDBRANCH   2   3
ENDBRANCH   1   2
BRANCH   1  10
ATOM     10  C   UNL     1      45.322  10.431  15.976  1.00  0.00     0.000 C 
BRANCH  10  11
ATOM     11  C   UNL     1      46.518   9.648  15.408  1.00  0.00    -0.000 C 
BRANCH  11  12
ATOM     12  C   UNL     1      46.148   8.552  14.389  1.00  0.00    -0.000 C 
BRANCH  12  13
ATOM     13  C   UNL     1      44.889   7.744  14.775  1.00  0.00    -0.000 C 
BRANCH  13  14
ATOM     14  C   UNL     1      45.240   6.414  15.461  1.00  0.00    -0.000 C 
BRANCH  14  15
ATOM     15  C   UNL     1      46.612   5.874  15.031  1.00  0.00    -0.003 C 
ATOM     16  C   UNL     1      47.513   5.550  16.223  1.00  0.00     0.004 C 
ENDBRANCH  14  15
ENDBRANCH  13  14
ENDBRANCH  12  13
ENDBRANCH  11  12
ENDBRANCH  10  11
ENDBRANCH   1  10
TORSDOF 12
ENDMDL
MODEL 2
REMARK VINA RESULT:    -4.085      2.188      3.369
REMARK INTER + INTRA:          -8.573
REMARK INTER:                  -7.746
REMARK INTRA:                  -0.826
REMARK UNBOUND:                -1.621
REMARK SMILES CCCCCCCCCCCCCC(=O)[O-]
REMARK SMILES IDX 8 1 9 2 10 3 11 4 12 5 13 6 14 7 15 8 16 9 7 10 6 11 5 12
REMARK SMILES IDX 4 13 3 14 2 15 1 16
REMARK H PARENT
REMARK Flexibility Score: inf
ROOT
ATOM      1  C   UNL     1      46.639   7.282  18.792  1.00  0.00     0.000 C 
ENDROOT
BRANCH   1   2
ATOM      2  C   UNL     1      46.428   7.756  20.239  1.00  0.00     0.000 C 
BRANCH   2   3
ATOM      3  C   UNL     1      47.205   6.901  21.256  1.00  0.00     0.000 C 
BRANCH   3   4
ATOM      4  C   UNL     1      47.726   7.718  22.452  1.00  0.00     0.000 C 
BRANCH   4   5
ATOM      5  C   UNL     1      46.847   8.919  22.859  1.00  0.00     0.006 C 
BRANCH   5   6
ATOM      6  C   UNL     1      45.789   8.606  23.928  1.00  0.00     0.053 C 
BRANCH   6   7
ATOM      7  C   UNL     1      44.405   8.946  23.464  1.00  0.00     0.041 C 
ATOM      8  O   UNL     1      43.722   9.802  24.085  1.00  0.00    -0.550 OA
ATOM      9  O   UNL     1      43.884   8.344  22.326  1.00  0.00    -0.550 OA
ENDBRANCH   6   7
ENDBRANCH   5   6
ENDBRANCH   4   5
ENDBRANCH   3   4
ENDBRANCH   2   3
ENDBRANCH   1   2
BRANCH   1  10
ATOM     10  C   UNL     1      45.973   8.212  17.763  1.00  0.00     0.000 C 
BRANCH  10  11
ATOM     11  C   UNL     1      44.570   7.733  17.352  1.00  0.00    -0.000 C 
BRANCH  11  12
ATOM     12  C   UNL     1      44.493   7.078  15.958  1.00  0.00    -0.000 C 
BRANCH  12  13
ATOM     13  C   UNL     1      45.475   7.684  14.932  1.00  0.00    -0.000 C 
BRANCH  13  14
ATOM     14  C   UNL     1      46.326   6.607  14.236  1.00  0.00    -0.000 C 
BRANCH  14  15
ATOM     15  C   UNL     1      46.911   5.590  15.226  1.00  0.00    -0.003 C 
ATOM     16  C   UNL     1      47.876   4.611  14.555  1.00  0.00     0.004 C 
ENDBRANCH  14  15
ENDBRANCH  13  14
ENDBRANCH  12  13
ENDBRANCH  11  12
ENDBRANCH  10  11
ENDBRANCH   1  10
TORSDOF 12
ENDMDL
MODEL 3
REMARK VINA RESULT:    -4.056      2.220      3.273
REMARK INTER + INTRA:          -8.523
REMARK INTER:                  -7.605
REMARK INTRA:                  -0.918
REMARK UNBOUND:                -1.621
REMARK SMILES CCCCCCCCCCCCCC(=O)[O-]
REMARK SMILES IDX 8 1 9 2 10 3 11 4 12 5 13 6 14 7 15 8 16 9 7 10 6 11 5 12
REMARK SMILES IDX 4 13 3 14 2 15 1 16
REMARK H PARENT
REMARK Flexibility Score: inf
ROOT
ATOM      1  C   UNL     1      46.386   6.857  18.331  1.00  0.00     0.000 C 
ENDROOT
BRANCH   1   2
ATOM      2  C   UNL     1      45.894   8.242  18.780  1.00  0.00     0.000 C 
BRANCH   2   3
ATOM      3  C   UNL     1      45.963   8.422  20.307  1.00  0.00     0.000 C 
BRANCH   3   4
ATOM      4  C   UNL     1      46.917   7.423  20.987  1.00  0.00     0.000 C 
BRANCH   4   5
ATOM      5  C   UNL     1      47.161   7.668  22.490  1.00  0.00     0.006 C 
BRANCH   5   6
ATOM      6  C   UNL     1      46.537   8.961  23.039  1.00  0.00     0.053 C 
BRANCH   6   7
ATOM      7  C   UNL     1      45.279   8.695  23.806  1.00  0.00     0.041 C 
ATOM      8  O   UNL     1      45.329   8.451  25.041  1.00  0.00    -0.550 OA
ATOM      9  O   UNL     1      44.046   8.753  23.167  1.00  0.00    -0.550 OA
ENDBRANCH   6   7
ENDBRANCH   5   6
ENDBRANCH   4   5
ENDBRANCH   3   4
ENDBRANCH   2   3
ENDBRANCH   1   2
BRANCH   1  10
ATOM     10  C   UNL     1      47.141   6.905  16.991  1.00  0.00     0.000 C 
BRANCH  10  11
ATOM     11  C   UNL     1      47.515   5.506  16.471  1.00  0.00    -0.000 C 
BRANCH  11  12
ATOM     12  C   UNL     1      47.430   5.342  14.940  1.00  0.00    -0.000 C 
BRANCH  12  13
ATOM     13  C   UNL     1      46.315   6.188  14.286  1.00  0.00    -0.000 C 
BRANCH  13  14
ATOM     14  C   UNL     1      44.964   5.453  14.269  1.00  0.00    -0.000 C 
BRANCH  14  15
ATOM     15  C   UNL     1      43.773   6.407  14.441  1.00  0.00    -0.003 C 
ATOM     16  C   UNL     1      44.101   7.592  15.350  1.00  0.00     0.004 C 
ENDBRANCH  14  15
ENDBRANCH  13  14
ENDBRANCH  12  13
ENDBRANCH  11  12
ENDBRANCH  10  11
ENDBRANCH   1  10
TORSDOF 12
ENDMDL
MODEL 4
REMARK VINA RESULT:    -4.000      3.066      6.798
REMARK INTER + INTRA:          -8.426
REMARK INTER:                  -7.554
REMARK INTRA:                  -0.872
REMARK UNBOUND:                -1.621
REMARK SMILES CCCCCCCCCCCCCC(=O)[O-]
REMARK SMILES IDX 8 1 9 2 10 3 11 4 12 5 13 6 14 7 15 8 16 9 7 10 6 11 5 12
REMARK SMILES IDX 4 13 3 14 2 15 1 16
REMARK H PARENT
REMARK Flexibility Score: inf
ROOT
ATOM      1  C   UNL     1      46.448   6.998  18.667  1.00  0.00     0.000 C 
ENDROOT
BRANCH   1   2
ATOM      2  C   UNL     1      46.018   7.943  17.534  1.00  0.00     0.000 C 
BRANCH   2   3
ATOM      3  C   UNL     1      44.589   7.655  17.039  1.00  0.00     0.000 C 
BRANCH   3   4
ATOM      4  C   UNL     1      44.559   6.798  15.760  1.00  0.00     0.000 C 
BRANCH   4   5
ATOM      5  C   UNL     1      45.867   6.794  14.942  1.00  0.00     0.006 C 
BRANCH   5   6
ATOM      6  C   UNL     1      46.229   5.437  14.320  1.00  0.00     0.053 C 
BRANCH   6   7
ATOM      7  C   UNL     1      47.509   4.889  14.873  1.00  0.00     0.041 C 
ATOM      8  O   UNL     1      48.272   4.203  14.144  1.00  0.00    -0.550 OA
ATOM      9  O   UNL     1      47.878   5.166  16.184  1.00  0.00    -0.550 OA
ENDBRANCH   6   7
ENDBRANCH   5   6
ENDBRANCH   4   5
ENDBRANCH   3   4
ENDBRANCH   2   3
ENDBRANCH   1   2
BRANCH   1  10
ATOM     10  C   UNL     1      46.500   7.703  20.034  1.00  0.00     0.000 C 
BRANCH  10  11
ATOM     11  C   UNL     1      47.177   6.845  21.118  1.00  0.00    -0.000 C 
BRANCH  11  12
ATOM     12  C   UNL     1      47.508   7.597  22.423  1.00  0.00    -0.000 C 
BRANCH  12  13
ATOM     13  C   UNL     1      47.103   9.087  22.402  1.00  0.00    -0.000 C 
BRANCH  13  14
ATOM     14  C   UNL     1      46.385   9.512  23.694  1.00  0.00    -0.000 C 
BRANCH  14  15
ATOM     15  C   UNL     1      45.210   8.587  24.045  1.00  0.00    -0.003 C 
ATOM     16  C   UNL     1      44.015   8.780  23.112  1.00  0.00     0.004 C 
ENDBRANCH  14  15
ENDBRANCH  13  14
ENDBRANCH  12  13
ENDBRANCH  11  12
ENDBRANCH  10  11
ENDBRANCH   1  10
TORSDOF 12
ENDMDL
MODEL 5
REMARK VINA RESULT:    -3.927      3.703      6.714
REMARK INTER + INTRA:          -8.303
REMARK INTER:                  -7.182
REMARK INTRA:                  -1.121
REMARK UNBOUND:                -1.621
REMARK SMILES CCCCCCCCCCCCCC(=O)[O-]
REMARK SMILES IDX 8 1 9 2 10 3 11 4 12 5 13 6 14 7 15 8 16 9 7 10 6 11 5 12
REMARK SMILES IDX 4 13 3 14 2 15 1 16
REMARK H PARENT
REMARK Flexibility Score: inf
ROOT
ATOM      1  C   UNL     1      44.476   8.650  20.066  1.00  0.00     0.000 C 
ENDROOT
BRANCH   1   2
ATOM      2  C   UNL     1      45.848   8.266  19.489  1.00  0.00     0.000 C 
BRANCH   2   3
ATOM      3  C   UNL     1      45.862   8.280  17.950  1.00  0.00     0.000 C 
BRANCH   3   4
ATOM      4  C   UNL     1      46.741   7.169  17.348  1.00  0.00     0.000 C 
BRANCH   4   5
ATOM      5  C   UNL     1      46.162   6.481  16.094  1.00  0.00     0.006 C 
BRANCH   5   6
ATOM      6  C   UNL     1      44.642   6.628  15.927  1.00  0.00     0.053 C 
BRANCH   6   7
ATOM      7  C   UNL     1      44.275   7.193  14.589  1.00  0.00     0.041 C 
ATOM      8  O   UNL     1      43.120   7.014  14.121  1.00  0.00    -0.550 OA
ATOM      9  O   UNL     1      45.197   7.948  13.875  1.00  0.00    -0.550 OA
ENDBRANCH   6   7
ENDBRANCH   5   6
ENDBRANCH   4   5
ENDBRANCH   3   4
ENDBRANCH   2   3
ENDBRANCH   1   2
BRANCH   1  10
ATOM     10  C   UNL     1      44.443  10.093  20.597  1.00  0.00     0.000 C 
BRANCH  10  11
ATOM     11  C   UNL     1      44.693  10.173  22.113  1.00  0.00    -0.000 C 
BRANCH  11  12
ATOM     12  C   UNL     1      44.647   8.818  22.848  1.00  0.00    -0.000 C 
BRANCH  12  13
ATOM     13  C   UNL     1      45.936   8.493  23.634  1.00  0.00    -0.000 C 
BRANCH  13  14
ATOM     14  C   UNL     1      47.177   9.157  23.013  1.00  0.00    -0.000 C 
BRANCH  14  15
ATOM     15  C   UNL     1      48.342   8.173  22.832  1.00  0.00    -0.003 C 
ATOM     16  C   UNL     1      47.904   6.861  22.181  1.00  0.00     0.004 C 
ENDBRANCH  14  15
ENDBRANCH  13  14
ENDBRANCH  12  13
ENDBRANCH  11  12
ENDBRANCH  10  11
ENDBRANCH   1  10
TORSDOF 12
ENDMDL
MODEL 6
REMARK VINA RESULT:    -3.924      2.995      6.434
REMARK INTER + INTRA:          -8.298
REMARK INTER:                  -7.280
REMARK INTRA:                  -1.018
REMARK UNBOUND:                -1.621
REMARK SMILES CCCCCCCCCCCCCC(=O)[O-]
REMARK SMILES IDX 8 1 9 2 10 3 11 4 12 5 13 6 14 7 15 8 16 9 7 10 6 11 5 12
REMARK SMILES IDX 4 13 3 14 2 15 1 16
REMARK H PARENT
REMARK Flexibility Score: inf
ROOT
ATOM      1  C   UNL     1      46.338   7.759  19.082  1.00  0.00     0.000 C 
ENDROOT
BRANCH   1   2
ATOM      2  C   UNL     1      46.324   7.826  17.547  1.00  0.00     0.000 C 
BRANCH   2   3
ATOM      3  C   UNL     1      44.965   7.412  16.955  1.00  0.00     0.000 C 
BRANCH   3   4
ATOM      4  C   UNL     1      44.975   7.349  15.416  1.00  0.00     0.000 C 
BRANCH   4   5
ATOM      5  C   UNL     1      45.343   5.975  14.818  1.00  0.00     0.006 C 
BRANCH   5   6
ATOM      6  C   UNL     1      46.720   5.921  14.139  1.00  0.00     0.053 C 
BRANCH   6   7
ATOM      7  C   UNL     1      47.654   4.979  14.836  1.00  0.00     0.041 C 
ATOM      8  O   UNL     1      48.300   4.123  14.175  1.00  0.00    -0.550 OA
ATOM      9  O   UNL     1      47.838   5.069  16.210  1.00  0.00    -0.550 OA
ENDBRANCH   6   7
ENDBRANCH   5   6
ENDBRANCH   4   5
ENDBRANCH   3   4
ENDBRANCH   2   3
ENDBRANCH   1   2
BRANCH   1  10
ATOM     10  C   UNL     1      45.605   8.946  19.731  1.00  0.00     0.000 C 
BRANCH  10  11
ATOM     11  C   UNL     1      44.678   8.514  20.880  1.00  0.00    -0.000 C 
BRANCH  11  12
ATOM     12  C   UNL     1      44.440   9.590  21.959  1.00  0.00    -0.000 C 
BRANCH  12  13
ATOM     13  C   UNL     1      45.653   9.816  22.889  1.00  0.00    -0.000 C 
BRANCH  13  14
ATOM     14  C   UNL     1      46.290   8.491  23.343  1.00  0.00    -0.000 C 
BRANCH  14  15
ATOM     15  C   UNL     1      47.736   8.334  22.847  1.00  0.00    -0.003 C 
ATOM     16  C   UNL     1      48.014   6.936  22.294  1.00  0.00     0.004 C 
ENDBRANCH  14  15
ENDBRANCH  13  14
ENDBRANCH  12  13
ENDBRANCH  11  12
ENDBRANCH  10  11
ENDBRANCH   1  10
TORSDOF 12
ENDMDL
MODEL 7
REMARK VINA RESULT:    -3.885      3.407      4.785
REMARK INTER + INTRA:          -8.231
REMARK INTER:                  -7.560
REMARK INTRA:                  -0.671
REMARK UNBOUND:                -1.621
REMARK SMILES CCCCCCCCCCCCCC(=O)[O-]
REMARK SMILES IDX 8 1 9 2 10 3 11 4 12 5 13 6 14 7 15 8 16 9 7 10 6 11 5 12
REMARK SMILES IDX 4 13 3 14 2 15 1 16
REMARK H PARENT
REMARK Flexibility Score: inf
ROOT
ATOM      1  C   UNL     1      46.758   7.217  20.505  1.00  0.00     0.000 C 
ENDROOT
BRANCH   1   2
ATOM      2  C   UNL     1      47.054   7.757  21.913  1.00  0.00     0.000 C 
BRANCH   2   3
ATOM      3  C   UNL     1      45.895   8.600  22.473  1.00  0.00     0.000 C 
BRANCH   3   4
ATOM      4  C   UNL     1      45.682   8.399  23.985  1.00  0.00     0.000 C 
BRANCH   4   5
ATOM      5  C   UNL     1      45.163   9.637  24.745  1.00  0.00     0.006 C 
BRANCH   5   6
ATOM      6  C   UNL     1      43.919   9.383  25.609  1.00  0.00     0.053 C 
BRANCH   6   7
ATOM      7  C   UNL     1      42.673   9.914  24.969  1.00  0.00     0.041 C 
ATOM      8  O   UNL     1      41.543   9.607  25.431  1.00  0.00    -0.550 OA
ATOM      9  O   UNL     1      42.760  10.777  23.883  1.00  0.00    -0.550 OA
ENDBRANCH   6   7
ENDBRANCH   5   6
ENDBRANCH   4   5
ENDBRANCH   3   4
ENDBRANCH   2   3
ENDBRANCH   1   2
BRANCH   1  10
ATOM     10  C   UNL     1      46.022   8.240  19.623  1.00  0.00     0.000 C 
BRANCH  10  11
ATOM     11  C   UNL     1      45.724   7.702  18.213  1.00  0.00    -0.000 C 
BRANCH  11  12
ATOM     12  C   UNL     1      46.760   6.695  17.673  1.00  0.00    -0.000 C 
BRANCH  12  13
ATOM     13  C   UNL     1      46.579   6.359  16.176  1.00  0.00    -0.000 C 
BRANCH  13  14
ATOM     14  C   UNL     1      45.165   6.693  15.673  1.00  0.00    -0.000 C 
BRANCH  14  15
ATOM     15  C   UNL     1      45.179   7.621  14.449  1.00  0.00    -0.003 C 
ATOM     16  C   UNL     1      46.017   8.879  14.680  1.00  0.00     0.004 C 
ENDBRANCH  14  15
ENDBRANCH  13  14
ENDBRANCH  12  13
ENDBRANCH  11  12
ENDBRANCH  10  11
ENDBRANCH   1  10
TORSDOF 12
ENDMDL
MODEL 8
REMARK VINA RESULT:    -3.864      3.688      7.557
REMARK INTER + INTRA:          -8.196
REMARK INTER:                  -7.511
REMARK INTRA:                  -0.685
REMARK UNBOUND:                -1.621
REMARK SMILES CCCCCCCCCCCCCC(=O)[O-]
REMARK SMILES IDX 8 1 9 2 10 3 11 4 12 5 13 6 14 7 15 8 16 9 7 10 6 11 5 12
REMARK SMILES IDX 4 13 3 14 2 15 1 16
REMARK H PARENT
REMARK Flexibility Score: inf
ROOT
ATOM      1  C   UNL     1      47.500   6.803  21.448  1.00  0.00     0.000 C 
ENDROOT
BRANCH   1   2
ATOM      2  C   UNL     1      46.523   7.460  20.460  1.00  0.00     0.000 C 
BRANCH   2   3
ATOM      3  C   UNL     1      46.757   6.999  19.010  1.00  0.00     0.000 C 
BRANCH   3   4
ATOM      4  C   UNL     1      46.135   7.949  17.971  1.00  0.00     0.000 C 
BRANCH   4   5
ATOM      5  C   UNL     1      46.789   7.913  16.575  1.00  0.00     0.006 C 
BRANCH   5   6
ATOM      6  C   UNL     1      46.109   6.967  15.573  1.00  0.00     0.053 C 
BRANCH   6   7
ATOM      7  C   UNL     1      46.982   5.802  15.218  1.00  0.00     0.041 C 
ATOM      8  O   UNL     1      47.028   5.383  14.032  1.00  0.00    -0.550 OA
ATOM      9  O   UNL     1      47.772   5.202  16.191  1.00  0.00    -0.550 OA
ENDBRANCH   6   7
ENDBRANCH   5   6
ENDBRANCH   4   5
ENDBRANCH   3   4
ENDBRANCH   2   3
ENDBRANCH   1   2
BRANCH   1  10
ATOM     10  C   UNL     1      47.925   7.756  22.579  1.00  0.00     0.000 C 
BRANCH  10  11
ATOM     11  C   UNL     1      46.728   8.456  23.246  1.00  0.00    -0.000 C 
BRANCH  11  12
ATOM     12  C   UNL     1      46.847   9.991  23.340  1.00  0.00    -0.000 C 
BRANCH  12  13
ATOM     13  C   UNL     1      45.745  10.648  24.200  1.00  0.00    -0.000 C 
BRANCH  13  14
ATOM     14  C   UNL     1      44.364  10.014  23.959  1.00  0.00    -0.000 C 
BRANCH  14  15
ATOM     15  C   UNL     1      43.633   9.680  25.267  1.00  0.00    -0.003 C 
ATOM     16  C   UNL     1      44.532   8.956  26.270  1.00  0.00     0.004 C 
ENDBRANCH  14  15
ENDBRANCH  13  14
ENDBRANCH  12  13
ENDBRANCH  11  12
ENDBRANCH  10  11
ENDBRANCH   1  10
TORSDOF 12
ENDMDL
MODEL 9
REMARK VINA RESULT:    -3.841      1.210      2.975
REMARK INTER + INTRA:          -8.157
REMARK INTER:                  -6.575
REMARK INTRA:                  -1.582
REMARK UNBOUND:                -1.621
REMARK SMILES CCCCCCCCCCCCCC(=O)[O-]
REMARK SMILES IDX 8 1 9 2 10 3 11 4 12 5 13 6 14 7 15 8 16 9 7 10 6 11 5 12
REMARK SMILES IDX 4 13 3 14 2 15 1 16
REMARK H PARENT
REMARK Flexibility Score: inf
ROOT
ATOM      1  C   UNL     1      46.700   7.730  18.261  1.00  0.00     0.000 C 
ENDROOT
BRANCH   1   2
ATOM      2  C   UNL     1      45.286   8.089  18.743  1.00  0.00     0.000 C 
BRANCH   2   3
ATOM      3  C   UNL     1      45.257   9.396  19.556  1.00  0.00     0.000 C 
BRANCH   3   4
ATOM      4  C   UNL     1      44.413   9.286  20.839  1.00  0.00     0.000 C 
BRANCH   4   5
ATOM      5  C   UNL     1      45.027   8.417  21.956  1.00  0.00     0.006 C 
BRANCH   5   6
ATOM      6  C   UNL     1      46.373   8.923  22.495  1.00  0.00     0.053 C 
BRANCH   6   7
ATOM      7  C   UNL     1      47.472   7.927  22.288  1.00  0.00     0.041 C 
ATOM      8  O   UNL     1      48.579   8.075  22.870  1.00  0.00    -0.550 OA
ATOM      9  O   UNL     1      47.263   6.815  21.481  1.00  0.00    -0.550 OA
ENDBRANCH   6   7
ENDBRANCH   5   6
ENDBRANCH   4   5
ENDBRANCH   3   4
ENDBRANCH   2   3
ENDBRANCH   1   2
BRANCH   1  10
ATOM     10  C   UNL     1      46.763   6.343  17.598  1.00  0.00     0.000 C 
BRANCH  10  11
ATOM     11  C   UNL     1      46.756   6.420  16.061  1.00  0.00    -0.000 C 
BRANCH  11  12
ATOM     12  C   UNL     1      45.357   6.571  15.428  1.00  0.00    -0.000 C 
BRANCH  12  13
ATOM     13  C   UNL     1      45.026   8.015  14.991  1.00  0.00    -0.000 C 
BRANCH  13  14
ATOM     14  C   UNL     1      46.284   8.801  14.584  1.00  0.00    -0.000 C 
BRANCH  14  15
ATOM     15  C   UNL     1      46.493  10.061  15.438  1.00  0.00    -0.003 C 
ATOM     16  C   UNL     1      45.179  10.623  15.981  1.00  0.00     0.004 C 
ENDBRANCH  14  15
ENDBRANCH  13  14
ENDBRANCH  12  13
ENDBRANCH  11  12
ENDBRANCH  10  11
ENDBRANCH   1  10
TORSDOF 12
ENDMDL
