MODEL 1
REMARK VINA RESULT:    10.320      0.000      0.000
REMARK INTER + INTRA:          13.365
REMARK INTER:                  12.733
REMARK INTRA:                   0.632
REMARK UNBOUND:                 0.632
REMARK SMILES C=C1[C@H]2CC[C@@H]3[C@H]2C(C)(C)CCC[C@]13C
REMARK SMILES IDX 14 1 6 2 7 3 3 4 2 5 1 6 4 7 5 8 15 9 8 10 9 11 10 12 11 13
REMARK SMILES IDX 13 15 12 16
REMARK H PARENT
REMARK Flexibility Score: 80.00
ROOT
ATOM      1  C   UNL     1     -16.556  -1.193  17.511  1.00  0.00    -0.008 C 
ATOM      2  C   UNL     1     -16.095  -2.577  18.114  1.00  0.00     0.003 C 
ATOM      3  C   UNL     1     -14.650  -2.763  17.604  1.00  0.00     0.006 C 
ATOM      4  C   UNL     1     -14.194  -1.390  18.100  1.00  0.00     0.019 C 
ATOM      5  C   UNL     1     -15.227  -0.479  17.498  1.00  0.00    -0.068 C 
ATOM      6  C   UNL     1     -15.007   0.782  17.108  1.00  0.00     0.009 C 
ATOM      7  C   UNL     1     -14.526  -1.498  19.608  1.00  0.00     0.008 C 
ATOM      8  C   UNL     1     -15.781  -2.406  19.626  1.00  0.00     0.005 C 
ATOM      9  C   UNL     1     -17.576  -0.435  18.406  1.00  0.00     0.016 C 
ENDROOT
BRANCH   3  10
ATOM     10  C   UNL     1     -14.391  -3.185  16.094  1.00  0.00    -0.032 C 
ATOM     11  C   UNL     1     -13.200  -2.402  15.482  1.00  0.00     0.011 C 
ATOM     12  C   UNL     1     -13.975  -4.682  16.083  1.00  0.00     0.011 C 
BRANCH  10  13
ATOM     13  C   UNL     1     -15.636  -3.099  15.165  1.00  0.00     0.007 CG0
ATOM     14  G   UNL     1     -16.240  -1.709  14.990  1.00  0.00     0.000 G0
ENDBRANCH  10  13
ENDBRANCH   3  10
BRANCH   1  15
ATOM     15  C   UNL     1     -17.191  -1.332  16.102  1.00  0.00     0.011 C 
BRANCH  15  16
ATOM     16  C   UNL     1     -16.237  -1.718  14.975  1.00  0.00     0.001 CG0
ATOM     17  G   UNL     1     -15.630  -3.104  15.174  1.00  0.00     0.000 G0
ENDBRANCH  15  16
ENDBRANCH   1  15
TORSDOF 0
ENDMDL
MODEL 2
REMARK VINA RESULT:    11.315      1.466      3.127
REMARK INTER + INTRA:          14.593
REMARK INTER:                  13.966
REMARK INTRA:                   0.627
REMARK UNBOUND:                 0.632
REMARK SMILES C=C1[C@H]2CC[C@@H]3[C@H]2C(C)(C)CCC[C@]13C
REMARK SMILES IDX 14 1 6 2 7 3 3 4 2 5 1 6 4 7 5 8 15 9 8 10 9 11 10 12 11 13
REMARK SMILES IDX 13 15 12 16
REMARK H PARENT
REMARK Flexibility Score: 80.00
ROOT
ATOM      1  C   UNL     1     -16.115  -1.851  16.157  1.00  0.00    -0.008 C 
ATOM      2  C   UNL     1     -16.741  -1.281  17.490  1.00  0.00     0.003 C 
ATOM      3  C   UNL     1     -15.543  -1.135  18.452  1.00  0.00     0.006 C 
ATOM      4  C   UNL     1     -14.713  -0.328  17.452  1.00  0.00     0.019 C 
ATOM      5  C   UNL     1     -14.755  -1.201  16.230  1.00  0.00    -0.068 C 
ATOM      6  C   UNL     1     -13.778  -1.302  15.322  1.00  0.00     0.009 C 
ATOM      7  C   UNL     1     -15.662   0.863  17.177  1.00  0.00     0.008 C 
ATOM      8  C   UNL     1     -17.068   0.226  17.306  1.00  0.00     0.005 C 
ATOM      9  C   UNL     1     -16.870  -1.400  14.875  1.00  0.00     0.016 C 
ENDROOT
BRANCH   3  10
ATOM     10  C   UNL     1     -14.918  -2.424  19.141  1.00  0.00    -0.032 C 
ATOM     11  C   UNL     1     -13.369  -2.355  19.175  1.00  0.00     0.011 C 
ATOM     12  C   UNL     1     -15.381  -2.442  20.624  1.00  0.00     0.011 C 
BRANCH  10  13
ATOM     13  C   UNL     1     -15.392  -3.781  18.547  1.00  0.00     0.007 CG0
ATOM     14  G   UNL     1     -15.049  -4.021  17.079  1.00  0.00     0.000 G0
ENDBRANCH  10  13
ENDBRANCH   3  10
BRANCH   1  15
ATOM     15  C   UNL     1     -16.054  -3.402  16.136  1.00  0.00     0.011 C 
BRANCH  15  16
ATOM     16  C   UNL     1     -15.042  -4.042  17.082  1.00  0.00     0.001 CG0
ATOM     17  G   UNL     1     -15.379  -3.797  18.550  1.00  0.00     0.000 G0
ENDBRANCH  15  16
ENDBRANCH   1  15
TORSDOF 0
ENDMDL
MODEL 3
REMARK VINA RESULT:    11.582      1.762      3.869
REMARK INTER + INTRA:          14.922
REMARK INTER:                  14.284
REMARK INTRA:                   0.638
REMARK UNBOUND:                 0.632
REMARK SMILES C=C1[C@H]2CC[C@@H]3[C@H]2C(C)(C)CCC[C@]13C
REMARK SMILES IDX 14 1 6 2 7 3 3 4 2 5 1 6 4 7 5 8 15 9 8 10 9 11 10 12 11 13
REMARK SMILES IDX 13 15 12 16
REMARK H PARENT
REMARK Flexibility Score: 80.00
ROOT
ATOM      1  C   UNL     1     -14.402  -1.609  16.311  1.00  0.00    -0.008 C 
ATOM      2  C   UNL     1     -13.330  -2.267  17.267  1.00  0.00     0.003 C 
ATOM      3  C   UNL     1     -14.156  -3.131  18.243  1.00  0.00     0.006 C 
ATOM      4  C   UNL     1     -14.903  -3.858  17.123  1.00  0.00     0.019 C 
ATOM      5  C   UNL     1     -15.430  -2.714  16.303  1.00  0.00    -0.068 C 
ATOM      6  C   UNL     1     -16.576  -2.726  15.612  1.00  0.00     0.009 C 
ATOM      7  C   UNL     1     -13.722  -4.464  16.328  1.00  0.00     0.008 C 
ATOM      8  C   UNL     1     -12.599  -3.413  16.514  1.00  0.00     0.005 C 
ATOM      9  C   UNL     1     -13.872  -1.343  14.875  1.00  0.00     0.016 C 
ENDROOT
BRANCH   3  10
ATOM     10  C   UNL     1     -14.971  -2.438  19.418  1.00  0.00    -0.032 C 
ATOM     11  C   UNL     1     -16.371  -3.081  19.594  1.00  0.00     0.011 C 
ATOM     12  C   UNL     1     -14.206  -2.700  20.746  1.00  0.00     0.011 C 
BRANCH  10  13
ATOM     13  C   UNL     1     -15.090  -0.891  19.312  1.00  0.00     0.007 CG0
ATOM     14  G   UNL     1     -15.841  -0.364  18.093  1.00  0.00     0.000 G0
ENDBRANCH  10  13
ENDBRANCH   3  10
BRANCH   1  15
ATOM     15  C   UNL     1     -14.950  -0.265  16.859  1.00  0.00     0.011 C 
BRANCH  15  16
ATOM     16  C   UNL     1     -15.848  -0.362  18.089  1.00  0.00     0.001 CG0
ATOM     17  G   UNL     1     -15.100  -0.866  19.320  1.00  0.00     0.000 G0
ENDBRANCH  15  16
ENDBRANCH   1  15
TORSDOF 0
ENDMDL
MODEL 4
REMARK VINA RESULT:    11.951      1.104      3.511
REMARK INTER + INTRA:          15.377
REMARK INTER:                  14.733
REMARK INTRA:                   0.644
REMARK UNBOUND:                 0.632
REMARK SMILES C=C1[C@H]2CC[C@@H]3[C@H]2C(C)(C)CCC[C@]13C
REMARK SMILES IDX 14 1 6 2 7 3 3 4 2 5 1 6 4 7 5 8 15 9 8 10 9 11 10 12 11 13
REMARK SMILES IDX 13 15 12 16
REMARK H PARENT
REMARK Flexibility Score: 80.00
ROOT
ATOM      1  C   UNL     1     -15.039  -3.180  16.349  1.00  0.00    -0.008 C 
ATOM      2  C   UNL     1     -14.151  -1.884  16.508  1.00  0.00     0.003 C 
ATOM      3  C   UNL     1     -14.899  -1.023  17.547  1.00  0.00     0.006 C 
ATOM      4  C   UNL     1     -14.991  -2.158  18.567  1.00  0.00     0.019 C 
ATOM      5  C   UNL     1     -15.592  -3.268  17.751  1.00  0.00    -0.068 C 
ATOM      6  C   UNL     1     -16.406  -4.218  18.225  1.00  0.00     0.009 C 
ATOM      7  C   UNL     1     -13.495  -2.508  18.753  1.00  0.00     0.008 C 
ATOM      8  C   UNL     1     -12.892  -2.219  17.356  1.00  0.00     0.005 C 
ATOM      9  C   UNL     1     -14.220  -4.455  16.004  1.00  0.00     0.016 C 
ENDROOT
BRANCH   3  10
ATOM     10  C   UNL     1     -16.210  -0.231  17.122  1.00  0.00    -0.032 C 
ATOM     11  C   UNL     1     -17.309  -0.326  18.213  1.00  0.00     0.011 C 
ATOM     12  C   UNL     1     -15.842   1.274  17.011  1.00  0.00     0.011 C 
BRANCH  10  13
ATOM     13  C   UNL     1     -16.788  -0.616  15.731  1.00  0.00     0.007 CG0
ATOM     14  G   UNL     1     -17.256  -2.061  15.581  1.00  0.00     0.000 G0
ENDBRANCH  10  13
ENDBRANCH   3  10
BRANCH   1  15
ATOM     15  C   UNL     1     -16.138  -3.027  15.264  1.00  0.00     0.011 C 
BRANCH  15  16
ATOM     16  C   UNL     1     -17.264  -2.051  15.588  1.00  0.00     0.001 CG0
ATOM     17  G   UNL     1     -16.771  -0.613  15.719  1.00  0.00     0.000 G0
ENDBRANCH  15  16
ENDBRANCH   1  15
TORSDOF 0
ENDMDL
MODEL 5
REMARK VINA RESULT:    12.140      1.319      1.954
REMARK INTER + INTRA:          15.611
REMARK INTER:                  14.981
REMARK INTRA:                   0.630
REMARK UNBOUND:                 0.632
REMARK SMILES C=C1[C@H]2CC[C@@H]3[C@H]2C(C)(C)CCC[C@]13C
REMARK SMILES IDX 14 1 6 2 7 3 3 4 2 5 1 6 4 7 5 8 15 9 8 10 9 11 10 12 11 13
REMARK SMILES IDX 13 15 12 16
REMARK H PARENT
REMARK Flexibility Score: 80.00
ROOT
ATOM      1  C   UNL     1     -15.734  -2.908  18.027  1.00  0.00    -0.008 C 
ATOM      2  C   UNL     1     -14.274  -3.146  18.579  1.00  0.00     0.003 C 
ATOM      3  C   UNL     1     -13.358  -2.370  17.610  1.00  0.00     0.006 C 
ATOM      4  C   UNL     1     -14.151  -1.069  17.746  1.00  0.00     0.019 C 
ATOM      5  C   UNL     1     -15.554  -1.523  17.455  1.00  0.00    -0.068 C 
ATOM      6  C   UNL     1     -16.498  -0.778  16.868  1.00  0.00     0.009 C 
ATOM      7  C   UNL     1     -14.071  -0.836  19.274  1.00  0.00     0.008 C 
ATOM      8  C   UNL     1     -14.051  -2.275  19.847  1.00  0.00     0.005 C 
ATOM      9  C   UNL     1     -16.824  -2.905  19.134  1.00  0.00     0.016 C 
ENDROOT
BRANCH   3  10
ATOM     10  C   UNL     1     -13.050  -2.961  16.167  1.00  0.00    -0.032 C 
ATOM     11  C   UNL     1     -13.080  -1.854  15.081  1.00  0.00     0.011 C 
ATOM     12  C   UNL     1     -11.599  -3.514  16.179  1.00  0.00     0.011 C 
BRANCH  10  13
ATOM     13  C   UNL     1     -13.943  -4.163  15.745  1.00  0.00     0.007 CG0
ATOM     14  G   UNL     1     -15.438  -3.876  15.637  1.00  0.00     0.000 G0
ENDBRANCH  10  13
ENDBRANCH   3  10
BRANCH   1  15
ATOM     15  C   UNL     1     -16.155  -3.959  16.966  1.00  0.00     0.011 C 
BRANCH  15  16
ATOM     16  C   UNL     1     -15.435  -3.879  15.623  1.00  0.00     0.001 CG0
ATOM     17  G   UNL     1     -13.939  -4.156  15.746  1.00  0.00     0.000 G0
ENDBRANCH  15  16
ENDBRANCH   1  15
TORSDOF 0
ENDMDL
MODEL 6
REMARK VINA RESULT:    12.198      1.749      3.447
REMARK INTER + INTRA:          15.683
REMARK INTER:                  15.062
REMARK INTRA:                   0.621
REMARK UNBOUND:                 0.632
REMARK SMILES C=C1[C@H]2CC[C@@H]3[C@H]2C(C)(C)CCC[C@]13C
REMARK SMILES IDX 14 1 6 2 7 3 3 4 2 5 1 6 4 7 5 8 15 9 8 10 9 11 10 12 11 13
REMARK SMILES IDX 13 15 12 16
REMARK H PARENT
REMARK Flexibility Score: 80.00
ROOT
ATOM      1  C   UNL     1     -14.622  -1.583  19.158  1.00  0.00    -0.008 C 
ATOM      2  C   UNL     1     -14.440  -0.687  17.870  1.00  0.00     0.003 C 
ATOM      3  C   UNL     1     -14.841  -1.605  16.696  1.00  0.00     0.006 C 
ATOM      4  C   UNL     1     -16.183  -1.984  17.323  1.00  0.00     0.019 C 
ATOM      5  C   UNL     1     -15.773  -2.443  18.694  1.00  0.00    -0.068 C 
ATOM      6  C   UNL     1     -16.392  -3.392  19.406  1.00  0.00     0.009 C 
ATOM      7  C   UNL     1     -16.829  -0.590  17.499  1.00  0.00     0.008 C 
ATOM      8  C   UNL     1     -15.612   0.328  17.775  1.00  0.00     0.005 C 
ATOM      9  C   UNL     1     -15.018  -0.776  20.425  1.00  0.00     0.016 C 
ENDROOT
BRANCH   3  10
ATOM     10  C   UNL     1     -13.846  -2.743  16.205  1.00  0.00    -0.032 C 
ATOM     11  C   UNL     1     -14.605  -4.053  15.868  1.00  0.00     0.011 C 
ATOM     12  C   UNL     1     -13.197  -2.267  14.877  1.00  0.00     0.011 C 
BRANCH  10  13
ATOM     13  C   UNL     1     -12.655  -3.033  17.163  1.00  0.00     0.007 CG0
ATOM     14  G   UNL     1     -13.028  -3.534  18.555  1.00  0.00     0.000 G0
ENDBRANCH  10  13
ENDBRANCH   3  10
BRANCH   1  15
ATOM     15  C   UNL     1     -13.349  -2.399  19.508  1.00  0.00     0.011 C 
BRANCH  15  16
ATOM     16  C   UNL     1     -13.001  -3.536  18.552  1.00  0.00     0.001 CG0
ATOM     17  G   UNL     1     -12.643  -3.035  17.156  1.00  0.00     0.000 G0
ENDBRANCH  15  16
ENDBRANCH   1  15
TORSDOF 0
ENDMDL
MODEL 7
REMARK VINA RESULT:    12.440      7.210      9.131
REMARK INTER + INTRA:          15.981
REMARK INTER:                  15.349
REMARK INTRA:                   0.633
REMARK UNBOUND:                 0.632
REMARK SMILES C=C1[C@H]2CC[C@@H]3[C@H]2C(C)(C)CCC[C@]13C
REMARK SMILES IDX 14 1 6 2 7 3 3 4 2 5 1 6 4 7 5 8 15 9 8 10 9 11 10 12 11 13
REMARK SMILES IDX 13 15 12 16
REMARK H PARENT
REMARK Flexibility Score: 80.00
ROOT
ATOM      1  C   UNL     1      -8.999  -8.428  20.637  1.00  0.00    -0.008 C 
ATOM      2  C   UNL     1      -8.934  -6.875  20.358  1.00  0.00     0.003 C 
ATOM      3  C   UNL     1     -10.172  -6.583  19.485  1.00  0.00     0.006 C 
ATOM      4  C   UNL     1     -11.139  -7.265  20.454  1.00  0.00     0.019 C 
ATOM      5  C   UNL     1     -10.497  -8.610  20.645  1.00  0.00    -0.068 C 
ATOM      6  C   UNL     1     -11.156  -9.752  20.874  1.00  0.00     0.009 C 
ATOM      7  C   UNL     1     -10.871  -6.461  21.749  1.00  0.00     0.008 C 
ATOM      8  C   UNL     1      -9.369  -6.101  21.633  1.00  0.00     0.005 C 
ATOM      9  C   UNL     1      -8.390  -8.838  22.006  1.00  0.00     0.016 C 
ENDROOT
BRANCH   3  10
ATOM     10  C   UNL     1     -10.172  -6.992  17.949  1.00  0.00    -0.032 C 
ATOM     11  C   UNL     1     -11.534  -7.600  17.523  1.00  0.00     0.011 C 
ATOM     12  C   UNL     1      -9.998  -5.695  17.111  1.00  0.00     0.011 C 
BRANCH  10  13
ATOM     13  C   UNL     1      -9.001  -7.920  17.516  1.00  0.00     0.007 CG0
ATOM     14  G   UNL     1      -8.965  -9.296  18.173  1.00  0.00     0.000 G0
ENDBRANCH  10  13
ENDBRANCH   3  10
BRANCH   1  15
ATOM     15  C   UNL     1      -8.285  -9.266  19.543  1.00  0.00     0.011 C 
BRANCH  15  16
ATOM     16  C   UNL     1      -8.960  -9.292  18.175  1.00  0.00     0.001 CG0
ATOM     17  G   UNL     1      -9.007  -7.914  17.521  1.00  0.00     0.000 G0
ENDBRANCH  15  16
ENDBRANCH   1  15
TORSDOF 0
ENDMDL
MODEL 8
REMARK VINA RESULT:    12.699      2.072      4.227
REMARK INTER + INTRA:          16.300
REMARK INTER:                  15.668
REMARK INTRA:                   0.633
REMARK UNBOUND:                 0.632
REMARK SMILES C=C1[C@H]2CC[C@@H]3[C@H]2C(C)(C)CCC[C@]13C
REMARK SMILES IDX 14 1 6 2 7 3 3 4 2 5 1 6 4 7 5 8 15 9 8 10 9 11 10 12 11 13
REMARK SMILES IDX 13 15 12 16
REMARK H PARENT
REMARK Flexibility Score: 80.00
ROOT
ATOM      1  C   UNL     1     -13.686  -3.524  16.122  1.00  0.00    -0.008 C 
ATOM      2  C   UNL     1     -15.054  -3.966  16.776  1.00  0.00     0.003 C 
ATOM      3  C   UNL     1     -15.635  -2.670  17.380  1.00  0.00     0.006 C 
ATOM      4  C   UNL     1     -15.495  -1.883  16.076  1.00  0.00     0.019 C 
ATOM      5  C   UNL     1     -14.054  -2.116  15.720  1.00  0.00    -0.068 C 
ATOM      6  C   UNL     1     -13.270  -1.245  15.073  1.00  0.00     0.009 C 
ATOM      7  C   UNL     1     -16.334  -2.758  15.115  1.00  0.00     0.008 C 
ATOM      8  C   UNL     1     -16.113  -4.190  15.662  1.00  0.00     0.005 C 
ATOM      9  C   UNL     1     -13.295  -4.364  14.875  1.00  0.00     0.016 C 
ENDROOT
BRANCH   3  10
ATOM     10  C   UNL     1     -15.029  -2.083  18.727  1.00  0.00    -0.032 C 
ATOM     11  C   UNL     1     -14.890  -0.540  18.663  1.00  0.00     0.011 C 
ATOM     12  C   UNL     1     -16.038  -2.378  19.871  1.00  0.00     0.011 C 
BRANCH  10  13
ATOM     13  C   UNL     1     -13.691  -2.733  19.184  1.00  0.00     0.007 CG0
ATOM     14  G   UNL     1     -12.515  -2.579  18.223  1.00  0.00     0.000 G0
ENDBRANCH  10  13
ENDBRANCH   3  10
BRANCH   1  15
ATOM     15  C   UNL     1     -12.496  -3.587  17.115  1.00  0.00     0.011 C 
BRANCH  15  16
ATOM     16  C   UNL     1     -12.511  -2.558  18.242  1.00  0.00     0.001 CG0
ATOM     17  G   UNL     1     -13.688  -2.753  19.193  1.00  0.00     0.000 G0
ENDBRANCH  15  16
ENDBRANCH   1  15
TORSDOF 0
ENDMDL
MODEL 9
REMARK VINA RESULT:    12.912      1.970      3.953
REMARK INTER + INTRA:          16.564
REMARK INTER:                  15.937
REMARK INTRA:                   0.626
REMARK UNBOUND:                 0.632
REMARK SMILES C=C1[C@H]2CC[C@@H]3[C@H]2C(C)(C)CCC[C@]13C
REMARK SMILES IDX 14 1 6 2 7 3 3 4 2 5 1 6 4 7 5 8 15 9 8 10 9 11 10 12 11 13
REMARK SMILES IDX 13 15 12 16
REMARK H PARENT
REMARK Flexibility Score: 80.00
ROOT
ATOM      1  C   UNL     1     -15.433  -2.124  16.737  1.00  0.00    -0.008 C 
ATOM      2  C   UNL     1     -14.128  -1.284  17.031  1.00  0.00     0.003 C 
ATOM      3  C   UNL     1     -13.267  -2.202  17.924  1.00  0.00     0.006 C 
ATOM      4  C   UNL     1     -13.353  -3.386  16.961  1.00  0.00     0.019 C 
ATOM      5  C   UNL     1     -14.836  -3.511  16.747  1.00  0.00    -0.068 C 
ATOM      6  C   UNL     1     -15.487  -4.656  16.515  1.00  0.00     0.009 C 
ATOM      7  C   UNL     1     -12.773  -2.758  15.671  1.00  0.00     0.008 C 
ATOM      8  C   UNL     1     -13.220  -1.279  15.771  1.00  0.00     0.005 C 
ATOM      9  C   UNL     1     -16.072  -1.814  15.355  1.00  0.00     0.016 C 
ENDROOT
BRANCH   3  10
ATOM     10  C   UNL     1     -13.644  -2.398  19.456  1.00  0.00    -0.032 C 
ATOM     11  C   UNL     1     -13.477  -3.875  19.897  1.00  0.00     0.011 C 
ATOM     12  C   UNL     1     -12.634  -1.577  20.304  1.00  0.00     0.011 C 
BRANCH  10  13
ATOM     13  C   UNL     1     -15.048  -1.863  19.860  1.00  0.00     0.007 CG0
ATOM     14  G   UNL     1     -16.236  -2.522  19.165  1.00  0.00     0.000 G0
ENDBRANCH  10  13
ENDBRANCH   3  10
BRANCH   1  15
ATOM     15  C   UNL     1     -16.533  -1.922  17.812  1.00  0.00     0.011 C 
BRANCH  15  16
ATOM     16  C   UNL     1     -16.243  -2.521  19.185  1.00  0.00     0.001 CG0
ATOM     17  G   UNL     1     -15.044  -1.865  19.865  1.00  0.00     0.000 G0
ENDBRANCH  15  16
ENDBRANCH   1  15
TORSDOF 0
ENDMDL
