MODEL 1
REMARK VINA RESULT:    -4.197      0.000      0.000
REMARK INTER + INTRA:          -6.024
REMARK INTER:                  -5.669
REMARK INTRA:                  -0.355
REMARK UNBOUND:                -0.355
REMARK SMILES CCCCCCC=CC(=O)[O-]
REMARK SMILES IDX 5 1 6 2 7 3 8 4 9 5 10 6 11 7 4 8 3 9 2 10 1 11
REMARK H PARENT
REMARK Flexibility Score: inf
ROOT
ATOM      1  C   UNL     1     -29.241  -7.562  23.949  1.00  0.00     0.004 C 
ENDROOT
BRANCH   1   2
ATOM      2  C   UNL     1     -29.149  -8.670  22.891  1.00  0.00     0.027 C 
BRANCH   2   3
ATOM      3  C   UNL     1     -27.933  -8.494  22.021  1.00  0.00    -0.025 C 
ATOM      4  C   UNL     1     -27.917  -8.506  20.677  1.00  0.00     0.020 C 
BRANCH   4   5
ATOM      5  C   UNL     1     -29.070  -8.733  19.782  1.00  0.00     0.064 C 
ATOM      6  O   UNL     1     -29.922  -7.837  19.547  1.00  0.00    -0.545 OA
ATOM      7  O   UNL     1     -29.231  -9.983  19.199  1.00  0.00    -0.545 OA
ENDBRANCH   4   5
ENDBRANCH   2   3
ENDBRANCH   1   2
BRANCH   1   8
ATOM      8  C   UNL     1     -27.963  -6.713  23.967  1.00  0.00     0.000 C 
BRANCH   8   9
ATOM      9  C   UNL     1     -28.097  -5.456  24.842  1.00  0.00    -0.000 C 
BRANCH   9  10
ATOM     10  C   UNL     1     -27.238  -5.528  26.113  1.00  0.00    -0.003 C 
ATOM     11  C   UNL     1     -28.083  -5.915  27.324  1.00  0.00     0.004 C 
ENDBRANCH   9  10
ENDBRANCH   8   9
ENDBRANCH   1   8
TORSDOF 6
ENDMDL
MODEL 2
REMARK VINA RESULT:    -3.970     12.152     12.973
REMARK INTER + INTRA:          -5.718
REMARK INTER:                  -4.936
REMARK INTRA:                  -0.782
REMARK UNBOUND:                -0.355
REMARK SMILES CCCCCCC=CC(=O)[O-]
REMARK SMILES IDX 5 1 6 2 7 3 8 4 9 5 10 6 11 7 4 8 3 9 2 10 1 11
REMARK H PARENT
REMARK Flexibility Score: inf
ROOT
ATOM      1  C   UNL     1     -32.923   1.260  17.414  1.00  0.00     0.004 C 
ENDROOT
BRANCH   1   2
ATOM      2  C   UNL     1     -34.201   0.446  17.175  1.00  0.00     0.027 C 
BRANCH   2   3
ATOM      3  C   UNL     1     -34.599   0.469  15.723  1.00  0.00    -0.025 C 
ATOM      4  C   UNL     1     -35.443   1.345  15.151  1.00  0.00     0.020 C 
BRANCH   4   5
ATOM      5  C   UNL     1     -36.180   2.432  15.827  1.00  0.00     0.064 C 
ATOM      6  O   UNL     1     -35.748   3.614  15.859  1.00  0.00    -0.545 OA
ATOM      7  O   UNL     1     -37.377   2.136  16.466  1.00  0.00    -0.545 OA
ENDBRANCH   4   5
ENDBRANCH   2   3
ENDBRANCH   1   2
BRANCH   1   8
ATOM      8  C   UNL     1     -33.237   2.574  18.142  1.00  0.00     0.000 C 
BRANCH   8   9
ATOM      9  C   UNL     1     -33.940   2.352  19.491  1.00  0.00    -0.000 C 
BRANCH   9  10
ATOM     10  C   UNL     1     -35.364   2.926  19.517  1.00  0.00    -0.003 C 
ATOM     11  C   UNL     1     -36.379   1.855  19.907  1.00  0.00     0.004 C 
ENDBRANCH   9  10
ENDBRANCH   8   9
ENDBRANCH   1   8
TORSDOF 6
ENDMDL
MODEL 3
REMARK VINA RESULT:    -3.958     12.247     13.276
REMARK INTER + INTRA:          -5.702
REMARK INTER:                  -4.756
REMARK INTRA:                  -0.945
REMARK UNBOUND:                -0.355
REMARK SMILES CCCCCCC=CC(=O)[O-]
REMARK SMILES IDX 5 1 6 2 7 3 8 4 9 5 10 6 11 7 4 8 3 9 2 10 1 11
REMARK H PARENT
REMARK Flexibility Score: inf
ROOT
ATOM      1  C   UNL     1     -34.198   2.018  19.703  1.00  0.00     0.004 C 
ENDROOT
BRANCH   1   2
ATOM      2  C   UNL     1     -35.493   2.830  19.565  1.00  0.00     0.027 C 
BRANCH   2   3
ATOM      3  C   UNL     1     -36.600   1.997  18.977  1.00  0.00    -0.025 C 
ATOM      4  C   UNL     1     -37.080   2.093  17.725  1.00  0.00     0.020 C 
BRANCH   4   5
ATOM      5  C   UNL     1     -36.652   3.053  16.687  1.00  0.00     0.064 C 
ATOM      6  O   UNL     1     -35.588   2.901  16.032  1.00  0.00    -0.545 OA
ATOM      7  O   UNL     1     -37.439   4.171  16.442  1.00  0.00    -0.545 OA
ENDBRANCH   4   5
ENDBRANCH   2   3
ENDBRANCH   1   2
BRANCH   1   8
ATOM      8  C   UNL     1     -33.160   2.461  18.662  1.00  0.00     0.000 C 
BRANCH   8   9
ATOM      9  C   UNL     1     -32.895   1.388  17.594  1.00  0.00    -0.000 C 
BRANCH   9  10
ATOM     10  C   UNL     1     -33.540   0.039  17.940  1.00  0.00    -0.003 C 
ATOM     11  C   UNL     1     -34.453  -0.437  16.813  1.00  0.00     0.004 C 
ENDBRANCH   9  10
ENDBRANCH   8   9
ENDBRANCH   1   8
TORSDOF 6
ENDMDL
MODEL 4
REMARK VINA RESULT:    -3.915     12.535     13.319
REMARK INTER + INTRA:          -5.643
REMARK INTER:                  -4.895
REMARK INTRA:                  -0.749
REMARK UNBOUND:                -0.355
REMARK SMILES CCCCCCC=CC(=O)[O-]
REMARK SMILES IDX 5 1 6 2 7 3 8 4 9 5 10 6 11 7 4 8 3 9 2 10 1 11
REMARK H PARENT
REMARK Flexibility Score: inf
ROOT
ATOM      1  C   UNL     1     -36.157   1.638  19.124  1.00  0.00     0.004 C 
ENDROOT
BRANCH   1   2
ATOM      2  C   UNL     1     -37.254   2.094  18.152  1.00  0.00     0.027 C 
BRANCH   2   3
ATOM      3  C   UNL     1     -36.732   3.118  17.181  1.00  0.00    -0.025 C 
ATOM      4  C   UNL     1     -36.321   2.876  15.924  1.00  0.00     0.020 C 
BRANCH   4   5
ATOM      5  C   UNL     1     -36.259   1.561  15.253  1.00  0.00     0.064 C 
ATOM      6  O   UNL     1     -35.166   1.009  14.962  1.00  0.00    -0.545 OA
ATOM      7  O   UNL     1     -37.445   0.925  14.911  1.00  0.00    -0.545 OA
ENDBRANCH   4   5
ENDBRANCH   2   3
ENDBRANCH   1   2
BRANCH   1   8
ATOM      8  C   UNL     1     -35.277   2.821  19.550  1.00  0.00     0.000 C 
BRANCH   8   9
ATOM      9  C   UNL     1     -33.775   2.504  19.466  1.00  0.00    -0.000 C 
BRANCH   9  10
ATOM     10  C   UNL     1     -33.240   2.553  18.027  1.00  0.00    -0.003 C 
ATOM     11  C   UNL     1     -32.842   1.162  17.543  1.00  0.00     0.004 C 
ENDBRANCH   9  10
ENDBRANCH   8   9
ENDBRANCH   1   8
TORSDOF 6
ENDMDL
MODEL 5
REMARK VINA RESULT:    -3.907     12.900     13.752
REMARK INTER + INTRA:          -5.632
REMARK INTER:                  -4.757
REMARK INTRA:                  -0.875
REMARK UNBOUND:                -0.355
REMARK SMILES CCCCCCC=CC(=O)[O-]
REMARK SMILES IDX 5 1 6 2 7 3 8 4 9 5 10 6 11 7 4 8 3 9 2 10 1 11
REMARK H PARENT
REMARK Flexibility Score: inf
ROOT
ATOM      1  C   UNL     1     -34.124   2.069  19.218  1.00  0.00     0.004 C 
ENDROOT
BRANCH   1   2
ATOM      2  C   UNL     1     -33.854   2.523  17.778  1.00  0.00     0.027 C 
BRANCH   2   3
ATOM      3  C   UNL     1     -34.614   1.682  16.788  1.00  0.00    -0.025 C 
ATOM      4  C   UNL     1     -35.616   2.106  15.998  1.00  0.00     0.020 C 
BRANCH   4   5
ATOM      5  C   UNL     1     -36.201   3.462  15.964  1.00  0.00     0.064 C 
ATOM      6  O   UNL     1     -37.133   3.808  16.736  1.00  0.00    -0.545 OA
ATOM      7  O   UNL     1     -35.723   4.376  15.035  1.00  0.00    -0.545 OA
ENDBRANCH   4   5
ENDBRANCH   2   3
ENDBRANCH   1   2
BRANCH   1   8
ATOM      8  C   UNL     1     -35.420   2.690  19.755  1.00  0.00     0.000 C 
BRANCH   8   9
ATOM      9  C   UNL     1     -36.421   1.636  20.257  1.00  0.00    -0.000 C 
BRANCH   9  10
ATOM     10  C   UNL     1     -37.752   1.674  19.492  1.00  0.00    -0.003 C 
ATOM     11  C   UNL     1     -37.845   0.520  18.498  1.00  0.00     0.004 C 
ENDBRANCH   9  10
ENDBRANCH   8   9
ENDBRANCH   1   8
TORSDOF 6
ENDMDL
MODEL 6
REMARK VINA RESULT:    -3.905      2.764      5.996
REMARK INTER + INTRA:          -5.629
REMARK INTER:                  -5.205
REMARK INTRA:                  -0.424
REMARK UNBOUND:                -0.355
REMARK SMILES CCCCCCC=CC(=O)[O-]
REMARK SMILES IDX 5 1 6 2 7 3 8 4 9 5 10 6 11 7 4 8 3 9 2 10 1 11
REMARK H PARENT
REMARK Flexibility Score: inf
ROOT
ATOM      1  C   UNL     1     -28.246  -8.379  20.688  1.00  0.00     0.004 C 
ENDROOT
BRANCH   1   2
ATOM      2  C   UNL     1     -27.773  -8.634  22.125  1.00  0.00     0.027 C 
BRANCH   2   3
ATOM      3  C   UNL     1     -28.886  -8.413  23.114  1.00  0.00    -0.025 C 
ATOM      4  C   UNL     1     -29.074  -7.308  23.856  1.00  0.00     0.020 C 
BRANCH   4   5
ATOM      5  C   UNL     1     -28.213  -6.108  23.887  1.00  0.00     0.064 C 
ATOM      6  O   UNL     1     -28.439  -5.104  23.162  1.00  0.00    -0.545 OA
ATOM      7  O   UNL     1     -27.106  -6.097  24.724  1.00  0.00    -0.545 OA
ENDBRANCH   4   5
ENDBRANCH   2   3
ENDBRANCH   1   2
BRANCH   1   8
ATOM      8  C   UNL     1     -29.533  -9.160  20.388  1.00  0.00     0.000 C 
BRANCH   8   9
ATOM      9  C   UNL     1     -29.451  -9.959  19.076  1.00  0.00    -0.000 C 
BRANCH   9  10
ATOM     10  C   UNL     1     -28.710  -9.197  17.967  1.00  0.00    -0.003 C 
ATOM     11  C   UNL     1     -29.652  -8.249  17.231  1.00  0.00     0.004 C 
ENDBRANCH   9  10
ENDBRANCH   8   9
ENDBRANCH   1   8
TORSDOF 6
ENDMDL
MODEL 7
REMARK VINA RESULT:    -3.892     13.123     14.240
REMARK INTER + INTRA:          -5.612
REMARK INTER:                  -4.977
REMARK INTRA:                  -0.635
REMARK UNBOUND:                -0.355
REMARK SMILES CCCCCCC=CC(=O)[O-]
REMARK SMILES IDX 5 1 6 2 7 3 8 4 9 5 10 6 11 7 4 8 3 9 2 10 1 11
REMARK H PARENT
REMARK Flexibility Score: inf
ROOT
ATOM      1  C   UNL     1     -37.371   0.860  17.186  1.00  0.00     0.004 C 
ENDROOT
BRANCH   1   2
ATOM      2  C   UNL     1     -36.503   0.776  18.449  1.00  0.00     0.027 C 
BRANCH   2   3
ATOM      3  C   UNL     1     -36.478   2.090  19.182  1.00  0.00    -0.025 C 
ATOM      4  C   UNL     1     -35.387   2.836  19.425  1.00  0.00     0.020 C 
BRANCH   4   5
ATOM      5  C   UNL     1     -33.993   2.508  19.061  1.00  0.00     0.064 C 
ATOM      6  O   UNL     1     -33.473   2.898  17.984  1.00  0.00    -0.545 OA
ATOM      7  O   UNL     1     -33.240   1.725  19.927  1.00  0.00    -0.545 OA
ENDBRANCH   4   5
ENDBRANCH   2   3
ENDBRANCH   1   2
BRANCH   1   8
ATOM      8  C   UNL     1     -36.715   1.759  16.129  1.00  0.00     0.000 C 
BRANCH   8   9
ATOM      9  C   UNL     1     -37.608   2.940  15.716  1.00  0.00    -0.000 C 
BRANCH   9  10
ATOM     10  C   UNL     1     -37.006   4.299  16.102  1.00  0.00    -0.003 C 
ATOM     11  C   UNL     1     -35.938   4.729  15.101  1.00  0.00     0.004 C 
ENDBRANCH   9  10
ENDBRANCH   8   9
ENDBRANCH   1   8
TORSDOF 6
ENDMDL
MODEL 8
REMARK VINA RESULT:    -3.864     12.496     13.467
REMARK INTER + INTRA:          -5.574
REMARK INTER:                  -4.875
REMARK INTRA:                  -0.699
REMARK UNBOUND:                -0.355
REMARK SMILES CCCCCCC=CC(=O)[O-]
REMARK SMILES IDX 5 1 6 2 7 3 8 4 9 5 10 6 11 7 4 8 3 9 2 10 1 11
REMARK H PARENT
REMARK Flexibility Score: inf
ROOT
ATOM      1  C   UNL     1     -36.186   2.797  18.460  1.00  0.00     0.004 C 
ENDROOT
BRANCH   1   2
ATOM      2  C   UNL     1     -35.049   2.041  19.159  1.00  0.00     0.027 C 
BRANCH   2   3
ATOM      3  C   UNL     1     -33.706   2.454  18.620  1.00  0.00    -0.025 C 
ATOM      4  C   UNL     1     -33.001   1.804  17.678  1.00  0.00     0.020 C 
BRANCH   4   5
ATOM      5  C   UNL     1     -33.374   0.541  17.009  1.00  0.00     0.064 C 
ATOM      6  O   UNL     1     -33.992   0.521  15.913  1.00  0.00    -0.545 OA
ATOM      7  O   UNL     1     -33.053  -0.663  17.622  1.00  0.00    -0.545 OA
ENDBRANCH   4   5
ENDBRANCH   2   3
ENDBRANCH   1   2
BRANCH   1   8
ATOM      8  C   UNL     1     -36.898   1.897  17.441  1.00  0.00     0.000 C 
BRANCH   8   9
ATOM      9  C   UNL     1     -36.955   2.518  16.036  1.00  0.00    -0.000 C 
BRANCH   9  10
ATOM     10  C   UNL     1     -36.963   4.053  16.069  1.00  0.00    -0.003 C 
ATOM     11  C   UNL     1     -35.900   4.627  15.136  1.00  0.00     0.004 C 
ENDBRANCH   9  10
ENDBRANCH   8   9
ENDBRANCH   1   8
TORSDOF 6
ENDMDL
MODEL 9
REMARK VINA RESULT:    -3.856     12.426     13.656
REMARK INTER + INTRA:          -5.563
REMARK INTER:                  -4.667
REMARK INTRA:                  -0.895
REMARK UNBOUND:                -0.355
REMARK SMILES CCCCCCC=CC(=O)[O-]
REMARK SMILES IDX 5 1 6 2 7 3 8 4 9 5 10 6 11 7 4 8 3 9 2 10 1 11
REMARK H PARENT
REMARK Flexibility Score: inf
ROOT
ATOM      1  C   UNL     1     -33.881   1.336  16.868  1.00  0.00     0.004 C 
ENDROOT
BRANCH   1   2
ATOM      2  C   UNL     1     -33.618   1.336  18.380  1.00  0.00     0.027 C 
BRANCH   2   3
ATOM      3  C   UNL     1     -34.002   2.652  19.001  1.00  0.00    -0.025 C 
ATOM      4  C   UNL     1     -35.139   2.906  19.671  1.00  0.00     0.020 C 
BRANCH   4   5
ATOM      5  C   UNL     1     -36.256   1.968  19.902  1.00  0.00     0.064 C 
ATOM      6  O   UNL     1     -37.272   1.941  19.160  1.00  0.00    -0.545 OA
ATOM      7  O   UNL     1     -36.194   1.104  20.988  1.00  0.00    -0.545 OA
ENDBRANCH   4   5
ENDBRANCH   2   3
ENDBRANCH   1   2
BRANCH   1   8
ATOM      8  C   UNL     1     -35.250   0.720  16.550  1.00  0.00     0.000 C 
BRANCH   8   9
ATOM      9  C   UNL     1     -36.106   1.615  15.638  1.00  0.00    -0.000 C 
BRANCH   9  10
ATOM     10  C   UNL     1     -35.821   3.110  15.842  1.00  0.00    -0.003 C 
ATOM     11  C   UNL     1     -37.092   3.864  16.222  1.00  0.00     0.004 C 
ENDBRANCH   9  10
ENDBRANCH   8   9
ENDBRANCH   1   8
TORSDOF 6
ENDMDL
