MODEL 1
REMARK VINA RESULT:    -7.070      0.000      0.000
REMARK INTER + INTRA:          -8.715
REMARK INTER:                  -8.517
REMARK INTRA:                  -0.198
REMARK UNBOUND:                -0.198
REMARK SMILES O=c1c(O)c(-c2ccc(O)c(O)c2)oc2cc(O)cc(O)c12
REMARK SMILES IDX 5 1 3 2 2 3 1 4 22 5 20 6 19 7 17 8 16 9 15 10 14 11 6 12
REMARK SMILES IDX 7 13 8 14 9 15 13 16 11 17 10 18 12 20 4 22 21 24 18 26
REMARK H PARENT 10 19 12 21 4 23 21 25 18 27
REMARK Flexibility Score: inf
ROOT
ATOM      1  C   UNL     1      30.938 -92.254  37.330  1.00  0.00     0.180 A 
ATOM      2  C   UNL     1      29.709 -92.851  36.986  1.00  0.00     0.208 A 
ATOM      3  C   UNL     1      29.569 -94.241  37.117  1.00  0.00     0.238 A 
ATOM      4  O   UNL     1      28.477 -94.786  36.801  1.00  0.00    -0.285 OA
ATOM      5  C   UNL     1      30.647 -95.007  37.608  1.00  0.00     0.111 A 
ATOM      6  C   UNL     1      30.586 -96.412  37.773  1.00  0.00     0.134 A 
ATOM      7  C   UNL     1      31.699 -97.101  38.275  1.00  0.00     0.093 A 
ATOM      8  C   UNL     1      32.868 -96.416  38.616  1.00  0.00     0.123 A 
ATOM      9  C   UNL     1      32.934 -95.028  38.453  1.00  0.00     0.094 A 
ATOM     10  C   UNL     1      31.836 -94.323  37.952  1.00  0.00     0.146 A 
ATOM     11  O   UNL     1      31.926 -93.006  37.804  1.00  0.00    -0.452 OA
ENDROOT
BRANCH   1  12
ATOM     12  C   UNL     1      31.169 -90.797  37.202  1.00  0.00     0.025 A 
ATOM     13  C   UNL     1      32.034 -90.321  36.207  1.00  0.00     0.016 A 
ATOM     14  C   UNL     1      32.250 -88.951  36.056  1.00  0.00     0.051 A 
ATOM     15  C   UNL     1      31.598 -88.029  36.882  1.00  0.00     0.157 A 
ATOM     16  C   UNL     1      30.495 -89.874  38.020  1.00  0.00     0.062 A 
ATOM     17  C   UNL     1      30.703 -88.496  37.873  1.00  0.00     0.158 A 
BRANCH  15  18
ATOM     18  O   UNL     1      31.864 -86.672  36.685  1.00  0.00    -0.504 OA
ATOM     19  H   UNL     1      32.775 -86.254  36.800  1.00  0.00     0.293 HD
ENDBRANCH  15  18
BRANCH  17  20
ATOM     20  O   UNL     1      30.001 -87.638  38.722  1.00  0.00    -0.504 OA
ATOM     21  H   UNL     1      29.025 -87.407  38.609  1.00  0.00     0.293 HD
ENDBRANCH  17  20
ENDBRANCH   1  12
BRANCH   2  22
ATOM     22  O   UNL     1      28.640 -92.063  36.550  1.00  0.00    -0.502 OA
ATOM     23  H   UNL     1      27.768 -92.001  37.061  1.00  0.00     0.293 HD
ENDBRANCH   2  22
BRANCH   6  24
ATOM     24  O   UNL     1      29.432 -97.125  37.444  1.00  0.00    -0.507 OA
ATOM     25  H   UNL     1      28.626 -97.144  38.056  1.00  0.00     0.293 HD
ENDBRANCH   6  24
BRANCH   8  26
ATOM     26  O   UNL     1      33.960 -97.125  39.113  1.00  0.00    -0.508 OA
ATOM     27  H   UNL     1      34.362 -97.903  38.605  1.00  0.00     0.293 HD
ENDBRANCH   8  26
TORSDOF 6
ENDMDL
MODEL 2
REMARK VINA RESULT:    -5.580      1.239      2.997
REMARK INTER + INTRA:          -6.921
REMARK INTER:                  -6.772
REMARK INTRA:                  -0.149
REMARK UNBOUND:                -0.198
REMARK SMILES O=c1c(O)c(-c2ccc(O)c(O)c2)oc2cc(O)cc(O)c12
REMARK SMILES IDX 5 1 3 2 2 3 1 4 22 5 20 6 19 7 17 8 16 9 15 10 14 11 6 12
REMARK SMILES IDX 7 13 8 14 9 15 13 16 11 17 10 18 12 20 4 22 21 24 18 26
REMARK H PARENT 10 19 12 21 4 23 21 25 18 27
REMARK Flexibility Score: inf
ROOT
ATOM      1  C   UNL     1      30.962 -92.082  37.284  1.00  0.00     0.180 A 
ATOM      2  C   UNL     1      31.998 -92.954  37.672  1.00  0.00     0.208 A 
ATOM      3  C   UNL     1      31.716 -94.322  37.815  1.00  0.00     0.238 A 
ATOM      4  O   UNL     1      32.632 -95.110  38.173  1.00  0.00    -0.285 OA
ATOM      5  C   UNL     1      30.414 -94.796  37.549  1.00  0.00     0.111 A 
ATOM      6  C   UNL     1      30.048 -96.159  37.665  1.00  0.00     0.134 A 
ATOM      7  C   UNL     1      28.735 -96.553  37.374  1.00  0.00     0.093 A 
ATOM      8  C   UNL     1      27.782 -95.615  36.969  1.00  0.00     0.123 A 
ATOM      9  C   UNL     1      28.138 -94.267  36.853  1.00  0.00     0.094 A 
ATOM     10  C   UNL     1      29.441 -93.854  37.141  1.00  0.00     0.146 A 
ATOM     11  O   UNL     1      29.752 -92.568  37.027  1.00  0.00    -0.452 OA
ENDROOT
BRANCH   1  12
ATOM     12  C   UNL     1      31.177 -90.625  37.131  1.00  0.00     0.025 A 
ATOM     13  C   UNL     1      32.038 -90.156  36.129  1.00  0.00     0.016 A 
ATOM     14  C   UNL     1      32.239 -88.786  35.954  1.00  0.00     0.051 A 
ATOM     15  C   UNL     1      31.574 -87.857  36.763  1.00  0.00     0.157 A 
ATOM     16  C   UNL     1      30.491 -89.695  37.932  1.00  0.00     0.062 A 
ATOM     17  C   UNL     1      30.683 -88.318  37.761  1.00  0.00     0.158 A 
BRANCH  15  18
ATOM     18  O   UNL     1      31.825 -86.501  36.542  1.00  0.00    -0.504 OA
ATOM     19  H   UNL     1      32.750 -86.102  36.480  1.00  0.00     0.293 HD
ENDBRANCH  15  18
BRANCH  17  20
ATOM     20  O   UNL     1      29.970 -87.453  38.593  1.00  0.00    -0.504 OA
ATOM     21  H   UNL     1      29.299 -86.776  38.260  1.00  0.00     0.293 HD
ENDBRANCH  17  20
ENDBRANCH   1  12
BRANCH   2  22
ATOM     22  O   UNL     1      33.290 -92.466  37.881  1.00  0.00    -0.502 OA
ATOM     23  H   UNL     1      34.115 -93.038  37.746  1.00  0.00     0.293 HD
ENDBRANCH   2  22
BRANCH   6  24
ATOM     24  O   UNL     1      30.977 -97.121  38.066  1.00  0.00    -0.507 OA
ATOM     25  H   UNL     1      30.714 -98.089  38.206  1.00  0.00     0.293 HD
ENDBRANCH   6  24
BRANCH   8  26
ATOM     26  O   UNL     1      26.484 -96.033  36.685  1.00  0.00    -0.508 OA
ATOM     27  H   UNL     1      25.963 -96.619  37.327  1.00  0.00     0.293 HD
ENDBRANCH   8  26
TORSDOF 6
ENDMDL
MODEL 3
REMARK VINA RESULT:    -5.538      9.303     10.743
REMARK INTER + INTRA:          -6.870
REMARK INTER:                  -6.762
REMARK INTRA:                  -0.108
REMARK UNBOUND:                -0.198
REMARK SMILES O=c1c(O)c(-c2ccc(O)c(O)c2)oc2cc(O)cc(O)c12
REMARK SMILES IDX 5 1 3 2 2 3 1 4 22 5 20 6 19 7 17 8 16 9 15 10 14 11 6 12
REMARK SMILES IDX 7 13 8 14 9 15 13 16 11 17 10 18 12 20 4 22 21 24 18 26
REMARK H PARENT 10 19 12 21 4 23 21 25 18 27
REMARK Flexibility Score: inf
ROOT
ATOM      1  C   UNL     1      36.215 -95.403  29.859  1.00  0.00     0.180 A 
ATOM      2  C   UNL     1      37.326 -95.717  29.051  1.00  0.00     0.208 A 
ATOM      3  C   UNL     1      38.607 -95.702  29.623  1.00  0.00     0.238 A 
ATOM      4  O   UNL     1      39.609 -95.970  28.907  1.00  0.00    -0.285 OA
ATOM      5  C   UNL     1      38.755 -95.398  30.992  1.00  0.00     0.111 A 
ATOM      6  C   UNL     1      40.011 -95.366  31.647  1.00  0.00     0.134 A 
ATOM      7  C   UNL     1      40.074 -95.062  33.014  1.00  0.00     0.093 A 
ATOM      8  C   UNL     1      38.912 -94.791  33.739  1.00  0.00     0.123 A 
ATOM      9  C   UNL     1      37.669 -94.820  33.098  1.00  0.00     0.094 A 
ATOM     10  C   UNL     1      37.584 -95.119  31.735  1.00  0.00     0.146 A 
ATOM     11  O   UNL     1      36.392 -95.135  31.149  1.00  0.00    -0.452 OA
ENDROOT
BRANCH   1  12
ATOM     12  C   UNL     1      34.835 -95.378  29.325  1.00  0.00     0.025 A 
ATOM     13  C   UNL     1      34.518 -94.509  28.271  1.00  0.00     0.016 A 
ATOM     14  C   UNL     1      33.228 -94.484  27.739  1.00  0.00     0.051 A 
ATOM     15  C   UNL     1      32.234 -95.335  28.236  1.00  0.00     0.157 A 
ATOM     16  C   UNL     1      33.845 -96.249  29.812  1.00  0.00     0.062 A 
ATOM     17  C   UNL     1      32.548 -96.234  29.282  1.00  0.00     0.158 A 
BRANCH  15  18
ATOM     18  O   UNL     1      30.962 -95.255  27.665  1.00  0.00    -0.504 OA
ATOM     19  H   UNL     1      30.119 -95.071  28.189  1.00  0.00     0.293 HD
ENDBRANCH  15  18
BRANCH  17  20
ATOM     20  O   UNL     1      31.616 -97.125  29.816  1.00  0.00    -0.504 OA
ATOM     21  H   UNL     1      31.174 -97.863  29.287  1.00  0.00     0.293 HD
ENDBRANCH  17  20
ENDBRANCH   1  12
BRANCH   2  22
ATOM     22  O   UNL     1      37.146 -96.064  27.710  1.00  0.00    -0.502 OA
ATOM     23  H   UNL     1      36.546 -96.827  27.422  1.00  0.00     0.293 HD
ENDBRANCH   2  22
BRANCH   6  24
ATOM     24  O   UNL     1      41.191 -95.633  30.951  1.00  0.00    -0.507 OA
ATOM     25  H   UNL     1      41.540 -96.577  30.838  1.00  0.00     0.293 HD
ENDBRANCH   6  24
BRANCH   8  26
ATOM     26  O   UNL     1      39.003 -94.493  35.097  1.00  0.00    -0.508 OA
ATOM     27  H   UNL     1      39.893 -94.291  35.537  1.00  0.00     0.293 HD
ENDBRANCH   8  26
TORSDOF 6
ENDMDL
MODEL 4
REMARK VINA RESULT:    -5.533      9.374     11.010
REMARK INTER + INTRA:          -6.864
REMARK INTER:                  -6.666
REMARK INTRA:                  -0.198
REMARK UNBOUND:                -0.198
REMARK SMILES O=c1c(O)c(-c2ccc(O)c(O)c2)oc2cc(O)cc(O)c12
REMARK SMILES IDX 5 1 3 2 2 3 1 4 22 5 20 6 19 7 17 8 16 9 15 10 14 11 6 12
REMARK SMILES IDX 7 13 8 14 9 15 13 16 11 17 10 18 12 20 4 22 21 24 18 26
REMARK H PARENT 10 19 12 21 4 23 21 25 18 27
REMARK Flexibility Score: inf
ROOT
ATOM      1  C   UNL     1      37.375 -95.569  30.732  1.00  0.00     0.180 A 
ATOM      2  C   UNL     1      37.998 -96.290  29.694  1.00  0.00     0.208 A 
ATOM      3  C   UNL     1      37.316 -96.459  28.480  1.00  0.00     0.238 A 
ATOM      4  O   UNL     1      37.860 -97.112  27.549  1.00  0.00    -0.285 OA
ATOM      5  C   UNL     1      36.037 -95.888  28.314  1.00  0.00     0.111 A 
ATOM      6  C   UNL     1      35.284 -96.008  27.121  1.00  0.00     0.134 A 
ATOM      7  C   UNL     1      34.022 -95.404  27.032  1.00  0.00     0.093 A 
ATOM      8  C   UNL     1      33.499 -94.684  28.107  1.00  0.00     0.123 A 
ATOM      9  C   UNL     1      34.237 -94.563  29.289  1.00  0.00     0.094 A 
ATOM     10  C   UNL     1      35.496 -95.159  29.399  1.00  0.00     0.146 A 
ATOM     11  O   UNL     1      36.175 -95.033  30.534  1.00  0.00    -0.452 OA
ENDROOT
BRANCH   1  12
ATOM     12  C   UNL     1      38.022 -95.365  32.048  1.00  0.00     0.025 A 
ATOM     13  C   UNL     1      39.138 -94.522  32.144  1.00  0.00     0.016 A 
ATOM     14  C   UNL     1      39.750 -94.300  33.379  1.00  0.00     0.051 A 
ATOM     15  C   UNL     1      39.255 -94.901  34.541  1.00  0.00     0.157 A 
ATOM     16  C   UNL     1      37.508 -95.954  33.216  1.00  0.00     0.062 A 
ATOM     17  C   UNL     1      38.114 -95.734  34.460  1.00  0.00     0.158 A 
BRANCH  15  18
ATOM     18  O   UNL     1      39.919 -94.644  35.743  1.00  0.00    -0.504 OA
ATOM     19  H   UNL     1      39.501 -94.166  36.527  1.00  0.00     0.293 HD
ENDBRANCH  15  18
BRANCH  17  20
ATOM     20  O   UNL     1      37.551 -96.353  35.577  1.00  0.00    -0.504 OA
ATOM     21  H   UNL     1      37.291 -95.864  36.422  1.00  0.00     0.293 HD
ENDBRANCH  17  20
ENDBRANCH   1  12
BRANCH   2  22
ATOM     22  O   UNL     1      39.287 -96.802  29.867  1.00  0.00    -0.502 OA
ATOM     23  H   UNL     1      40.118 -96.246  29.708  1.00  0.00     0.293 HD
ENDBRANCH   2  22
BRANCH   6  24
ATOM     24  O   UNL     1      35.780 -96.720  26.027  1.00  0.00    -0.507 OA
ATOM     25  H   UNL     1      35.520 -97.684  25.858  1.00  0.00     0.293 HD
ENDBRANCH   6  24
BRANCH   8  26
ATOM     26  O   UNL     1      32.242 -94.093  27.992  1.00  0.00    -0.508 OA
ATOM     27  H   UNL     1      31.527 -94.481  27.388  1.00  0.00     0.293 HD
ENDBRANCH   8  26
TORSDOF 6
ENDMDL
MODEL 5
REMARK VINA RESULT:    -5.494      8.849     11.100
REMARK INTER + INTRA:          -6.817
REMARK INTER:                  -6.585
REMARK INTRA:                  -0.232
REMARK UNBOUND:                -0.198
REMARK SMILES O=c1c(O)c(-c2ccc(O)c(O)c2)oc2cc(O)cc(O)c12
REMARK SMILES IDX 5 1 3 2 2 3 1 4 22 5 20 6 19 7 17 8 16 9 15 10 14 11 6 12
REMARK SMILES IDX 7 13 8 14 9 15 13 16 11 17 10 18 12 20 4 22 21 24 18 26
REMARK H PARENT 10 19 12 21 4 23 21 25 18 27
REMARK Flexibility Score: inf
ROOT
ATOM      1  C   UNL     1      40.162 -95.635  35.764  1.00  0.00     0.180 A 
ATOM      2  C   UNL     1      41.330 -95.567  34.979  1.00  0.00     0.208 A 
ATOM      3  C   UNL     1      41.206 -95.461  33.585  1.00  0.00     0.238 A 
ATOM      4  O   UNL     1      42.245 -95.411  32.873  1.00  0.00    -0.285 OA
ATOM      5  C   UNL     1      39.923 -95.404  33.002  1.00  0.00     0.111 A 
ATOM      6  C   UNL     1      39.711 -95.293  31.607  1.00  0.00     0.134 A 
ATOM      7  C   UNL     1      38.403 -95.233  31.105  1.00  0.00     0.093 A 
ATOM      8  C   UNL     1      37.306 -95.280  31.967  1.00  0.00     0.123 A 
ATOM      9  C   UNL     1      37.509 -95.390  33.347  1.00  0.00     0.094 A 
ATOM     10  C   UNL     1      38.805 -95.453  33.867  1.00  0.00     0.146 A 
ATOM     11  O   UNL     1      38.970 -95.562  35.180  1.00  0.00    -0.452 OA
ENDROOT
BRANCH   1  12
ATOM     12  C   UNL     1      40.211 -95.766  37.238  1.00  0.00     0.025 A 
ATOM     13  C   UNL     1      40.633 -96.974  37.809  1.00  0.00     0.016 A 
ATOM     14  C   UNL     1      40.705 -97.112  39.196  1.00  0.00     0.051 A 
ATOM     15  C   UNL     1      40.373 -96.046  40.039  1.00  0.00     0.157 A 
ATOM     16  C   UNL     1      39.897 -94.685  38.080  1.00  0.00     0.062 A 
ATOM     17  C   UNL     1      39.970 -94.813  39.473  1.00  0.00     0.158 A 
BRANCH  15  18
ATOM     18  O   UNL     1      40.459 -96.252  41.418  1.00  0.00    -0.504 OA
ATOM     19  H   UNL     1      40.177 -97.103  41.879  1.00  0.00     0.293 HD
ENDBRANCH  15  18
BRANCH  17  20
ATOM     20  O   UNL     1      39.642 -93.699  40.248  1.00  0.00    -0.504 OA
ATOM     21  H   UNL     1      40.046 -92.783  40.119  1.00  0.00     0.293 HD
ENDBRANCH  17  20
ENDBRANCH   1  12
BRANCH   2  22
ATOM     22  O   UNL     1      42.589 -95.576  35.586  1.00  0.00    -0.502 OA
ATOM     23  H   UNL     1      43.004 -94.743  35.986  1.00  0.00     0.293 HD
ENDBRANCH   2  22
BRANCH   6  24
ATOM     24  O   UNL     1      40.787 -95.243  30.718  1.00  0.00    -0.507 OA
ATOM     25  H   UNL     1      41.707 -94.939  31.014  1.00  0.00     0.293 HD
ENDBRANCH   6  24
BRANCH   8  26
ATOM     26  O   UNL     1      36.016 -95.218  31.443  1.00  0.00    -0.508 OA
ATOM     27  H   UNL     1      35.715 -95.840  30.702  1.00  0.00     0.293 HD
ENDBRANCH   8  26
TORSDOF 6
ENDMDL
MODEL 6
REMARK VINA RESULT:    -5.393     15.420     16.630
REMARK INTER + INTRA:          -6.695
REMARK INTER:                  -6.377
REMARK INTRA:                  -0.318
REMARK UNBOUND:                -0.198
REMARK SMILES O=c1c(O)c(-c2ccc(O)c(O)c2)oc2cc(O)cc(O)c12
REMARK SMILES IDX 5 1 3 2 2 3 1 4 22 5 20 6 19 7 17 8 16 9 15 10 14 11 6 12
REMARK SMILES IDX 7 13 8 14 9 15 13 16 11 17 10 18 12 20 4 22 21 24 18 26
REMARK H PARENT 10 19 12 21 4 23 21 25 18 27
REMARK Flexibility Score: inf
ROOT
ATOM      1  C   UNL     1      36.631 -77.882  37.952  1.00  0.00     0.180 A 
ATOM      2  C   UNL     1      36.949 -78.003  36.585  1.00  0.00     0.208 A 
ATOM      3  C   UNL     1      35.920 -77.893  35.637  1.00  0.00     0.238 A 
ATOM      4  O   UNL     1      36.191 -78.010  34.412  1.00  0.00    -0.285 OA
ATOM      5  C   UNL     1      34.600 -77.645  36.067  1.00  0.00     0.111 A 
ATOM      6  C   UNL     1      33.506 -77.517  35.176  1.00  0.00     0.134 A 
ATOM      7  C   UNL     1      32.224 -77.262  35.682  1.00  0.00     0.093 A 
ATOM      8  C   UNL     1      32.013 -77.131  37.056  1.00  0.00     0.123 A 
ATOM      9  C   UNL     1      33.088 -77.257  37.941  1.00  0.00     0.094 A 
ATOM     10  C   UNL     1      34.374 -77.513  37.457  1.00  0.00     0.146 A 
ATOM     11  O   UNL     1      35.377 -77.633  38.319  1.00  0.00    -0.452 OA
ENDROOT
BRANCH   1  12
ATOM     12  C   UNL     1      37.657 -78.005  39.013  1.00  0.00     0.025 A 
ATOM     13  C   UNL     1      38.394 -76.875  39.393  1.00  0.00     0.016 A 
ATOM     14  C   UNL     1      39.352 -76.964  40.404  1.00  0.00     0.051 A 
ATOM     15  C   UNL     1      39.583 -78.176  41.065  1.00  0.00     0.157 A 
ATOM     16  C   UNL     1      37.871 -79.219  39.688  1.00  0.00     0.062 A 
ATOM     17  C   UNL     1      38.827 -79.317  40.707  1.00  0.00     0.158 A 
BRANCH  15  18
ATOM     18  O   UNL     1      40.561 -78.200  42.062  1.00  0.00    -0.504 OA
ATOM     19  H   UNL     1      41.378 -78.791  42.036  1.00  0.00     0.293 HD
ENDBRANCH  15  18
BRANCH  17  20
ATOM     20  O   UNL     1      38.987 -80.555  41.333  1.00  0.00    -0.504 OA
ATOM     21  H   UNL     1      38.604 -81.419  40.980  1.00  0.00     0.293 HD
ENDBRANCH  17  20
ENDBRANCH   1  12
BRANCH   2  22
ATOM     22  O   UNL     1      38.273 -78.199  36.183  1.00  0.00    -0.502 OA
ATOM     23  H   UNL     1      38.908 -77.428  36.013  1.00  0.00     0.293 HD
ENDBRANCH   2  22
BRANCH   6  24
ATOM     24  O   UNL     1      33.685 -77.641  33.797  1.00  0.00    -0.507 OA
ATOM     25  H   UNL     1      32.899 -77.689  33.161  1.00  0.00     0.293 HD
ENDBRANCH   6  24
BRANCH   8  26
ATOM     26  O   UNL     1      30.728 -76.876  37.532  1.00  0.00    -0.508 OA
ATOM     27  H   UNL     1      30.058 -77.623  37.675  1.00  0.00     0.293 HD
ENDBRANCH   8  26
TORSDOF 6
ENDMDL
MODEL 7
REMARK VINA RESULT:    -5.211      8.087     10.729
REMARK INTER + INTRA:          -6.476
REMARK INTER:                  -6.305
REMARK INTRA:                  -0.171
REMARK UNBOUND:                -0.198
REMARK SMILES O=c1c(O)c(-c2ccc(O)c(O)c2)oc2cc(O)cc(O)c12
REMARK SMILES IDX 5 1 3 2 2 3 1 4 22 5 20 6 19 7 17 8 16 9 15 10 14 11 6 12
REMARK SMILES IDX 7 13 8 14 9 15 13 16 11 17 10 18 12 20 4 22 21 24 18 26
REMARK H PARENT 10 19 12 21 4 23 21 25 18 27
REMARK Flexibility Score: inf
ROOT
ATOM      1  C   UNL     1      39.923 -95.496  35.180  1.00  0.00     0.180 A 
ATOM      2  C   UNL     1      40.997 -95.136  36.019  1.00  0.00     0.208 A 
ATOM      3  C   UNL     1      40.822 -95.200  37.410  1.00  0.00     0.238 A 
ATOM      4  O   UNL     1      41.772 -94.869  38.170  1.00  0.00    -0.285 OA
ATOM      5  C   UNL     1      39.590 -95.640  37.938  1.00  0.00     0.111 A 
ATOM      6  C   UNL     1      39.334 -95.736  39.327  1.00  0.00     0.134 A 
ATOM      7  C   UNL     1      38.085 -96.191  39.773  1.00  0.00     0.093 A 
ATOM      8  C   UNL     1      37.090 -96.552  38.862  1.00  0.00     0.123 A 
ATOM      9  C   UNL     1      37.337 -96.458  37.489  1.00  0.00     0.094 A 
ATOM     10  C   UNL     1      38.575 -96.005  37.023  1.00  0.00     0.146 A 
ATOM     11  O   UNL     1      38.782 -95.921  35.714  1.00  0.00    -0.452 OA
ENDROOT
BRANCH   1  12
ATOM     12  C   UNL     1      40.024 -95.438  33.704  1.00  0.00     0.025 A 
ATOM     13  C   UNL     1      39.266 -94.494  32.998  1.00  0.00     0.016 A 
ATOM     14  C   UNL     1      39.361 -94.409  31.608  1.00  0.00     0.051 A 
ATOM     15  C   UNL     1      40.224 -95.250  30.898  1.00  0.00     0.157 A 
ATOM     16  C   UNL     1      40.908 -96.271  32.997  1.00  0.00     0.062 A 
ATOM     17  C   UNL     1      41.013 -96.190  31.602  1.00  0.00     0.158 A 
BRANCH  15  18
ATOM     18  O   UNL     1      40.266 -95.120  29.508  1.00  0.00    -0.504 OA
ATOM     19  H   UNL     1      40.288 -95.900  28.868  1.00  0.00     0.293 HD
ENDBRANCH  15  18
BRANCH  17  20
ATOM     20  O   UNL     1      41.910 -97.050  30.965  1.00  0.00    -0.504 OA
ATOM     21  H   UNL     1      42.643 -97.554  31.443  1.00  0.00     0.293 HD
ENDBRANCH  17  20
ENDBRANCH   1  12
BRANCH   2  22
ATOM     22  O   UNL     1      42.223 -94.752  35.470  1.00  0.00    -0.502 OA
ATOM     23  H   UNL     1      42.865 -95.417  35.058  1.00  0.00     0.293 HD
ENDBRANCH   2  22
BRANCH   6  24
ATOM     24  O   UNL     1      40.308 -95.385  40.264  1.00  0.00    -0.507 OA
ATOM     25  H   UNL     1      40.074 -95.208  41.233  1.00  0.00     0.293 HD
ENDBRANCH   6  24
BRANCH   8  26
ATOM     26  O   UNL     1      35.858 -97.002  39.332  1.00  0.00    -0.508 OA
ATOM     27  H   UNL     1      35.699 -97.977  39.553  1.00  0.00     0.293 HD
ENDBRANCH   8  26
TORSDOF 6
ENDMDL
MODEL 8
REMARK VINA RESULT:    -5.036     10.361     11.861
REMARK INTER + INTRA:          -6.264
REMARK INTER:                  -5.949
REMARK INTRA:                  -0.315
REMARK UNBOUND:                -0.198
REMARK SMILES O=c1c(O)c(-c2ccc(O)c(O)c2)oc2cc(O)cc(O)c12
REMARK SMILES IDX 5 1 3 2 2 3 1 4 22 5 20 6 19 7 17 8 16 9 15 10 14 11 6 12
REMARK SMILES IDX 7 13 8 14 9 15 13 16 11 17 10 18 12 20 4 22 21 24 18 26
REMARK H PARENT 10 19 12 21 4 23 21 25 18 27
REMARK Flexibility Score: inf
ROOT
ATOM      1  C   UNL     1      39.984 -95.447  31.325  1.00  0.00     0.180 A 
ATOM      2  C   UNL     1      38.651 -95.737  31.677  1.00  0.00     0.208 A 
ATOM      3  C   UNL     1      38.312 -95.824  33.036  1.00  0.00     0.238 A 
ATOM      4  O   UNL     1      37.125 -96.094  33.363  1.00  0.00    -0.285 OA
ATOM      5  C   UNL     1      39.301 -95.600  34.017  1.00  0.00     0.111 A 
ATOM      6  C   UNL     1      39.041 -95.665  35.407  1.00  0.00     0.134 A 
ATOM      7  C   UNL     1      40.077 -95.422  36.320  1.00  0.00     0.093 A 
ATOM      8  C   UNL     1      41.363 -95.114  35.873  1.00  0.00     0.123 A 
ATOM      9  C   UNL     1      41.627 -95.049  34.501  1.00  0.00     0.094 A 
ATOM     10  C   UNL     1      40.608 -95.291  33.575  1.00  0.00     0.146 A 
ATOM     11  O   UNL     1      40.886 -95.227  32.277  1.00  0.00    -0.452 OA
ENDROOT
BRANCH   1  12
ATOM     12  C   UNL     1      40.424 -95.357  29.914  1.00  0.00     0.025 A 
ATOM     13  C   UNL     1      40.754 -96.529  29.219  1.00  0.00     0.016 A 
ATOM     14  C   UNL     1      41.151 -96.468  27.882  1.00  0.00     0.051 A 
ATOM     15  C   UNL     1      41.212 -95.243  27.209  1.00  0.00     0.157 A 
ATOM     16  C   UNL     1      40.463 -94.126  29.236  1.00  0.00     0.062 A 
ATOM     17  C   UNL     1      40.857 -94.056  27.894  1.00  0.00     0.158 A 
BRANCH  15  18
ATOM     18  O   UNL     1      41.625 -95.250  25.875  1.00  0.00    -0.504 OA
ATOM     19  H   UNL     1      41.524 -94.465  25.249  1.00  0.00     0.293 HD
ENDBRANCH  15  18
BRANCH  17  20
ATOM     20  O   UNL     1      40.875 -92.800  27.285  1.00  0.00    -0.504 OA
ATOM     21  H   UNL     1      41.497 -92.052  27.553  1.00  0.00     0.293 HD
ENDBRANCH  17  20
ENDBRANCH   1  12
BRANCH   2  22
ATOM     22  O   UNL     1      37.681 -95.905  30.686  1.00  0.00    -0.502 OA
ATOM     23  H   UNL     1      37.796 -95.545  29.747  1.00  0.00     0.293 HD
ENDBRANCH   2  22
BRANCH   6  24
ATOM     24  O   UNL     1      37.765 -95.969  35.886  1.00  0.00    -0.507 OA
ATOM     25  H   UNL     1      37.255 -96.782  35.563  1.00  0.00     0.293 HD
ENDBRANCH   6  24
BRANCH   8  26
ATOM     26  O   UNL     1      42.375 -94.875  36.802  1.00  0.00    -0.508 OA
ATOM     27  H   UNL     1      42.663 -93.934  37.042  1.00  0.00     0.293 HD
ENDBRANCH   8  26
TORSDOF 6
ENDMDL
MODEL 9
REMARK VINA RESULT:    -5.025     15.243     17.971
REMARK INTER + INTRA:          -6.251
REMARK INTER:                  -6.530
REMARK INTRA:                   0.278
REMARK UNBOUND:                -0.198
REMARK SMILES O=c1c(O)c(-c2ccc(O)c(O)c2)oc2cc(O)cc(O)c12
REMARK SMILES IDX 5 1 3 2 2 3 1 4 22 5 20 6 19 7 17 8 16 9 15 10 14 11 6 12
REMARK SMILES IDX 7 13 8 14 9 15 13 16 11 17 10 18 12 20 4 22 21 24 18 26
REMARK H PARENT 10 19 12 21 4 23 21 25 18 27
REMARK Flexibility Score: inf
ROOT
ATOM      1  C   UNL     1      37.918 -77.503  34.642  1.00  0.00     0.180 A 
ATOM      2  C   UNL     1      39.161 -77.247  35.255  1.00  0.00     0.208 A 
ATOM      3  C   UNL     1      40.302 -77.121  34.448  1.00  0.00     0.238 A 
ATOM      4  O   UNL     1      41.421 -76.903  34.987  1.00  0.00    -0.285 OA
ATOM      5  C   UNL     1      40.180 -77.229  33.047  1.00  0.00     0.111 A 
ATOM      6  C   UNL     1      41.280 -77.109  32.164  1.00  0.00     0.134 A 
ATOM      7  C   UNL     1      41.076 -77.221  30.781  1.00  0.00     0.093 A 
ATOM      8  C   UNL     1      39.799 -77.447  30.265  1.00  0.00     0.123 A 
ATOM      9  C   UNL     1      38.708 -77.567  31.133  1.00  0.00     0.094 A 
ATOM     10  C   UNL     1      38.891 -77.461  32.514  1.00  0.00     0.146 A 
ATOM     11  O   UNL     1      37.840 -77.583  33.317  1.00  0.00    -0.452 OA
ENDROOT
BRANCH   1  12
ATOM     12  C   UNL     1      36.673 -77.668  35.426  1.00  0.00     0.025 A 
ATOM     13  C   UNL     1      35.436 -77.410  34.819  1.00  0.00     0.016 A 
ATOM     14  C   UNL     1      34.249 -77.579  35.533  1.00  0.00     0.051 A 
ATOM     15  C   UNL     1      34.271 -78.023  36.860  1.00  0.00     0.157 A 
ATOM     16  C   UNL     1      36.699 -78.135  36.752  1.00  0.00     0.062 A 
ATOM     17  C   UNL     1      35.512 -78.311  37.476  1.00  0.00     0.158 A 
BRANCH  15  18
ATOM     18  O   UNL     1      33.050 -78.164  37.522  1.00  0.00    -0.504 OA
ATOM     19  H   UNL     1      32.483 -77.388  37.832  1.00  0.00     0.293 HD
ENDBRANCH  15  18
BRANCH  17  20
ATOM     20  O   UNL     1      35.614 -78.775  38.788  1.00  0.00    -0.504 OA
ATOM     21  H   UNL     1      34.901 -78.641  39.491  1.00  0.00     0.293 HD
ENDBRANCH  17  20
ENDBRANCH   1  12
BRANCH   2  22
ATOM     22  O   UNL     1      39.245 -77.095  36.641  1.00  0.00    -0.502 OA
ATOM     23  H   UNL     1      38.760 -77.709  37.285  1.00  0.00     0.293 HD
ENDBRANCH   2  22
BRANCH   6  24
ATOM     24  O   UNL     1      42.570 -76.881  32.648  1.00  0.00    -0.507 OA
ATOM     25  H   UNL     1      43.339 -76.656  32.028  1.00  0.00     0.293 HD
ENDBRANCH   6  24
BRANCH   8  26
ATOM     26  O   UNL     1      39.623 -77.554  28.887  1.00  0.00    -0.508 OA
ATOM     27  H   UNL     1      39.289 -78.409  28.459  1.00  0.00     0.293 HD
ENDBRANCH   8  26
TORSDOF 6
ENDMDL
