MODEL 1
REMARK VINA RESULT:    -5.243      0.000      0.000
REMARK INTER + INTRA:         -11.174
REMARK INTER:                  -9.227
REMARK INTRA:                  -1.947
REMARK UNBOUND:                -1.947
REMARK SMILES CCCCCCC=CCCCCCCCC(=O)[O-]
REMARK SMILES IDX 10 1 11 2 12 3 13 4 14 5 15 6 16 7 17 8 18 9 9 10 8 11 7 12
REMARK SMILES IDX 6 13 5 14 4 15 3 16 2 17 1 18
REMARK H PARENT
REMARK Flexibility Score: inf
ROOT
ATOM      1  C   UNL     1      -3.404  12.934  -1.138  1.00  0.00     0.004 C 
ENDROOT
BRANCH   1   2
ATOM      2  C   UNL     1      -3.635  11.463  -0.763  1.00  0.00     0.000 C 
BRANCH   2   3
ATOM      3  C   UNL     1      -3.183  10.492  -1.866  1.00  0.00     0.000 C 
BRANCH   3   4
ATOM      4  C   UNL     1      -4.310   9.554  -2.326  1.00  0.00     0.000 C 
BRANCH   4   5
ATOM      5  C   UNL     1      -5.534   9.677  -1.410  1.00  0.00     0.006 C 
BRANCH   5   6
ATOM      6  C   UNL     1      -6.333   8.371  -1.380  1.00  0.00     0.053 C 
BRANCH   6   7
ATOM      7  C   UNL     1      -5.504   7.264  -0.809  1.00  0.00     0.041 C 
ATOM      8  O   UNL     1      -5.098   6.331  -1.549  1.00  0.00    -0.550 OA
ATOM      9  O   UNL     1      -5.224   7.237   0.552  1.00  0.00    -0.550 OA
ENDBRANCH   6   7
ENDBRANCH   5   6
ENDBRANCH   4   5
ENDBRANCH   3   4
ENDBRANCH   2   3
ENDBRANCH   1   2
BRANCH   1  10
ATOM     10  C   UNL     1      -4.629  13.516  -1.851  1.00  0.00     0.027 C 
BRANCH  10  11
ATOM     11  C   UNL     1      -4.289  13.896  -3.270  1.00  0.00    -0.031 C 
ATOM     12  C   UNL     1      -4.831  13.330  -4.364  1.00  0.00    -0.031 C 
BRANCH  12  13
ATOM     13  C   UNL     1      -5.932  12.297  -4.341  1.00  0.00     0.027 C 
BRANCH  13  14
ATOM     14  C   UNL     1      -6.375  11.901  -5.757  1.00  0.00     0.004 C 
BRANCH  14  15
ATOM     15  C   UNL     1      -7.110  10.550  -5.776  1.00  0.00     0.000 C 
BRANCH  15  16
ATOM     16  C   UNL     1      -6.330   9.442  -5.051  1.00  0.00    -0.000 C 
BRANCH  16  17
ATOM     17  C   UNL     1      -7.041   8.082  -5.112  1.00  0.00    -0.003 C 
ATOM     18  C   UNL     1      -6.050   6.936  -4.940  1.00  0.00     0.004 C 
ENDBRANCH  16  17
ENDBRANCH  15  16
ENDBRANCH  14  15
ENDBRANCH  13  14
ENDBRANCH  12  13
ENDBRANCH  10  11
ENDBRANCH   1  10
TORSDOF 13
ENDMDL
MODEL 2
REMARK VINA RESULT:    -4.757      1.609      4.610
REMARK INTER + INTRA:         -10.319
REMARK INTER:                  -8.540
REMARK INTRA:                  -1.779
REMARK UNBOUND:                -1.947
REMARK SMILES CCCCCCC=CCCCCCCCC(=O)[O-]
REMARK SMILES IDX 10 1 11 2 12 3 13 4 14 5 15 6 16 7 17 8 18 9 9 10 8 11 7 12
REMARK SMILES IDX 6 13 5 14 4 15 3 16 2 17 1 18
REMARK H PARENT
REMARK Flexibility Score: inf
ROOT
ATOM      1  C   UNL     1      -4.752  13.481  -4.357  1.00  0.00     0.004 C 
ENDROOT
BRANCH   1   2
ATOM      2  C   UNL     1      -5.815  12.404  -4.094  1.00  0.00     0.000 C 
BRANCH   2   3
ATOM      3  C   UNL     1      -6.377  11.797  -5.390  1.00  0.00     0.000 C 
BRANCH   3   4
ATOM      4  C   UNL     1      -6.199  10.272  -5.454  1.00  0.00     0.000 C 
BRANCH   4   5
ATOM      5  C   UNL     1      -7.553   9.569  -5.616  1.00  0.00     0.006 C 
BRANCH   5   6
ATOM      6  C   UNL     1      -7.787   8.560  -4.488  1.00  0.00     0.053 C 
BRANCH   6   7
ATOM      7  C   UNL     1      -6.751   7.481  -4.529  1.00  0.00     0.041 C 
ATOM      8  O   UNL     1      -5.946   7.340  -3.572  1.00  0.00    -0.550 OA
ATOM      9  O   UNL     1      -6.643   6.663  -5.647  1.00  0.00    -0.550 OA
ENDBRANCH   6   7
ENDBRANCH   5   6
ENDBRANCH   4   5
ENDBRANCH   3   4
ENDBRANCH   2   3
ENDBRANCH   1   2
BRANCH   1  10
ATOM     10  C   UNL     1      -3.951  13.782  -3.085  1.00  0.00     0.027 C 
BRANCH  10  11
ATOM     11  C   UNL     1      -4.873  14.153  -1.950  1.00  0.00    -0.031 C 
ATOM     12  C   UNL     1      -4.674  13.815  -0.663  1.00  0.00    -0.031 C 
BRANCH  12  13
ATOM     13  C   UNL     1      -3.451  13.099  -0.141  1.00  0.00     0.027 C 
BRANCH  13  14
ATOM     14  C   UNL     1      -3.807  12.080   0.951  1.00  0.00     0.004 C 
BRANCH  14  15
ATOM     15  C   UNL     1      -3.537  10.633   0.502  1.00  0.00     0.000 C 
BRANCH  15  16
ATOM     16  C   UNL     1      -4.769   9.974  -0.139  1.00  0.00    -0.000 C 
BRANCH  16  17
ATOM     17  C   UNL     1      -4.678   9.919  -1.672  1.00  0.00    -0.003 C 
ATOM     18  C   UNL     1      -3.231  10.038  -2.141  1.00  0.00     0.004 C 
ENDBRANCH  16  17
ENDBRANCH  15  16
ENDBRANCH  14  15
ENDBRANCH  13  14
ENDBRANCH  12  13
ENDBRANCH  10  11
ENDBRANCH   1  10
TORSDOF 13
ENDMDL
MODEL 3
REMARK VINA RESULT:    -4.730      1.076      4.026
REMARK INTER + INTRA:         -10.271
REMARK INTER:                  -8.433
REMARK INTRA:                  -1.839
REMARK UNBOUND:                -1.947
REMARK SMILES CCCCCCC=CCCCCCCCC(=O)[O-]
REMARK SMILES IDX 10 1 11 2 12 3 13 4 14 5 15 6 16 7 17 8 18 9 9 10 8 11 7 12
REMARK SMILES IDX 6 13 5 14 4 15 3 16 2 17 1 18
REMARK H PARENT
REMARK Flexibility Score: inf
ROOT
ATOM      1  C   UNL     1      -5.887   9.381  -5.140  1.00  0.00     0.004 C 
ENDROOT
BRANCH   1   2
ATOM      2  C   UNL     1      -5.958   8.764  -3.735  1.00  0.00     0.000 C 
BRANCH   2   3
ATOM      3  C   UNL     1      -7.251   9.133  -2.990  1.00  0.00     0.000 C 
BRANCH   3   4
ATOM      4  C   UNL     1      -6.987   9.957  -1.720  1.00  0.00     0.000 C 
BRANCH   4   5
ATOM      5  C   UNL     1      -7.087   9.080  -0.466  1.00  0.00     0.006 C 
BRANCH   5   6
ATOM      6  C   UNL     1      -5.738   8.434  -0.138  1.00  0.00     0.053 C 
BRANCH   6   7
ATOM      7  C   UNL     1      -5.817   6.948  -0.297  1.00  0.00     0.041 C 
ATOM      8  O   UNL     1      -6.493   6.260   0.511  1.00  0.00    -0.550 OA
ATOM      9  O   UNL     1      -5.102   6.318  -1.308  1.00  0.00    -0.550 OA
ENDBRANCH   6   7
ENDBRANCH   5   6
ENDBRANCH   4   5
ENDBRANCH   3   4
ENDBRANCH   2   3
ENDBRANCH   1   2
BRANCH   1  10
ATOM     10  C   UNL     1      -7.081  10.308  -5.392  1.00  0.00     0.027 C 
BRANCH  10  11
ATOM     11  C   UNL     1      -6.632  11.592  -6.042  1.00  0.00    -0.031 C 
ATOM     12  C   UNL     1      -5.962  12.574  -5.411  1.00  0.00    -0.031 C 
BRANCH  12  13
ATOM     13  C   UNL     1      -5.471  12.501  -3.986  1.00  0.00     0.027 C 
BRANCH  13  14
ATOM     14  C   UNL     1      -4.404  13.567  -3.692  1.00  0.00     0.004 C 
BRANCH  14  15
ATOM     15  C   UNL     1      -3.368  13.081  -2.665  1.00  0.00     0.000 C 
BRANCH  15  16
ATOM     16  C   UNL     1      -3.999  12.734  -1.307  1.00  0.00    -0.000 C 
BRANCH  16  17
ATOM     17  C   UNL     1      -3.596  11.338  -0.807  1.00  0.00    -0.003 C 
ATOM     18  C   UNL     1      -3.270  10.411  -1.973  1.00  0.00     0.004 C 
ENDBRANCH  16  17
ENDBRANCH  15  16
ENDBRANCH  14  15
ENDBRANCH  13  14
ENDBRANCH  12  13
ENDBRANCH  10  11
ENDBRANCH   1  10
TORSDOF 13
ENDMDL
MODEL 4
REMARK VINA RESULT:    -4.709      2.085      3.359
REMARK INTER + INTRA:         -10.234
REMARK INTER:                  -8.250
REMARK INTRA:                  -1.984
REMARK UNBOUND:                -1.947
REMARK SMILES CCCCCCC=CCCCCCCCC(=O)[O-]
REMARK SMILES IDX 10 1 11 2 12 3 13 4 14 5 15 6 16 7 17 8 18 9 9 10 8 11 7 12
REMARK SMILES IDX 6 13 5 14 4 15 3 16 2 17 1 18
REMARK H PARENT
REMARK Flexibility Score: inf
ROOT
ATOM      1  C   UNL     1      -4.031  11.236  -0.584  1.00  0.00     0.004 C 
ENDROOT
BRANCH   1   2
ATOM      2  C   UNL     1      -3.376  10.547  -1.789  1.00  0.00     0.000 C 
BRANCH   2   3
ATOM      3  C   UNL     1      -4.341   9.611  -2.535  1.00  0.00     0.000 C 
BRANCH   3   4
ATOM      4  C   UNL     1      -5.658   9.392  -1.775  1.00  0.00     0.000 C 
BRANCH   4   5
ATOM      5  C   UNL     1      -6.699   8.705  -2.668  1.00  0.00     0.006 C 
BRANCH   5   6
ATOM      6  C   UNL     1      -6.025   7.952  -3.819  1.00  0.00     0.053 C 
BRANCH   6   7
ATOM      7  C   UNL     1      -7.016   7.651  -4.898  1.00  0.00     0.041 C 
ATOM      8  O   UNL     1      -6.841   6.664  -5.661  1.00  0.00    -0.550 OA
ATOM      9  O   UNL     1      -8.106   8.489  -5.095  1.00  0.00    -0.550 OA
ENDBRANCH   6   7
ENDBRANCH   5   6
ENDBRANCH   4   5
ENDBRANCH   3   4
ENDBRANCH   2   3
ENDBRANCH   1   2
BRANCH   1  10
ATOM     10  C   UNL     1      -3.570  12.693  -0.468  1.00  0.00     0.027 C 
BRANCH  10  11
ATOM     11  C   UNL     1      -4.679  13.637  -0.860  1.00  0.00    -0.031 C 
ATOM     12  C   UNL     1      -4.838  14.161  -2.089  1.00  0.00    -0.031 C 
BRANCH  12  13
ATOM     13  C   UNL     1      -3.990  13.812  -3.288  1.00  0.00     0.027 C 
BRANCH  13  14
ATOM     14  C   UNL     1      -4.841  13.299  -4.460  1.00  0.00     0.004 C 
BRANCH  14  15
ATOM     15  C   UNL     1      -5.982  12.382  -3.988  1.00  0.00     0.000 C 
BRANCH  15  16
ATOM     16  C   UNL     1      -6.616  11.586  -5.140  1.00  0.00    -0.000 C 
BRANCH  16  17
ATOM     17  C   UNL     1      -6.380  12.241  -6.510  1.00  0.00    -0.003 C 
ATOM     18  C   UNL     1      -7.694  12.709  -7.127  1.00  0.00     0.004 C 
ENDBRANCH  16  17
ENDBRANCH  15  16
ENDBRANCH  14  15
ENDBRANCH  13  14
ENDBRANCH  12  13
ENDBRANCH  10  11
ENDBRANCH   1  10
TORSDOF 13
ENDMDL
MODEL 5
REMARK VINA RESULT:    -4.631      2.821      4.316
REMARK INTER + INTRA:         -10.098
REMARK INTER:                  -8.066
REMARK INTRA:                  -2.032
REMARK UNBOUND:                -1.947
REMARK SMILES CCCCCCC=CCCCCCCCC(=O)[O-]
REMARK SMILES IDX 10 1 11 2 12 3 13 4 14 5 15 6 16 7 17 8 18 9 9 10 8 11 7 12
REMARK SMILES IDX 6 13 5 14 4 15 3 16 2 17 1 18
REMARK H PARENT
REMARK Flexibility Score: inf
ROOT
ATOM      1  C   UNL     1      -4.299  13.415  -3.450  1.00  0.00     0.004 C 
ENDROOT
BRANCH   1   2
ATOM      2  C   UNL     1      -3.281  12.757  -2.507  1.00  0.00     0.000 C 
BRANCH   2   3
ATOM      3  C   UNL     1      -3.706  11.349  -2.063  1.00  0.00     0.000 C 
BRANCH   3   4
ATOM      4  C   UNL     1      -3.892  11.238  -0.543  1.00  0.00     0.000 C 
BRANCH   4   5
ATOM      5  C   UNL     1      -3.622  12.583   0.142  1.00  0.00     0.006 C 
BRANCH   5   6
ATOM      6  C   UNL     1      -4.906  13.162   0.743  1.00  0.00     0.053 C 
BRANCH   6   7
ATOM      7  C   UNL     1      -5.402  14.305  -0.085  1.00  0.00     0.041 C 
ATOM      8  O   UNL     1      -4.655  15.292  -0.315  1.00  0.00    -0.550 OA
ATOM      9  O   UNL     1      -6.708  14.305  -0.561  1.00  0.00    -0.550 OA
ENDBRANCH   6   7
ENDBRANCH   5   6
ENDBRANCH   4   5
ENDBRANCH   3   4
ENDBRANCH   2   3
ENDBRANCH   1   2
BRANCH   1  10
ATOM     10  C   UNL     1      -5.523  12.516  -3.648  1.00  0.00     0.027 C 
BRANCH  10  11
ATOM     11  C   UNL     1      -5.896  12.435  -5.107  1.00  0.00    -0.031 C 
ATOM     12  C   UNL     1      -6.490  11.376  -5.687  1.00  0.00    -0.031 C 
BRANCH  12  13
ATOM     13  C   UNL     1      -6.962  10.146  -4.950  1.00  0.00     0.027 C 
BRANCH  13  14
ATOM     14  C   UNL     1      -5.876   9.062  -4.890  1.00  0.00     0.004 C 
BRANCH  14  15
ATOM     15  C   UNL     1      -5.882   8.310  -3.548  1.00  0.00     0.000 C 
BRANCH  15  16
ATOM     16  C   UNL     1      -6.632   9.075  -2.446  1.00  0.00    -0.000 C 
BRANCH  16  17
ATOM     17  C   UNL     1      -6.399   8.478  -1.050  1.00  0.00    -0.003 C 
ATOM     18  C   UNL     1      -5.455   7.282  -1.114  1.00  0.00     0.004 C 
ENDBRANCH  16  17
ENDBRANCH  15  16
ENDBRANCH  14  15
ENDBRANCH  13  14
ENDBRANCH  12  13
ENDBRANCH  10  11
ENDBRANCH   1  10
TORSDOF 13
ENDMDL
MODEL 6
REMARK VINA RESULT:    -4.606      1.293      4.296
REMARK INTER + INTRA:         -10.054
REMARK INTER:                  -8.140
REMARK INTRA:                  -1.914
REMARK UNBOUND:                -1.947
REMARK SMILES CCCCCCC=CCCCCCCCC(=O)[O-]
REMARK SMILES IDX 10 1 11 2 12 3 13 4 14 5 15 6 16 7 17 8 18 9 9 10 8 11 7 12
REMARK SMILES IDX 6 13 5 14 4 15 3 16 2 17 1 18
REMARK H PARENT
REMARK Flexibility Score: inf
ROOT
ATOM      1  C   UNL     1      -6.271  12.115  -5.543  1.00  0.00     0.004 C 
ENDROOT
BRANCH   1   2
ATOM      2  C   UNL     1      -6.906  10.729  -5.730  1.00  0.00     0.000 C 
BRANCH   2   3
ATOM      3  C   UNL     1      -6.196   9.636  -4.916  1.00  0.00     0.000 C 
BRANCH   3   4
ATOM      4  C   UNL     1      -7.170   8.801  -4.071  1.00  0.00     0.000 C 
BRANCH   4   5
ATOM      5  C   UNL     1      -6.877   8.966  -2.574  1.00  0.00     0.006 C 
BRANCH   5   6
ATOM      6  C   UNL     1      -5.437   8.562  -2.247  1.00  0.00     0.053 C 
BRANCH   6   7
ATOM      7  C   UNL     1      -5.417   7.513  -1.181  1.00  0.00     0.041 C 
ATOM      8  O   UNL     1      -5.080   6.333  -1.460  1.00  0.00    -0.550 OA
ATOM      9  O   UNL     1      -5.819   7.827   0.112  1.00  0.00    -0.550 OA
ENDBRANCH   6   7
ENDBRANCH   5   6
ENDBRANCH   4   5
ENDBRANCH   3   4
ENDBRANCH   2   3
ENDBRANCH   1   2
BRANCH   1  10
ATOM     10  C   UNL     1      -5.494  12.188  -4.224  1.00  0.00     0.027 C 
BRANCH  10  11
ATOM     11  C   UNL     1      -4.721  13.480  -4.131  1.00  0.00    -0.031 C 
ATOM     12  C   UNL     1      -3.776  13.740  -3.210  1.00  0.00    -0.031 C 
BRANCH  12  13
ATOM     13  C   UNL     1      -3.273  12.747  -2.191  1.00  0.00     0.027 C 
BRANCH  13  14
ATOM     14  C   UNL     1      -3.337  13.310  -0.763  1.00  0.00     0.004 C 
BRANCH  14  15
ATOM     15  C   UNL     1      -4.026  12.338   0.211  1.00  0.00     0.000 C 
BRANCH  15  16
ATOM     16  C   UNL     1      -5.305  11.720  -0.376  1.00  0.00    -0.000 C 
BRANCH  16  17
ATOM     17  C   UNL     1      -6.558  12.555  -0.071  1.00  0.00    -0.003 C 
ATOM     18  C   UNL     1      -7.420  12.727  -1.317  1.00  0.00     0.004 C 
ENDBRANCH  16  17
ENDBRANCH  15  16
ENDBRANCH  14  15
ENDBRANCH  13  14
ENDBRANCH  12  13
ENDBRANCH  10  11
ENDBRANCH   1  10
TORSDOF 13
ENDMDL
MODEL 7
REMARK VINA RESULT:    -4.571      2.956      5.039
REMARK INTER + INTRA:          -9.992
REMARK INTER:                  -7.916
REMARK INTRA:                  -2.077
REMARK UNBOUND:                -1.947
REMARK SMILES CCCCCCC=CCCCCCCCC(=O)[O-]
REMARK SMILES IDX 10 1 11 2 12 3 13 4 14 5 15 6 16 7 17 8 18 9 9 10 8 11 7 12
REMARK SMILES IDX 6 13 5 14 4 15 3 16 2 17 1 18
REMARK H PARENT
REMARK Flexibility Score: inf
ROOT
ATOM      1  C   UNL     1      -5.491   9.425  -1.723  1.00  0.00     0.004 C 
ENDROOT
BRANCH   1   2
ATOM      2  C   UNL     1      -4.173   9.612  -2.489  1.00  0.00     0.000 C 
BRANCH   2   3
ATOM      3  C   UNL     1      -3.217  10.595  -1.794  1.00  0.00     0.000 C 
BRANCH   3   4
ATOM      4  C   UNL     1      -3.675  10.961  -0.374  1.00  0.00     0.000 C 
BRANCH   4   5
ATOM      5  C   UNL     1      -3.777  12.482  -0.205  1.00  0.00     0.006 C 
BRANCH   5   6
ATOM      6  C   UNL     1      -5.234  12.947  -0.287  1.00  0.00     0.053 C 
BRANCH   6   7
ATOM      7  C   UNL     1      -5.310  14.440  -0.230  1.00  0.00     0.041 C 
ATOM      8  O   UNL     1      -4.358  15.140  -0.664  1.00  0.00    -0.550 OA
ATOM      9  O   UNL     1      -6.412  15.059   0.348  1.00  0.00    -0.550 OA
ENDBRANCH   6   7
ENDBRANCH   5   6
ENDBRANCH   4   5
ENDBRANCH   3   4
ENDBRANCH   2   3
ENDBRANCH   1   2
BRANCH   1  10
ATOM     10  C   UNL     1      -6.238   8.181  -2.215  1.00  0.00     0.027 C 
BRANCH  10  11
ATOM     11  C   UNL     1      -5.940   7.920  -3.671  1.00  0.00    -0.031 C 
ATOM     12  C   UNL     1      -6.721   8.313  -4.694  1.00  0.00    -0.031 C 
BRANCH  12  13
ATOM     13  C   UNL     1      -7.964   9.157  -4.550  1.00  0.00     0.027 C 
BRANCH  13  14
ATOM     14  C   UNL     1      -7.882  10.443  -5.387  1.00  0.00     0.004 C 
BRANCH  14  15
ATOM     15  C   UNL     1      -6.427  10.870  -5.649  1.00  0.00     0.000 C 
BRANCH  15  16
ATOM     16  C   UNL     1      -6.182  12.355  -5.340  1.00  0.00    -0.000 C 
BRANCH  16  17
ATOM     17  C   UNL     1      -5.570  12.576  -3.948  1.00  0.00    -0.003 C 
ATOM     18  C   UNL     1      -4.439  13.597  -4.002  1.00  0.00     0.004 C 
ENDBRANCH  16  17
ENDBRANCH  15  16
ENDBRANCH  14  15
ENDBRANCH  13  14
ENDBRANCH  12  13
ENDBRANCH  10  11
ENDBRANCH   1  10
TORSDOF 13
ENDMDL
MODEL 8
REMARK VINA RESULT:    -4.516      1.559      3.463
REMARK INTER + INTRA:          -9.895
REMARK INTER:                  -8.089
REMARK INTRA:                  -1.807
REMARK UNBOUND:                -1.947
REMARK SMILES CCCCCCC=CCCCCCCCC(=O)[O-]
REMARK SMILES IDX 10 1 11 2 12 3 13 4 14 5 15 6 16 7 17 8 18 9 9 10 8 11 7 12
REMARK SMILES IDX 6 13 5 14 4 15 3 16 2 17 1 18
REMARK H PARENT
REMARK Flexibility Score: inf
ROOT
ATOM      1  C   UNL     1      -4.737  13.506  -4.363  1.00  0.00     0.004 C 
ENDROOT
BRANCH   1   2
ATOM      2  C   UNL     1      -4.449  13.874  -2.900  1.00  0.00     0.000 C 
BRANCH   2   3
ATOM      3  C   UNL     1      -3.294  13.058  -2.299  1.00  0.00     0.000 C 
BRANCH   3   4
ATOM      4  C   UNL     1      -3.773  12.023  -1.270  1.00  0.00     0.000 C 
BRANCH   4   5
ATOM      5  C   UNL     1      -3.599  12.551   0.160  1.00  0.00     0.006 C 
BRANCH   5   6
ATOM      6  C   UNL     1      -4.328  11.657   1.168  1.00  0.00     0.053 C 
BRANCH   6   7
ATOM      7  C   UNL     1      -3.708  10.296   1.203  1.00  0.00     0.041 C 
ATOM      8  O   UNL     1      -2.495  10.159   1.512  1.00  0.00    -0.550 OA
ATOM      9  O   UNL     1      -4.458   9.181   0.847  1.00  0.00    -0.550 OA
ENDBRANCH   6   7
ENDBRANCH   5   6
ENDBRANCH   4   5
ENDBRANCH   3   4
ENDBRANCH   2   3
ENDBRANCH   1   2
BRANCH   1  10
ATOM     10  C   UNL     1      -5.758  12.367  -4.451  1.00  0.00     0.027 C 
BRANCH  10  11
ATOM     11  C   UNL     1      -6.265  12.214  -5.863  1.00  0.00    -0.031 C 
ATOM     12  C   UNL     1      -7.227  11.352  -6.240  1.00  0.00    -0.031 C 
BRANCH  12  13
ATOM     13  C   UNL     1      -8.015  10.476  -5.296  1.00  0.00     0.027 C 
BRANCH  13  14
ATOM     14  C   UNL     1      -7.744   8.984  -5.538  1.00  0.00     0.004 C 
BRANCH  14  15
ATOM     15  C   UNL     1      -7.120   8.303  -4.307  1.00  0.00     0.000 C 
BRANCH  15  16
ATOM     16  C   UNL     1      -5.638   8.665  -4.119  1.00  0.00    -0.000 C 
BRANCH  16  17
ATOM     17  C   UNL     1      -5.306   9.062  -2.672  1.00  0.00    -0.003 C 
ATOM     18  C   UNL     1      -6.526   9.652  -1.971  1.00  0.00     0.004 C 
ENDBRANCH  16  17
ENDBRANCH  15  16
ENDBRANCH  14  15
ENDBRANCH  13  14
ENDBRANCH  12  13
ENDBRANCH  10  11
ENDBRANCH   1  10
TORSDOF 13
ENDMDL
MODEL 9
REMARK VINA RESULT:    -4.511      1.924      4.159
REMARK INTER + INTRA:          -9.887
REMARK INTER:                  -7.490
REMARK INTRA:                  -2.397
REMARK UNBOUND:                -1.947
REMARK SMILES CCCCCCC=CCCCCCCCC(=O)[O-]
REMARK SMILES IDX 10 1 11 2 12 3 13 4 14 5 15 6 16 7 17 8 18 9 9 10 8 11 7 12
REMARK SMILES IDX 6 13 5 14 4 15 3 16 2 17 1 18
REMARK H PARENT
REMARK Flexibility Score: inf
ROOT
ATOM      1  C   UNL     1      -3.596  13.624  -3.381  1.00  0.00     0.004 C 
ENDROOT
BRANCH   1   2
ATOM      2  C   UNL     1      -4.798  13.516  -4.331  1.00  0.00     0.000 C 
BRANCH   2   3
ATOM      3  C   UNL     1      -5.525  12.166  -4.216  1.00  0.00     0.000 C 
BRANCH   3   4
ATOM      4  C   UNL     1      -6.304  11.804  -5.489  1.00  0.00     0.000 C 
BRANCH   4   5
ATOM      5  C   UNL     1      -6.947  10.417  -5.362  1.00  0.00     0.006 C 
BRANCH   5   6
ATOM      6  C   UNL     1      -5.910   9.365  -4.956  1.00  0.00     0.053 C 
BRANCH   6   7
ATOM      7  C   UNL     1      -6.553   8.022  -4.820  1.00  0.00     0.041 C 
ATOM      8  O   UNL     1      -7.738   7.925  -4.406  1.00  0.00    -0.550 OA
ATOM      9  O   UNL     1      -5.827   6.871  -5.104  1.00  0.00    -0.550 OA
ENDBRANCH   6   7
ENDBRANCH   5   6
ENDBRANCH   4   5
ENDBRANCH   3   4
ENDBRANCH   2   3
ENDBRANCH   1   2
BRANCH   1  10
ATOM     10  C   UNL     1      -3.644  12.531  -2.309  1.00  0.00     0.027 C 
BRANCH  10  11
ATOM     11  C   UNL     1      -3.428  13.120  -0.937  1.00  0.00    -0.031 C 
ATOM     12  C   UNL     1      -4.396  13.670  -0.180  1.00  0.00    -0.031 C 
BRANCH  12  13
ATOM     13  C   UNL     1      -5.861  13.695  -0.543  1.00  0.00     0.027 C 
BRANCH  13  14
ATOM     14  C   UNL     1      -6.582  12.413  -0.100  1.00  0.00     0.004 C 
BRANCH  14  15
ATOM     15  C   UNL     1      -7.335  11.742  -1.261  1.00  0.00     0.000 C 
BRANCH  15  16
ATOM     16  C   UNL     1      -6.951  10.264  -1.438  1.00  0.00    -0.000 C 
BRANCH  16  17
ATOM     17  C   UNL     1      -5.682   9.886  -0.660  1.00  0.00    -0.003 C 
ATOM     18  C   UNL     1      -4.686   9.157  -1.556  1.00  0.00     0.004 C 
ENDBRANCH  16  17
ENDBRANCH  15  16
ENDBRANCH  14  15
ENDBRANCH  13  14
ENDBRANCH  12  13
ENDBRANCH  10  11
ENDBRANCH   1  10
TORSDOF 13
ENDMDL
