MODEL 1
REMARK VINA RESULT:    -7.886      0.000      0.000
REMARK INTER + INTRA:         -12.846
REMARK INTER:                 -11.805
REMARK INTRA:                  -1.041
REMARK UNBOUND:                -1.041
REMARK SMILES C=C(CC[C@@H](C(=O)[O-])[C@H]1[C@@H](O)C[C@]2(C)C3=C(CC[C@]12C)[C@@]1(C)CC[C@H](OC(C)=O)C(C)(C)[C@@H]1CC3)C(C)C
REMARK SMILES IDX 4 1 5 2 6 3 7 4 8 5 9 6 10 7 19 8 12 9 13 10 18 11 20 12
REMARK SMILES IDX 14 13 15 14 17 15 16 16 35 17 21 18 34 19 33 20 23 21 22 22
REMARK SMILES IDX 30 23 24 24 25 25 31 26 32 27 11 28 26 30 27 31 29 32 28 33
REMARK SMILES IDX 3 34 2 35 1 36 36 37 37 38 38 39
REMARK H PARENT 11 29
REMARK Flexibility Score: inf
ROOT
ATOM      1  C   UNL     1      15.717 -33.816  22.910  1.00  0.00     0.014 C 
ENDROOT
BRANCH   1   2
ATOM      2  C   UNL     1      15.153 -32.366  22.866  1.00  0.00     0.042 C 
BRANCH   2   3
ATOM      3  C   UNL     1      13.877 -32.338  23.674  1.00  0.00     0.045 C 
ATOM      4  O   UNL     1      12.897 -31.628  23.314  1.00  0.00    -0.550 OA
ATOM      5  O   UNL     1      13.792 -33.067  24.853  1.00  0.00    -0.550 OA
ENDBRANCH   2   3
BRANCH   2   6
ATOM      6  C   UNL     1      16.159 -31.236  23.297  1.00  0.00     0.033 C 
ATOM      7  C   UNL     1      16.921 -31.514  24.621  1.00  0.00     0.119 C 
ATOM      8  C   UNL     1      17.261 -30.778  22.242  1.00  0.00    -0.017 C 
ATOM      9  C   UNL     1      18.278 -30.845  24.454  1.00  0.00     0.043 C 
ATOM     10  C   UNL     1      18.641 -30.999  22.968  1.00  0.00    -0.003 C 
ATOM     11  C   UNL     1      17.062 -29.262  21.982  1.00  0.00     0.012 C 
ATOM     12  C   UNL     1      17.209 -31.505  20.860  1.00  0.00     0.013 C 
ATOM     13  C   UNL     1      19.180 -32.451  22.726  1.00  0.00     0.017 C 
ATOM     14  C   UNL     1      19.759 -29.987  22.599  1.00  0.00    -0.064 C 
ATOM     15  C   UNL     1      18.194 -28.659  21.168  1.00  0.00     0.032 C 
ATOM     16  C   UNL     1      19.555 -28.896  21.798  1.00  0.00    -0.064 C 
ATOM     17  C   UNL     1      21.167 -30.307  23.078  1.00  0.00     0.032 C 
ATOM     18  C   UNL     1      20.775 -28.047  21.345  1.00  0.00    -0.008 C 
ATOM     19  C   UNL     1      22.059 -29.090  23.362  1.00  0.00     0.009 C 
ATOM     20  C   UNL     1      21.664 -27.788  22.612  1.00  0.00     0.009 C 
ATOM     21  C   UNL     1      20.318 -26.660  20.791  1.00  0.00     0.015 C 
ATOM     22  C   UNL     1      21.502 -28.846  20.224  1.00  0.00     0.016 C 
ATOM     23  C   UNL     1      22.852 -26.752  22.432  1.00  0.00     0.005 C 
ATOM     24  C   UNL     1      21.461 -25.661  20.570  1.00  0.00     0.047 C 
ATOM     25  C   UNL     1      22.271 -25.423  21.851  1.00  0.00     0.182 C 
ATOM     26  C   UNL     1      24.013 -27.272  21.535  1.00  0.00     0.015 C 
ATOM     27  C   UNL     1      23.461 -26.448  23.826  1.00  0.00     0.015 C 
BRANCH   7  28
ATOM     28  O   UNL     1      17.110 -32.883  24.842  1.00  0.00    -0.393 OA
ATOM     29  H   UNL     1      16.208 -33.282  24.935  1.00  0.00     0.210 HD
ENDBRANCH   7  28
BRANCH  25  30
ATOM     30  O   UNL     1      23.307 -24.482  21.549  1.00  0.00    -0.462 OA
BRANCH  30  31
ATOM     31  C   UNL     1      23.386 -23.193  22.092  1.00  0.00     0.302 C 
ATOM     32  O   UNL     1      24.340 -22.425  21.796  1.00  0.00    -0.253 OA
ATOM     33  C   UNL     1      22.305 -22.710  22.995  1.00  0.00     0.139 C 
ENDBRANCH  30  31
ENDBRANCH  25  30
ENDBRANCH   2   6
ENDBRANCH   1   2
BRANCH   1  34
ATOM     34  C   UNL     1      15.564 -34.627  21.597  1.00  0.00     0.031 C 
BRANCH  34  35
ATOM     35  C   UNL     1      16.848 -35.336  21.217  1.00  0.00    -0.075 C 
ATOM     36  C   UNL     1      17.714 -35.711  22.178  1.00  0.00     0.008 C 
BRANCH  35  37
ATOM     37  C   UNL     1      17.129 -35.639  19.750  1.00  0.00     0.008 C 
ATOM     38  C   UNL     1      17.660 -37.068  19.559  1.00  0.00     0.012 C 
ATOM     39  C   UNL     1      18.095 -34.612  19.140  1.00  0.00     0.012 C 
ENDBRANCH  35  37
ENDBRANCH  34  35
ENDBRANCH   1  34
TORSDOF 9
ENDMDL
MODEL 2
REMARK VINA RESULT:    -7.404      1.860      3.108
REMARK INTER + INTRA:         -12.124
REMARK INTER:                 -12.079
REMARK INTRA:                  -0.045
REMARK UNBOUND:                -1.041
REMARK SMILES C=C(CC[C@@H](C(=O)[O-])[C@H]1[C@@H](O)C[C@]2(C)C3=C(CC[C@]12C)[C@@]1(C)CC[C@H](OC(C)=O)C(C)(C)[C@@H]1CC3)C(C)C
REMARK SMILES IDX 4 1 5 2 6 3 7 4 8 5 9 6 10 7 19 8 12 9 13 10 18 11 20 12
REMARK SMILES IDX 14 13 15 14 17 15 16 16 35 17 21 18 34 19 33 20 23 21 22 22
REMARK SMILES IDX 30 23 24 24 25 25 31 26 32 27 11 28 26 30 27 31 29 32 28 33
REMARK SMILES IDX 3 34 2 35 1 36 36 37 37 38 38 39
REMARK H PARENT 11 29
REMARK Flexibility Score: inf
ROOT
ATOM      1  C   UNL     1      14.606 -33.344  23.740  1.00  0.00     0.014 C 
ENDROOT
BRANCH   1   2
ATOM      2  C   UNL     1      16.027 -33.653  24.295  1.00  0.00     0.042 C 
BRANCH   2   3
ATOM      3  C   UNL     1      16.668 -34.680  23.391  1.00  0.00     0.045 C 
ATOM      4  O   UNL     1      17.620 -35.400  23.800  1.00  0.00    -0.550 OA
ATOM      5  O   UNL     1      16.235 -34.806  22.078  1.00  0.00    -0.550 OA
ENDBRANCH   2   3
BRANCH   2   6
ATOM      6  C   UNL     1      16.950 -32.399  24.525  1.00  0.00     0.033 C 
ATOM      7  C   UNL     1      17.960 -32.543  25.695  1.00  0.00     0.119 C 
ATOM      8  C   UNL     1      17.787 -31.853  23.285  1.00  0.00    -0.017 C 
ATOM      9  C   UNL     1      19.176 -31.727  25.281  1.00  0.00     0.043 C 
ATOM     10  C   UNL     1      19.289 -31.888  23.756  1.00  0.00    -0.003 C 
ATOM     11  C   UNL     1      17.365 -30.380  23.045  1.00  0.00     0.012 C 
ATOM     12  C   UNL     1      17.581 -32.628  21.944  1.00  0.00     0.013 C 
ATOM     13  C   UNL     1      19.947 -33.276  23.440  1.00  0.00     0.017 C 
ATOM     14  C   UNL     1      20.195 -30.767  23.181  1.00  0.00    -0.064 C 
ATOM     15  C   UNL     1      18.256 -29.678  22.035  1.00  0.00     0.032 C 
ATOM     16  C   UNL     1      19.725 -29.734  22.415  1.00  0.00    -0.064 C 
ATOM     17  C   UNL     1      21.694 -30.905  23.405  1.00  0.00     0.032 C 
ATOM     18  C   UNL     1      20.736 -28.766  21.741  1.00  0.00    -0.008 C 
ATOM     19  C   UNL     1      22.469 -29.584  23.510  1.00  0.00     0.009 C 
ATOM     20  C   UNL     1      21.796 -28.362  22.826  1.00  0.00     0.009 C 
ATOM     21  C   UNL     1      20.025 -27.460  21.260  1.00  0.00     0.015 C 
ATOM     22  C   UNL     1      21.345 -29.513  20.518  1.00  0.00     0.016 C 
ATOM     23  C   UNL     1      22.801 -27.203  22.424  1.00  0.00     0.005 C 
ATOM     24  C   UNL     1      20.984 -26.344  20.826  1.00  0.00     0.047 C 
ATOM     25  C   UNL     1      21.971 -25.971  21.939  1.00  0.00     0.182 C 
ATOM     26  C   UNL     1      23.840 -27.615  21.341  1.00  0.00     0.015 C 
ATOM     27  C   UNL     1      23.604 -26.783  23.683  1.00  0.00     0.015 C 
BRANCH   7  28
ATOM     28  O   UNL     1      18.348 -33.873  25.897  1.00  0.00    -0.393 OA
ATOM     29  H   UNL     1      19.164 -34.015  25.354  1.00  0.00     0.210 HD
ENDBRANCH   7  28
BRANCH  25  30
ATOM     30  O   UNL     1      22.818 -24.926  21.445  1.00  0.00    -0.462 OA
BRANCH  30  31
ATOM     31  C   UNL     1      22.956 -23.670  22.049  1.00  0.00     0.302 C 
ATOM     32  O   UNL     1      23.828 -22.853  21.648  1.00  0.00    -0.253 OA
ATOM     33  C   UNL     1      22.030 -23.278  23.147  1.00  0.00     0.139 C 
ENDBRANCH  30  31
ENDBRANCH  25  30
ENDBRANCH   2   6
ENDBRANCH   1   2
BRANCH   1  34
ATOM     34  C   UNL     1      13.848 -32.199  24.458  1.00  0.00     0.031 C 
BRANCH  34  35
ATOM     35  C   UNL     1      13.530 -31.053  23.518  1.00  0.00    -0.075 C 
ATOM     36  C   UNL     1      13.496 -29.793  23.989  1.00  0.00     0.008 C 
BRANCH  35  37
ATOM     37  C   UNL     1      13.278 -31.345  22.044  1.00  0.00     0.008 C 
ATOM     38  C   UNL     1      14.367 -30.731  21.151  1.00  0.00     0.012 C 
ATOM     39  C   UNL     1      11.883 -30.870  21.608  1.00  0.00     0.012 C 
ENDBRANCH  35  37
ENDBRANCH  34  35
ENDBRANCH   1  34
TORSDOF 9
ENDMDL
MODEL 3
REMARK VINA RESULT:    -7.373      4.385      6.880
REMARK INTER + INTRA:         -12.078
REMARK INTER:                 -11.552
REMARK INTRA:                  -0.526
REMARK UNBOUND:                -1.041
REMARK SMILES C=C(CC[C@@H](C(=O)[O-])[C@H]1[C@@H](O)C[C@]2(C)C3=C(CC[C@]12C)[C@@]1(C)CC[C@H](OC(C)=O)C(C)(C)[C@@H]1CC3)C(C)C
REMARK SMILES IDX 4 1 5 2 6 3 7 4 8 5 9 6 10 7 19 8 12 9 13 10 18 11 20 12
REMARK SMILES IDX 14 13 15 14 17 15 16 16 35 17 21 18 34 19 33 20 23 21 22 22
REMARK SMILES IDX 30 23 24 24 25 25 31 26 32 27 11 28 26 30 27 31 29 32 28 33
REMARK SMILES IDX 3 34 2 35 1 36 36 37 37 38 38 39
REMARK H PARENT 11 29
REMARK Flexibility Score: inf
ROOT
ATOM      1  C   UNL     1      14.435 -31.285  21.146  1.00  0.00     0.014 C 
ENDROOT
BRANCH   1   2
ATOM      2  C   UNL     1      15.248 -32.597  21.347  1.00  0.00     0.042 C 
BRANCH   2   3
ATOM      3  C   UNL     1      14.701 -33.634  20.393  1.00  0.00     0.045 C 
ATOM      4  O   UNL     1      15.055 -34.843  20.478  1.00  0.00    -0.550 OA
ATOM      5  O   UNL     1      13.831 -33.249  19.382  1.00  0.00    -0.550 OA
ENDBRANCH   2   3
BRANCH   2   6
ATOM      6  C   UNL     1      16.811 -32.449  21.237  1.00  0.00     0.033 C 
ATOM      7  C   UNL     1      17.325 -30.985  21.228  1.00  0.00     0.119 C 
ATOM      8  C   UNL     1      17.708 -33.225  22.300  1.00  0.00    -0.017 C 
ATOM      9  C   UNL     1      18.688 -31.032  21.903  1.00  0.00     0.043 C 
ATOM     10  C   UNL     1      18.580 -32.111  22.992  1.00  0.00    -0.003 C 
ATOM     11  C   UNL     1      18.641 -34.184  21.516  1.00  0.00     0.012 C 
ATOM     12  C   UNL     1      16.922 -34.080  23.345  1.00  0.00     0.013 C 
ATOM     13  C   UNL     1      17.839 -31.506  24.234  1.00  0.00     0.017 C 
ATOM     14  C   UNL     1      20.002 -32.553  23.430  1.00  0.00    -0.064 C 
ATOM     15  C   UNL     1      19.704 -34.814  22.401  1.00  0.00     0.032 C 
ATOM     16  C   UNL     1      20.536 -33.779  23.138  1.00  0.00    -0.064 C 
ATOM     17  C   UNL     1      20.781 -31.594  24.319  1.00  0.00     0.032 C 
ATOM     18  C   UNL     1      21.894 -34.188  23.772  1.00  0.00    -0.008 C 
ATOM     19  C   UNL     1      22.308 -31.642  24.161  1.00  0.00     0.009 C 
ATOM     20  C   UNL     1      22.876 -32.977  23.603  1.00  0.00     0.009 C 
ATOM     21  C   UNL     1      22.514 -35.413  23.027  1.00  0.00     0.015 C 
ATOM     22  C   UNL     1      21.614 -34.565  25.257  1.00  0.00     0.016 C 
ATOM     23  C   UNL     1      24.393 -33.248  23.980  1.00  0.00     0.005 C 
ATOM     24  C   UNL     1      23.967 -35.717  23.413  1.00  0.00     0.047 C 
ATOM     25  C   UNL     1      24.883 -34.506  23.193  1.00  0.00     0.182 C 
ATOM     26  C   UNL     1      24.641 -33.434  25.505  1.00  0.00     0.015 C 
ATOM     27  C   UNL     1      25.242 -32.031  23.530  1.00  0.00     0.015 C 
BRANCH   7  28
ATOM     28  O   UNL     1      16.486 -30.127  21.950  1.00  0.00    -0.393 OA
ATOM     29  H   UNL     1      16.941 -29.945  22.811  1.00  0.00     0.210 HD
ENDBRANCH   7  28
BRANCH  25  30
ATOM     30  O   UNL     1      26.211 -34.883  23.577  1.00  0.00    -0.462 OA
BRANCH  30  31
ATOM     31  C   UNL     1      27.304 -34.925  22.701  1.00  0.00     0.302 C 
ATOM     32  O   UNL     1      27.264 -35.624  21.653  1.00  0.00    -0.253 OA
ATOM     33  C   UNL     1      28.508 -34.098  22.989  1.00  0.00     0.139 C 
ENDBRANCH  30  31
ENDBRANCH  25  30
ENDBRANCH   2   6
ENDBRANCH   1   2
BRANCH   1  34
ATOM     34  C   UNL     1      13.099 -31.207  21.928  1.00  0.00     0.031 C 
BRANCH  34  35
ATOM     35  C   UNL     1      13.311 -30.817  23.377  1.00  0.00    -0.075 C 
ATOM     36  C   UNL     1      13.853 -31.702  24.234  1.00  0.00     0.008 C 
BRANCH  35  37
ATOM     37  C   UNL     1      12.930 -29.415  23.836  1.00  0.00     0.008 C 
ATOM     38  C   UNL     1      11.629 -28.937  23.174  1.00  0.00     0.012 C 
ATOM     39  C   UNL     1      14.068 -28.413  23.587  1.00  0.00     0.012 C 
ENDBRANCH  35  37
ENDBRANCH  34  35
ENDBRANCH   1  34
TORSDOF 9
ENDMDL
MODEL 4
REMARK VINA RESULT:    -7.266      4.178      6.560
REMARK INTER + INTRA:         -11.918
REMARK INTER:                 -11.384
REMARK INTRA:                  -0.535
REMARK UNBOUND:                -1.041
REMARK SMILES C=C(CC[C@@H](C(=O)[O-])[C@H]1[C@@H](O)C[C@]2(C)C3=C(CC[C@]12C)[C@@]1(C)CC[C@H](OC(C)=O)C(C)(C)[C@@H]1CC3)C(C)C
REMARK SMILES IDX 4 1 5 2 6 3 7 4 8 5 9 6 10 7 19 8 12 9 13 10 18 11 20 12
REMARK SMILES IDX 14 13 15 14 17 15 16 16 35 17 21 18 34 19 33 20 23 21 22 22
REMARK SMILES IDX 30 23 24 24 25 25 31 26 32 27 11 28 26 30 27 31 29 32 28 33
REMARK SMILES IDX 3 34 2 35 1 36 36 37 37 38 38 39
REMARK H PARENT 11 29
REMARK Flexibility Score: inf
ROOT
ATOM      1  C   UNL     1      14.321 -31.297  21.026  1.00  0.00     0.014 C 
ENDROOT
BRANCH   1   2
ATOM      2  C   UNL     1      15.232 -32.502  21.398  1.00  0.00     0.042 C 
BRANCH   2   3
ATOM      3  C   UNL     1      14.829 -33.675  20.535  1.00  0.00     0.045 C 
ATOM      4  O   UNL     1      15.209 -34.846  20.813  1.00  0.00    -0.550 OA
ATOM      5  O   UNL     1      14.065 -33.460  19.395  1.00  0.00    -0.550 OA
ENDBRANCH   2   3
BRANCH   2   6
ATOM      6  C   UNL     1      16.780 -32.223  21.342  1.00  0.00     0.033 C 
ATOM      7  C   UNL     1      17.167 -30.723  21.253  1.00  0.00     0.119 C 
ATOM      8  C   UNL     1      17.690 -32.846  22.491  1.00  0.00    -0.017 C 
ATOM      9  C   UNL     1      18.496 -30.605  21.985  1.00  0.00     0.043 C 
ATOM     10  C   UNL     1      18.430 -31.617  23.140  1.00  0.00    -0.003 C 
ATOM     11  C   UNL     1      18.737 -33.768  21.814  1.00  0.00     0.012 C 
ATOM     12  C   UNL     1      16.932 -33.697  23.560  1.00  0.00     0.013 C 
ATOM     13  C   UNL     1      17.582 -31.000  24.306  1.00  0.00     0.017 C 
ATOM     14  C   UNL     1      19.863 -31.901  23.665  1.00  0.00    -0.064 C 
ATOM     15  C   UNL     1      19.808 -34.242  22.783  1.00  0.00     0.032 C 
ATOM     16  C   UNL     1      20.512 -33.092  23.480  1.00  0.00    -0.064 C 
ATOM     17  C   UNL     1      20.514 -30.822  24.517  1.00  0.00     0.032 C 
ATOM     18  C   UNL     1      21.869 -33.337  24.196  1.00  0.00    -0.008 C 
ATOM     19  C   UNL     1      22.045 -30.744  24.426  1.00  0.00     0.009 C 
ATOM     20  C   UNL     1      22.751 -32.057  23.985  1.00  0.00     0.009 C 
ATOM     21  C   UNL     1      22.626 -34.548  23.563  1.00  0.00     0.015 C 
ATOM     22  C   UNL     1      21.553 -33.639  25.691  1.00  0.00     0.016 C 
ATOM     23  C   UNL     1      24.266 -32.168  24.441  1.00  0.00     0.005 C 
ATOM     24  C   UNL     1      24.081 -34.696  24.028  1.00  0.00     0.047 C 
ATOM     25  C   UNL     1      24.899 -33.426  23.763  1.00  0.00     0.182 C 
ATOM     26  C   UNL     1      24.458 -32.231  25.984  1.00  0.00     0.015 C 
ATOM     27  C   UNL     1      25.029 -30.912  23.943  1.00  0.00     0.015 C 
BRANCH   7  28
ATOM     28  O   UNL     1      16.225 -29.898  21.879  1.00  0.00    -0.393 OA
ATOM     29  H   UNL     1      16.621 -28.990  21.911  1.00  0.00     0.210 HD
ENDBRANCH   7  28
BRANCH  25  30
ATOM     30  O   UNL     1      26.235 -33.658  24.226  1.00  0.00    -0.462 OA
BRANCH  30  31
ATOM     31  C   UNL     1      27.335 -33.871  23.385  1.00  0.00     0.302 C 
ATOM     32  O   UNL     1      27.342 -34.825  22.560  1.00  0.00    -0.253 OA
ATOM     33  C   UNL     1      28.491 -32.934  23.435  1.00  0.00     0.139 C 
ENDBRANCH  30  31
ENDBRANCH  25  30
ENDBRANCH   2   6
ENDBRANCH   1   2
BRANCH   1  34
ATOM     34  C   UNL     1      12.966 -31.233  21.775  1.00  0.00     0.031 C 
BRANCH  34  35
ATOM     35  C   UNL     1      13.071 -30.457  23.073  1.00  0.00    -0.075 C 
ATOM     36  C   UNL     1      13.667 -31.020  24.141  1.00  0.00     0.008 C 
BRANCH  35  37
ATOM     37  C   UNL     1      12.522 -29.037  23.141  1.00  0.00     0.008 C 
ATOM     38  C   UNL     1      12.727 -28.417  24.531  1.00  0.00     0.012 C 
ATOM     39  C   UNL     1      11.041 -28.988  22.735  1.00  0.00     0.012 C 
ENDBRANCH  35  37
ENDBRANCH  34  35
ENDBRANCH   1  34
TORSDOF 9
ENDMDL
MODEL 5
REMARK VINA RESULT:    -7.043      3.609      5.746
REMARK INTER + INTRA:         -11.585
REMARK INTER:                 -11.188
REMARK INTRA:                  -0.396
REMARK UNBOUND:                -1.041
REMARK SMILES C=C(CC[C@@H](C(=O)[O-])[C@H]1[C@@H](O)C[C@]2(C)C3=C(CC[C@]12C)[C@@]1(C)CC[C@H](OC(C)=O)C(C)(C)[C@@H]1CC3)C(C)C
REMARK SMILES IDX 4 1 5 2 6 3 7 4 8 5 9 6 10 7 19 8 12 9 13 10 18 11 20 12
REMARK SMILES IDX 14 13 15 14 17 15 16 16 35 17 21 18 34 19 33 20 23 21 22 22
REMARK SMILES IDX 30 23 24 24 25 25 31 26 32 27 11 28 26 30 27 31 29 32 28 33
REMARK SMILES IDX 3 34 2 35 1 36 36 37 37 38 38 39
REMARK H PARENT 11 29
REMARK Flexibility Score: inf
ROOT
ATOM      1  C   UNL     1      15.935 -34.401  21.035  1.00  0.00     0.014 C 
ENDROOT
BRANCH   1   2
ATOM      2  C   UNL     1      17.096 -35.292  21.562  1.00  0.00     0.042 C 
BRANCH   2   3
ATOM      3  C   UNL     1      17.281 -36.438  20.596  1.00  0.00     0.045 C 
ATOM      4  O   UNL     1      18.012 -37.424  20.891  1.00  0.00    -0.550 OA
ATOM      5  O   UNL     1      16.675 -36.390  19.348  1.00  0.00    -0.550 OA
ENDBRANCH   2   3
BRANCH   2   6
ATOM      6  C   UNL     1      18.445 -34.538  21.861  1.00  0.00     0.033 C 
ATOM      7  C   UNL     1      18.873 -33.518  20.773  1.00  0.00     0.119 C 
ATOM      8  C   UNL     1      18.581 -33.780  23.255  1.00  0.00    -0.017 C 
ATOM      9  C   UNL     1      19.613 -32.417  21.521  1.00  0.00     0.043 C 
ATOM     10  C   UNL     1      18.906 -32.286  22.879  1.00  0.00    -0.003 C 
ATOM     11  C   UNL     1      19.794 -34.389  24.005  1.00  0.00     0.012 C 
ATOM     12  C   UNL     1      17.341 -33.885  24.199  1.00  0.00     0.013 C 
ATOM     13  C   UNL     1      17.591 -31.454  22.688  1.00  0.00     0.017 C 
ATOM     14  C   UNL     1      19.829 -31.532  23.875  1.00  0.00    -0.064 C 
ATOM     15  C   UNL     1      20.167 -33.597  25.247  1.00  0.00     0.032 C 
ATOM     16  C   UNL     1      20.434 -32.133  24.946  1.00  0.00    -0.064 C 
ATOM     17  C   UNL     1      19.965 -30.028  23.689  1.00  0.00     0.032 C 
ATOM     18  C   UNL     1      21.192 -31.256  25.981  1.00  0.00    -0.008 C 
ATOM     19  C   UNL     1      21.311 -29.430  24.122  1.00  0.00     0.009 C 
ATOM     20  C   UNL     1      22.096 -30.256  25.178  1.00  0.00     0.009 C 
ATOM     21  C   UNL     1      22.126 -32.130  26.878  1.00  0.00     0.015 C 
ATOM     22  C   UNL     1      20.119 -30.557  26.866  1.00  0.00     0.016 C 
ATOM     23  C   UNL     1      23.131 -29.410  26.031  1.00  0.00     0.005 C 
ATOM     24  C   UNL     1      23.103 -31.324  27.743  1.00  0.00     0.047 C 
ATOM     25  C   UNL     1      23.982 -30.393  26.899  1.00  0.00     0.182 C 
ATOM     26  C   UNL     1      22.471 -28.327  26.933  1.00  0.00     0.015 C 
ATOM     27  C   UNL     1      24.086 -28.667  25.061  1.00  0.00     0.015 C 
BRANCH   7  28
ATOM     28  O   UNL     1      17.773 -32.961  20.110  1.00  0.00    -0.393 OA
ATOM     29  H   UNL     1      18.133 -32.471  19.328  1.00  0.00     0.210 HD
ENDBRANCH   7  28
BRANCH  25  30
ATOM     30  O   UNL     1      24.858 -29.688  27.788  1.00  0.00    -0.462 OA
BRANCH  30  31
ATOM     31  C   UNL     1      26.131 -29.221  27.435  1.00  0.00     0.302 C 
ATOM     32  O   UNL     1      26.454 -28.019  27.633  1.00  0.00    -0.253 OA
ATOM     33  C   UNL     1      27.127 -30.167  26.863  1.00  0.00     0.139 C 
ENDBRANCH  30  31
ENDBRANCH  25  30
ENDBRANCH   2   6
ENDBRANCH   1   2
BRANCH   1  34
ATOM     34  C   UNL     1      14.987 -33.833  22.123  1.00  0.00     0.031 C 
BRANCH  34  35
ATOM     35  C   UNL     1      14.236 -32.609  21.637  1.00  0.00    -0.075 C 
ATOM     36  C   UNL     1      13.859 -32.526  20.348  1.00  0.00     0.008 C 
BRANCH  35  37
ATOM     37  C   UNL     1      13.897 -31.501  22.625  1.00  0.00     0.008 C 
ATOM     38  C   UNL     1      13.874 -32.019  24.071  1.00  0.00     0.012 C 
ATOM     39  C   UNL     1      12.567 -30.819  22.270  1.00  0.00     0.012 C 
ENDBRANCH  35  37
ENDBRANCH  34  35
ENDBRANCH   1  34
TORSDOF 9
ENDMDL
MODEL 6
REMARK VINA RESULT:    -6.999      2.848      3.785
REMARK INTER + INTRA:         -11.518
REMARK INTER:                 -11.206
REMARK INTRA:                  -0.311
REMARK UNBOUND:                -1.041
REMARK SMILES C=C(CC[C@@H](C(=O)[O-])[C@H]1[C@@H](O)C[C@]2(C)C3=C(CC[C@]12C)[C@@]1(C)CC[C@H](OC(C)=O)C(C)(C)[C@@H]1CC3)C(C)C
REMARK SMILES IDX 4 1 5 2 6 3 7 4 8 5 9 6 10 7 19 8 12 9 13 10 18 11 20 12
REMARK SMILES IDX 14 13 15 14 17 15 16 16 35 17 21 18 34 19 33 20 23 21 22 22
REMARK SMILES IDX 30 23 24 24 25 25 31 26 32 27 11 28 26 30 27 31 29 32 28 33
REMARK SMILES IDX 3 34 2 35 1 36 36 37 37 38 38 39
REMARK H PARENT 11 29
REMARK Flexibility Score: inf
ROOT
ATOM      1  C   UNL     1      15.519 -34.305  21.443  1.00  0.00     0.014 C 
ENDROOT
BRANCH   1   2
ATOM      2  C   UNL     1      15.521 -32.750  21.512  1.00  0.00     0.042 C 
BRANCH   2   3
ATOM      3  C   UNL     1      14.085 -32.282  21.498  1.00  0.00     0.045 C 
ATOM      4  O   UNL     1      13.417 -32.272  20.427  1.00  0.00    -0.550 OA
ATOM      5  O   UNL     1      13.502 -31.815  22.668  1.00  0.00    -0.550 OA
ENDBRANCH   2   3
BRANCH   2   6
ATOM      6  C   UNL     1      16.342 -32.127  22.702  1.00  0.00     0.033 C 
ATOM      7  C   UNL     1      16.189 -32.870  24.055  1.00  0.00     0.119 C 
ATOM      8  C   UNL     1      17.905 -31.907  22.493  1.00  0.00    -0.017 C 
ATOM      9  C   UNL     1      17.524 -32.693  24.766  1.00  0.00     0.043 C 
ATOM     10  C   UNL     1      18.592 -32.710  23.660  1.00  0.00    -0.003 C 
ATOM     11  C   UNL     1      18.196 -30.395  22.677  1.00  0.00     0.012 C 
ATOM     12  C   UNL     1      18.460 -32.328  21.094  1.00  0.00     0.013 C 
ATOM     13  C   UNL     1      18.862 -34.196  23.240  1.00  0.00     0.017 C 
ATOM     14  C   UNL     1      19.912 -32.100  24.204  1.00  0.00    -0.064 C 
ATOM     15  C   UNL     1      19.685 -30.092  22.728  1.00  0.00     0.032 C 
ATOM     16  C   UNL     1      20.404 -30.887  23.803  1.00  0.00    -0.064 C 
ATOM     17  C   UNL     1      20.735 -32.963  25.149  1.00  0.00     0.032 C 
ATOM     18  C   UNL     1      21.819 -30.449  24.272  1.00  0.00    -0.008 C 
ATOM     19  C   UNL     1      21.560 -32.195  26.192  1.00  0.00     0.009 C 
ATOM     20  C   UNL     1      21.913 -30.730  25.813  1.00  0.00     0.009 C 
ATOM     21  C   UNL     1      22.032 -28.917  24.053  1.00  0.00     0.015 C 
ATOM     22  C   UNL     1      22.853 -31.249  23.426  1.00  0.00     0.016 C 
ATOM     23  C   UNL     1      23.192 -30.154  26.553  1.00  0.00     0.005 C 
ATOM     24  C   UNL     1      23.290 -28.352  24.726  1.00  0.00     0.047 C 
ATOM     25  C   UNL     1      23.306 -28.629  26.234  1.00  0.00     0.182 C 
ATOM     26  C   UNL     1      24.516 -30.884  26.184  1.00  0.00     0.015 C 
ATOM     27  C   UNL     1      22.998 -30.319  28.082  1.00  0.00     0.015 C 
BRANCH   7  28
ATOM     28  O   UNL     1      15.941 -34.237  23.882  1.00  0.00    -0.393 OA
ATOM     29  H   UNL     1      15.106 -34.308  23.354  1.00  0.00     0.210 HD
ENDBRANCH   7  28
BRANCH  25  30
ATOM     30  O   UNL     1      24.509 -28.067  26.772  1.00  0.00    -0.462 OA
BRANCH  30  31
ATOM     31  C   UNL     1      24.575 -26.839  27.444  1.00  0.00     0.302 C 
ATOM     32  O   UNL     1      23.550 -26.117  27.571  1.00  0.00    -0.253 OA
ATOM     33  C   UNL     1      25.861 -26.404  28.054  1.00  0.00     0.139 C 
ENDBRANCH  30  31
ENDBRANCH  25  30
ENDBRANCH   2   6
ENDBRANCH   1   2
BRANCH   1  34
ATOM     34  C   UNL     1      15.585 -34.905  20.015  1.00  0.00     0.031 C 
BRANCH  34  35
ATOM     35  C   UNL     1      16.941 -35.514  19.718  1.00  0.00    -0.075 C 
ATOM     36  C   UNL     1      17.876 -34.783  19.082  1.00  0.00     0.008 C 
BRANCH  35  37
ATOM     37  C   UNL     1      17.234 -36.940  20.168  1.00  0.00     0.008 C 
ATOM     38  C   UNL     1      18.113 -36.966  21.428  1.00  0.00     0.012 C 
ATOM     39  C   UNL     1      17.873 -37.764  19.040  1.00  0.00     0.012 C 
ENDBRANCH  35  37
ENDBRANCH  34  35
ENDBRANCH   1  34
TORSDOF 9
ENDMDL
MODEL 7
REMARK VINA RESULT:    -6.855      7.170     11.628
REMARK INTER + INTRA:         -11.303
REMARK INTER:                 -10.718
REMARK INTRA:                  -0.584
REMARK UNBOUND:                -1.041
REMARK SMILES C=C(CC[C@@H](C(=O)[O-])[C@H]1[C@@H](O)C[C@]2(C)C3=C(CC[C@]12C)[C@@]1(C)CC[C@H](OC(C)=O)C(C)(C)[C@@H]1CC3)C(C)C
REMARK SMILES IDX 4 1 5 2 6 3 7 4 8 5 9 6 10 7 19 8 12 9 13 10 18 11 20 12
REMARK SMILES IDX 14 13 15 14 17 15 16 16 35 17 21 18 34 19 33 20 23 21 22 22
REMARK SMILES IDX 30 23 24 24 25 25 31 26 32 27 11 28 26 30 27 31 29 32 28 33
REMARK SMILES IDX 3 34 2 35 1 36 36 37 37 38 38 39
REMARK H PARENT 11 29
REMARK Flexibility Score: inf
ROOT
ATOM      1  C   UNL     1      21.517 -23.118  22.450  1.00  0.00     0.014 C 
ENDROOT
BRANCH   1   2
ATOM      2  C   UNL     1      21.025 -22.320  23.692  1.00  0.00     0.042 C 
BRANCH   2   3
ATOM      3  C   UNL     1      19.564 -21.993  23.488  1.00  0.00     0.045 C 
ATOM      4  O   UNL     1      19.207 -21.104  22.667  1.00  0.00    -0.550 OA
ATOM      5  O   UNL     1      18.601 -22.648  24.244  1.00  0.00    -0.550 OA
ENDBRANCH   2   3
BRANCH   2   6
ATOM      6  C   UNL     1      21.298 -23.000  25.085  1.00  0.00     0.033 C 
ATOM      7  C   UNL     1      22.652 -23.751  25.187  1.00  0.00     0.119 C 
ATOM      8  C   UNL     1      21.197 -22.092  26.389  1.00  0.00    -0.017 C 
ATOM      9  C   UNL     1      23.079 -23.616  26.642  1.00  0.00     0.043 C 
ATOM     10  C   UNL     1      22.600 -22.227  27.092  1.00  0.00    -0.003 C 
ATOM     11  C   UNL     1      20.109 -22.708  27.307  1.00  0.00     0.012 C 
ATOM     12  C   UNL     1      20.814 -20.598  26.138  1.00  0.00     0.013 C 
ATOM     13  C   UNL     1      23.603 -21.146  26.559  1.00  0.00     0.017 C 
ATOM     14  C   UNL     1      22.578 -22.162  28.643  1.00  0.00    -0.064 C 
ATOM     15  C   UNL     1      20.078 -22.064  28.684  1.00  0.00     0.032 C 
ATOM     16  C   UNL     1      21.426 -22.116  29.381  1.00  0.00    -0.064 C 
ATOM     17  C   UNL     1      23.920 -22.035  29.348  1.00  0.00     0.032 C 
ATOM     18  C   UNL     1      21.514 -21.873  30.913  1.00  0.00    -0.008 C 
ATOM     19  C   UNL     1      23.993 -22.669  30.745  1.00  0.00     0.009 C 
ATOM     20  C   UNL     1      22.630 -22.821  31.477  1.00  0.00     0.009 C 
ATOM     21  C   UNL     1      20.170 -22.246  31.617  1.00  0.00     0.015 C 
ATOM     22  C   UNL     1      21.814 -20.360  31.123  1.00  0.00     0.016 C 
ATOM     23  C   UNL     1      22.743 -22.906  33.056  1.00  0.00     0.005 C 
ATOM     24  C   UNL     1      20.252 -22.290  33.149  1.00  0.00     0.047 C 
ATOM     25  C   UNL     1      21.336 -23.258  33.638  1.00  0.00     0.182 C 
ATOM     26  C   UNL     1      23.294 -21.611  33.721  1.00  0.00     0.015 C 
ATOM     27  C   UNL     1      23.722 -24.052  33.424  1.00  0.00     0.015 C 
BRANCH   7  28
ATOM     28  O   UNL     1      23.633 -23.182  24.367  1.00  0.00    -0.393 OA
ATOM     29  H   UNL     1      23.573 -23.643  23.492  1.00  0.00     0.210 HD
ENDBRANCH   7  28
BRANCH  25  30
ATOM     30  O   UNL     1      21.336 -23.233  35.070  1.00  0.00    -0.462 OA
BRANCH  30  31
ATOM     31  C   UNL     1      20.891 -24.287  35.878  1.00  0.00     0.302 C 
ATOM     32  O   UNL     1      19.680 -24.637  35.874  1.00  0.00    -0.253 OA
ATOM     33  C   UNL     1      21.870 -25.032  36.717  1.00  0.00     0.139 C 
ENDBRANCH  30  31
ENDBRANCH  25  30
ENDBRANCH   2   6
ENDBRANCH   1   2
BRANCH   1  34
ATOM     34  C   UNL     1      20.588 -24.272  21.993  1.00  0.00     0.031 C 
BRANCH  34  35
ATOM     35  C   UNL     1      21.281 -25.207  21.023  1.00  0.00    -0.075 C 
ATOM     36  C   UNL     1      20.550 -25.929  20.153  1.00  0.00     0.008 C 
BRANCH  35  37
ATOM     37  C   UNL     1      22.803 -25.297  21.030  1.00  0.00     0.008 C 
ATOM     38  C   UNL     1      23.412 -24.671  19.766  1.00  0.00     0.012 C 
ATOM     39  C   UNL     1      23.279 -26.747  21.205  1.00  0.00     0.012 C 
ENDBRANCH  35  37
ENDBRANCH  34  35
ENDBRANCH   1  34
TORSDOF 9
ENDMDL
MODEL 8
REMARK VINA RESULT:    -6.854      3.853      8.587
REMARK INTER + INTRA:         -11.302
REMARK INTER:                 -10.492
REMARK INTRA:                  -0.810
REMARK UNBOUND:                -1.041
REMARK SMILES C=C(CC[C@@H](C(=O)[O-])[C@H]1[C@@H](O)C[C@]2(C)C3=C(CC[C@]12C)[C@@]1(C)CC[C@H](OC(C)=O)C(C)(C)[C@@H]1CC3)C(C)C
REMARK SMILES IDX 4 1 5 2 6 3 7 4 8 5 9 6 10 7 19 8 12 9 13 10 18 11 20 12
REMARK SMILES IDX 14 13 15 14 17 15 16 16 35 17 21 18 34 19 33 20 23 21 22 22
REMARK SMILES IDX 30 23 24 24 25 25 31 26 32 27 11 28 26 30 27 31 29 32 28 33
REMARK SMILES IDX 3 34 2 35 1 36 36 37 37 38 38 39
REMARK H PARENT 11 29
REMARK Flexibility Score: inf
ROOT
ATOM      1  C   UNL     1      25.018 -33.073  24.993  1.00  0.00     0.014 C 
ENDROOT
BRANCH   1   2
ATOM      2  C   UNL     1      23.660 -33.621  24.468  1.00  0.00     0.042 C 
BRANCH   2   3
ATOM      3  C   UNL     1      23.403 -34.950  25.138  1.00  0.00     0.045 C 
ATOM      4  O   UNL     1      22.667 -35.030  26.160  1.00  0.00    -0.550 OA
ATOM      5  O   UNL     1      24.017 -36.096  24.650  1.00  0.00    -0.550 OA
ENDBRANCH   2   3
BRANCH   2   6
ATOM      6  C   UNL     1      22.438 -32.638  24.599  1.00  0.00     0.033 C 
ATOM      7  C   UNL     1      22.735 -31.173  24.184  1.00  0.00     0.119 C 
ATOM      8  C   UNL     1      21.080 -33.037  23.869  1.00  0.00    -0.017 C 
ATOM      9  C   UNL     1      21.425 -30.640  23.620  1.00  0.00     0.043 C 
ATOM     10  C   UNL     1      20.760 -31.830  22.910  1.00  0.00    -0.003 C 
ATOM     11  C   UNL     1      19.974 -33.133  24.952  1.00  0.00     0.012 C 
ATOM     12  C   UNL     1      21.107 -34.398  23.100  1.00  0.00     0.013 C 
ATOM     13  C   UNL     1      21.436 -32.027  21.509  1.00  0.00     0.017 C 
ATOM     14  C   UNL     1      19.252 -31.530  22.696  1.00  0.00    -0.064 C 
ATOM     15  C   UNL     1      18.586 -33.283  24.352  1.00  0.00     0.032 C 
ATOM     16  C   UNL     1      18.250 -32.172  23.374  1.00  0.00    -0.064 C 
ATOM     17  C   UNL     1      18.893 -30.545  21.593  1.00  0.00     0.032 C 
ATOM     18  C   UNL     1      16.773 -31.926  22.959  1.00  0.00    -0.008 C 
ATOM     19  C   UNL     1      17.613 -29.730  21.829  1.00  0.00     0.009 C 
ATOM     20  C   UNL     1      16.582 -30.377  22.795  1.00  0.00     0.009 C 
ATOM     21  C   UNL     1      15.791 -32.413  24.072  1.00  0.00     0.015 C 
ATOM     22  C   UNL     1      16.523 -32.730  21.650  1.00  0.00     0.016 C 
ATOM     23  C   UNL     1      15.091 -29.875  22.591  1.00  0.00     0.005 C 
ATOM     24  C   UNL     1      14.336 -31.972  23.866  1.00  0.00     0.047 C 
ATOM     25  C   UNL     1      14.210 -30.448  23.747  1.00  0.00     0.182 C 
ATOM     26  C   UNL     1      14.481 -30.251  21.210  1.00  0.00     0.015 C 
ATOM     27  C   UNL     1      15.071 -28.327  22.686  1.00  0.00     0.015 C 
BRANCH   7  28
ATOM     28  O   UNL     1      23.724 -31.095  23.196  1.00  0.00    -0.393 OA
ATOM     29  H   UNL     1      24.501 -30.640  23.609  1.00  0.00     0.210 HD
ENDBRANCH   7  28
BRANCH  25  30
ATOM     30  O   UNL     1      12.825 -30.134  23.560  1.00  0.00    -0.462 OA
BRANCH  30  31
ATOM     31  C   UNL     1      12.221 -28.944  23.987  1.00  0.00     0.302 C 
ATOM     32  O   UNL     1      12.626 -28.350  25.023  1.00  0.00    -0.253 OA
ATOM     33  C   UNL     1      11.117 -28.351  23.184  1.00  0.00     0.139 C 
ENDBRANCH  30  31
ENDBRANCH  25  30
ENDBRANCH   2   6
ENDBRANCH   1   2
BRANCH   1  34
ATOM     34  C   UNL     1      25.078 -32.799  26.518  1.00  0.00     0.031 C 
BRANCH  34  35
ATOM     35  C   UNL     1      25.024 -31.316  26.830  1.00  0.00    -0.075 C 
ATOM     36  C   UNL     1      25.843 -30.468  26.181  1.00  0.00     0.008 C 
BRANCH  35  37
ATOM     37  C   UNL     1      24.023 -30.805  27.858  1.00  0.00     0.008 C 
ATOM     38  C   UNL     1      22.771 -31.694  27.919  1.00  0.00     0.012 C 
ATOM     39  C   UNL     1      23.639 -29.342  27.590  1.00  0.00     0.012 C 
ENDBRANCH  35  37
ENDBRANCH  34  35
ENDBRANCH   1  34
TORSDOF 9
ENDMDL
MODEL 9
REMARK VINA RESULT:    -6.842      4.400     10.621
REMARK INTER + INTRA:         -11.283
REMARK INTER:                 -10.527
REMARK INTRA:                  -0.756
REMARK UNBOUND:                -1.041
REMARK SMILES C=C(CC[C@@H](C(=O)[O-])[C@H]1[C@@H](O)C[C@]2(C)C3=C(CC[C@]12C)[C@@]1(C)CC[C@H](OC(C)=O)C(C)(C)[C@@H]1CC3)C(C)C
REMARK SMILES IDX 4 1 5 2 6 3 7 4 8 5 9 6 10 7 19 8 12 9 13 10 18 11 20 12
REMARK SMILES IDX 14 13 15 14 17 15 16 16 35 17 21 18 34 19 33 20 23 21 22 22
REMARK SMILES IDX 30 23 24 24 25 25 31 26 32 27 11 28 26 30 27 31 29 32 28 33
REMARK SMILES IDX 3 34 2 35 1 36 36 37 37 38 38 39
REMARK H PARENT 11 29
REMARK Flexibility Score: inf
ROOT
ATOM      1  C   UNL     1      24.368 -27.969  27.782  1.00  0.00     0.014 C 
ENDROOT
BRANCH   1   2
ATOM      2  C   UNL     1      25.011 -29.093  26.919  1.00  0.00     0.042 C 
BRANCH   2   3
ATOM      3  C   UNL     1      26.312 -29.496  27.574  1.00  0.00     0.045 C 
ATOM      4  O   UNL     1      27.296 -29.874  26.880  1.00  0.00    -0.550 OA
ATOM      5  O   UNL     1      26.415 -29.494  28.958  1.00  0.00    -0.550 OA
ENDBRANCH   2   3
BRANCH   2   6
ATOM      6  C   UNL     1      24.084 -30.328  26.617  1.00  0.00     0.033 C 
ATOM      7  C   UNL     1      23.521 -31.040  27.876  1.00  0.00     0.119 C 
ATOM      8  C   UNL     1      22.845 -30.109  25.642  1.00  0.00    -0.017 C 
ATOM      9  C   UNL     1      22.158 -31.576  27.460  1.00  0.00     0.043 C 
ATOM     10  C   UNL     1      21.583 -30.542  26.479  1.00  0.00    -0.003 C 
ATOM     11  C   UNL     1      23.014 -31.075  24.442  1.00  0.00     0.012 C 
ATOM     12  C   UNL     1      22.692 -28.664  25.067  1.00  0.00     0.013 C 
ATOM     13  C   UNL     1      21.006 -29.334  27.296  1.00  0.00     0.017 C 
ATOM     14  C   UNL     1      20.430 -31.185  25.663  1.00  0.00    -0.064 C 
ATOM     15  C   UNL     1      21.779 -31.124  23.556  1.00  0.00     0.032 C 
ATOM     16  C   UNL     1      20.522 -31.481  24.329  1.00  0.00    -0.064 C 
ATOM     17  C   UNL     1      19.104 -31.387  26.381  1.00  0.00     0.032 C 
ATOM     18  C   UNL     1      19.255 -31.957  23.567  1.00  0.00    -0.008 C 
ATOM     19  C   UNL     1      18.270 -32.583  25.900  1.00  0.00     0.009 C 
ATOM     20  C   UNL     1      18.560 -33.054  24.447  1.00  0.00     0.009 C 
ATOM     21  C   UNL     1      19.636 -32.612  22.201  1.00  0.00     0.015 C 
ATOM     22  C   UNL     1      18.369 -30.701  23.317  1.00  0.00     0.016 C 
ATOM     23  C   UNL     1      17.365 -33.844  23.766  1.00  0.00     0.005 C 
ATOM     24  C   UNL     1      18.479 -33.343  21.507  1.00  0.00     0.047 C 
ATOM     25  C   UNL     1      17.864 -34.425  22.404  1.00  0.00     0.182 C 
ATOM     26  C   UNL     1      16.083 -32.988  23.550  1.00  0.00     0.015 C 
ATOM     27  C   UNL     1      16.965 -35.029  24.683  1.00  0.00     0.015 C 
BRANCH   7  28
ATOM     28  O   UNL     1      23.357 -30.159  28.951  1.00  0.00    -0.393 OA
ATOM     29  H   UNL     1      23.417 -30.704  29.776  1.00  0.00     0.210 HD
ENDBRANCH   7  28
BRANCH  25  30
ATOM     30  O   UNL     1      16.801 -35.050  21.675  1.00  0.00    -0.462 OA
BRANCH  30  31
ATOM     31  C   UNL     1      16.991 -35.941  20.611  1.00  0.00     0.302 C 
ATOM     32  O   UNL     1      16.456 -35.729  19.489  1.00  0.00    -0.253 OA
ATOM     33  C   UNL     1      17.870 -37.128  20.795  1.00  0.00     0.139 C 
ENDBRANCH  30  31
ENDBRANCH  25  30
ENDBRANCH   2   6
ENDBRANCH   1   2
BRANCH   1  34
ATOM     34  C   UNL     1      24.962 -26.552  27.577  1.00  0.00     0.031 C 
BRANCH  34  35
ATOM     35  C   UNL     1      25.671 -26.049  28.818  1.00  0.00    -0.075 C 
ATOM     36  C   UNL     1      26.974 -25.718  28.754  1.00  0.00     0.008 C 
BRANCH  35  37
ATOM     37  C   UNL     1      24.889 -25.902  30.117  1.00  0.00     0.008 C 
ATOM     38  C   UNL     1      24.882 -24.448  30.612  1.00  0.00     0.012 C 
ATOM     39  C   UNL     1      25.425 -26.845  31.206  1.00  0.00     0.012 C 
ENDBRANCH  35  37
ENDBRANCH  34  35
ENDBRANCH   1  34
TORSDOF 9
ENDMDL
