MODEL 1
REMARK VINA RESULT:     5.229      0.000      0.000
REMARK INTER + INTRA:           7.072
REMARK INTER:                   7.980
REMARK INTRA:                  -0.908
REMARK UNBOUND:                -0.908
REMARK SMILES OC[C@@H]1O[C@](CO)(O[C@H]2O[C@@H](CO)[C@@H](O)[C@H](O)[C@H]2O)[C@@H](O)[C@@H]1O
REMARK SMILES IDX 8 1 9 2 11 3 14 4 10 5 16 6 18 7 12 8 13 9 15 11 17 13 19 15
REMARK SMILES IDX 5 17 20 18 4 19 22 20 3 21 6 22 7 23 21 25 23 27 2 29 1 30
REMARK H PARENT 13 10 15 12 17 14 19 16 7 24 21 26 23 28 1 31
REMARK Flexibility Score: inf
ROOT
ATOM      1  O   UNL     1       0.174   0.294  -0.428  1.00  0.00    -0.313 OA
ENDROOT
BRANCH   1   2
ATOM      2  C   UNL     1      -1.109   0.186   0.184  1.00  0.00     0.285 C 
ATOM      3  C   UNL     1      -1.595   2.217   1.373  1.00  0.00     0.178 C 
ATOM      4  C   UNL     1      -3.075   2.327   0.874  1.00  0.00     0.177 C 
ATOM      5  O   UNL     1      -1.157   0.869   1.435  1.00  0.00    -0.341 OA
ATOM      6  C   UNL     1      -3.451   1.161  -0.062  1.00  0.00     0.179 C 
ATOM      7  C   UNL     1      -2.212   0.645  -0.821  1.00  0.00     0.202 C 
BRANCH   3   8
ATOM      8  C   UNL     1      -0.564   3.139   0.658  1.00  0.00     0.191 C 
BRANCH   8   9
ATOM      9  O   UNL     1      -0.103   4.130   1.533  1.00  0.00    -0.394 OA
ATOM     10  H   UNL     1      -0.816   4.257   2.205  1.00  0.00     0.210 HD
ENDBRANCH   8   9
ENDBRANCH   3   8
BRANCH   4  11
ATOM     11  O   UNL     1      -3.349   3.558   0.249  1.00  0.00    -0.387 OA
ATOM     12  H   UNL     1      -2.905   4.269   0.769  1.00  0.00     0.211 HD
ENDBRANCH   4  11
BRANCH   6  13
ATOM     13  O   UNL     1      -3.982   0.102   0.688  1.00  0.00    -0.387 OA
ATOM     14  H   UNL     1      -4.972   0.197   0.670  1.00  0.00     0.211 HD
ENDBRANCH   6  13
BRANCH   7  15
ATOM     15  O   UNL     1      -1.688   1.622  -1.694  1.00  0.00    -0.385 OA
ATOM     16  H   UNL     1      -2.330   2.374  -1.743  1.00  0.00     0.211 HD
ENDBRANCH   7  15
ENDBRANCH   1   2
BRANCH   1  17
ATOM     17  C   UNL     1       1.076  -0.810  -0.237  1.00  0.00     0.224 C 
ATOM     18  C   UNL     1       0.384  -2.178  -0.468  1.00  0.00     0.208 C 
ATOM     19  O   UNL     1       1.432  -0.782   1.133  1.00  0.00    -0.337 OA
ATOM     20  C   UNL     1       0.927  -3.084   0.621  1.00  0.00     0.180 C 
ATOM     21  C   UNL     1       1.599  -2.105   1.599  1.00  0.00     0.179 C 
BRANCH  17  22
ATOM     22  C   UNL     1       2.406  -0.617  -1.052  1.00  0.00     0.225 C 
BRANCH  22  23
ATOM     23  O   UNL     1       2.165   0.044  -2.270  1.00  0.00    -0.391 OA
ATOM     24  H   UNL     1       1.800   0.950  -2.064  1.00  0.00     0.210 HD
ENDBRANCH  22  23
ENDBRANCH  17  22
BRANCH  18  25
ATOM     25  O   UNL     1       0.654  -2.693  -1.743  1.00  0.00    -0.385 OA
ATOM     26  H   UNL     1      -0.012  -2.293  -2.361  1.00  0.00     0.211 HD
ENDBRANCH  18  25
BRANCH  20  27
ATOM     27  O   UNL     1      -0.131  -3.803   1.206  1.00  0.00    -0.387 OA
ATOM     28  H   UNL     1       0.000  -3.746   2.187  1.00  0.00     0.211 HD
ENDBRANCH  20  27
BRANCH  21  29
ATOM     29  C   UNL     1       1.088  -2.198   3.048  1.00  0.00     0.191 C 
BRANCH  29  30
ATOM     30  O   UNL     1       1.600  -1.151   3.825  1.00  0.00    -0.394 OA
ATOM     31  H   UNL     1       2.590  -1.240   3.815  1.00  0.00     0.210 HD
ENDBRANCH  29  30
ENDBRANCH  21  29
ENDBRANCH   1  17
TORSDOF 13
ENDMDL
MODEL 2
REMARK VINA RESULT:     6.134      1.170      2.364
REMARK INTER + INTRA:           8.453
REMARK INTER:                   9.468
REMARK INTRA:                  -1.015
REMARK UNBOUND:                -0.908
REMARK SMILES OC[C@@H]1O[C@](CO)(O[C@H]2O[C@@H](CO)[C@@H](O)[C@H](O)[C@H]2O)[C@@H](O)[C@@H]1O
REMARK SMILES IDX 8 1 9 2 11 3 14 4 10 5 16 6 18 7 12 8 13 9 15 11 17 13 19 15
REMARK SMILES IDX 5 17 20 18 4 19 22 20 3 21 6 22 7 23 21 25 23 27 2 29 1 30
REMARK H PARENT 13 10 15 12 17 14 19 16 7 24 21 26 23 28 1 31
REMARK Flexibility Score: inf
ROOT
ATOM      1  O   UNL     1       0.505   0.083   0.910  1.00  0.00    -0.313 OA
ENDROOT
BRANCH   1   2
ATOM      2  C   UNL     1      -0.906   0.125   1.111  1.00  0.00     0.285 C 
ATOM      3  C   UNL     1      -1.589   2.400   1.475  1.00  0.00     0.178 C 
ATOM      4  C   UNL     1      -2.845   2.325   0.544  1.00  0.00     0.177 C 
ATOM      5  O   UNL     1      -1.276   1.138   2.044  1.00  0.00    -0.341 OA
ATOM      6  C   UNL     1      -3.003   0.930  -0.093  1.00  0.00     0.179 C 
ATOM      7  C   UNL     1      -1.630   0.246  -0.266  1.00  0.00     0.202 C 
BRANCH   3   8
ATOM      8  C   UNL     1      -0.335   3.101   0.874  1.00  0.00     0.191 C 
BRANCH   8   9
ATOM      9  O   UNL     1      -0.386   4.481   1.108  1.00  0.00    -0.394 OA
ATOM     10  H   UNL     1      -1.173   4.633   1.684  1.00  0.00     0.210 HD
ENDBRANCH   8   9
ENDBRANCH   3   8
BRANCH   4  11
ATOM     11  O   UNL     1      -2.842   3.315  -0.455  1.00  0.00    -0.387 OA
ATOM     12  H   UNL     1      -2.665   2.875  -1.320  1.00  0.00     0.211 HD
ENDBRANCH   4  11
BRANCH   6  13
ATOM     13  O   UNL     1      -3.799   0.119   0.729  1.00  0.00    -0.387 OA
ATOM     14  H   UNL     1      -4.174   0.702   1.441  1.00  0.00     0.211 HD
ENDBRANCH   6  13
BRANCH   7  15
ATOM     15  O   UNL     1      -0.810   0.943  -1.179  1.00  0.00    -0.385 OA
ATOM     16  H   UNL     1      -0.433   1.734  -0.719  1.00  0.00     0.211 HD
ENDBRANCH   7  15
ENDBRANCH   1   2
BRANCH   1  17
ATOM     17  C   UNL     1       1.115  -1.220   0.880  1.00  0.00     0.224 C 
ATOM     18  C   UNL     1       1.602  -1.606  -0.540  1.00  0.00     0.208 C 
ATOM     19  O   UNL     1       0.082  -2.134   1.197  1.00  0.00    -0.337 OA
ATOM     20  C   UNL     1       1.247  -3.073  -0.695  1.00  0.00     0.180 C 
ATOM     21  C   UNL     1       0.279  -3.332   0.473  1.00  0.00     0.179 C 
BRANCH  17  22
ATOM     22  C   UNL     1       2.209  -1.372   1.998  1.00  0.00     0.225 C 
BRANCH  22  23
ATOM     23  O   UNL     1       1.625  -1.407   3.278  1.00  0.00    -0.391 OA
ATOM     24  H   UNL     1       1.345  -2.347   3.465  1.00  0.00     0.210 HD
ENDBRANCH  22  23
ENDBRANCH  17  22
BRANCH  18  25
ATOM     25  O   UNL     1       2.979  -1.395  -0.697  1.00  0.00    -0.385 OA
ATOM     26  H   UNL     1       3.427  -1.833   0.072  1.00  0.00     0.211 HD
ENDBRANCH  18  25
BRANCH  20  27
ATOM     27  O   UNL     1       0.654  -3.284  -1.953  1.00  0.00    -0.387 OA
ATOM     28  H   UNL     1       0.605  -2.397  -2.392  1.00  0.00     0.211 HD
ENDBRANCH  20  27
BRANCH  21  29
ATOM     29  C   UNL     1      -1.089  -3.899   0.055  1.00  0.00     0.191 C 
BRANCH  29  30
ATOM     30  O   UNL     1      -2.120  -3.010   0.387  1.00  0.00    -0.394 OA
ATOM     31  H   UNL     1      -2.897  -3.238  -0.189  1.00  0.00     0.210 HD
ENDBRANCH  29  30
ENDBRANCH  21  29
ENDBRANCH   1  17
TORSDOF 13
ENDMDL
MODEL 3
REMARK VINA RESULT:     6.603      1.417      3.419
REMARK INTER + INTRA:           9.168
REMARK INTER:                   9.396
REMARK INTRA:                  -0.227
REMARK UNBOUND:                -0.908
REMARK SMILES OC[C@@H]1O[C@](CO)(O[C@H]2O[C@@H](CO)[C@@H](O)[C@H](O)[C@H]2O)[C@@H](O)[C@@H]1O
REMARK SMILES IDX 8 1 9 2 11 3 14 4 10 5 16 6 18 7 12 8 13 9 15 11 17 13 19 15
REMARK SMILES IDX 5 17 20 18 4 19 22 20 3 21 6 22 7 23 21 25 23 27 2 29 1 30
REMARK H PARENT 13 10 15 12 17 14 19 16 7 24 21 26 23 28 1 31
REMARK Flexibility Score: inf
ROOT
ATOM      1  O   UNL     1       0.357  -0.134   1.523  1.00  0.00    -0.313 OA
ENDROOT
BRANCH   1   2
ATOM      2  C   UNL     1      -0.127   0.525   0.355  1.00  0.00     0.285 C 
ATOM      3  C   UNL     1      -2.285  -0.363  -0.221  1.00  0.00     0.178 C 
ATOM      4  C   UNL     1      -2.939   1.028  -0.520  1.00  0.00     0.177 C 
ATOM      5  O   UNL     1      -0.888  -0.354  -0.471  1.00  0.00    -0.341 OA
ATOM      6  C   UNL     1      -1.942   2.186  -0.311  1.00  0.00     0.179 C 
ATOM      7  C   UNL     1      -0.895   1.822   0.762  1.00  0.00     0.202 C 
BRANCH   3   8
ATOM      8  C   UNL     1      -2.633  -0.998   1.157  1.00  0.00     0.191 C 
BRANCH   8   9
ATOM      9  O   UNL     1      -3.844  -1.696   1.084  1.00  0.00    -0.394 OA
ATOM     10  H   UNL     1      -4.295  -1.557   1.951  1.00  0.00     0.210 HD
ENDBRANCH   8   9
ENDBRANCH   3   8
BRANCH   4  11
ATOM     11  O   UNL     1      -4.107   1.253   0.231  1.00  0.00    -0.387 OA
ATOM     12  H   UNL     1      -4.448   2.151   0.002  1.00  0.00     0.211 HD
ENDBRANCH   4  11
BRANCH   6  13
ATOM     13  O   UNL     1      -1.269   2.457  -1.510  1.00  0.00    -0.387 OA
ATOM     14  H   UNL     1      -1.659   1.864  -2.206  1.00  0.00     0.211 HD
ENDBRANCH   6  13
BRANCH   7  15
ATOM     15  O   UNL     1      -1.484   1.650   2.033  1.00  0.00    -0.385 OA
ATOM     16  H   UNL     1      -2.301   2.208   2.076  1.00  0.00     0.211 HD
ENDBRANCH   7  15
ENDBRANCH   1   2
BRANCH   1  17
ATOM     17  C   UNL     1       1.051  -1.377   1.323  1.00  0.00     0.224 C 
ATOM     18  C   UNL     1       1.403  -1.619  -0.167  1.00  0.00     0.208 C 
ATOM     19  O   UNL     1       0.127  -2.392   1.672  1.00  0.00    -0.337 OA
ATOM     20  C   UNL     1       1.138  -3.095  -0.402  1.00  0.00     0.180 C 
ATOM     21  C   UNL     1       0.327  -3.514   0.837  1.00  0.00     0.179 C 
BRANCH  17  22
ATOM     22  C   UNL     1       2.271  -1.523   2.303  1.00  0.00     0.225 C 
BRANCH  22  23
ATOM     23  O   UNL     1       1.844  -1.570   3.642  1.00  0.00    -0.391 OA
ATOM     24  H   UNL     1       2.497  -1.057   4.195  1.00  0.00     0.210 HD
ENDBRANCH  22  23
ENDBRANCH  17  22
BRANCH  18  25
ATOM     25  O   UNL     1       2.734  -1.287  -0.452  1.00  0.00    -0.385 OA
ATOM     26  H   UNL     1       2.878  -1.477  -1.415  1.00  0.00     0.211 HD
ENDBRANCH  18  25
BRANCH  20  27
ATOM     27  O   UNL     1       0.425  -3.260  -1.604  1.00  0.00    -0.387 OA
ATOM     28  H   UNL     1      -0.148  -2.457  -1.703  1.00  0.00     0.211 HD
ENDBRANCH  20  27
BRANCH  21  29
ATOM     29  C   UNL     1      -1.035  -4.157   0.522  1.00  0.00     0.191 C 
BRANCH  29  30
ATOM     30  O   UNL     1      -1.092  -5.468   1.012  1.00  0.00    -0.394 OA
ATOM     31  H   UNL     1      -0.285  -5.602   1.577  1.00  0.00     0.210 HD
ENDBRANCH  29  30
ENDBRANCH  21  29
ENDBRANCH   1  17
TORSDOF 13
ENDMDL
MODEL 4
REMARK VINA RESULT:     7.010      1.155      2.176
REMARK INTER + INTRA:           9.790
REMARK INTER:                   9.169
REMARK INTRA:                   0.621
REMARK UNBOUND:                -0.908
REMARK SMILES OC[C@@H]1O[C@](CO)(O[C@H]2O[C@@H](CO)[C@@H](O)[C@H](O)[C@H]2O)[C@@H](O)[C@@H]1O
REMARK SMILES IDX 8 1 9 2 11 3 14 4 10 5 16 6 18 7 12 8 13 9 15 11 17 13 19 15
REMARK SMILES IDX 5 17 20 18 4 19 22 20 3 21 6 22 7 23 21 25 23 27 2 29 1 30
REMARK H PARENT 13 10 15 12 17 14 19 16 7 24 21 26 23 28 1 31
REMARK Flexibility Score: inf
ROOT
ATOM      1  O   UNL     1       0.437  -0.145  -1.010  1.00  0.00    -0.313 OA
ENDROOT
BRANCH   1   2
ATOM      2  C   UNL     1       0.117   0.877  -0.069  1.00  0.00     0.285 C 
ATOM      3  C   UNL     1      -1.780   2.121  -0.863  1.00  0.00     0.178 C 
ATOM      4  C   UNL     1      -2.512   2.166   0.520  1.00  0.00     0.177 C 
ATOM      5  O   UNL     1      -0.370   2.053  -0.712  1.00  0.00    -0.341 OA
ATOM      6  C   UNL     1      -1.707   1.443   1.618  1.00  0.00     0.179 C 
ATOM      7  C   UNL     1      -0.851   0.310   1.015  1.00  0.00     0.202 C 
BRANCH   3   8
ATOM      8  C   UNL     1      -2.314   1.074  -1.884  1.00  0.00     0.191 C 
BRANCH   8   9
ATOM      9  O   UNL     1      -3.367   1.612  -2.633  1.00  0.00    -0.394 OA
ATOM     10  H   UNL     1      -3.080   2.520  -2.898  1.00  0.00     0.210 HD
ENDBRANCH   8   9
ENDBRANCH   3   8
BRANCH   4  11
ATOM     11  O   UNL     1      -3.820   1.651   0.461  1.00  0.00    -0.387 OA
ATOM     12  H   UNL     1      -4.449   2.407   0.545  1.00  0.00     0.211 HD
ENDBRANCH   4  11
BRANCH   6  13
ATOM     13  O   UNL     1      -0.850   2.351   2.256  1.00  0.00    -0.387 OA
ATOM     14  H   UNL     1      -0.006   1.866   2.458  1.00  0.00     0.211 HD
ENDBRANCH   6  13
BRANCH   7  15
ATOM     15  O   UNL     1      -1.651  -0.710   0.457  1.00  0.00    -0.385 OA
ATOM     16  H   UNL     1      -2.584  -0.576   0.760  1.00  0.00     0.211 HD
ENDBRANCH   7  15
ENDBRANCH   1   2
BRANCH   1  17
ATOM     17  C   UNL     1       1.153  -1.286  -0.506  1.00  0.00     0.224 C 
ATOM     18  C   UNL     1       0.286  -2.572  -0.513  1.00  0.00     0.208 C 
ATOM     19  O   UNL     1       1.415  -1.003   0.857  1.00  0.00    -0.337 OA
ATOM     20  C   UNL     1       0.616  -3.278   0.790  1.00  0.00     0.180 C 
ATOM     21  C   UNL     1       1.355  -2.201   1.603  1.00  0.00     0.179 C 
BRANCH  17  22
ATOM     22  C   UNL     1       2.550  -1.449  -1.208  1.00  0.00     0.225 C 
BRANCH  22  23
ATOM     23  O   UNL     1       2.925  -0.268  -1.872  1.00  0.00    -0.391 OA
ATOM     24  H   UNL     1       3.878  -0.360  -2.156  1.00  0.00     0.210 HD
ENDBRANCH  22  23
ENDBRANCH  17  22
BRANCH  18  25
ATOM     25  O   UNL     1       0.564  -3.385  -1.619  1.00  0.00    -0.385 OA
ATOM     26  H   UNL     1       0.117  -2.969  -2.401  1.00  0.00     0.211 HD
ENDBRANCH  18  25
BRANCH  20  27
ATOM     27  O   UNL     1      -0.573  -3.708   1.406  1.00  0.00    -0.387 OA
ATOM     28  H   UNL     1      -0.369  -3.812   2.370  1.00  0.00     0.211 HD
ENDBRANCH  20  27
BRANCH  21  29
ATOM     29  C   UNL     1       0.738  -1.906   2.982  1.00  0.00     0.191 C 
BRANCH  29  30
ATOM     30  O   UNL     1       1.639  -1.199   3.789  1.00  0.00    -0.394 OA
ATOM     31  H   UNL     1       1.852  -0.352   3.314  1.00  0.00     0.210 HD
ENDBRANCH  29  30
ENDBRANCH  21  29
ENDBRANCH   1  17
TORSDOF 13
ENDMDL
MODEL 5
REMARK VINA RESULT:     7.241      1.430      5.530
REMARK INTER + INTRA:          10.143
REMARK INTER:                  10.330
REMARK INTRA:                  -0.187
REMARK UNBOUND:                -0.908
REMARK SMILES OC[C@@H]1O[C@](CO)(O[C@H]2O[C@@H](CO)[C@@H](O)[C@H](O)[C@H]2O)[C@@H](O)[C@@H]1O
REMARK SMILES IDX 8 1 9 2 11 3 14 4 10 5 16 6 18 7 12 8 13 9 15 11 17 13 19 15
REMARK SMILES IDX 5 17 20 18 4 19 22 20 3 21 6 22 7 23 21 25 23 27 2 29 1 30
REMARK H PARENT 13 10 15 12 17 14 19 16 7 24 21 26 23 28 1 31
REMARK Flexibility Score: inf
ROOT
ATOM      1  O   UNL     1      -0.490   0.388   1.176  1.00  0.00    -0.313 OA
ENDROOT
BRANCH   1   2
ATOM      2  C   UNL     1      -0.697  -0.935   0.685  1.00  0.00     0.285 C 
ATOM      3  C   UNL     1       0.866  -1.378  -1.086  1.00  0.00     0.178 C 
ATOM      4  C   UNL     1       1.241  -2.815  -0.593  1.00  0.00     0.177 C 
ATOM      5  O   UNL     1      -0.457  -1.021  -0.717  1.00  0.00    -0.341 OA
ATOM      6  C   UNL     1       0.474  -3.199   0.689  1.00  0.00     0.179 C 
ATOM      7  C   UNL     1       0.144  -1.946   1.527  1.00  0.00     0.202 C 
BRANCH   3   8
ATOM      8  C   UNL     1       1.892  -0.254  -0.756  1.00  0.00     0.191 C 
BRANCH   8   9
ATOM      9  O   UNL     1       2.726  -0.013  -1.855  1.00  0.00    -0.394 OA
ATOM     10  H   UNL     1       2.143  -0.039  -2.652  1.00  0.00     0.210 HD
ENDBRANCH   8   9
ENDBRANCH   3   8
BRANCH   4  11
ATOM     11  O   UNL     1       2.624  -2.981  -0.397  1.00  0.00    -0.387 OA
ATOM     12  H   UNL     1       2.787  -3.066   0.573  1.00  0.00     0.211 HD
ENDBRANCH   4  11
BRANCH   6  13
ATOM     13  O   UNL     1      -0.729  -3.834   0.352  1.00  0.00    -0.387 OA
ATOM     14  H   UNL     1      -0.506  -4.572  -0.275  1.00  0.00     0.211 HD
ENDBRANCH   6  13
BRANCH   7  15
ATOM     15  O   UNL     1       1.311  -1.315   2.008  1.00  0.00    -0.385 OA
ATOM     16  H   UNL     1       1.603  -1.783   2.830  1.00  0.00     0.211 HD
ENDBRANCH   7  15
ENDBRANCH   1   2
BRANCH   1  17
ATOM     17  C   UNL     1      -1.229   1.439   0.531  1.00  0.00     0.224 C 
ATOM     18  C   UNL     1      -2.677   1.010   0.184  1.00  0.00     0.208 C 
ATOM     19  O   UNL     1      -0.582   1.658  -0.709  1.00  0.00    -0.337 OA
ATOM     20  C   UNL     1      -2.944   1.594  -1.191  1.00  0.00     0.180 C 
ATOM     21  C   UNL     1      -1.544   2.001  -1.684  1.00  0.00     0.179 C 
BRANCH  17  22
ATOM     22  C   UNL     1      -1.134   2.788   1.333  1.00  0.00     0.225 C 
BRANCH  22  23
ATOM     23  O   UNL     1      -0.048   3.566   0.890  1.00  0.00    -0.391 OA
ATOM     24  H   UNL     1       0.795   3.099   1.150  1.00  0.00     0.210 HD
ENDBRANCH  22  23
ENDBRANCH  17  22
BRANCH  18  25
ATOM     25  O   UNL     1      -3.603   1.478   1.126  1.00  0.00    -0.385 OA
ATOM     26  H   UNL     1      -3.735   0.748   1.786  1.00  0.00     0.211 HD
ENDBRANCH  18  25
BRANCH  20  27
ATOM     27  O   UNL     1      -3.550   0.621  -2.006  1.00  0.00    -0.387 OA
ATOM     28  H   UNL     1      -2.820   0.040  -2.340  1.00  0.00     0.211 HD
ENDBRANCH  20  27
BRANCH  21  29
ATOM     29  C   UNL     1      -1.137   1.381  -3.033  1.00  0.00     0.191 C 
BRANCH  29  30
ATOM     30  O   UNL     1       0.210   0.997  -3.019  1.00  0.00    -0.394 OA
ATOM     31  H   UNL     1       0.416   0.627  -3.918  1.00  0.00     0.210 HD
ENDBRANCH  29  30
ENDBRANCH  21  29
ENDBRANCH   1  17
TORSDOF 13
ENDMDL
