MODEL 1
REMARK VINA RESULT:    -3.494      0.000      0.000
REMARK INTER + INTRA:         -12.347
REMARK INTER:                  -8.804
REMARK INTRA:                  -3.543
REMARK UNBOUND:                -3.543
REMARK SMILES CCCCCCCCCCCCCCCCCCCCCCCCCCCC(=O)[O-]
REMARK SMILES IDX 15 1 16 2 17 3 18 4 19 5 20 6 21 7 22 8 23 9 24 10 25 11
REMARK SMILES IDX 26 12 27 13 28 14 29 15 30 16 14 17 13 18 12 19 11 20 10 21
REMARK SMILES IDX 9 22 8 23 7 24 6 25 5 26 4 27 3 28 2 29 1 30
REMARK H PARENT
REMARK Flexibility Score: inf
ROOT
ATOM      1  C   UNL     1       4.824   5.798  32.846  1.00  0.00     0.000 C 
ENDROOT
BRANCH   1   2
ATOM      2  C   UNL     1       3.561   6.606  32.487  1.00  0.00     0.000 C 
BRANCH   2   3
ATOM      3  C   UNL     1       2.387   6.427  33.470  1.00  0.00     0.000 C 
BRANCH   3   4
ATOM      4  C   UNL     1       2.115   7.689  34.309  1.00  0.00     0.000 C 
BRANCH   4   5
ATOM      5  C   UNL     1       2.636   8.970  33.641  1.00  0.00     0.000 C 
BRANCH   5   6
ATOM      6  C   UNL     1       2.926  10.091  34.656  1.00  0.00     0.000 C 
BRANCH   6   7
ATOM      7  C   UNL     1       2.754  11.494  34.054  1.00  0.00     0.000 C 
BRANCH   7   8
ATOM      8  C   UNL     1       1.435  12.166  34.479  1.00  0.00     0.000 C 
BRANCH   8   9
ATOM      9  C   UNL     1       0.682  12.772  33.285  1.00  0.00     0.000 C 
BRANCH   9  10
ATOM     10  C   UNL     1       0.206  11.704  32.284  1.00  0.00     0.000 C 
BRANCH  10  11
ATOM     11  C   UNL     1       0.329  12.185  30.823  1.00  0.00     0.000 C 
BRANCH  11  12
ATOM     12  C   UNL     1       0.677  11.060  29.832  1.00  0.00     0.006 C 
BRANCH  12  13
ATOM     13  C   UNL     1       1.207   9.798  30.524  1.00  0.00     0.053 C 
BRANCH  13  14
ATOM     14  C   UNL     1       1.850   8.885  29.529  1.00  0.00     0.041 C 
ATOM     15  O   UNL     1       2.618   9.351  28.646  1.00  0.00    -0.550 OA
ATOM     16  O   UNL     1       1.643   7.513  29.606  1.00  0.00    -0.550 OA
ENDBRANCH  13  14
ENDBRANCH  12  13
ENDBRANCH  11  12
ENDBRANCH  10  11
ENDBRANCH   9  10
ENDBRANCH   8   9
ENDBRANCH   7   8
ENDBRANCH   6   7
ENDBRANCH   5   6
ENDBRANCH   4   5
ENDBRANCH   3   4
ENDBRANCH   2   3
ENDBRANCH   1   2
BRANCH   1  17
ATOM     17  C   UNL     1       4.695   4.861  34.059  1.00  0.00     0.000 C 
BRANCH  17  18
ATOM     18  C   UNL     1       5.523   5.252  35.299  1.00  0.00     0.000 C 
BRANCH  18  19
ATOM     19  C   UNL     1       5.870   6.754  35.390  1.00  0.00     0.000 C 
BRANCH  19  20
ATOM     20  C   UNL     1       7.349   7.002  35.739  1.00  0.00     0.000 C 
BRANCH  20  21
ATOM     21  C   UNL     1       8.322   6.276  34.797  1.00  0.00     0.000 C 
BRANCH  21  22
ATOM     22  C   UNL     1       9.577   5.701  35.482  1.00  0.00    -0.000 C 
BRANCH  22  23
ATOM     23  C   UNL     1       9.401   4.309  36.122  1.00  0.00    -0.000 C 
BRANCH  23  24
ATOM     24  C   UNL     1      10.465   3.262  35.731  1.00  0.00    -0.000 C 
BRANCH  24  25
ATOM     25  C   UNL     1      11.894   3.808  35.562  1.00  0.00    -0.000 C 
BRANCH  25  26
ATOM     26  C   UNL     1      12.609   3.259  34.317  1.00  0.00    -0.000 C 
BRANCH  26  27
ATOM     27  C   UNL     1      11.653   3.138  33.120  1.00  0.00    -0.000 C 
BRANCH  27  28
ATOM     28  C   UNL     1      11.493   4.471  32.369  1.00  0.00    -0.000 C 
BRANCH  28  29
ATOM     29  C   UNL     1      10.106   4.605  31.714  1.00  0.00    -0.003 C 
ATOM     30  C   UNL     1       9.076   3.653  32.326  1.00  0.00     0.004 C 
ENDBRANCH  28  29
ENDBRANCH  27  28
ENDBRANCH  26  27
ENDBRANCH  25  26
ENDBRANCH  24  25
ENDBRANCH  23  24
ENDBRANCH  22  23
ENDBRANCH  21  22
ENDBRANCH  20  21
ENDBRANCH  19  20
ENDBRANCH  18  19
ENDBRANCH  17  18
ENDBRANCH   1  17
TORSDOF 26
ENDMDL
MODEL 2
REMARK VINA RESULT:    -3.450      2.645      7.326
REMARK INTER + INTRA:         -12.237
REMARK INTER:                  -7.960
REMARK INTRA:                  -4.277
REMARK UNBOUND:                -3.543
REMARK SMILES CCCCCCCCCCCCCCCCCCCCCCCCCCCC(=O)[O-]
REMARK SMILES IDX 15 1 16 2 17 3 18 4 19 5 20 6 21 7 22 8 23 9 24 10 25 11
REMARK SMILES IDX 26 12 27 13 28 14 29 15 30 16 14 17 13 18 12 19 11 20 10 21
REMARK SMILES IDX 9 22 8 23 7 24 6 25 5 26 4 27 3 28 2 29 1 30
REMARK H PARENT
REMARK Flexibility Score: inf
ROOT
ATOM      1  C   UNL     1      11.147   5.093  32.005  1.00  0.00     0.000 C 
ENDROOT
BRANCH   1   2
ATOM      2  C   UNL     1      10.663   6.508  32.378  1.00  0.00     0.000 C 
BRANCH   2   3
ATOM      3  C   UNL     1       9.978   6.609  33.756  1.00  0.00     0.000 C 
BRANCH   3   4
ATOM      4  C   UNL     1      10.389   5.470  34.708  1.00  0.00     0.000 C 
BRANCH   4   5
ATOM      5  C   UNL     1       9.277   5.090  35.696  1.00  0.00     0.000 C 
BRANCH   5   6
ATOM      6  C   UNL     1       8.092   6.073  35.661  1.00  0.00     0.000 C 
BRANCH   6   7
ATOM      7  C   UNL     1       6.736   5.362  35.538  1.00  0.00     0.000 C 
BRANCH   7   8
ATOM      8  C   UNL     1       5.567   6.343  35.332  1.00  0.00     0.000 C 
BRANCH   8   9
ATOM      9  C   UNL     1       4.601   5.870  34.235  1.00  0.00     0.000 C 
BRANCH   9  10
ATOM     10  C   UNL     1       3.468   6.878  33.971  1.00  0.00     0.000 C 
BRANCH  10  11
ATOM     11  C   UNL     1       2.540   7.040  35.194  1.00  0.00     0.000 C 
BRANCH  11  12
ATOM     12  C   UNL     1       2.077   8.489  35.427  1.00  0.00     0.006 C 
BRANCH  12  13
ATOM     13  C   UNL     1       3.144   9.524  35.053  1.00  0.00     0.053 C 
BRANCH  13  14
ATOM     14  C   UNL     1       2.615  10.475  34.027  1.00  0.00     0.041 C 
ATOM     15  O   UNL     1       1.947  10.044  33.050  1.00  0.00    -0.550 OA
ATOM     16  O   UNL     1       2.816  11.842  34.174  1.00  0.00    -0.550 OA
ENDBRANCH  13  14
ENDBRANCH  12  13
ENDBRANCH  11  12
ENDBRANCH  10  11
ENDBRANCH   9  10
ENDBRANCH   8   9
ENDBRANCH   7   8
ENDBRANCH   6   7
ENDBRANCH   5   6
ENDBRANCH   4   5
ENDBRANCH   3   4
ENDBRANCH   2   3
ENDBRANCH   1   2
BRANCH   1  17
ATOM     17  C   UNL     1      10.622   4.538  30.670  1.00  0.00     0.000 C 
BRANCH  17  18
ATOM     18  C   UNL     1       9.577   3.409  30.777  1.00  0.00     0.000 C 
BRANCH  18  19
ATOM     19  C   UNL     1       9.131   3.084  32.220  1.00  0.00     0.000 C 
BRANCH  19  20
ATOM     20  C   UNL     1       7.647   3.410  32.470  1.00  0.00     0.000 C 
BRANCH  20  21
ATOM     21  C   UNL     1       7.240   4.803  31.963  1.00  0.00     0.000 C 
BRANCH  21  22
ATOM     22  C   UNL     1       6.051   4.812  30.985  1.00  0.00    -0.000 C 
BRANCH  22  23
ATOM     23  C   UNL     1       6.423   4.710  29.491  1.00  0.00    -0.000 C 
BRANCH  23  24
ATOM     24  C   UNL     1       5.534   3.769  28.651  1.00  0.00    -0.000 C 
BRANCH  24  25
ATOM     25  C   UNL     1       4.627   4.465  27.622  1.00  0.00    -0.000 C 
BRANCH  25  26
ATOM     26  C   UNL     1       4.915   5.968  27.478  1.00  0.00    -0.000 C 
BRANCH  26  27
ATOM     27  C   UNL     1       3.704   6.820  27.890  1.00  0.00    -0.000 C 
BRANCH  27  28
ATOM     28  C   UNL     1       2.665   6.006  28.681  1.00  0.00    -0.000 C 
BRANCH  28  29
ATOM     29  C   UNL     1       2.710   6.315  30.189  1.00  0.00    -0.003 C 
ATOM     30  C   UNL     1       2.118   7.685  30.522  1.00  0.00     0.004 C 
ENDBRANCH  28  29
ENDBRANCH  27  28
ENDBRANCH  26  27
ENDBRANCH  25  26
ENDBRANCH  24  25
ENDBRANCH  23  24
ENDBRANCH  22  23
ENDBRANCH  21  22
ENDBRANCH  20  21
ENDBRANCH  19  20
ENDBRANCH  18  19
ENDBRANCH  17  18
ENDBRANCH   1  17
TORSDOF 26
ENDMDL
MODEL 3
REMARK VINA RESULT:    -3.406     16.363     20.626
REMARK INTER + INTRA:         -12.127
REMARK INTER:                  -7.488
REMARK INTRA:                  -4.639
REMARK UNBOUND:                -3.543
REMARK SMILES CCCCCCCCCCCCCCCCCCCCCCCCCCCC(=O)[O-]
REMARK SMILES IDX 15 1 16 2 17 3 18 4 19 5 20 6 21 7 22 8 23 9 24 10 25 11
REMARK SMILES IDX 26 12 27 13 28 14 29 15 30 16 14 17 13 18 12 19 11 20 10 21
REMARK SMILES IDX 9 22 8 23 7 24 6 25 5 26 4 27 3 28 2 29 1 30
REMARK H PARENT
REMARK Flexibility Score: inf
ROOT
ATOM      1  C   UNL     1      10.278  22.213  21.968  1.00  0.00     0.000 C 
ENDROOT
BRANCH   1   2
ATOM      2  C   UNL     1      10.190  20.889  21.184  1.00  0.00     0.000 C 
BRANCH   2   3
ATOM      3  C   UNL     1      11.154  20.791  19.984  1.00  0.00     0.000 C 
BRANCH   3   4
ATOM      4  C   UNL     1      12.080  22.015  19.863  1.00  0.00     0.000 C 
BRANCH   4   5
ATOM      5  C   UNL     1      11.787  22.862  18.617  1.00  0.00     0.000 C 
BRANCH   5   6
ATOM      6  C   UNL     1      12.919  22.796  17.576  1.00  0.00     0.000 C 
BRANCH   6   7
ATOM      7  C   UNL     1      12.494  22.086  16.282  1.00  0.00     0.000 C 
BRANCH   7   8
ATOM      8  C   UNL     1      11.000  21.714  16.271  1.00  0.00     0.000 C 
BRANCH   8   9
ATOM      9  C   UNL     1      10.781  20.194  16.231  1.00  0.00     0.000 C 
BRANCH   9  10
ATOM     10  C   UNL     1       9.295  19.808  16.330  1.00  0.00     0.000 C 
BRANCH  10  11
ATOM     11  C   UNL     1       9.008  18.922  17.561  1.00  0.00     0.000 C 
BRANCH  11  12
ATOM     12  C   UNL     1       7.951  19.514  18.511  1.00  0.00     0.006 C 
BRANCH  12  13
ATOM     13  C   UNL     1       7.304  20.791  17.963  1.00  0.00     0.053 C 
BRANCH  13  14
ATOM     14  C   UNL     1       5.887  20.531  17.562  1.00  0.00     0.041 C 
ATOM     15  O   UNL     1       5.465  20.920  16.440  1.00  0.00    -0.550 OA
ATOM     16  O   UNL     1       5.044  19.815  18.403  1.00  0.00    -0.550 OA
ENDBRANCH  13  14
ENDBRANCH  12  13
ENDBRANCH  11  12
ENDBRANCH  10  11
ENDBRANCH   9  10
ENDBRANCH   8   9
ENDBRANCH   7   8
ENDBRANCH   6   7
ENDBRANCH   5   6
ENDBRANCH   4   5
ENDBRANCH   3   4
ENDBRANCH   2   3
ENDBRANCH   1   2
BRANCH   1  17
ATOM     17  C   UNL     1       8.949  22.964  22.161  1.00  0.00     0.000 C 
BRANCH  17  18
ATOM     18  C   UNL     1       7.945  22.858  20.997  1.00  0.00     0.000 C 
BRANCH  18  19
ATOM     19  C   UNL     1       6.501  22.516  21.425  1.00  0.00     0.000 C 
BRANCH  19  20
ATOM     20  C   UNL     1       6.261  21.001  21.548  1.00  0.00     0.000 C 
BRANCH  20  21
ATOM     21  C   UNL     1       6.095  20.531  23.003  1.00  0.00     0.000 C 
BRANCH  21  22
ATOM     22  C   UNL     1       6.051  21.664  24.046  1.00  0.00    -0.000 C 
BRANCH  22  23
ATOM     23  C   UNL     1       4.723  21.801  24.818  1.00  0.00    -0.000 C 
BRANCH  23  24
ATOM     24  C   UNL     1       3.456  21.418  24.025  1.00  0.00    -0.000 C 
BRANCH  24  25
ATOM     25  C   UNL     1       2.695  20.188  24.551  1.00  0.00    -0.000 C 
BRANCH  25  26
ATOM     26  C   UNL     1       2.958  18.917  23.730  1.00  0.00    -0.000 C 
BRANCH  26  27
ATOM     27  C   UNL     1       2.085  18.867  22.466  1.00  0.00    -0.000 C 
BRANCH  27  28
ATOM     28  C   UNL     1       2.865  19.281  21.206  1.00  0.00    -0.000 C 
BRANCH  28  29
ATOM     29  C   UNL     1       2.123  20.355  20.390  1.00  0.00    -0.003 C 
ATOM     30  C   UNL     1       2.818  21.716  20.448  1.00  0.00     0.004 C 
ENDBRANCH  28  29
ENDBRANCH  27  28
ENDBRANCH  26  27
ENDBRANCH  25  26
ENDBRANCH  24  25
ENDBRANCH  23  24
ENDBRANCH  22  23
ENDBRANCH  21  22
ENDBRANCH  20  21
ENDBRANCH  19  20
ENDBRANCH  18  19
ENDBRANCH  17  18
ENDBRANCH   1  17
TORSDOF 26
ENDMDL
MODEL 4
REMARK VINA RESULT:    -3.393     16.249     20.537
REMARK INTER + INTRA:         -12.094
REMARK INTER:                  -8.407
REMARK INTRA:                  -3.687
REMARK UNBOUND:                -3.543
REMARK SMILES CCCCCCCCCCCCCCCCCCCCCCCCCCCC(=O)[O-]
REMARK SMILES IDX 15 1 16 2 17 3 18 4 19 5 20 6 21 7 22 8 23 9 24 10 25 11
REMARK SMILES IDX 26 12 27 13 28 14 29 15 30 16 14 17 13 18 12 19 11 20 10 21
REMARK SMILES IDX 9 22 8 23 7 24 6 25 5 26 4 27 3 28 2 29 1 30
REMARK H PARENT
REMARK Flexibility Score: inf
ROOT
ATOM      1  C   UNL     1      11.497  21.011  20.181  1.00  0.00     0.000 C 
ENDROOT
BRANCH   1   2
ATOM      2  C   UNL     1      12.245  22.345  20.377  1.00  0.00     0.000 C 
BRANCH   2   3
ATOM      3  C   UNL     1      12.867  22.925  19.090  1.00  0.00     0.000 C 
BRANCH   3   4
ATOM      4  C   UNL     1      11.903  22.880  17.891  1.00  0.00     0.000 C 
BRANCH   4   5
ATOM      5  C   UNL     1      12.569  22.355  16.611  1.00  0.00     0.000 C 
BRANCH   5   6
ATOM      6  C   UNL     1      12.201  20.891  16.309  1.00  0.00     0.000 C 
BRANCH   6   7
ATOM      7  C   UNL     1      10.689  20.630  16.395  1.00  0.00     0.000 C 
BRANCH   7   8
ATOM      8  C   UNL     1      10.343  19.435  17.304  1.00  0.00     0.000 C 
BRANCH   8   9
ATOM      9  C   UNL     1       8.900  18.950  17.098  1.00  0.00     0.000 C 
BRANCH   9  10
ATOM     10  C   UNL     1       7.931  19.516  18.151  1.00  0.00     0.000 C 
BRANCH  10  11
ATOM     11  C   UNL     1       6.732  20.240  17.504  1.00  0.00     0.000 C 
BRANCH  11  12
ATOM     12  C   UNL     1       5.942  19.362  16.517  1.00  0.00     0.006 C 
BRANCH  12  13
ATOM     13  C   UNL     1       4.432  19.621  16.563  1.00  0.00     0.053 C 
BRANCH  13  14
ATOM     14  C   UNL     1       3.964  19.754  17.977  1.00  0.00     0.041 C 
ATOM     15  O   UNL     1       3.902  18.739  18.721  1.00  0.00    -0.550 OA
ATOM     16  O   UNL     1       3.646  21.005  18.492  1.00  0.00    -0.550 OA
ENDBRANCH  13  14
ENDBRANCH  12  13
ENDBRANCH  11  12
ENDBRANCH  10  11
ENDBRANCH   9  10
ENDBRANCH   8   9
ENDBRANCH   7   8
ENDBRANCH   6   7
ENDBRANCH   5   6
ENDBRANCH   4   5
ENDBRANCH   3   4
ENDBRANCH   2   3
ENDBRANCH   1   2
BRANCH   1  17
ATOM     17  C   UNL     1      10.106  20.924  20.832  1.00  0.00     0.000 C 
BRANCH  17  18
ATOM     18  C   UNL     1       9.821  21.954  21.943  1.00  0.00     0.000 C 
BRANCH  18  19
ATOM     19  C   UNL     1       8.784  23.034  21.565  1.00  0.00     0.000 C 
BRANCH  19  20
ATOM     20  C   UNL     1       8.012  22.691  20.278  1.00  0.00     0.000 C 
BRANCH  20  21
ATOM     21  C   UNL     1       6.526  22.386  20.528  1.00  0.00     0.000 C 
BRANCH  21  22
ATOM     22  C   UNL     1       6.243  20.995  21.127  1.00  0.00    -0.000 C 
BRANCH  22  23
ATOM     23  C   UNL     1       5.889  20.982  22.628  1.00  0.00    -0.000 C 
BRANCH  23  24
ATOM     24  C   UNL     1       4.962  22.122  23.099  1.00  0.00    -0.000 C 
BRANCH  24  25
ATOM     25  C   UNL     1       5.117  22.529  24.575  1.00  0.00    -0.000 C 
BRANCH  25  26
ATOM     26  C   UNL     1       6.261  21.794  25.290  1.00  0.00    -0.000 C 
BRANCH  26  27
ATOM     27  C   UNL     1       7.472  22.713  25.518  1.00  0.00    -0.000 C 
BRANCH  27  28
ATOM     28  C   UNL     1       8.006  22.621  26.957  1.00  0.00    -0.000 C 
BRANCH  28  29
ATOM     29  C   UNL     1       7.558  21.327  27.661  1.00  0.00    -0.003 C 
ATOM     30  C   UNL     1       7.456  21.493  29.179  1.00  0.00     0.004 C 
ENDBRANCH  28  29
ENDBRANCH  27  28
ENDBRANCH  26  27
ENDBRANCH  25  26
ENDBRANCH  24  25
ENDBRANCH  23  24
ENDBRANCH  22  23
ENDBRANCH  21  22
ENDBRANCH  20  21
ENDBRANCH  19  20
ENDBRANCH  18  19
ENDBRANCH  17  18
ENDBRANCH   1  17
TORSDOF 26
ENDMDL
MODEL 5
REMARK VINA RESULT:    -3.376     15.607     19.768
REMARK INTER + INTRA:         -12.050
REMARK INTER:                  -8.515
REMARK INTRA:                  -3.535
REMARK UNBOUND:                -3.543
REMARK SMILES CCCCCCCCCCCCCCCCCCCCCCCCCCCC(=O)[O-]
REMARK SMILES IDX 15 1 16 2 17 3 18 4 19 5 20 6 21 7 22 8 23 9 24 10 25 11
REMARK SMILES IDX 26 12 27 13 28 14 29 15 30 16 14 17 13 18 12 19 11 20 10 21
REMARK SMILES IDX 9 22 8 23 7 24 6 25 5 26 4 27 3 28 2 29 1 30
REMARK H PARENT
REMARK Flexibility Score: inf
ROOT
ATOM      1  C   UNL     1      10.053  21.386  20.623  1.00  0.00     0.000 C 
ENDROOT
BRANCH   1   2
ATOM      2  C   UNL     1       9.806  22.304  21.837  1.00  0.00     0.000 C 
BRANCH   2   3
ATOM      3  C   UNL     1       8.508  22.003  22.613  1.00  0.00     0.000 C 
BRANCH   3   4
ATOM      4  C   UNL     1       7.285  21.852  21.691  1.00  0.00     0.000 C 
BRANCH   4   5
ATOM      5  C   UNL     1       6.246  20.862  22.237  1.00  0.00     0.000 C 
BRANCH   5   6
ATOM      6  C   UNL     1       4.974  20.802  21.373  1.00  0.00     0.000 C 
BRANCH   6   7
ATOM      7  C   UNL     1       3.877  21.758  21.865  1.00  0.00     0.000 C 
BRANCH   7   8
ATOM      8  C   UNL     1       2.507  21.470  21.224  1.00  0.00     0.000 C 
BRANCH   8   9
ATOM      9  C   UNL     1       2.632  20.649  19.932  1.00  0.00     0.000 C 
BRANCH   9  10
ATOM     10  C   UNL     1       1.698  19.426  19.917  1.00  0.00     0.000 C 
BRANCH  10  11
ATOM     11  C   UNL     1       2.479  18.099  20.025  1.00  0.00     0.000 C 
BRANCH  11  12
ATOM     12  C   UNL     1       2.062  17.236  21.229  1.00  0.00     0.006 C 
BRANCH  12  13
ATOM     13  C   UNL     1       2.141  17.991  22.561  1.00  0.00     0.053 C 
BRANCH  13  14
ATOM     14  C   UNL     1       3.026  17.265  23.524  1.00  0.00     0.041 C 
ATOM     15  O   UNL     1       2.816  16.050  23.784  1.00  0.00    -0.550 OA
ATOM     16  O   UNL     1       4.113  17.913  24.097  1.00  0.00    -0.550 OA
ENDBRANCH  13  14
ENDBRANCH  12  13
ENDBRANCH  11  12
ENDBRANCH  10  11
ENDBRANCH   9  10
ENDBRANCH   8   9
ENDBRANCH   7   8
ENDBRANCH   6   7
ENDBRANCH   5   6
ENDBRANCH   4   5
ENDBRANCH   3   4
ENDBRANCH   2   3
ENDBRANCH   1   2
BRANCH   1  17
ATOM     17  C   UNL     1      11.519  21.245  20.179  1.00  0.00     0.000 C 
BRANCH  17  18
ATOM     18  C   UNL     1      12.305  22.564  20.037  1.00  0.00     0.000 C 
BRANCH  18  19
ATOM     19  C   UNL     1      13.014  22.744  18.677  1.00  0.00     0.000 C 
BRANCH  19  20
ATOM     20  C   UNL     1      12.053  22.601  17.483  1.00  0.00     0.000 C 
BRANCH  20  21
ATOM     21  C   UNL     1      12.660  21.816  16.309  1.00  0.00     0.000 C 
BRANCH  21  22
ATOM     22  C   UNL     1      11.947  20.491  15.978  1.00  0.00    -0.000 C 
BRANCH  22  23
ATOM     23  C   UNL     1      10.457  20.428  16.370  1.00  0.00    -0.000 C 
BRANCH  23  24
ATOM     24  C   UNL     1      10.101  19.384  17.449  1.00  0.00    -0.000 C 
BRANCH  24  25
ATOM     25  C   UNL     1       8.629  18.936  17.471  1.00  0.00    -0.000 C 
BRANCH  25  26
ATOM     26  C   UNL     1       7.787  19.672  18.525  1.00  0.00    -0.000 C 
BRANCH  26  27
ATOM     27  C   UNL     1       6.661  20.494  17.879  1.00  0.00    -0.000 C 
BRANCH  27  28
ATOM     28  C   UNL     1       5.351  19.693  17.767  1.00  0.00    -0.000 C 
BRANCH  28  29
ATOM     29  C   UNL     1       5.126  19.144  16.347  1.00  0.00    -0.003 C 
ATOM     30  C   UNL     1       3.942  18.178  16.275  1.00  0.00     0.004 C 
ENDBRANCH  28  29
ENDBRANCH  27  28
ENDBRANCH  26  27
ENDBRANCH  25  26
ENDBRANCH  24  25
ENDBRANCH  23  24
ENDBRANCH  22  23
ENDBRANCH  21  22
ENDBRANCH  20  21
ENDBRANCH  19  20
ENDBRANCH  18  19
ENDBRANCH  17  18
ENDBRANCH   1  17
TORSDOF 26
ENDMDL
MODEL 6
REMARK VINA RESULT:    -3.373      2.297      5.557
REMARK INTER + INTRA:         -12.043
REMARK INTER:                  -8.433
REMARK INTRA:                  -3.610
REMARK UNBOUND:                -3.543
REMARK SMILES CCCCCCCCCCCCCCCCCCCCCCCCCCCC(=O)[O-]
REMARK SMILES IDX 15 1 16 2 17 3 18 4 19 5 20 6 21 7 22 8 23 9 24 10 25 11
REMARK SMILES IDX 26 12 27 13 28 14 29 15 30 16 14 17 13 18 12 19 11 20 10 21
REMARK SMILES IDX 9 22 8 23 7 24 6 25 5 26 4 27 3 28 2 29 1 30
REMARK H PARENT
REMARK Flexibility Score: inf
ROOT
ATOM      1  C   UNL     1       9.742   6.320  33.941  1.00  0.00     0.000 C 
ENDROOT
BRANCH   1   2
ATOM      2  C   UNL     1       8.454   7.093  34.289  1.00  0.00     0.000 C 
BRANCH   2   3
ATOM      3  C   UNL     1       7.752   6.619  35.578  1.00  0.00     0.000 C 
BRANCH   3   4
ATOM      4  C   UNL     1       6.262   6.302  35.361  1.00  0.00     0.000 C 
BRANCH   4   5
ATOM      5  C   UNL     1       5.976   5.707  33.974  1.00  0.00     0.000 C 
BRANCH   5   6
ATOM      6  C   UNL     1       4.477   5.456  33.735  1.00  0.00     0.000 C 
BRANCH   6   7
ATOM      7  C   UNL     1       3.898   6.339  32.619  1.00  0.00     0.000 C 
BRANCH   7   8
ATOM      8  C   UNL     1       2.725   5.670  31.879  1.00  0.00     0.000 C 
BRANCH   8   9
ATOM      9  C   UNL     1       1.758   6.700  31.276  1.00  0.00     0.000 C 
BRANCH   9  10
ATOM     10  C   UNL     1       2.121   8.146  31.659  1.00  0.00     0.000 C 
BRANCH  10  11
ATOM     11  C   UNL     1       1.716   9.154  30.562  1.00  0.00     0.000 C 
BRANCH  11  12
ATOM     12  C   UNL     1       2.160   8.736  29.149  1.00  0.00     0.006 C 
BRANCH  12  13
ATOM     13  C   UNL     1       2.126   9.895  28.146  1.00  0.00     0.053 C 
BRANCH  13  14
ATOM     14  C   UNL     1       3.243   9.767  27.159  1.00  0.00     0.041 C 
ATOM     15  O   UNL     1       4.285   9.126  27.462  1.00  0.00    -0.550 OA
ATOM     16  O   UNL     1       3.115  10.309  25.887  1.00  0.00    -0.550 OA
ENDBRANCH  13  14
ENDBRANCH  12  13
ENDBRANCH  11  12
ENDBRANCH  10  11
ENDBRANCH   9  10
ENDBRANCH   8   9
ENDBRANCH   7   8
ENDBRANCH   6   7
ENDBRANCH   5   6
ENDBRANCH   4   5
ENDBRANCH   3   4
ENDBRANCH   2   3
ENDBRANCH   1   2
BRANCH   1  17
ATOM     17  C   UNL     1       9.920   4.967  34.650  1.00  0.00     0.000 C 
BRANCH  17  18
ATOM     18  C   UNL     1      11.258   4.768  35.389  1.00  0.00     0.000 C 
BRANCH  18  19
ATOM     19  C   UNL     1      12.141   3.634  34.822  1.00  0.00     0.000 C 
BRANCH  19  20
ATOM     20  C   UNL     1      11.593   3.057  33.505  1.00  0.00     0.000 C 
BRANCH  20  21
ATOM     21  C   UNL     1      12.375   3.525  32.268  1.00  0.00     0.000 C 
BRANCH  21  22
ATOM     22  C   UNL     1      11.552   4.343  31.254  1.00  0.00    -0.000 C 
BRANCH  22  23
ATOM     23  C   UNL     1      10.304   3.634  30.692  1.00  0.00    -0.000 C 
BRANCH  23  24
ATOM     24  C   UNL     1       8.953   4.289  31.051  1.00  0.00    -0.000 C 
BRANCH  24  25
ATOM     25  C   UNL     1       7.793   3.975  30.091  1.00  0.00    -0.000 C 
BRANCH  25  26
ATOM     26  C   UNL     1       6.462   4.611  30.521  1.00  0.00    -0.000 C 
BRANCH  26  27
ATOM     27  C   UNL     1       5.269   3.688  30.223  1.00  0.00    -0.000 C 
BRANCH  27  28
ATOM     28  C   UNL     1       4.642   3.978  28.848  1.00  0.00    -0.000 C 
BRANCH  28  29
ATOM     29  C   UNL     1       4.301   5.469  28.669  1.00  0.00    -0.003 C 
ATOM     30  C   UNL     1       3.542   5.743  27.369  1.00  0.00     0.004 C 
ENDBRANCH  28  29
ENDBRANCH  27  28
ENDBRANCH  26  27
ENDBRANCH  25  26
ENDBRANCH  24  25
ENDBRANCH  23  24
ENDBRANCH  22  23
ENDBRANCH  21  22
ENDBRANCH  20  21
ENDBRANCH  19  20
ENDBRANCH  18  19
ENDBRANCH  17  18
ENDBRANCH   1  17
TORSDOF 26
ENDMDL
MODEL 7
REMARK VINA RESULT:    -3.351     15.864     20.275
REMARK INTER + INTRA:         -11.987
REMARK INTER:                  -8.639
REMARK INTRA:                  -3.348
REMARK UNBOUND:                -3.543
REMARK SMILES CCCCCCCCCCCCCCCCCCCCCCCCCCCC(=O)[O-]
REMARK SMILES IDX 15 1 16 2 17 3 18 4 19 5 20 6 21 7 22 8 23 9 24 10 25 11
REMARK SMILES IDX 26 12 27 13 28 14 29 15 30 16 14 17 13 18 12 19 11 20 10 21
REMARK SMILES IDX 9 22 8 23 7 24 6 25 5 26 4 27 3 28 2 29 1 30
REMARK H PARENT
REMARK Flexibility Score: inf
ROOT
ATOM      1  C   UNL     1      10.083  19.520  17.621  1.00  0.00     0.000 C 
ENDROOT
BRANCH   1   2
ATOM      2  C   UNL     1       9.103  18.353  17.390  1.00  0.00     0.000 C 
BRANCH   2   3
ATOM      3  C   UNL     1       8.112  18.570  16.228  1.00  0.00     0.000 C 
BRANCH   3   4
ATOM      4  C   UNL     1       7.023  19.606  16.561  1.00  0.00     0.000 C 
BRANCH   4   5
ATOM      5  C   UNL     1       5.647  19.227  15.995  1.00  0.00     0.000 C 
BRANCH   5   6
ATOM      6  C   UNL     1       4.561  19.148  17.082  1.00  0.00     0.000 C 
BRANCH   6   7
ATOM      7  C   UNL     1       3.324  18.358  16.628  1.00  0.00     0.000 C 
BRANCH   7   8
ATOM      8  C   UNL     1       3.665  16.925  16.180  1.00  0.00     0.000 C 
BRANCH   8   9
ATOM      9  C   UNL     1       2.906  15.867  16.996  1.00  0.00     0.000 C 
BRANCH   9  10
ATOM     10  C   UNL     1       1.566  16.391  17.541  1.00  0.00     0.000 C 
BRANCH  10  11
ATOM     11  C   UNL     1       1.274  15.867  18.963  1.00  0.00     0.000 C 
BRANCH  11  12
ATOM     12  C   UNL     1       2.047  16.615  20.064  1.00  0.00     0.006 C 
BRANCH  12  13
ATOM     13  C   UNL     1       1.692  16.133  21.476  1.00  0.00     0.053 C 
BRANCH  13  14
ATOM     14  C   UNL     1       2.383  16.969  22.505  1.00  0.00     0.041 C 
ATOM     15  O   UNL     1       2.301  18.225  22.460  1.00  0.00    -0.550 OA
ATOM     16  O   UNL     1       3.077  16.362  23.545  1.00  0.00    -0.550 OA
ENDBRANCH  13  14
ENDBRANCH  12  13
ENDBRANCH  11  12
ENDBRANCH  10  11
ENDBRANCH   9  10
ENDBRANCH   8   9
ENDBRANCH   7   8
ENDBRANCH   6   7
ENDBRANCH   5   6
ENDBRANCH   4   5
ENDBRANCH   3   4
ENDBRANCH   2   3
ENDBRANCH   1   2
BRANCH   1  17
ATOM     17  C   UNL     1      10.657  20.171  16.351  1.00  0.00     0.000 C 
BRANCH  17  18
ATOM     18  C   UNL     1      10.173  21.604  16.055  1.00  0.00     0.000 C 
BRANCH  18  19
ATOM     19  C   UNL     1      11.271  22.685  16.161  1.00  0.00     0.000 C 
BRANCH  19  20
ATOM     20  C   UNL     1      12.580  22.146  16.765  1.00  0.00     0.000 C 
BRANCH  20  21
ATOM     21  C   UNL     1      12.914  22.764  18.132  1.00  0.00     0.000 C 
BRANCH  21  22
ATOM     22  C   UNL     1      12.197  22.111  19.329  1.00  0.00    -0.000 C 
BRANCH  22  23
ATOM     23  C   UNL     1      11.102  22.972  19.992  1.00  0.00    -0.000 C 
BRANCH  23  24
ATOM     24  C   UNL     1       9.653  22.617  19.597  1.00  0.00    -0.000 C 
BRANCH  24  25
ATOM     25  C   UNL     1       8.924  21.661  20.558  1.00  0.00    -0.000 C 
BRANCH  25  26
ATOM     26  C   UNL     1       7.691  20.994  19.929  1.00  0.00    -0.000 C 
BRANCH  26  27
ATOM     27  C   UNL     1       6.395  21.730  20.301  1.00  0.00    -0.000 C 
BRANCH  27  28
ATOM     28  C   UNL     1       5.226  20.759  20.543  1.00  0.00    -0.000 C 
BRANCH  28  29
ATOM     29  C   UNL     1       4.632  20.905  21.956  1.00  0.00    -0.003 C 
ATOM     30  C   UNL     1       5.624  20.508  23.051  1.00  0.00     0.004 C 
ENDBRANCH  28  29
ENDBRANCH  27  28
ENDBRANCH  26  27
ENDBRANCH  25  26
ENDBRANCH  24  25
ENDBRANCH  23  24
ENDBRANCH  22  23
ENDBRANCH  21  22
ENDBRANCH  20  21
ENDBRANCH  19  20
ENDBRANCH  18  19
ENDBRANCH  17  18
ENDBRANCH   1  17
TORSDOF 26
ENDMDL
MODEL 8
REMARK VINA RESULT:    -3.336      2.204      3.319
REMARK INTER + INTRA:         -11.948
REMARK INTER:                  -6.911
REMARK INTRA:                  -5.037
REMARK UNBOUND:                -3.543
REMARK SMILES CCCCCCCCCCCCCCCCCCCCCCCCCCCC(=O)[O-]
REMARK SMILES IDX 15 1 16 2 17 3 18 4 19 5 20 6 21 7 22 8 23 9 24 10 25 11
REMARK SMILES IDX 26 12 27 13 28 14 29 15 30 16 14 17 13 18 12 19 11 20 10 21
REMARK SMILES IDX 9 22 8 23 7 24 6 25 5 26 4 27 3 28 2 29 1 30
REMARK H PARENT
REMARK Flexibility Score: inf
ROOT
ATOM      1  C   UNL     1       6.157   5.504  32.591  1.00  0.00     0.000 C 
ENDROOT
BRANCH   1   2
ATOM      2  C   UNL     1       4.659   5.848  32.471  1.00  0.00     0.000 C 
BRANCH   2   3
ATOM      3  C   UNL     1       3.710   4.646  32.657  1.00  0.00     0.000 C 
BRANCH   3   4
ATOM      4  C   UNL     1       2.485   4.985  33.526  1.00  0.00     0.000 C 
BRANCH   4   5
ATOM      5  C   UNL     1       2.870   5.513  34.915  1.00  0.00     0.000 C 
BRANCH   5   6
ATOM      6  C   UNL     1       2.250   6.890  35.218  1.00  0.00     0.000 C 
BRANCH   6   7
ATOM      7  C   UNL     1       3.260   8.038  35.076  1.00  0.00     0.000 C 
BRANCH   7   8
ATOM      8  C   UNL     1       2.834   9.077  34.021  1.00  0.00     0.000 C 
BRANCH   8   9
ATOM      9  C   UNL     1       1.611   8.615  33.214  1.00  0.00     0.000 C 
BRANCH   9  10
ATOM     10  C   UNL     1       1.977   8.187  31.782  1.00  0.00     0.000 C 
BRANCH  10  11
ATOM     11  C   UNL     1       0.809   7.462  31.079  1.00  0.00     0.000 C 
BRANCH  11  12
ATOM     12  C   UNL     1       1.171   6.921  29.685  1.00  0.00     0.006 C 
BRANCH  12  13
ATOM     13  C   UNL     1       2.677   6.695  29.504  1.00  0.00     0.053 C 
BRANCH  13  14
ATOM     14  C   UNL     1       3.099   7.055  28.116  1.00  0.00     0.041 C 
ATOM     15  O   UNL     1       3.247   8.264  27.793  1.00  0.00    -0.550 OA
ATOM     16  O   UNL     1       3.380   6.057  27.191  1.00  0.00    -0.550 OA
ENDBRANCH  13  14
ENDBRANCH  12  13
ENDBRANCH  11  12
ENDBRANCH  10  11
ENDBRANCH   9  10
ENDBRANCH   8   9
ENDBRANCH   7   8
ENDBRANCH   6   7
ENDBRANCH   5   6
ENDBRANCH   4   5
ENDBRANCH   3   4
ENDBRANCH   2   3
ENDBRANCH   1   2
BRANCH   1  17
ATOM     17  C   UNL     1       6.515   4.434  33.636  1.00  0.00     0.000 C 
BRANCH  17  18
ATOM     18  C   UNL     1       6.409   4.874  35.109  1.00  0.00     0.000 C 
BRANCH  18  19
ATOM     19  C   UNL     1       6.701   6.371  35.353  1.00  0.00     0.000 C 
BRANCH  19  20
ATOM     20  C   UNL     1       8.208   6.675  35.445  1.00  0.00     0.000 C 
BRANCH  20  21
ATOM     21  C   UNL     1       8.753   7.406  34.207  1.00  0.00     0.000 C 
BRANCH  21  22
ATOM     22  C   UNL     1      10.021   6.781  33.593  1.00  0.00    -0.000 C 
BRANCH  22  23
ATOM     23  C   UNL     1      10.471   5.447  34.224  1.00  0.00    -0.000 C 
BRANCH  23  24
ATOM     24  C   UNL     1      10.715   4.294  33.228  1.00  0.00    -0.000 C 
BRANCH  24  25
ATOM     25  C   UNL     1      10.438   4.629  31.752  1.00  0.00    -0.000 C 
BRANCH  25  26
ATOM     26  C   UNL     1       9.251   3.850  31.166  1.00  0.00    -0.000 C 
BRANCH  26  27
ATOM     27  C   UNL     1       8.894   4.336  29.752  1.00  0.00    -0.000 C 
BRANCH  27  28
ATOM     28  C   UNL     1       7.653   3.622  29.191  1.00  0.00    -0.000 C 
BRANCH  28  29
ATOM     29  C   UNL     1       6.444   4.568  29.069  1.00  0.00    -0.003 C 
ATOM     30  C   UNL     1       5.114   3.851  29.310  1.00  0.00     0.004 C 
ENDBRANCH  28  29
ENDBRANCH  27  28
ENDBRANCH  26  27
ENDBRANCH  25  26
ENDBRANCH  24  25
ENDBRANCH  23  24
ENDBRANCH  22  23
ENDBRANCH  21  22
ENDBRANCH  20  21
ENDBRANCH  19  20
ENDBRANCH  18  19
ENDBRANCH  17  18
ENDBRANCH   1  17
TORSDOF 26
ENDMDL
MODEL 9
REMARK VINA RESULT:    -1.176      9.614     16.009
REMARK INTER + INTRA:          -6.507
REMARK INTER:                  -2.500
REMARK INTRA:                  -4.007
REMARK UNBOUND:                -3.543
REMARK SMILES CCCCCCCCCCCCCCCCCCCCCCCCCCCC(=O)[O-]
REMARK SMILES IDX 15 1 16 2 17 3 18 4 19 5 20 6 21 7 22 8 23 9 24 10 25 11
REMARK SMILES IDX 26 12 27 13 28 14 29 15 30 16 14 17 13 18 12 19 11 20 10 21
REMARK SMILES IDX 9 22 8 23 7 24 6 25 5 26 4 27 3 28 2 29 1 30
REMARK H PARENT
REMARK Flexibility Score: inf
ROOT
ATOM      1  C   UNL     1       2.229  17.766  22.406  1.00  0.00     0.000 C 
ENDROOT
BRANCH   1   2
ATOM      2  C   UNL     1       1.913  18.055  23.887  1.00  0.00     0.000 C 
BRANCH   2   3
ATOM      3  C   UNL     1       0.419  17.951  24.255  1.00  0.00     0.000 C 
BRANCH   3   4
ATOM      4  C   UNL     1       0.165  17.017  25.453  1.00  0.00     0.000 C 
BRANCH   4   5
ATOM      5  C   UNL     1       0.217  15.531  25.070  1.00  0.00     0.000 C 
BRANCH   5   6
ATOM      6  C   UNL     1       1.458  14.817  25.635  1.00  0.00     0.000 C 
BRANCH   6   7
ATOM      7  C   UNL     1       2.033  13.773  24.667  1.00  0.00     0.000 C 
BRANCH   7   8
ATOM      8  C   UNL     1       0.969  13.191  23.719  1.00  0.00     0.000 C 
BRANCH   8   9
ATOM      9  C   UNL     1       1.421  11.867  23.083  1.00  0.00     0.000 C 
BRANCH   9  10
ATOM     10  C   UNL     1       0.480  10.697  23.422  1.00  0.00     0.000 C 
BRANCH  10  11
ATOM     11  C   UNL     1       0.299  10.523  24.945  1.00  0.00     0.000 C 
BRANCH  11  12
ATOM     12  C   UNL     1       1.361   9.614  25.590  1.00  0.00     0.006 C 
BRANCH  12  13
ATOM     13  C   UNL     1       2.460  10.400  26.314  1.00  0.00     0.053 C 
BRANCH  13  14
ATOM     14  C   UNL     1       3.075   9.569  27.394  1.00  0.00     0.041 C 
ATOM     15  O   UNL     1       4.115   8.897  27.161  1.00  0.00    -0.550 OA
ATOM     16  O   UNL     1       2.532   9.574  28.673  1.00  0.00    -0.550 OA
ENDBRANCH  13  14
ENDBRANCH  12  13
ENDBRANCH  11  12
ENDBRANCH  10  11
ENDBRANCH   9  10
ENDBRANCH   8   9
ENDBRANCH   7   8
ENDBRANCH   6   7
ENDBRANCH   5   6
ENDBRANCH   4   5
ENDBRANCH   3   4
ENDBRANCH   2   3
ENDBRANCH   1   2
BRANCH   1  17
ATOM     17  C   UNL     1       2.118  16.293  21.976  1.00  0.00     0.000 C 
BRANCH  17  18
ATOM     18  C   UNL     1       1.297  16.029  20.698  1.00  0.00     0.000 C 
BRANCH  18  19
ATOM     19  C   UNL     1       0.180  14.975  20.860  1.00  0.00     0.000 C 
BRANCH  19  20
ATOM     20  C   UNL     1      -0.125  14.225  19.551  1.00  0.00     0.000 C 
BRANCH  20  21
ATOM     21  C   UNL     1       0.230  12.731  19.614  1.00  0.00     0.000 C 
BRANCH  21  22
ATOM     22  C   UNL     1      -0.084  11.938  18.331  1.00  0.00    -0.000 C 
BRANCH  22  23
ATOM     23  C   UNL     1       0.906  12.146  17.166  1.00  0.00    -0.000 C 
BRANCH  23  24
ATOM     24  C   UNL     1       0.539  13.275  16.181  1.00  0.00    -0.000 C 
BRANCH  24  25
ATOM     25  C   UNL     1       1.632  14.337  15.960  1.00  0.00    -0.000 C 
BRANCH  25  26
ATOM     26  C   UNL     1       2.650  14.406  17.109  1.00  0.00    -0.000 C 
BRANCH  26  27
ATOM     27  C   UNL     1       3.007  15.858  17.464  1.00  0.00    -0.000 C 
BRANCH  27  28
ATOM     28  C   UNL     1       1.924  16.850  17.004  1.00  0.00    -0.000 C 
BRANCH  28  29
ATOM     29  C   UNL     1       2.041  18.209  17.719  1.00  0.00    -0.003 C 
ATOM     30  C   UNL     1       3.225  18.261  18.686  1.00  0.00     0.004 C 
ENDBRANCH  28  29
ENDBRANCH  27  28
ENDBRANCH  26  27
ENDBRANCH  25  26
ENDBRANCH  24  25
ENDBRANCH  23  24
ENDBRANCH  22  23
ENDBRANCH  21  22
ENDBRANCH  20  21
ENDBRANCH  19  20
ENDBRANCH  18  19
ENDBRANCH  17  18
ENDBRANCH   1  17
TORSDOF 26
ENDMDL
