MODEL 1
REMARK VINA RESULT:    -3.638      0.000      0.000
REMARK INTER + INTRA:          -4.833
REMARK INTER:                  -4.702
REMARK INTRA:                  -0.131
REMARK UNBOUND:                -0.131
REMARK SMILES CCCCCCC(=O)[O-]
REMARK SMILES IDX 5 1 6 2 7 3 8 4 9 5 4 6 3 7 2 8 1 9
REMARK H PARENT
REMARK Flexibility Score: inf
ROOT
ATOM      1  C   UNL     1      19.171  27.696  30.897  1.00  0.00     0.006 C 
ENDROOT
BRANCH   1   2
ATOM      2  C   UNL     1      18.132  28.177  29.872  1.00  0.00     0.053 C 
BRANCH   2   3
ATOM      3  C   UNL     1      17.981  27.217  28.733  1.00  0.00     0.041 C 
ATOM      4  O   UNL     1      18.338  26.017  28.863  1.00  0.00    -0.550 OA
ATOM      5  O   UNL     1      17.476  27.657  27.516  1.00  0.00    -0.550 OA
ENDBRANCH   2   3
ENDBRANCH   1   2
BRANCH   1   6
ATOM      6  C   UNL     1      18.943  28.223  32.326  1.00  0.00     0.000 C 
BRANCH   6   7
ATOM      7  C   UNL     1      19.541  27.304  33.402  1.00  0.00    -0.000 C 
BRANCH   7   8
ATOM      8  C   UNL     1      19.268  27.856  34.807  1.00  0.00    -0.003 C 
ATOM      9  C   UNL     1      18.039  28.760  34.815  1.00  0.00     0.004 C 
ENDBRANCH   7   8
ENDBRANCH   6   7
ENDBRANCH   1   6
TORSDOF 5
ENDMDL
MODEL 2
REMARK VINA RESULT:    -3.609      3.235      5.085
REMARK INTER + INTRA:          -4.795
REMARK INTER:                  -4.506
REMARK INTRA:                  -0.289
REMARK UNBOUND:                -0.131
REMARK SMILES CCCCCCC(=O)[O-]
REMARK SMILES IDX 5 1 6 2 7 3 8 4 9 5 4 6 3 7 2 8 1 9
REMARK H PARENT
REMARK Flexibility Score: inf
ROOT
ATOM      1  C   UNL     1      18.539  28.992  27.585  1.00  0.00     0.006 C 
ENDROOT
BRANCH   1   2
ATOM      2  C   UNL     1      18.366  29.781  28.892  1.00  0.00     0.053 C 
BRANCH   2   3
ATOM      3  C   UNL     1      18.576  28.920  30.100  1.00  0.00     0.041 C 
ATOM      4  O   UNL     1      17.640  28.743  30.923  1.00  0.00    -0.550 OA
ATOM      5  O   UNL     1      19.816  28.340  30.332  1.00  0.00    -0.550 OA
ENDBRANCH   2   3
ENDBRANCH   1   2
BRANCH   1   6
ATOM      6  C   UNL     1      17.625  27.758  27.465  1.00  0.00     0.000 C 
BRANCH   6   7
ATOM      7  C   UNL     1      18.388  26.491  27.050  1.00  0.00    -0.000 C 
BRANCH   7   8
ATOM      8  C   UNL     1      18.765  25.653  28.278  1.00  0.00    -0.003 C 
ATOM      9  C   UNL     1      18.876  24.172  27.923  1.00  0.00     0.004 C 
ENDBRANCH   7   8
ENDBRANCH   6   7
ENDBRANCH   1   6
TORSDOF 5
ENDMDL
MODEL 3
REMARK VINA RESULT:    -3.586      2.623      3.831
REMARK INTER + INTRA:          -4.766
REMARK INTER:                  -4.495
REMARK INTRA:                  -0.271
REMARK UNBOUND:                -0.131
REMARK SMILES CCCCCCC(=O)[O-]
REMARK SMILES IDX 5 1 6 2 7 3 8 4 9 5 4 6 3 7 2 8 1 9
REMARK H PARENT
REMARK Flexibility Score: inf
ROOT
ATOM      1  C   UNL     1      17.691  27.876  27.591  1.00  0.00     0.006 C 
ENDROOT
BRANCH   1   2
ATOM      2  C   UNL     1      18.345  26.636  26.961  1.00  0.00     0.053 C 
BRANCH   2   3
ATOM      3  C   UNL     1      18.726  25.618  27.992  1.00  0.00     0.041 C 
ATOM      4  O   UNL     1      19.061  25.982  29.150  1.00  0.00    -0.550 OA
ATOM      5  O   UNL     1      18.744  24.269  27.662  1.00  0.00    -0.550 OA
ENDBRANCH   2   3
ENDBRANCH   1   2
BRANCH   1   6
ATOM      6  C   UNL     1      18.590  29.127  27.606  1.00  0.00     0.000 C 
BRANCH   6   7
ATOM      7  C   UNL     1      18.365  30.006  28.845  1.00  0.00    -0.000 C 
BRANCH   7   8
ATOM      8  C   UNL     1      18.879  29.309  30.111  1.00  0.00    -0.003 C 
ATOM      9  C   UNL     1      17.772  29.172  31.153  1.00  0.00     0.004 C 
ENDBRANCH   7   8
ENDBRANCH   6   7
ENDBRANCH   1   6
TORSDOF 5
ENDMDL
MODEL 4
REMARK VINA RESULT:    -3.586      0.103      1.084
REMARK INTER + INTRA:          -4.765
REMARK INTER:                  -4.634
REMARK INTRA:                  -0.130
REMARK UNBOUND:                -0.131
REMARK SMILES CCCCCCC(=O)[O-]
REMARK SMILES IDX 5 1 6 2 7 3 8 4 9 5 4 6 3 7 2 8 1 9
REMARK H PARENT
REMARK Flexibility Score: inf
ROOT
ATOM      1  C   UNL     1      19.146  27.713  30.864  1.00  0.00     0.006 C 
ENDROOT
BRANCH   1   2
ATOM      2  C   UNL     1      18.136  28.181  29.804  1.00  0.00     0.053 C 
BRANCH   2   3
ATOM      3  C   UNL     1      18.007  27.200  28.680  1.00  0.00     0.041 C 
ATOM      4  O   UNL     1      17.482  27.549  27.590  1.00  0.00    -0.550 OA
ATOM      5  O   UNL     1      18.437  25.890  28.848  1.00  0.00    -0.550 OA
ENDBRANCH   2   3
ENDBRANCH   1   2
BRANCH   1   6
ATOM      6  C   UNL     1      18.857  28.230  32.286  1.00  0.00     0.000 C 
BRANCH   6   7
ATOM      7  C   UNL     1      19.548  27.394  33.374  1.00  0.00    -0.000 C 
BRANCH   7   8
ATOM      8  C   UNL     1      19.211  27.929  34.772  1.00  0.00    -0.003 C 
ATOM      9  C   UNL     1      17.972  28.820  34.737  1.00  0.00     0.004 C 
ENDBRANCH   7   8
ENDBRANCH   6   7
ENDBRANCH   1   6
TORSDOF 5
ENDMDL
MODEL 5
REMARK VINA RESULT:    -3.580      2.757      5.421
REMARK INTER + INTRA:          -4.757
REMARK INTER:                  -4.586
REMARK INTRA:                  -0.171
REMARK UNBOUND:                -0.131
REMARK SMILES CCCCCCC(=O)[O-]
REMARK SMILES IDX 5 1 6 2 7 3 8 4 9 5 4 6 3 7 2 8 1 9
REMARK H PARENT
REMARK Flexibility Score: inf
ROOT
ATOM      1  C   UNL     1      18.234  28.617  30.120  1.00  0.00     0.006 C 
ENDROOT
BRANCH   1   2
ATOM      2  C   UNL     1      17.807  29.225  31.465  1.00  0.00     0.053 C 
BRANCH   2   3
ATOM      3  C   UNL     1      18.602  28.674  32.609  1.00  0.00     0.041 C 
ATOM      4  O   UNL     1      18.701  29.323  33.683  1.00  0.00    -0.550 OA
ATOM      5  O   UNL     1      19.261  27.459  32.475  1.00  0.00    -0.550 OA
ENDBRANCH   2   3
ENDBRANCH   1   2
BRANCH   1   6
ATOM      6  C   UNL     1      18.402  29.644  28.985  1.00  0.00     0.000 C 
BRANCH   6   7
ATOM      7  C   UNL     1      18.479  28.989  27.598  1.00  0.00    -0.000 C 
BRANCH   7   8
ATOM      8  C   UNL     1      17.524  27.793  27.503  1.00  0.00    -0.003 C 
ATOM      9  C   UNL     1      18.113  26.684  26.635  1.00  0.00     0.004 C 
ENDBRANCH   7   8
ENDBRANCH   6   7
ENDBRANCH   1   6
TORSDOF 5
ENDMDL
MODEL 6
REMARK VINA RESULT:    -3.557      2.030      2.855
REMARK INTER + INTRA:          -4.728
REMARK INTER:                  -4.542
REMARK INTRA:                  -0.186
REMARK UNBOUND:                -0.131
REMARK SMILES CCCCCCC(=O)[O-]
REMARK SMILES IDX 5 1 6 2 7 3 8 4 9 5 4 6 3 7 2 8 1 9
REMARK H PARENT
REMARK Flexibility Score: inf
ROOT
ATOM      1  C   UNL     1      18.352  29.500  27.990  1.00  0.00     0.006 C 
ENDROOT
BRANCH   1   2
ATOM      2  C   UNL     1      17.607  28.216  27.594  1.00  0.00     0.053 C 
BRANCH   2   3
ATOM      3  C   UNL     1      18.474  27.286  26.801  1.00  0.00     0.041 C 
ATOM      4  O   UNL     1      18.382  26.041  26.962  1.00  0.00    -0.550 OA
ATOM      5  O   UNL     1      19.407  27.797  25.909  1.00  0.00    -0.550 OA
ENDBRANCH   2   3
ENDBRANCH   1   2
BRANCH   1   6
ATOM      6  C   UNL     1      18.448  29.733  29.509  1.00  0.00     0.000 C 
BRANCH   6   7
ATOM      7  C   UNL     1      18.143  28.468  30.325  1.00  0.00    -0.000 C 
BRANCH   7   8
ATOM      8  C   UNL     1      18.374  28.713  31.822  1.00  0.00    -0.003 C 
ATOM      9  C   UNL     1      17.624  29.953  32.300  1.00  0.00     0.004 C 
ENDBRANCH   7   8
ENDBRANCH   6   7
ENDBRANCH   1   6
TORSDOF 5
ENDMDL
MODEL 7
REMARK VINA RESULT:    -3.539      3.538      5.057
REMARK INTER + INTRA:          -4.705
REMARK INTER:                  -4.472
REMARK INTRA:                  -0.233
REMARK UNBOUND:                -0.131
REMARK SMILES CCCCCCC(=O)[O-]
REMARK SMILES IDX 5 1 6 2 7 3 8 4 9 5 4 6 3 7 2 8 1 9
REMARK H PARENT
REMARK Flexibility Score: inf
ROOT
ATOM      1  C   UNL     1      19.106  26.562  29.420  1.00  0.00     0.006 C 
ENDROOT
BRANCH   1   2
ATOM      2  C   UNL     1      17.895  27.025  28.594  1.00  0.00     0.053 C 
BRANCH   2   3
ATOM      3  C   UNL     1      18.257  28.114  27.631  1.00  0.00     0.041 C 
ATOM      4  O   UNL     1      18.041  29.318  27.924  1.00  0.00    -0.550 OA
ATOM      5  O   UNL     1      18.803  27.794  26.394  1.00  0.00    -0.550 OA
ENDBRANCH   2   3
ENDBRANCH   1   2
BRANCH   1   6
ATOM      6  C   UNL     1      19.693  25.208  28.978  1.00  0.00     0.000 C 
BRANCH   6   7
ATOM      7  C   UNL     1      18.805  24.480  27.958  1.00  0.00    -0.000 C 
BRANCH   7   8
ATOM      8  C   UNL     1      19.187  22.998  27.860  1.00  0.00    -0.003 C 
ATOM      9  C   UNL     1      18.739  22.229  29.100  1.00  0.00     0.004 C 
ENDBRANCH   7   8
ENDBRANCH   6   7
ENDBRANCH   1   6
TORSDOF 5
ENDMDL
MODEL 8
REMARK VINA RESULT:    -3.527      2.775      5.113
REMARK INTER + INTRA:          -4.689
REMARK INTER:                  -4.328
REMARK INTRA:                  -0.361
REMARK UNBOUND:                -0.131
REMARK SMILES CCCCCCC(=O)[O-]
REMARK SMILES IDX 5 1 6 2 7 3 8 4 9 5 4 6 3 7 2 8 1 9
REMARK H PARENT
REMARK Flexibility Score: inf
ROOT
ATOM      1  C   UNL     1      18.408  29.596  29.360  1.00  0.00     0.006 C 
ENDROOT
BRANCH   1   2
ATOM      2  C   UNL     1      18.081  28.432  30.308  1.00  0.00     0.053 C 
BRANCH   2   3
ATOM      3  C   UNL     1      19.314  27.846  30.924  1.00  0.00     0.041 C 
ATOM      4  O   UNL     1      20.387  27.793  30.268  1.00  0.00    -0.550 OA
ATOM      5  O   UNL     1      19.268  27.327  32.212  1.00  0.00    -0.550 OA
ENDBRANCH   2   3
ENDBRANCH   1   2
BRANCH   1   6
ATOM      6  C   UNL     1      18.404  29.218  27.867  1.00  0.00     0.000 C 
BRANCH   6   7
ATOM      7  C   UNL     1      17.509  28.007  27.563  1.00  0.00    -0.000 C 
BRANCH   7   8
ATOM      8  C   UNL     1      18.281  26.940  26.775  1.00  0.00    -0.003 C 
ATOM      9  C   UNL     1      18.630  25.746  27.660  1.00  0.00     0.004 C 
ENDBRANCH   7   8
ENDBRANCH   6   7
ENDBRANCH   1   6
TORSDOF 5
ENDMDL
MODEL 9
REMARK VINA RESULT:    -3.454      3.664      5.660
REMARK INTER + INTRA:          -4.595
REMARK INTER:                  -4.454
REMARK INTRA:                  -0.141
REMARK UNBOUND:                -0.131
REMARK SMILES CCCCCCC(=O)[O-]
REMARK SMILES IDX 5 1 6 2 7 3 8 4 9 5 4 6 3 7 2 8 1 9
REMARK H PARENT
REMARK Flexibility Score: inf
ROOT
ATOM      1  C   UNL     1      18.394  29.097  32.036  1.00  0.00     0.006 C 
ENDROOT
BRANCH   1   2
ATOM      2  C   UNL     1      17.485  30.044  32.836  1.00  0.00     0.053 C 
BRANCH   2   3
ATOM      3  C   UNL     1      17.336  29.608  34.261  1.00  0.00     0.041 C 
ATOM      4  O   UNL     1      16.523  30.195  35.022  1.00  0.00    -0.550 OA
ATOM      5  O   UNL     1      18.121  28.576  34.758  1.00  0.00    -0.550 OA
ENDBRANCH   2   3
ENDBRANCH   1   2
BRANCH   1   6
ATOM      6  C   UNL     1      17.998  28.940  30.556  1.00  0.00     0.000 C 
BRANCH   6   7
ATOM      7  C   UNL     1      18.365  30.168  29.710  1.00  0.00    -0.000 C 
BRANCH   7   8
ATOM      8  C   UNL     1      18.368  29.821  28.215  1.00  0.00    -0.003 C 
ATOM      9  C   UNL     1      18.061  28.343  27.991  1.00  0.00     0.004 C 
ENDBRANCH   7   8
ENDBRANCH   6   7
ENDBRANCH   1   6
TORSDOF 5
ENDMDL
