MODEL 1
REMARK VINA RESULT:    -3.907      0.000      0.000
REMARK INTER + INTRA:          -4.502
REMARK INTER:                  -4.250
REMARK INTRA:                  -0.252
REMARK UNBOUND:                -0.252
REMARK SMILES O=C([O-])c1ccccc1O
REMARK SMILES IDX 4 1 9 2 5 3 8 4 6 5 7 6 2 7 1 8 3 9 10 10
REMARK H PARENT 10 11
REMARK Flexibility Score: inf
ROOT
ATOM      1  C   UNL     1     124.814 127.124 119.453  1.00  0.00     0.039 A 
ATOM      2  C   UNL     1     125.889 126.867 120.345  1.00  0.00     0.124 A 
ATOM      3  C   UNL     1     125.051 127.059 118.067  1.00  0.00     0.014 A 
ATOM      4  C   UNL     1     127.168 126.618 119.834  1.00  0.00     0.047 A 
ATOM      5  C   UNL     1     126.330 126.788 117.574  1.00  0.00     0.001 A 
ATOM      6  C   UNL     1     127.388 126.579 118.456  1.00  0.00     0.004 A 
ENDROOT
BRANCH   1   7
ATOM      7  C   UNL     1     123.457 127.490 119.915  1.00  0.00     0.075 C 
ATOM      8  O   UNL     1     122.433 127.057 119.324  1.00  0.00    -0.545 OA
ATOM      9  O   UNL     1     123.297 128.266 121.057  1.00  0.00    -0.545 OA
ENDBRANCH   1   7
BRANCH   2  10
ATOM     10  O   UNL     1     125.722 126.816 121.731  1.00  0.00    -0.507 OA
ATOM     11  H   UNL     1     126.120 127.493 122.367  1.00  0.00     0.293 HD
ENDBRANCH   2  10
TORSDOF 2
ENDMDL
MODEL 2
REMARK VINA RESULT:    -3.904      2.127      3.958
REMARK INTER + INTRA:          -4.499
REMARK INTER:                  -4.299
REMARK INTRA:                  -0.199
REMARK UNBOUND:                -0.252
REMARK SMILES O=C([O-])c1ccccc1O
REMARK SMILES IDX 4 1 9 2 5 3 8 4 6 5 7 6 2 7 1 8 3 9 10 10
REMARK H PARENT 10 11
REMARK Flexibility Score: inf
ROOT
ATOM      1  C   UNL     1     123.703 127.562 120.087  1.00  0.00     0.039 A 
ATOM      2  C   UNL     1     122.770 128.079 121.024  1.00  0.00     0.124 A 
ATOM      3  C   UNL     1     123.246 127.182 118.811  1.00  0.00     0.014 A 
ATOM      4  C   UNL     1     121.413 128.142 120.686  1.00  0.00     0.047 A 
ATOM      5  C   UNL     1     121.892 127.272 118.484  1.00  0.00     0.001 A 
ATOM      6  C   UNL     1     120.976 127.741 119.422  1.00  0.00     0.004 A 
ENDROOT
BRANCH   1   7
ATOM      7  C   UNL     1     125.137 127.373 120.403  1.00  0.00     0.075 C 
ATOM      8  O   UNL     1     125.883 128.360 120.641  1.00  0.00    -0.545 OA
ATOM      9  O   UNL     1     125.662 126.091 120.509  1.00  0.00    -0.545 OA
ENDBRANCH   1   7
BRANCH   2  10
ATOM     10  O   UNL     1     123.151 128.568 122.276  1.00  0.00    -0.507 OA
ATOM     11  H   UNL     1     123.446 127.977 123.041  1.00  0.00     0.293 HD
ENDBRANCH   2  10
TORSDOF 2
ENDMDL
MODEL 3
REMARK VINA RESULT:    -3.704      3.413      4.037
REMARK INTER + INTRA:          -4.281
REMARK INTER:                  -4.039
REMARK INTRA:                  -0.242
REMARK UNBOUND:                -0.252
REMARK SMILES O=C([O-])c1ccccc1O
REMARK SMILES IDX 4 1 9 2 5 3 8 4 6 5 7 6 2 7 1 8 3 9 10 10
REMARK H PARENT 10 11
REMARK Flexibility Score: inf
ROOT
ATOM      1  C   UNL     1     123.561 129.427 120.394  1.00  0.00     0.039 A 
ATOM      2  C   UNL     1     122.798 128.458 121.097  1.00  0.00     0.124 A 
ATOM      3  C   UNL     1     123.509 129.443 118.987  1.00  0.00     0.014 A 
ATOM      4  C   UNL     1     122.063 127.505 120.382  1.00  0.00     0.047 A 
ATOM      5  C   UNL     1     122.753 128.497 118.291  1.00  0.00     0.001 A 
ATOM      6  C   UNL     1     122.040 127.524 118.987  1.00  0.00     0.004 A 
ENDROOT
BRANCH   1   7
ATOM      7  C   UNL     1     124.439 130.405 121.074  1.00  0.00     0.075 C 
ATOM      8  O   UNL     1     123.999 131.133 122.003  1.00  0.00    -0.545 OA
ATOM      9  O   UNL     1     125.785 130.483 120.738  1.00  0.00    -0.545 OA
ENDBRANCH   1   7
BRANCH   2  10
ATOM     10  O   UNL     1     122.715 128.430 122.491  1.00  0.00    -0.507 OA
ATOM     11  H   UNL     1     122.538 129.249 123.057  1.00  0.00     0.293 HD
ENDBRANCH   2  10
TORSDOF 2
ENDMDL
MODEL 4
REMARK VINA RESULT:    -3.620     20.224     21.331
REMARK INTER + INTRA:          -4.190
REMARK INTER:                  -4.115
REMARK INTRA:                  -0.075
REMARK UNBOUND:                -0.252
REMARK SMILES O=C([O-])c1ccccc1O
REMARK SMILES IDX 4 1 9 2 5 3 8 4 6 5 7 6 2 7 1 8 3 9 10 10
REMARK H PARENT 10 11
REMARK Flexibility Score: inf
ROOT
ATOM      1  C   UNL     1     111.904 136.404 105.744  1.00  0.00     0.039 A 
ATOM      2  C   UNL     1     112.664 135.210 105.625  1.00  0.00     0.124 A 
ATOM      3  C   UNL     1     110.569 136.319 106.182  1.00  0.00     0.014 A 
ATOM      4  C   UNL     1     112.058 133.975 105.885  1.00  0.00     0.047 A 
ATOM      5  C   UNL     1     109.987 135.080 106.457  1.00  0.00     0.001 A 
ATOM      6  C   UNL     1     110.727 133.910 106.299  1.00  0.00     0.004 A 
ENDROOT
BRANCH   1   7
ATOM      7  C   UNL     1     112.444 137.737 105.394  1.00  0.00     0.075 C 
ATOM      8  O   UNL     1     112.461 138.135 104.199  1.00  0.00    -0.545 OA
ATOM      9  O   UNL     1     112.878 138.597 106.396  1.00  0.00    -0.545 OA
ENDBRANCH   1   7
BRANCH   2  10
ATOM     10  O   UNL     1     114.021 135.210 105.291  1.00  0.00    -0.507 OA
ATOM     11  H   UNL     1     114.525 136.037 105.002  1.00  0.00     0.293 HD
ENDBRANCH   2  10
TORSDOF 2
ENDMDL
MODEL 5
REMARK VINA RESULT:    -3.489      1.535      2.217
REMARK INTER + INTRA:          -4.047
REMARK INTER:                  -3.800
REMARK INTRA:                  -0.247
REMARK UNBOUND:                -0.252
REMARK SMILES O=C([O-])c1ccccc1O
REMARK SMILES IDX 4 1 9 2 5 3 8 4 6 5 7 6 2 7 1 8 3 9 10 10
REMARK H PARENT 10 11
REMARK Flexibility Score: inf
ROOT
ATOM      1  C   UNL     1     123.136 128.035 119.495  1.00  0.00     0.039 A 
ATOM      2  C   UNL     1     123.909 127.870 120.675  1.00  0.00     0.124 A 
ATOM      3  C   UNL     1     123.689 127.645 118.261  1.00  0.00     0.014 A 
ATOM      4  C   UNL     1     125.218 127.383 120.583  1.00  0.00     0.047 A 
ATOM      5  C   UNL     1     124.990 127.141 118.190  1.00  0.00     0.001 A 
ATOM      6  C   UNL     1     125.756 127.020 119.347  1.00  0.00     0.004 A 
ENDROOT
BRANCH   1   7
ATOM      7  C   UNL     1     121.783 128.634 119.499  1.00  0.00     0.075 C 
ATOM      8  O   UNL     1     120.907 128.249 120.318  1.00  0.00    -0.545 OA
ATOM      9  O   UNL     1     121.484 129.683 118.638  1.00  0.00    -0.545 OA
ENDBRANCH   1   7
BRANCH   2  10
ATOM     10  O   UNL     1     123.405 128.141 121.950  1.00  0.00    -0.507 OA
ATOM     11  H   UNL     1     123.857 128.759 122.609  1.00  0.00     0.293 HD
ENDBRANCH   2  10
TORSDOF 2
ENDMDL
MODEL 6
REMARK VINA RESULT:    -3.476     20.022     21.372
REMARK INTER + INTRA:          -4.032
REMARK INTER:                  -3.799
REMARK INTRA:                  -0.233
REMARK UNBOUND:                -0.252
REMARK SMILES O=C([O-])c1ccccc1O
REMARK SMILES IDX 4 1 9 2 5 3 8 4 6 5 7 6 2 7 1 8 3 9 10 10
REMARK H PARENT 10 11
REMARK Flexibility Score: inf
ROOT
ATOM      1  C   UNL     1     111.406 135.665 106.021  1.00  0.00     0.039 A 
ATOM      2  C   UNL     1     112.572 136.121 105.351  1.00  0.00     0.124 A 
ATOM      3  C   UNL     1     110.310 136.539 106.149  1.00  0.00     0.014 A 
ATOM      4  C   UNL     1     112.633 137.441 104.888  1.00  0.00     0.047 A 
ATOM      5  C   UNL     1     110.381 137.846 105.663  1.00  0.00     0.001 A 
ATOM      6  C   UNL     1     111.543 138.299 105.043  1.00  0.00     0.004 A 
ENDROOT
BRANCH   1   7
ATOM      7  C   UNL     1     111.303 134.317 106.623  1.00  0.00     0.075 C 
ATOM      8  O   UNL     1     110.350 133.548 106.327  1.00  0.00    -0.545 OA
ATOM      9  O   UNL     1     112.300 133.857 107.475  1.00  0.00    -0.545 OA
ENDBRANCH   1   7
BRANCH   2  10
ATOM     10  O   UNL     1     113.668 135.293 105.095  1.00  0.00    -0.507 OA
ATOM     11  H   UNL     1     114.529 135.326 105.622  1.00  0.00     0.293 HD
ENDBRANCH   2  10
TORSDOF 2
ENDMDL
MODEL 7
REMARK VINA RESULT:    -3.398      2.079      2.455
REMARK INTER + INTRA:          -3.948
REMARK INTER:                  -3.697
REMARK INTRA:                  -0.251
REMARK UNBOUND:                -0.252
REMARK SMILES O=C([O-])c1ccccc1O
REMARK SMILES IDX 4 1 9 2 5 3 8 4 6 5 7 6 2 7 1 8 3 9 10 10
REMARK H PARENT 10 11
REMARK Flexibility Score: inf
ROOT
ATOM      1  C   UNL     1     124.865 128.776 120.474  1.00  0.00     0.039 A 
ATOM      2  C   UNL     1     126.242 129.015 120.725  1.00  0.00     0.124 A 
ATOM      3  C   UNL     1     124.454 127.478 120.115  1.00  0.00     0.014 A 
ATOM      4  C   UNL     1     127.167 127.978 120.552  1.00  0.00     0.047 A 
ATOM      5  C   UNL     1     125.389 126.450 119.969  1.00  0.00     0.001 A 
ATOM      6  C   UNL     1     126.743 126.702 120.177  1.00  0.00     0.004 A 
ENDROOT
BRANCH   1   7
ATOM      7  C   UNL     1     123.840 129.842 120.539  1.00  0.00     0.075 C 
ATOM      8  O   UNL     1     122.930 129.918 119.672  1.00  0.00    -0.545 OA
ATOM      9  O   UNL     1     123.833 130.735 121.604  1.00  0.00    -0.545 OA
ENDBRANCH   1   7
BRANCH   2  10
ATOM     10  O   UNL     1     126.724 130.246 121.177  1.00  0.00    -0.507 OA
ATOM     11  H   UNL     1     126.330 130.746 121.962  1.00  0.00     0.293 HD
ENDBRANCH   2  10
TORSDOF 2
ENDMDL
MODEL 8
REMARK VINA RESULT:    -3.393      1.811      3.522
REMARK INTER + INTRA:          -3.943
REMARK INTER:                  -3.703
REMARK INTRA:                  -0.240
REMARK UNBOUND:                -0.252
REMARK SMILES O=C([O-])c1ccccc1O
REMARK SMILES IDX 4 1 9 2 5 3 8 4 6 5 7 6 2 7 1 8 3 9 10 10
REMARK H PARENT 10 11
REMARK Flexibility Score: inf
ROOT
ATOM      1  C   UNL     1     125.724 127.141 119.065  1.00  0.00     0.039 A 
ATOM      2  C   UNL     1     124.990 127.190 120.280  1.00  0.00     0.124 A 
ATOM      3  C   UNL     1     125.068 127.454 117.860  1.00  0.00     0.014 A 
ATOM      4  C   UNL     1     123.622 127.486 120.249  1.00  0.00     0.047 A 
ATOM      5  C   UNL     1     123.707 127.768 117.851  1.00  0.00     0.001 A 
ATOM      6  C   UNL     1     122.983 127.774 119.042  1.00  0.00     0.004 A 
ENDROOT
BRANCH   1   7
ATOM      7  C   UNL     1     127.148 126.741 119.004  1.00  0.00     0.075 C 
ATOM      8  O   UNL     1     127.928 126.975 119.965  1.00  0.00    -0.545 OA
ATOM      9  O   UNL     1     127.626 126.035 117.906  1.00  0.00    -0.545 OA
ENDBRANCH   1   7
BRANCH   2  10
ATOM     10  O   UNL     1     125.583 126.988 121.528  1.00  0.00    -0.507 OA
ATOM     11  H   UNL     1     125.214 126.357 122.226  1.00  0.00     0.293 HD
ENDBRANCH   2  10
TORSDOF 2
ENDMDL
MODEL 9
REMARK VINA RESULT:    -3.372      2.143      2.692
REMARK INTER + INTRA:          -3.919
REMARK INTER:                  -3.696
REMARK INTRA:                  -0.224
REMARK UNBOUND:                -0.252
REMARK SMILES O=C([O-])c1ccccc1O
REMARK SMILES IDX 4 1 9 2 5 3 8 4 6 5 7 6 2 7 1 8 3 9 10 10
REMARK H PARENT 10 11
REMARK Flexibility Score: inf
ROOT
ATOM      1  C   UNL     1     126.500 128.738 119.881  1.00  0.00     0.039 A 
ATOM      2  C   UNL     1     126.343 127.432 120.416  1.00  0.00     0.124 A 
ATOM      3  C   UNL     1     127.150 128.892 118.641  1.00  0.00     0.014 A 
ATOM      4  C   UNL     1     126.887 126.336 119.735  1.00  0.00     0.047 A 
ATOM      5  C   UNL     1     127.667 127.784 117.966  1.00  0.00     0.001 A 
ATOM      6  C   UNL     1     127.545 126.511 118.517  1.00  0.00     0.004 A 
ENDROOT
BRANCH   1   7
ATOM      7  C   UNL     1     126.041 129.955 120.587  1.00  0.00     0.075 C 
ATOM      8  O   UNL     1     126.833 130.906 120.820  1.00  0.00    -0.545 OA
ATOM      9  O   UNL     1     124.703 130.090 120.941  1.00  0.00    -0.545 OA
ENDBRANCH   1   7
BRANCH   2  10
ATOM     10  O   UNL     1     125.630 127.179 121.590  1.00  0.00    -0.507 OA
ATOM     11  H   UNL     1     125.609 126.278 122.048  1.00  0.00     0.293 HD
ENDBRANCH   2  10
TORSDOF 2
ENDMDL
