MODEL 1
REMARK VINA RESULT:    -4.381      0.000      0.000
REMARK INTER + INTRA:          -5.097
REMARK INTER:                  -5.022
REMARK INTRA:                  -0.075
REMARK UNBOUND:                -0.075
REMARK SMILES COc1cc(C=O)ccc1O
REMARK SMILES IDX 3 1 10 2 9 3 8 4 5 5 4 6 2 7 1 8 11 9 6 11 7 12
REMARK H PARENT 11 10
REMARK Flexibility Score: inf
ROOT
ATOM      1  C   UNL     1      22.276  28.466  17.175  1.00  0.00     0.161 A 
ATOM      2  C   UNL     1      21.488  29.588  17.493  1.00  0.00     0.157 A 
ATOM      3  C   UNL     1      21.444  30.682  16.623  1.00  0.00     0.051 A 
ATOM      4  C   UNL     1      22.178  30.672  15.436  1.00  0.00     0.015 A 
ATOM      5  C   UNL     1      22.969  29.564  15.102  1.00  0.00     0.018 A 
ATOM      6  C   UNL     1      23.016  28.463  15.974  1.00  0.00     0.062 A 
ENDROOT
BRANCH   1   7
ATOM      7  O   UNL     1      22.300  27.382  18.067  1.00  0.00    -0.493 OA
ATOM      8  C   UNL     1      23.425  27.010  18.857  1.00  0.00     0.278 C 
ENDBRANCH   1   7
BRANCH   2   9
ATOM      9  O   UNL     1      20.741  29.634  18.669  1.00  0.00    -0.504 OA
ATOM     10  H   UNL     1      19.996  30.306  18.810  1.00  0.00     0.293 HD
ENDBRANCH   2   9
BRANCH   5  11
ATOM     11  C   UNL     1      23.738  29.574  13.843  1.00  0.00     0.260 C 
ATOM     12  O   UNL     1      23.369  30.270  12.861  1.00  0.00    -0.298 OA
ENDBRANCH   5  11
TORSDOF 3
ENDMDL
MODEL 2
REMARK VINA RESULT:    -3.877      1.074      2.439
REMARK INTER + INTRA:          -4.519
REMARK INTER:                  -4.442
REMARK INTRA:                  -0.077
REMARK UNBOUND:                -0.075
REMARK SMILES COc1cc(C=O)ccc1O
REMARK SMILES IDX 3 1 10 2 9 3 8 4 5 5 4 6 2 7 1 8 11 9 6 11 7 12
REMARK H PARENT 11 10
REMARK Flexibility Score: inf
ROOT
ATOM      1  C   UNL     1      22.076  29.203  16.869  1.00  0.00     0.161 A 
ATOM      2  C   UNL     1      22.887  28.075  17.093  1.00  0.00     0.157 A 
ATOM      3  C   UNL     1      23.860  27.715  16.156  1.00  0.00     0.051 A 
ATOM      4  C   UNL     1      24.035  28.467  14.993  1.00  0.00     0.015 A 
ATOM      5  C   UNL     1      23.237  29.594  14.752  1.00  0.00     0.018 A 
ATOM      6  C   UNL     1      22.258  29.959  15.693  1.00  0.00     0.062 A 
ENDROOT
BRANCH   1   7
ATOM      7  O   UNL     1      21.108  29.541  17.829  1.00  0.00    -0.493 OA
ATOM      8  C   UNL     1      21.301  30.490  18.873  1.00  0.00     0.278 C 
ENDBRANCH   1   7
BRANCH   2   9
ATOM      9  O   UNL     1      22.742  27.300  18.243  1.00  0.00    -0.504 OA
ATOM     10  H   UNL     1      22.958  26.310  18.258  1.00  0.00     0.293 HD
ENDBRANCH   2   9
BRANCH   5  11
ATOM     11  C   UNL     1      23.438  30.375  13.518  1.00  0.00     0.260 C 
ATOM     12  O   UNL     1      24.013  29.874  12.516  1.00  0.00    -0.298 OA
ENDBRANCH   5  11
TORSDOF 3
ENDMDL
MODEL 3
REMARK VINA RESULT:    -3.804      1.552      3.976
REMARK INTER + INTRA:          -4.435
REMARK INTER:                  -4.385
REMARK INTRA:                  -0.050
REMARK UNBOUND:                -0.075
REMARK SMILES COc1cc(C=O)ccc1O
REMARK SMILES IDX 3 1 10 2 9 3 8 4 5 5 4 6 2 7 1 8 11 9 6 11 7 12
REMARK H PARENT 11 10
REMARK Flexibility Score: inf
ROOT
ATOM      1  C   UNL     1      22.280  30.049  16.276  1.00  0.00     0.161 A 
ATOM      2  C   UNL     1      21.188  30.688  16.891  1.00  0.00     0.157 A 
ATOM      3  C   UNL     1      20.872  30.408  18.223  1.00  0.00     0.051 A 
ATOM      4  C   UNL     1      21.633  29.495  18.955  1.00  0.00     0.015 A 
ATOM      5  C   UNL     1      22.725  28.848  18.360  1.00  0.00     0.018 A 
ATOM      6  C   UNL     1      23.045  29.127  17.020  1.00  0.00     0.062 A 
ENDROOT
BRANCH   1   7
ATOM      7  O   UNL     1      22.574  30.350  14.937  1.00  0.00    -0.493 OA
ATOM      8  C   UNL     1      23.447  29.588  14.109  1.00  0.00     0.278 C 
ENDBRANCH   1   7
BRANCH   2   9
ATOM      9  O   UNL     1      20.404  31.607  16.193  1.00  0.00    -0.504 OA
ATOM     10  H   UNL     1      19.837  32.301  16.664  1.00  0.00     0.293 HD
ENDBRANCH   2   9
BRANCH   5  11
ATOM     11  C   UNL     1      23.517  27.887  19.150  1.00  0.00     0.260 C 
ATOM     12  O   UNL     1      23.431  26.647  18.944  1.00  0.00    -0.298 OA
ENDBRANCH   5  11
TORSDOF 3
ENDMDL
MODEL 4
REMARK VINA RESULT:    -3.776      8.325      9.861
REMARK INTER + INTRA:          -4.403
REMARK INTER:                  -4.347
REMARK INTRA:                  -0.056
REMARK UNBOUND:                -0.075
REMARK SMILES COc1cc(C=O)ccc1O
REMARK SMILES IDX 3 1 10 2 9 3 8 4 5 5 4 6 2 7 1 8 11 9 6 11 7 12
REMARK H PARENT 11 10
REMARK Flexibility Score: inf
ROOT
ATOM      1  C   UNL     1      22.755  26.246  25.201  1.00  0.00     0.161 A 
ATOM      2  C   UNL     1      22.742  26.041  26.593  1.00  0.00     0.157 A 
ATOM      3  C   UNL     1      21.932  26.835  27.409  1.00  0.00     0.051 A 
ATOM      4  C   UNL     1      21.130  27.834  26.855  1.00  0.00     0.015 A 
ATOM      5  C   UNL     1      21.130  28.053  25.470  1.00  0.00     0.018 A 
ATOM      6  C   UNL     1      21.943  27.257  24.646  1.00  0.00     0.062 A 
ENDROOT
BRANCH   1   7
ATOM      7  O   UNL     1      23.578  25.432  24.405  1.00  0.00    -0.493 OA
ATOM      8  C   UNL     1      23.208  24.903  23.136  1.00  0.00     0.278 C 
ENDBRANCH   1   7
BRANCH   2   9
ATOM      9  O   UNL     1      23.528  25.052  27.184  1.00  0.00    -0.504 OA
ATOM     10  H   UNL     1      24.452  24.819  26.839  1.00  0.00     0.293 HD
ENDBRANCH   2   9
BRANCH   5  11
ATOM     11  C   UNL     1      20.276  29.114  24.904  1.00  0.00     0.260 C 
ATOM     12  O   UNL     1      19.599  28.918  23.860  1.00  0.00    -0.298 OA
ENDBRANCH   5  11
TORSDOF 3
ENDMDL
MODEL 5
REMARK VINA RESULT:    -3.719      2.554      4.518
REMARK INTER + INTRA:          -4.338
REMARK INTER:                  -4.282
REMARK INTRA:                  -0.056
REMARK UNBOUND:                -0.075
REMARK SMILES COc1cc(C=O)ccc1O
REMARK SMILES IDX 3 1 10 2 9 3 8 4 5 5 4 6 2 7 1 8 11 9 6 11 7 12
REMARK H PARENT 11 10
REMARK Flexibility Score: inf
ROOT
ATOM      1  C   UNL     1      23.082  29.620  17.568  1.00  0.00     0.161 A 
ATOM      2  C   UNL     1      21.880  30.183  17.102  1.00  0.00     0.157 A 
ATOM      3  C   UNL     1      20.893  30.578  18.010  1.00  0.00     0.051 A 
ATOM      4  C   UNL     1      21.090  30.419  19.382  1.00  0.00     0.015 A 
ATOM      5  C   UNL     1      22.281  29.861  19.866  1.00  0.00     0.018 A 
ATOM      6  C   UNL     1      23.275  29.462  18.956  1.00  0.00     0.062 A 
ENDROOT
BRANCH   1   7
ATOM      7  O   UNL     1      24.056  29.233  16.633  1.00  0.00    -0.493 OA
ATOM      8  C   UNL     1      24.125  27.949  16.022  1.00  0.00     0.278 C 
ENDBRANCH   1   7
BRANCH   2   9
ATOM      9  O   UNL     1      21.648  30.358  15.738  1.00  0.00    -0.504 OA
ATOM     10  H   UNL     1      21.471  29.578  15.116  1.00  0.00     0.293 HD
ENDBRANCH   2   9
BRANCH   5  11
ATOM     11  C   UNL     1      22.469  29.701  21.321  1.00  0.00     0.260 C 
ATOM     12  O   UNL     1      22.987  30.616  22.015  1.00  0.00    -0.298 OA
ENDBRANCH   5  11
TORSDOF 3
ENDMDL
MODEL 6
REMARK VINA RESULT:    -3.704      8.982     10.796
REMARK INTER + INTRA:          -4.321
REMARK INTER:                  -4.263
REMARK INTRA:                  -0.058
REMARK UNBOUND:                -0.075
REMARK SMILES COc1cc(C=O)ccc1O
REMARK SMILES IDX 3 1 10 2 9 3 8 4 5 5 4 6 2 7 1 8 11 9 6 11 7 12
REMARK H PARENT 11 10
REMARK Flexibility Score: inf
ROOT
ATOM      1  C   UNL     1      21.437  27.763  25.558  1.00  0.00     0.161 A 
ATOM      2  C   UNL     1      20.282  28.371  25.032  1.00  0.00     0.157 A 
ATOM      3  C   UNL     1      19.589  29.324  25.783  1.00  0.00     0.051 A 
ATOM      4  C   UNL     1      20.033  29.681  27.057  1.00  0.00     0.015 A 
ATOM      5  C   UNL     1      21.181  29.086  27.599  1.00  0.00     0.018 A 
ATOM      6  C   UNL     1      21.880  28.127  26.846  1.00  0.00     0.062 A 
ENDROOT
BRANCH   1   7
ATOM      7  O   UNL     1      22.113  26.809  24.780  1.00  0.00    -0.493 OA
ATOM      8  C   UNL     1      22.948  25.782  25.306  1.00  0.00     0.278 C 
ENDBRANCH   1   7
BRANCH   2   9
ATOM      9  O   UNL     1      19.808  28.041  23.762  1.00  0.00    -0.504 OA
ATOM     10  H   UNL     1      19.326  28.711  23.175  1.00  0.00     0.293 HD
ENDBRANCH   2   9
BRANCH   5  11
ATOM     11  C   UNL     1      21.634  29.476  28.947  1.00  0.00     0.260 C 
ATOM     12  O   UNL     1      20.870  30.092  29.738  1.00  0.00    -0.298 OA
ENDBRANCH   5  11
TORSDOF 3
ENDMDL
MODEL 7
REMARK VINA RESULT:    -3.701      1.834      2.949
REMARK INTER + INTRA:          -4.317
REMARK INTER:                  -4.247
REMARK INTRA:                  -0.071
REMARK UNBOUND:                -0.075
REMARK SMILES COc1cc(C=O)ccc1O
REMARK SMILES IDX 3 1 10 2 9 3 8 4 5 5 4 6 2 7 1 8 11 9 6 11 7 12
REMARK H PARENT 11 10
REMARK Flexibility Score: inf
ROOT
ATOM      1  C   UNL     1      21.497  29.780  17.505  1.00  0.00     0.161 A 
ATOM      2  C   UNL     1      21.478  30.706  16.447  1.00  0.00     0.157 A 
ATOM      3  C   UNL     1      22.279  30.500  15.320  1.00  0.00     0.051 A 
ATOM      4  C   UNL     1      23.102  29.376  15.234  1.00  0.00     0.015 A 
ATOM      5  C   UNL     1      23.136  28.441  16.278  1.00  0.00     0.018 A 
ATOM      6  C   UNL     1      22.332  28.647  17.412  1.00  0.00     0.062 A 
ENDROOT
BRANCH   1   7
ATOM      7  O   UNL     1      20.682  30.013  18.624  1.00  0.00    -0.493 OA
ATOM      8  C   UNL     1      21.166  30.292  19.934  1.00  0.00     0.278 C 
ENDBRANCH   1   7
BRANCH   2   9
ATOM      9  O   UNL     1      20.667  31.841  16.496  1.00  0.00    -0.504 OA
ATOM     10  H   UNL     1      20.906  32.650  17.057  1.00  0.00     0.293 HD
ENDBRANCH   2   9
BRANCH   5  11
ATOM     11  C   UNL     1      24.013  27.261  16.167  1.00  0.00     0.260 C 
ATOM     12  O   UNL     1      24.125  26.441  17.116  1.00  0.00    -0.298 OA
ENDBRANCH   5  11
TORSDOF 3
ENDMDL
MODEL 8
REMARK VINA RESULT:    -3.690      2.138      3.234
REMARK INTER + INTRA:          -4.305
REMARK INTER:                  -4.254
REMARK INTRA:                  -0.051
REMARK UNBOUND:                -0.075
REMARK SMILES COc1cc(C=O)ccc1O
REMARK SMILES IDX 3 1 10 2 9 3 8 4 5 5 4 6 2 7 1 8 11 9 6 11 7 12
REMARK H PARENT 11 10
REMARK Flexibility Score: inf
ROOT
ATOM      1  C   UNL     1      22.705  28.920  18.954  1.00  0.00     0.161 A 
ATOM      2  C   UNL     1      23.033  27.728  18.283  1.00  0.00     0.157 A 
ATOM      3  C   UNL     1      22.824  27.620  16.905  1.00  0.00     0.051 A 
ATOM      4  C   UNL     1      22.292  28.689  16.184  1.00  0.00     0.015 A 
ATOM      5  C   UNL     1      21.960  29.886  16.834  1.00  0.00     0.018 A 
ATOM      6  C   UNL     1      22.168  29.997  18.219  1.00  0.00     0.062 A 
ENDROOT
BRANCH   1   7
ATOM      7  O   UNL     1      22.926  29.000  20.338  1.00  0.00    -0.493 OA
ATOM      8  C   UNL     1      22.730  30.173  21.122  1.00  0.00     0.278 C 
ENDBRANCH   1   7
BRANCH   2   9
ATOM      9  O   UNL     1      23.567  26.638  18.970  1.00  0.00    -0.504 OA
ATOM     10  H   UNL     1      23.177  26.306  19.844  1.00  0.00     0.293 HD
ENDBRANCH   2   9
BRANCH   5  11
ATOM     11  C   UNL     1      21.398  31.004  16.054  1.00  0.00     0.260 C 
ATOM     12  O   UNL     1      20.381  31.631  16.453  1.00  0.00    -0.298 OA
ENDBRANCH   5  11
TORSDOF 3
ENDMDL
MODEL 9
REMARK VINA RESULT:    -3.612      2.471      5.278
REMARK INTER + INTRA:          -4.215
REMARK INTER:                  -4.145
REMARK INTRA:                  -0.070
REMARK UNBOUND:                -0.075
REMARK SMILES COc1cc(C=O)ccc1O
REMARK SMILES IDX 3 1 10 2 9 3 8 4 5 5 4 6 2 7 1 8 11 9 6 11 7 12
REMARK H PARENT 11 10
REMARK Flexibility Score: inf
ROOT
ATOM      1  C   UNL     1      21.481  29.812  18.289  1.00  0.00     0.161 A 
ATOM      2  C   UNL     1      22.158  28.640  17.908  1.00  0.00     0.157 A 
ATOM      3  C   UNL     1      23.100  28.064  18.766  1.00  0.00     0.051 A 
ATOM      4  C   UNL     1      23.376  28.644  20.005  1.00  0.00     0.015 A 
ATOM      5  C   UNL     1      22.711  29.813  20.403  1.00  0.00     0.018 A 
ATOM      6  C   UNL     1      21.765  30.394  19.542  1.00  0.00     0.062 A 
ENDROOT
BRANCH   1   7
ATOM      7  O   UNL     1      20.541  30.368  17.407  1.00  0.00    -0.493 OA
ATOM      8  C   UNL     1      20.828  31.390  16.458  1.00  0.00     0.278 C 
ENDBRANCH   1   7
BRANCH   2   9
ATOM      9  O   UNL     1      21.909  28.030  16.678  1.00  0.00    -0.504 OA
ATOM     10  H   UNL     1      22.572  27.400  16.243  1.00  0.00     0.293 HD
ENDBRANCH   2   9
BRANCH   5  11
ATOM     11  C   UNL     1      23.018  30.410  21.716  1.00  0.00     0.260 C 
ATOM     12  O   UNL     1      22.553  29.920  22.779  1.00  0.00    -0.298 OA
ENDBRANCH   5  11
TORSDOF 3
ENDMDL
