MODEL 1
REMARK VINA RESULT:    -6.446      0.000      0.000
REMARK INTER + INTRA:          -6.968
REMARK INTER:                  -7.011
REMARK INTRA:                   0.043
REMARK UNBOUND:                 0.043
REMARK SMILES CC(=O)[C@@H]1CC[C@H]2[C@@H]3CC=C4C[C@@H](O)CC[C@]4(C)[C@@H]3CC[C@@]12C
REMARK SMILES IDX 4 1 5 2 6 3 7 4 22 5 21 6 20 7 19 8 8 9 9 10 10 11 11 12
REMARK SMILES IDX 17 13 16 14 15 15 13 16 12 17 18 18 23 19 2 20 1 21 3 22
REMARK SMILES IDX 14 23
REMARK H PARENT 14 24
REMARK Flexibility Score: inf
ROOT
ATOM      1  C   UNL     1       3.305 -20.406  -7.217  1.00  0.00     0.062 C 
ATOM      2  C   UNL     1       4.390 -21.303  -6.612  1.00  0.00     0.012 C 
ATOM      3  C   UNL     1       4.312 -21.133  -5.096  1.00  0.00     0.005 C 
ATOM      4  C   UNL     1       3.268 -20.038  -4.810  1.00  0.00    -0.001 C 
ATOM      5  C   UNL     1       3.054 -19.291  -6.156  1.00  0.00    -0.020 C 
ATOM      6  C   UNL     1       4.109 -18.164  -6.353  1.00  0.00     0.008 C 
ATOM      7  C   UNL     1       4.299 -17.264  -5.124  1.00  0.00     0.005 C 
ATOM      8  C   UNL     1       4.734 -18.093  -3.893  1.00  0.00     0.003 C 
ATOM      9  C   UNL     1       3.656 -19.165  -3.576  1.00  0.00     0.000 C 
ATOM     10  C   UNL     1       2.414 -18.538  -2.920  1.00  0.00     0.031 C 
ATOM     11  C   UNL     1       2.749 -17.591  -1.807  1.00  0.00    -0.027 C 
ATOM     12  C   UNL     1       3.912 -16.916  -1.725  1.00  0.00    -0.065 C 
ATOM     13  C   UNL     1       5.125 -17.264  -2.596  1.00  0.00    -0.008 C 
ATOM     14  C   UNL     1       5.862 -15.936  -2.965  1.00  0.00     0.014 C 
ATOM     15  C   UNL     1       6.146 -15.028  -1.756  1.00  0.00     0.033 C 
ATOM     16  C   UNL     1       4.844 -14.675  -1.027  1.00  0.00     0.118 C 
ATOM     17  C   UNL     1       4.103 -15.942  -0.575  1.00  0.00     0.063 C 
ATOM     18  C   UNL     1       6.087 -18.144  -1.746  1.00  0.00     0.016 C 
ATOM     19  C   UNL     1       1.632 -18.684  -6.306  1.00  0.00     0.012 C 
ENDROOT
BRANCH   1  20
ATOM     20  C   UNL     1       2.071 -21.237  -7.551  1.00  0.00     0.133 C 
ATOM     21  C   UNL     1       1.320 -21.033  -8.834  1.00  0.00     0.088 C 
ATOM     22  O   UNL     1       1.676 -22.091  -6.770  1.00  0.00    -0.300 OA
ENDBRANCH   1  20
BRANCH  16  23
ATOM     23  O   UNL     1       5.146 -13.875   0.085  1.00  0.00    -0.393 OA
ATOM     24  H   UNL     1       6.136 -13.819   0.139  1.00  0.00     0.210 HD
ENDBRANCH  16  23
TORSDOF 2
ENDMDL
MODEL 2
REMARK VINA RESULT:    -6.067      1.683      6.820
REMARK INTER + INTRA:          -6.557
REMARK INTER:                  -6.607
REMARK INTRA:                   0.050
REMARK UNBOUND:                 0.043
REMARK SMILES CC(=O)[C@@H]1CC[C@H]2[C@@H]3CC=C4C[C@@H](O)CC[C@]4(C)[C@@H]3CC[C@@]12C
REMARK SMILES IDX 4 1 5 2 6 3 7 4 22 5 21 6 20 7 19 8 8 9 9 10 10 11 11 12
REMARK SMILES IDX 17 13 16 14 15 15 13 16 12 17 18 18 23 19 2 20 1 21 3 22
REMARK SMILES IDX 14 23
REMARK H PARENT 14 24
REMARK Flexibility Score: inf
ROOT
ATOM      1  C   UNL     1       7.100 -17.483  -2.753  1.00  0.00     0.062 C 
ATOM      2  C   UNL     1       6.504 -16.237  -3.418  1.00  0.00     0.012 C 
ATOM      3  C   UNL     1       4.986 -16.408  -3.400  1.00  0.00     0.005 C 
ATOM      4  C   UNL     1       4.689 -17.814  -2.843  1.00  0.00    -0.001 C 
ATOM      5  C   UNL     1       6.027 -18.599  -2.934  1.00  0.00    -0.020 C 
ATOM      6  C   UNL     1       6.208 -19.248  -4.337  1.00  0.00     0.008 C 
ATOM      7  C   UNL     1       4.969 -19.998  -4.845  1.00  0.00     0.005 C 
ATOM      8  C   UNL     1       3.747 -19.054  -4.928  1.00  0.00     0.003 C 
ATOM      9  C   UNL     1       3.444 -18.463  -3.523  1.00  0.00     0.000 C 
ATOM     10  C   UNL     1       2.783 -19.505  -2.605  1.00  0.00     0.031 C 
ATOM     11  C   UNL     1       1.658 -20.244  -3.265  1.00  0.00    -0.027 C 
ATOM     12  C   UNL     1       1.566 -20.431  -4.597  1.00  0.00    -0.065 C 
ATOM     13  C   UNL     1       2.439 -19.661  -5.594  1.00  0.00    -0.008 C 
ATOM     14  C   UNL     1       2.791 -20.617  -6.780  1.00  0.00     0.014 C 
ATOM     15  C   UNL     1       1.571 -21.339  -7.377  1.00  0.00     0.033 C 
ATOM     16  C   UNL     1       0.841 -22.149  -6.299  1.00  0.00     0.118 C 
ATOM     17  C   UNL     1       0.404 -21.250  -5.133  1.00  0.00     0.063 C 
ATOM     18  C   UNL     1       1.598 -18.475  -6.149  1.00  0.00     0.016 C 
ATOM     19  C   UNL     1       6.172 -19.699  -1.846  1.00  0.00     0.012 C 
ENDROOT
BRANCH   1  20
ATOM     20  C   UNL     1       7.446 -17.181  -1.300  1.00  0.00     0.133 C 
ATOM     21  C   UNL     1       8.692 -17.728  -0.667  1.00  0.00     0.088 C 
ATOM     22  O   UNL     1       6.706 -16.480  -0.625  1.00  0.00    -0.300 OA
ENDBRANCH   1  20
BRANCH  16  23
ATOM     23  O   UNL     1      -0.282 -22.765  -6.873  1.00  0.00    -0.393 OA
ATOM     24  H   UNL     1      -0.860 -22.038  -7.227  1.00  0.00     0.210 HD
ENDBRANCH  16  23
TORSDOF 2
ENDMDL
MODEL 3
REMARK VINA RESULT:    -5.964     11.071     12.466
REMARK INTER + INTRA:          -6.444
REMARK INTER:                  -6.583
REMARK INTRA:                   0.139
REMARK UNBOUND:                 0.043
REMARK SMILES CC(=O)[C@@H]1CC[C@H]2[C@@H]3CC=C4C[C@@H](O)CC[C@]4(C)[C@@H]3CC[C@@]12C
REMARK SMILES IDX 4 1 5 2 6 3 7 4 22 5 21 6 20 7 19 8 8 9 9 10 10 11 11 12
REMARK SMILES IDX 17 13 16 14 15 15 13 16 12 17 18 18 23 19 2 20 1 21 3 22
REMARK SMILES IDX 14 23
REMARK H PARENT 14 24
REMARK Flexibility Score: inf
ROOT
ATOM      1  C   UNL     1       5.049 -30.786   3.839  1.00  0.00     0.062 C 
ATOM      2  C   UNL     1       3.747 -30.771   4.647  1.00  0.00     0.012 C 
ATOM      3  C   UNL     1       3.060 -29.437   4.356  1.00  0.00     0.005 C 
ATOM      4  C   UNL     1       4.018 -28.609   3.478  1.00  0.00    -0.001 C 
ATOM      5  C   UNL     1       5.410 -29.287   3.611  1.00  0.00    -0.020 C 
ATOM      6  C   UNL     1       6.179 -28.761   4.859  1.00  0.00     0.008 C 
ATOM      7  C   UNL     1       6.174 -27.232   4.998  1.00  0.00     0.005 C 
ATOM      8  C   UNL     1       4.729 -26.689   5.083  1.00  0.00     0.003 C 
ATOM      9  C   UNL     1       3.942 -27.086   3.804  1.00  0.00     0.000 C 
ATOM     10  C   UNL     1       4.366 -26.232   2.596  1.00  0.00     0.031 C 
ATOM     11  C   UNL     1       4.429 -24.766   2.902  1.00  0.00    -0.027 C 
ATOM     12  C   UNL     1       4.657 -24.269   4.134  1.00  0.00    -0.065 C 
ATOM     13  C   UNL     1       4.583 -25.138   5.395  1.00  0.00    -0.008 C 
ATOM     14  C   UNL     1       5.680 -24.648   6.394  1.00  0.00     0.014 C 
ATOM     15  C   UNL     1       5.672 -23.128   6.628  1.00  0.00     0.033 C 
ATOM     16  C   UNL     1       5.849 -22.376   5.304  1.00  0.00     0.118 C 
ATOM     17  C   UNL     1       4.755 -22.762   4.298  1.00  0.00     0.063 C 
ATOM     18  C   UNL     1       3.187 -24.917   6.046  1.00  0.00     0.016 C 
ATOM     19  C   UNL     1       6.306 -29.110   2.354  1.00  0.00     0.012 C 
ENDROOT
BRANCH   1  20
ATOM     20  C   UNL     1       4.852 -31.581   2.553  1.00  0.00     0.133 C 
ATOM     21  C   UNL     1       3.559 -31.523   1.793  1.00  0.00     0.088 C 
ATOM     22  O   UNL     1       5.755 -32.283   2.120  1.00  0.00    -0.300 OA
ENDBRANCH   1  20
BRANCH  16  23
ATOM     23  O   UNL     1       5.803 -20.995   5.554  1.00  0.00    -0.393 OA
ATOM     24  H   UNL     1       5.632 -20.884   6.526  1.00  0.00     0.210 HD
ENDBRANCH  16  23
TORSDOF 2
ENDMDL
MODEL 4
REMARK VINA RESULT:    -5.957      1.927      3.271
REMARK INTER + INTRA:          -6.437
REMARK INTER:                  -6.621
REMARK INTRA:                   0.184
REMARK UNBOUND:                 0.043
REMARK SMILES CC(=O)[C@@H]1CC[C@H]2[C@@H]3CC=C4C[C@@H](O)CC[C@]4(C)[C@@H]3CC[C@@]12C
REMARK SMILES IDX 4 1 5 2 6 3 7 4 22 5 21 6 20 7 19 8 8 9 9 10 10 11 11 12
REMARK SMILES IDX 17 13 16 14 15 15 13 16 12 17 18 18 23 19 2 20 1 21 3 22
REMARK SMILES IDX 14 23
REMARK H PARENT 14 24
REMARK Flexibility Score: inf
ROOT
ATOM      1  C   UNL     1       1.436 -19.065  -4.420  1.00  0.00     0.062 C 
ATOM      2  C   UNL     1       2.100 -18.299  -5.569  1.00  0.00     0.012 C 
ATOM      3  C   UNL     1       3.610 -18.453  -5.391  1.00  0.00     0.005 C 
ATOM      4  C   UNL     1       3.842 -19.201  -4.064  1.00  0.00    -0.001 C 
ATOM      5  C   UNL     1       2.502 -19.106  -3.282  1.00  0.00    -0.020 C 
ATOM      6  C   UNL     1       2.415 -17.785  -2.465  1.00  0.00     0.008 C 
ATOM      7  C   UNL     1       3.676 -17.469  -1.649  1.00  0.00     0.005 C 
ATOM      8  C   UNL     1       4.916 -17.364  -2.567  1.00  0.00     0.003 C 
ATOM      9  C   UNL     1       5.123 -18.703  -3.326  1.00  0.00     0.000 C 
ATOM     10  C   UNL     1       5.696 -19.791  -2.402  1.00  0.00     0.031 C 
ATOM     11  C   UNL     1       6.855 -19.315  -1.579  1.00  0.00    -0.027 C 
ATOM     12  C   UNL     1       7.043 -18.028  -1.227  1.00  0.00    -0.065 C 
ATOM     13  C   UNL     1       6.260 -16.879  -1.872  1.00  0.00    -0.008 C 
ATOM     14  C   UNL     1       5.982 -15.798  -0.778  1.00  0.00     0.014 C 
ATOM     15  C   UNL     1       7.231 -15.389   0.021  1.00  0.00     0.033 C 
ATOM     16  C   UNL     1       7.866 -16.611   0.695  1.00  0.00     0.118 C 
ATOM     17  C   UNL     1       8.228 -17.687  -0.339  1.00  0.00     0.063 C 
ATOM     18  C   UNL     1       7.159 -16.247  -2.974  1.00  0.00     0.016 C 
ATOM     19  C   UNL     1       2.257 -20.308  -2.328  1.00  0.00     0.012 C 
ENDROOT
BRANCH   1  20
ATOM     20  C   UNL     1       0.988 -20.439  -4.903  1.00  0.00     0.133 C 
ATOM     21  C   UNL     1       1.627 -21.091  -6.094  1.00  0.00     0.088 C 
ATOM     22  O   UNL     1       0.093 -21.034  -4.320  1.00  0.00    -0.300 OA
ENDBRANCH   1  20
BRANCH  16  23
ATOM     23  O   UNL     1       9.018 -16.205   1.385  1.00  0.00    -0.393 OA
ATOM     24  H   UNL     1       8.751 -16.065   2.332  1.00  0.00     0.210 HD
ENDBRANCH  16  23
TORSDOF 2
ENDMDL
MODEL 5
REMARK VINA RESULT:    -5.920     12.164     14.389
REMARK INTER + INTRA:          -6.396
REMARK INTER:                  -6.437
REMARK INTRA:                   0.041
REMARK UNBOUND:                 0.043
REMARK SMILES CC(=O)[C@@H]1CC[C@H]2[C@@H]3CC=C4C[C@@H](O)CC[C@]4(C)[C@@H]3CC[C@@]12C
REMARK SMILES IDX 4 1 5 2 6 3 7 4 22 5 21 6 20 7 19 8 8 9 9 10 10 11 11 12
REMARK SMILES IDX 17 13 16 14 15 15 13 16 12 17 18 18 23 19 2 20 1 21 3 22
REMARK SMILES IDX 14 23
REMARK H PARENT 14 24
REMARK Flexibility Score: inf
ROOT
ATOM      1  C   UNL     1       5.890 -23.677   4.339  1.00  0.00     0.062 C 
ATOM      2  C   UNL     1       4.510 -23.199   3.877  1.00  0.00     0.012 C 
ATOM      3  C   UNL     1       3.526 -23.532   4.998  1.00  0.00     0.005 C 
ATOM      4  C   UNL     1       4.301 -24.325   6.068  1.00  0.00    -0.001 C 
ATOM      5  C   UNL     1       5.608 -24.805   5.378  1.00  0.00    -0.020 C 
ATOM      6  C   UNL     1       5.388 -26.145   4.617  1.00  0.00     0.008 C 
ATOM      7  C   UNL     1       4.643 -27.212   5.431  1.00  0.00     0.005 C 
ATOM      8  C   UNL     1       3.253 -26.698   5.874  1.00  0.00     0.003 C 
ATOM      9  C   UNL     1       3.417 -25.420   6.741  1.00  0.00     0.000 C 
ATOM     10  C   UNL     1       3.924 -25.759   8.153  1.00  0.00     0.031 C 
ATOM     11  C   UNL     1       3.181 -26.895   8.790  1.00  0.00    -0.027 C 
ATOM     12  C   UNL     1       2.565 -27.870   8.092  1.00  0.00    -0.065 C 
ATOM     13  C   UNL     1       2.310 -27.761   6.584  1.00  0.00    -0.008 C 
ATOM     14  C   UNL     1       2.472 -29.183   5.955  1.00  0.00     0.014 C 
ATOM     15  C   UNL     1       1.684 -30.280   6.689  1.00  0.00     0.033 C 
ATOM     16  C   UNL     1       2.100 -30.350   8.163  1.00  0.00     0.118 C 
ATOM     17  C   UNL     1       1.897 -28.997   8.860  1.00  0.00     0.063 C 
ATOM     18  C   UNL     1       0.838 -27.297   6.381  1.00  0.00     0.016 C 
ATOM     19  C   UNL     1       6.800 -24.973   6.361  1.00  0.00     0.012 C 
ENDROOT
BRANCH   1  20
ATOM     20  C   UNL     1       6.686 -22.502   4.896  1.00  0.00     0.133 C 
ATOM     21  C   UNL     1       8.143 -22.330   4.577  1.00  0.00     0.088 C 
ATOM     22  O   UNL     1       6.142 -21.677   5.614  1.00  0.00    -0.300 OA
ENDBRANCH   1  20
BRANCH  16  23
ATOM     23  O   UNL     1       1.337 -31.338   8.806  1.00  0.00    -0.393 OA
ATOM     24  H   UNL     1       1.151 -31.005   9.723  1.00  0.00     0.210 HD
ENDBRANCH  16  23
TORSDOF 2
ENDMDL
MODEL 6
REMARK VINA RESULT:    -5.859      1.505      2.164
REMARK INTER + INTRA:          -6.330
REMARK INTER:                  -7.282
REMARK INTRA:                   0.951
REMARK UNBOUND:                 0.043
REMARK SMILES CC(=O)[C@@H]1CC[C@H]2[C@@H]3CC=C4C[C@@H](O)CC[C@]4(C)[C@@H]3CC[C@@]12C
REMARK SMILES IDX 4 1 5 2 6 3 7 4 22 5 21 6 20 7 19 8 8 9 9 10 10 11 11 12
REMARK SMILES IDX 17 13 16 14 15 15 13 16 12 17 18 18 23 19 2 20 1 21 3 22
REMARK SMILES IDX 14 23
REMARK H PARENT 14 24
REMARK Flexibility Score: inf
ROOT
ATOM      1  C   UNL     1       1.266 -20.659  -7.172  1.00  0.00     0.062 C 
ATOM      2  C   UNL     1       2.492 -20.623  -8.091  1.00  0.00     0.012 C 
ATOM      3  C   UNL     1       3.724 -20.715  -7.192  1.00  0.00     0.005 C 
ATOM      4  C   UNL     1       3.231 -20.674  -5.733  1.00  0.00    -0.001 C 
ATOM      5  C   UNL     1       1.772 -20.142  -5.791  1.00  0.00    -0.020 C 
ATOM      6  C   UNL     1       1.736 -18.586  -5.794  1.00  0.00     0.008 C 
ATOM      7  C   UNL     1       2.632 -17.937  -4.729  1.00  0.00     0.005 C 
ATOM      8  C   UNL     1       4.107 -18.366  -4.911  1.00  0.00     0.003 C 
ATOM      9  C   UNL     1       4.222 -19.911  -4.801  1.00  0.00     0.000 C 
ATOM     10  C   UNL     1       4.095 -20.381  -3.342  1.00  0.00     0.031 C 
ATOM     11  C   UNL     1       4.938 -19.588  -2.390  1.00  0.00    -0.027 C 
ATOM     12  C   UNL     1       5.313 -18.312  -2.608  1.00  0.00    -0.065 C 
ATOM     13  C   UNL     1       5.165 -17.638  -3.977  1.00  0.00    -0.008 C 
ATOM     14  C   UNL     1       4.792 -16.137  -3.748  1.00  0.00     0.014 C 
ATOM     15  C   UNL     1       5.707 -15.417  -2.744  1.00  0.00     0.033 C 
ATOM     16  C   UNL     1       5.693 -16.134  -1.388  1.00  0.00     0.118 C 
ATOM     17  C   UNL     1       6.120 -17.602  -1.535  1.00  0.00     0.063 C 
ATOM     18  C   UNL     1       6.546 -17.700  -4.692  1.00  0.00     0.016 C 
ATOM     19  C   UNL     1       0.878 -20.666  -4.634  1.00  0.00     0.012 C 
ENDROOT
BRANCH   1  20
ATOM     20  C   UNL     1       0.687 -22.069  -7.135  1.00  0.00     0.133 C 
ATOM     21  C   UNL     1      -0.249 -22.497  -6.043  1.00  0.00     0.088 C 
ATOM     22  O   UNL     1       0.981 -22.877  -8.005  1.00  0.00    -0.300 OA
ENDBRANCH   1  20
BRANCH  16  23
ATOM     23  O   UNL     1       6.563 -15.469  -0.510  1.00  0.00    -0.393 OA
ATOM     24  H   UNL     1       6.094 -15.402   0.363  1.00  0.00     0.210 HD
ENDBRANCH  16  23
TORSDOF 2
ENDMDL
MODEL 7
REMARK VINA RESULT:    -5.652     11.435     14.350
REMARK INTER + INTRA:          -6.105
REMARK INTER:                  -6.325
REMARK INTRA:                   0.220
REMARK UNBOUND:                 0.043
REMARK SMILES CC(=O)[C@@H]1CC[C@H]2[C@@H]3CC=C4C[C@@H](O)CC[C@]4(C)[C@@H]3CC[C@@]12C
REMARK SMILES IDX 4 1 5 2 6 3 7 4 22 5 21 6 20 7 19 8 8 9 9 10 10 11 11 12
REMARK SMILES IDX 17 13 16 14 15 15 13 16 12 17 18 18 23 19 2 20 1 21 3 22
REMARK SMILES IDX 14 23
REMARK H PARENT 14 24
REMARK Flexibility Score: inf
ROOT
ATOM      1  C   UNL     1       4.839 -24.367   6.661  1.00  0.00     0.062 C 
ATOM      2  C   UNL     1       5.567 -25.260   7.672  1.00  0.00     0.012 C 
ATOM      3  C   UNL     1       6.338 -26.304   6.866  1.00  0.00     0.005 C 
ATOM      4  C   UNL     1       5.962 -26.110   5.385  1.00  0.00    -0.001 C 
ATOM      5  C   UNL     1       4.673 -25.243   5.383  1.00  0.00    -0.020 C 
ATOM      6  C   UNL     1       3.398 -26.123   5.539  1.00  0.00     0.008 C 
ATOM      7  C   UNL     1       3.367 -27.350   4.617  1.00  0.00     0.005 C 
ATOM      8  C   UNL     1       4.591 -28.261   4.869  1.00  0.00     0.003 C 
ATOM      9  C   UNL     1       5.900 -27.465   4.613  1.00  0.00     0.000 C 
ATOM     10  C   UNL     1       6.152 -27.265   3.109  1.00  0.00     0.031 C 
ATOM     11  C   UNL     1       5.979 -28.522   2.309  1.00  0.00    -0.027 C 
ATOM     12  C   UNL     1       5.180 -29.541   2.684  1.00  0.00    -0.065 C 
ATOM     13  C   UNL     1       4.598 -29.650   4.098  1.00  0.00    -0.008 C 
ATOM     14  C   UNL     1       3.161 -30.254   3.992  1.00  0.00     0.014 C 
ATOM     15  C   UNL     1       3.087 -31.532   3.139  1.00  0.00     0.033 C 
ATOM     16  C   UNL     1       3.608 -31.266   1.721  1.00  0.00     0.118 C 
ATOM     17  C   UNL     1       5.048 -30.734   1.752  1.00  0.00     0.063 C 
ATOM     18  C   UNL     1       5.491 -30.635   4.907  1.00  0.00     0.016 C 
ATOM     19  C   UNL     1       4.524 -24.360   4.113  1.00  0.00     0.012 C 
ENDROOT
BRANCH   1  20
ATOM     20  C   UNL     1       5.630 -23.083   6.438  1.00  0.00     0.133 C 
ATOM     21  C   UNL     1       7.085 -23.120   6.071  1.00  0.00     0.088 C 
ATOM     22  O   UNL     1       5.084 -21.996   6.556  1.00  0.00    -0.300 OA
ENDBRANCH   1  20
BRANCH  16  23
ATOM     23  O   UNL     1       3.555 -32.460   0.985  1.00  0.00    -0.393 OA
ATOM     24  H   UNL     1       2.664 -32.488   0.546  1.00  0.00     0.210 HD
ENDBRANCH  16  23
TORSDOF 2
ENDMDL
MODEL 8
REMARK VINA RESULT:    -5.575     11.144     12.800
REMARK INTER + INTRA:          -6.022
REMARK INTER:                  -6.080
REMARK INTRA:                   0.058
REMARK UNBOUND:                 0.043
REMARK SMILES CC(=O)[C@@H]1CC[C@H]2[C@@H]3CC=C4C[C@@H](O)CC[C@]4(C)[C@@H]3CC[C@@]12C
REMARK SMILES IDX 4 1 5 2 6 3 7 4 22 5 21 6 20 7 19 8 8 9 9 10 10 11 11 12
REMARK SMILES IDX 17 13 16 14 15 15 13 16 12 17 18 18 23 19 2 20 1 21 3 22
REMARK SMILES IDX 14 23
REMARK H PARENT 14 24
REMARK Flexibility Score: inf
ROOT
ATOM      1  C   UNL     1       6.171 -31.627   2.943  1.00  0.00     0.062 C 
ATOM      2  C   UNL     1       4.869 -31.334   2.191  1.00  0.00     0.012 C 
ATOM      3  C   UNL     1       5.044 -29.976   1.513  1.00  0.00     0.005 C 
ATOM      4  C   UNL     1       6.401 -29.406   1.970  1.00  0.00    -0.001 C 
ATOM      5  C   UNL     1       6.809 -30.232   3.221  1.00  0.00    -0.020 C 
ATOM      6  C   UNL     1       6.181 -29.643   4.519  1.00  0.00     0.008 C 
ATOM      7  C   UNL     1       6.337 -28.122   4.654  1.00  0.00     0.005 C 
ATOM      8  C   UNL     1       5.690 -27.391   3.455  1.00  0.00     0.003 C 
ATOM      9  C   UNL     1       6.361 -27.855   2.133  1.00  0.00     0.000 C 
ATOM     10  C   UNL     1       7.760 -27.238   1.965  1.00  0.00     0.031 C 
ATOM     11  C   UNL     1       7.790 -25.764   2.237  1.00  0.00    -0.027 C 
ATOM     12  C   UNL     1       6.919 -25.136   3.051  1.00  0.00    -0.065 C 
ATOM     13  C   UNL     1       5.634 -25.806   3.550  1.00  0.00    -0.008 C 
ATOM     14  C   UNL     1       5.367 -25.329   5.014  1.00  0.00     0.014 C 
ATOM     15  C   UNL     1       5.437 -23.803   5.192  1.00  0.00     0.033 C 
ATOM     16  C   UNL     1       6.803 -23.269   4.748  1.00  0.00     0.118 C 
ATOM     17  C   UNL     1       7.097 -23.646   3.288  1.00  0.00     0.063 C 
ATOM     18  C   UNL     1       4.461 -25.320   2.651  1.00  0.00     0.016 C 
ATOM     19  C   UNL     1       8.347 -30.346   3.411  1.00  0.00     0.012 C 
ENDROOT
BRANCH   1  20
ATOM     20  C   UNL     1       7.049 -32.559   2.115  1.00  0.00     0.133 C 
ATOM     21  C   UNL     1       7.658 -33.792   2.718  1.00  0.00     0.088 C 
ATOM     22  O   UNL     1       7.268 -32.313   0.938  1.00  0.00    -0.300 OA
ENDBRANCH   1  20
BRANCH  16  23
ATOM     23  O   UNL     1       6.817 -21.873   4.893  1.00  0.00    -0.393 OA
ATOM     24  H   UNL     1       6.015 -21.631   5.427  1.00  0.00     0.210 HD
ENDBRANCH  16  23
TORSDOF 2
ENDMDL
MODEL 9
REMARK VINA RESULT:    -5.572     13.666     15.151
REMARK INTER + INTRA:          -6.018
REMARK INTER:                  -6.059
REMARK INTRA:                   0.041
REMARK UNBOUND:                 0.043
REMARK SMILES CC(=O)[C@@H]1CC[C@H]2[C@@H]3CC=C4C[C@@H](O)CC[C@]4(C)[C@@H]3CC[C@@]12C
REMARK SMILES IDX 4 1 5 2 6 3 7 4 22 5 21 6 20 7 19 8 8 9 9 10 10 11 11 12
REMARK SMILES IDX 17 13 16 14 15 15 13 16 12 17 18 18 23 19 2 20 1 21 3 22
REMARK SMILES IDX 14 23
REMARK H PARENT 14 24
REMARK Flexibility Score: inf
ROOT
ATOM      1  C   UNL     1      -0.276 -29.223   8.130  1.00  0.00     0.062 C 
ATOM      2  C   UNL     1       0.563 -30.167   7.263  1.00  0.00     0.012 C 
ATOM      3  C   UNL     1       2.028 -29.800   7.497  1.00  0.00     0.005 C 
ATOM      4  C   UNL     1       2.049 -28.554   8.402  1.00  0.00    -0.001 C 
ATOM      5  C   UNL     1       0.614 -27.962   8.346  1.00  0.00    -0.020 C 
ATOM      6  C   UNL     1       0.441 -27.010   7.125  1.00  0.00     0.008 C 
ATOM      7  C   UNL     1       1.579 -25.994   6.958  1.00  0.00     0.005 C 
ATOM      8  C   UNL     1       2.941 -26.711   6.796  1.00  0.00     0.003 C 
ATOM      9  C   UNL     1       3.223 -27.590   8.045  1.00  0.00     0.000 C 
ATOM     10  C   UNL     1       3.632 -26.733   9.255  1.00  0.00     0.031 C 
ATOM     11  C   UNL     1       4.672 -25.704   8.925  1.00  0.00    -0.027 C 
ATOM     12  C   UNL     1       4.837 -25.177   7.696  1.00  0.00    -0.065 C 
ATOM     13  C   UNL     1       4.182 -25.782   6.449  1.00  0.00    -0.008 C 
ATOM     14  C   UNL     1       3.775 -24.615   5.492  1.00  0.00     0.014 C 
ATOM     15  C   UNL     1       4.905 -23.606   5.230  1.00  0.00     0.033 C 
ATOM     16  C   UNL     1       5.408 -23.002   6.546  1.00  0.00     0.118 C 
ATOM     17  C   UNL     1       5.890 -24.098   7.509  1.00  0.00     0.063 C 
ATOM     18  C   UNL     1       5.244 -26.663   5.731  1.00  0.00     0.016 C 
ATOM     19  C   UNL     1       0.207 -27.203   9.639  1.00  0.00     0.012 C 
ENDROOT
BRANCH   1  20
ATOM     20  C   UNL     1      -0.682 -29.927   9.419  1.00  0.00     0.133 C 
ATOM     21  C   UNL     1      -2.077 -29.813   9.962  1.00  0.00     0.088 C 
ATOM     22  O   UNL     1       0.131 -30.602  10.033  1.00  0.00    -0.300 OA
ENDBRANCH   1  20
BRANCH  16  23
ATOM     23  O   UNL     1       6.458 -22.113   6.270  1.00  0.00    -0.393 OA
ATOM     24  H   UNL     1       7.183 -22.647   5.848  1.00  0.00     0.210 HD
ENDBRANCH  16  23
TORSDOF 2
ENDMDL
