MODEL 1
REMARK VINA RESULT:    -7.345      0.000      0.000
REMARK INTER + INTRA:         -15.386
REMARK INTER:                 -14.215
REMARK INTRA:                  -1.171
REMARK UNBOUND:                -1.171
REMARK SMILES CCCCCCCCCCCCCCCCCC(=O)[O-]
REMARK SMILES IDX 10 1 11 2 12 3 13 4 14 5 15 6 16 7 17 8 18 9 19 10 20 11
REMARK SMILES IDX 9 12 8 13 7 14 6 15 5 16 4 17 3 18 2 19 1 20
REMARK H PARENT
REMARK Flexibility Score: inf
ROOT
ATOM      1  C   UNL     1      29.639  -3.420  19.442  1.00  0.00     0.000 C 
ENDROOT
BRANCH   1   2
ATOM      2  C   UNL     1      29.221  -2.005  19.004  1.00  0.00     0.000 C 
BRANCH   2   3
ATOM      3  C   UNL     1      28.829  -1.111  20.196  1.00  0.00     0.000 C 
BRANCH   3   4
ATOM      4  C   UNL     1      27.440  -0.458  20.065  1.00  0.00     0.000 C 
BRANCH   4   5
ATOM      5  C   UNL     1      26.295  -1.471  20.241  1.00  0.00     0.000 C 
BRANCH   5   6
ATOM      6  C   UNL     1      24.935  -0.926  19.769  1.00  0.00     0.000 C 
BRANCH   6   7
ATOM      7  C   UNL     1      24.865   0.604  19.609  1.00  0.00     0.006 C 
BRANCH   7   8
ATOM      8  C   UNL     1      23.544   1.080  18.990  1.00  0.00     0.053 C 
BRANCH   8   9
ATOM      9  C   UNL     1      23.799   2.147  17.971  1.00  0.00     0.041 C 
ATOM     10  O   UNL     1      24.730   2.977  18.143  1.00  0.00    -0.550 OA
ATOM     11  O   UNL     1      23.041   2.193  16.809  1.00  0.00    -0.550 OA
ENDBRANCH   8   9
ENDBRANCH   7   8
ENDBRANCH   6   7
ENDBRANCH   5   6
ENDBRANCH   4   5
ENDBRANCH   3   4
ENDBRANCH   2   3
ENDBRANCH   1   2
BRANCH   1  12
ATOM     12  C   UNL     1      28.957  -4.521  18.614  1.00  0.00     0.000 C 
BRANCH  12  13
ATOM     13  C   UNL     1      27.431  -4.352  18.545  1.00  0.00    -0.000 C 
BRANCH  13  14
ATOM     14  C   UNL     1      26.744  -5.108  19.692  1.00  0.00    -0.000 C 
BRANCH  14  15
ATOM     15  C   UNL     1      25.976  -6.353  19.214  1.00  0.00    -0.000 C 
BRANCH  15  16
ATOM     16  C   UNL     1      26.672  -7.699  19.501  1.00  0.00    -0.000 C 
BRANCH  16  17
ATOM     17  C   UNL     1      26.021  -8.549  20.607  1.00  0.00    -0.000 C 
BRANCH  17  18
ATOM     18  C   UNL     1      24.655  -8.006  21.050  1.00  0.00    -0.000 C 
BRANCH  18  19
ATOM     19  C   UNL     1      23.711  -9.150  21.440  1.00  0.00    -0.003 C 
ATOM     20  C   UNL     1      23.143  -8.943  22.841  1.00  0.00     0.004 C 
ENDBRANCH  18  19
ENDBRANCH  17  18
ENDBRANCH  16  17
ENDBRANCH  15  16
ENDBRANCH  14  15
ENDBRANCH  13  14
ENDBRANCH  12  13
ENDBRANCH   1  12
TORSDOF 16
ENDMDL
MODEL 2
REMARK VINA RESULT:    -7.206      3.652      8.035
REMARK INTER + INTRA:         -15.118
REMARK INTER:                 -13.939
REMARK INTRA:                  -1.179
REMARK UNBOUND:                -1.171
REMARK SMILES CCCCCCCCCCCCCCCCCC(=O)[O-]
REMARK SMILES IDX 10 1 11 2 12 3 13 4 14 5 15 6 16 7 17 8 18 9 19 10 20 11
REMARK SMILES IDX 9 12 8 13 7 14 6 15 5 16 4 17 3 18 2 19 1 20
REMARK H PARENT
REMARK Flexibility Score: inf
ROOT
ATOM      1  C   UNL     1      29.535  -3.179  19.513  1.00  0.00     0.000 C 
ENDROOT
BRANCH   1   2
ATOM      2  C   UNL     1      29.243  -4.392  18.612  1.00  0.00     0.000 C 
BRANCH   2   3
ATOM      3  C   UNL     1      27.733  -4.634  18.422  1.00  0.00     0.000 C 
BRANCH   3   4
ATOM      4  C   UNL     1      26.998  -5.071  19.703  1.00  0.00     0.000 C 
BRANCH   4   5
ATOM      5  C   UNL     1      25.825  -6.025  19.411  1.00  0.00     0.000 C 
BRANCH   5   6
ATOM      6  C   UNL     1      26.263  -7.497  19.309  1.00  0.00     0.000 C 
BRANCH   6   7
ATOM      7  C   UNL     1      26.293  -8.264  20.644  1.00  0.00     0.006 C 
BRANCH   7   8
ATOM      8  C   UNL     1      25.080  -9.185  20.831  1.00  0.00     0.053 C 
BRANCH   8   9
ATOM      9  C   UNL     1      23.913  -8.412  21.360  1.00  0.00     0.041 C 
ATOM     10  O   UNL     1      23.062  -7.928  20.568  1.00  0.00    -0.550 OA
ATOM     11  O   UNL     1      23.739  -8.267  22.731  1.00  0.00    -0.550 OA
ENDBRANCH   8   9
ENDBRANCH   7   8
ENDBRANCH   6   7
ENDBRANCH   5   6
ENDBRANCH   4   5
ENDBRANCH   3   4
ENDBRANCH   2   3
ENDBRANCH   1   2
BRANCH   1  12
ATOM     12  C   UNL     1      28.829  -1.901  19.032  1.00  0.00     0.000 C 
BRANCH  12  13
ATOM     13  C   UNL     1      28.876  -0.770  20.070  1.00  0.00    -0.000 C 
BRANCH  13  14
ATOM     14  C   UNL     1      27.485  -0.517  20.669  1.00  0.00    -0.000 C 
BRANCH  14  15
ATOM     15  C   UNL     1      26.452  -1.582  20.257  1.00  0.00    -0.000 C 
BRANCH  15  16
ATOM     16  C   UNL     1      25.104  -1.025  19.757  1.00  0.00    -0.000 C 
BRANCH  16  17
ATOM     17  C   UNL     1      25.011   0.509  19.700  1.00  0.00    -0.000 C 
BRANCH  17  18
ATOM     18  C   UNL     1      23.721   1.006  19.032  1.00  0.00    -0.000 C 
BRANCH  18  19
ATOM     19  C   UNL     1      23.951   2.343  18.318  1.00  0.00    -0.003 C 
ATOM     20  C   UNL     1      23.498   2.275  16.862  1.00  0.00     0.004 C 
ENDBRANCH  18  19
ENDBRANCH  17  18
ENDBRANCH  16  17
ENDBRANCH  15  16
ENDBRANCH  14  15
ENDBRANCH  13  14
ENDBRANCH  12  13
ENDBRANCH   1  12
TORSDOF 16
ENDMDL
MODEL 3
REMARK VINA RESULT:    -7.159      3.644      8.077
REMARK INTER + INTRA:         -15.026
REMARK INTER:                 -13.789
REMARK INTRA:                  -1.237
REMARK UNBOUND:                -1.171
REMARK SMILES CCCCCCCCCCCCCCCCCC(=O)[O-]
REMARK SMILES IDX 10 1 11 2 12 3 13 4 14 5 15 6 16 7 17 8 18 9 19 10 20 11
REMARK SMILES IDX 9 12 8 13 7 14 6 15 5 16 4 17 3 18 2 19 1 20
REMARK H PARENT
REMARK Flexibility Score: inf
ROOT
ATOM      1  C   UNL     1      28.826  -3.202  19.849  1.00  0.00     0.000 C 
ENDROOT
BRANCH   1   2
ATOM      2  C   UNL     1      29.205  -4.098  18.656  1.00  0.00     0.000 C 
BRANCH   2   3
ATOM      3  C   UNL     1      28.064  -5.048  18.247  1.00  0.00     0.000 C 
BRANCH   3   4
ATOM      4  C   UNL     1      26.653  -4.460  18.441  1.00  0.00     0.000 C 
BRANCH   4   5
ATOM      5  C   UNL     1      25.810  -5.270  19.442  1.00  0.00     0.000 C 
BRANCH   5   6
ATOM      6  C   UNL     1      25.857  -6.785  19.175  1.00  0.00     0.000 C 
BRANCH   6   7
ATOM      7  C   UNL     1      26.313  -7.644  20.369  1.00  0.00     0.006 C 
BRANCH   7   8
ATOM      8  C   UNL     1      25.324  -8.766  20.710  1.00  0.00     0.053 C 
BRANCH   8   9
ATOM      9  C   UNL     1      24.067  -8.196  21.290  1.00  0.00     0.041 C 
ATOM     10  O   UNL     1      24.029  -7.844  22.498  1.00  0.00    -0.550 OA
ATOM     11  O   UNL     1      22.952  -8.009  20.483  1.00  0.00    -0.550 OA
ENDBRANCH   8   9
ENDBRANCH   7   8
ENDBRANCH   6   7
ENDBRANCH   5   6
ENDBRANCH   4   5
ENDBRANCH   3   4
ENDBRANCH   2   3
ENDBRANCH   1   2
BRANCH   1  12
ATOM     12  C   UNL     1      29.064  -1.710  19.567  1.00  0.00     0.000 C 
BRANCH  12  13
ATOM     13  C   UNL     1      27.757  -0.907  19.480  1.00  0.00    -0.000 C 
BRANCH  13  14
ATOM     14  C   UNL     1      26.627  -1.614  20.245  1.00  0.00    -0.000 C 
BRANCH  14  15
ATOM     15  C   UNL     1      25.230  -1.086  19.873  1.00  0.00    -0.000 C 
BRANCH  15  16
ATOM     16  C   UNL     1      25.125   0.447  19.741  1.00  0.00    -0.000 C 
BRANCH  16  17
ATOM     17  C   UNL     1      23.766   0.967  19.242  1.00  0.00    -0.000 C 
BRANCH  17  18
ATOM     18  C   UNL     1      23.899   2.133  18.252  1.00  0.00    -0.000 C 
BRANCH  18  19
ATOM     19  C   UNL     1      23.581   1.679  16.823  1.00  0.00    -0.003 C 
ATOM     20  C   UNL     1      22.918   2.797  16.023  1.00  0.00     0.004 C 
ENDBRANCH  18  19
ENDBRANCH  17  18
ENDBRANCH  16  17
ENDBRANCH  15  16
ENDBRANCH  14  15
ENDBRANCH  13  14
ENDBRANCH  12  13
ENDBRANCH   1  12
TORSDOF 16
ENDMDL
MODEL 4
REMARK VINA RESULT:    -7.113      3.095      4.600
REMARK INTER + INTRA:         -14.938
REMARK INTER:                 -13.684
REMARK INTRA:                  -1.254
REMARK UNBOUND:                -1.171
REMARK SMILES CCCCCCCCCCCCCCCCCC(=O)[O-]
REMARK SMILES IDX 10 1 11 2 12 3 13 4 14 5 15 6 16 7 17 8 18 9 19 10 20 11
REMARK SMILES IDX 9 12 8 13 7 14 6 15 5 16 4 17 3 18 2 19 1 20
REMARK H PARENT
REMARK Flexibility Score: inf
ROOT
ATOM      1  C   UNL     1      25.249  -3.189  19.141  1.00  0.00     0.000 C 
ENDROOT
BRANCH   1   2
ATOM      2  C   UNL     1      25.189  -2.110  20.237  1.00  0.00     0.000 C 
BRANCH   2   3
ATOM      3  C   UNL     1      24.699  -0.752  19.700  1.00  0.00     0.000 C 
BRANCH   3   4
ATOM      4  C   UNL     1      25.759   0.365  19.751  1.00  0.00     0.000 C 
BRANCH   4   5
ATOM      5  C   UNL     1      27.073  -0.100  20.404  1.00  0.00     0.000 C 
BRANCH   5   6
ATOM      6  C   UNL     1      28.227  -0.237  19.394  1.00  0.00     0.000 C 
BRANCH   6   7
ATOM      7  C   UNL     1      29.333  -1.230  19.798  1.00  0.00     0.006 C 
BRANCH   7   8
ATOM      8  C   UNL     1      28.873  -2.693  19.737  1.00  0.00     0.053 C 
BRANCH   8   9
ATOM      9  C   UNL     1      29.856  -3.518  18.966  1.00  0.00     0.041 C 
ATOM     10  O   UNL     1      29.452  -4.423  18.189  1.00  0.00    -0.550 OA
ATOM     11  O   UNL     1      31.216  -3.255  19.069  1.00  0.00    -0.550 OA
ENDBRANCH   8   9
ENDBRANCH   7   8
ENDBRANCH   6   7
ENDBRANCH   5   6
ENDBRANCH   4   5
ENDBRANCH   3   4
ENDBRANCH   2   3
ENDBRANCH   1   2
BRANCH   1  12
ATOM     12  C   UNL     1      25.149  -4.614  19.709  1.00  0.00     0.000 C 
BRANCH  12  13
ATOM     13  C   UNL     1      26.506  -5.335  19.744  1.00  0.00    -0.000 C 
BRANCH  13  14
ATOM     14  C   UNL     1      26.504  -6.553  18.807  1.00  0.00    -0.000 C 
BRANCH  14  15
ATOM     15  C   UNL     1      26.752  -7.879  19.548  1.00  0.00    -0.000 C 
BRANCH  15  16
ATOM     16  C   UNL     1      25.743  -8.199  20.670  1.00  0.00    -0.000 C 
BRANCH  16  17
ATOM     17  C   UNL     1      24.267  -7.966  20.307  1.00  0.00    -0.000 C 
BRANCH  17  18
ATOM     18  C   UNL     1      23.302  -8.791  21.171  1.00  0.00    -0.000 C 
BRANCH  18  19
ATOM     19  C   UNL     1      23.689  -8.715  22.652  1.00  0.00    -0.003 C 
ATOM     20  C   UNL     1      22.601  -9.317  23.538  1.00  0.00     0.004 C 
ENDBRANCH  18  19
ENDBRANCH  17  18
ENDBRANCH  16  17
ENDBRANCH  15  16
ENDBRANCH  14  15
ENDBRANCH  13  14
ENDBRANCH  12  13
ENDBRANCH   1  12
TORSDOF 16
ENDMDL
MODEL 5
REMARK VINA RESULT:    -7.066      1.007      1.578
REMARK INTER + INTRA:         -14.847
REMARK INTER:                 -13.229
REMARK INTRA:                  -1.618
REMARK UNBOUND:                -1.171
REMARK SMILES CCCCCCCCCCCCCCCCCC(=O)[O-]
REMARK SMILES IDX 10 1 11 2 12 3 13 4 14 5 15 6 16 7 17 8 18 9 19 10 20 11
REMARK SMILES IDX 9 12 8 13 7 14 6 15 5 16 4 17 3 18 2 19 1 20
REMARK H PARENT
REMARK Flexibility Score: inf
ROOT
ATOM      1  C   UNL     1      29.968  -2.960  19.198  1.00  0.00     0.000 C 
ENDROOT
BRANCH   1   2
ATOM      2  C   UNL     1      29.110  -2.021  20.065  1.00  0.00     0.000 C 
BRANCH   2   3
ATOM      3  C   UNL     1      28.867  -0.657  19.392  1.00  0.00     0.000 C 
BRANCH   3   4
ATOM      4  C   UNL     1      27.402  -0.182  19.438  1.00  0.00     0.000 C 
BRANCH   4   5
ATOM      5  C   UNL     1      26.460  -1.243  20.035  1.00  0.00     0.000 C 
BRANCH   5   6
ATOM      6  C   UNL     1      24.974  -0.852  19.928  1.00  0.00     0.000 C 
BRANCH   6   7
ATOM      7  C   UNL     1      24.708   0.652  19.732  1.00  0.00     0.006 C 
BRANCH   7   8
ATOM      8  C   UNL     1      23.588   0.933  18.722  1.00  0.00     0.053 C 
BRANCH   8   9
ATOM      9  C   UNL     1      23.915   2.140  17.900  1.00  0.00     0.041 C 
ATOM     10  O   UNL     1      24.872   2.890  18.228  1.00  0.00    -0.550 OA
ATOM     11  O   UNL     1      23.195   2.410  16.743  1.00  0.00    -0.550 OA
ENDBRANCH   8   9
ENDBRANCH   7   8
ENDBRANCH   6   7
ENDBRANCH   5   6
ENDBRANCH   4   5
ENDBRANCH   3   4
ENDBRANCH   2   3
ENDBRANCH   1   2
BRANCH   1  12
ATOM     12  C   UNL     1      29.163  -4.140  18.630  1.00  0.00     0.000 C 
BRANCH  12  13
ATOM     13  C   UNL     1      27.897  -4.441  19.447  1.00  0.00    -0.000 C 
BRANCH  13  14
ATOM     14  C   UNL     1      26.825  -5.108  18.571  1.00  0.00    -0.000 C 
BRANCH  14  15
ATOM     15  C   UNL     1      25.416  -4.537  18.809  1.00  0.00    -0.000 C 
BRANCH  15  16
ATOM     16  C   UNL     1      24.541  -5.345  19.789  1.00  0.00    -0.000 C 
BRANCH  16  17
ATOM     17  C   UNL     1      24.432  -6.848  19.482  1.00  0.00    -0.000 C 
BRANCH  17  18
ATOM     18  C   UNL     1      24.309  -7.709  20.747  1.00  0.00    -0.000 C 
BRANCH  18  19
ATOM     19  C   UNL     1      25.373  -8.813  20.766  1.00  0.00    -0.003 C 
ATOM     20  C   UNL     1      26.721  -8.288  20.278  1.00  0.00     0.004 C 
ENDBRANCH  18  19
ENDBRANCH  17  18
ENDBRANCH  16  17
ENDBRANCH  15  16
ENDBRANCH  14  15
ENDBRANCH  13  14
ENDBRANCH  12  13
ENDBRANCH   1  12
TORSDOF 16
ENDMDL
MODEL 6
REMARK VINA RESULT:    -6.915      4.028      7.874
REMARK INTER + INTRA:         -14.555
REMARK INTER:                 -13.151
REMARK INTRA:                  -1.404
REMARK UNBOUND:                -1.171
REMARK SMILES CCCCCCCCCCCCCCCCCC(=O)[O-]
REMARK SMILES IDX 10 1 11 2 12 3 13 4 14 5 15 6 16 7 17 8 18 9 19 10 20 11
REMARK SMILES IDX 9 12 8 13 7 14 6 15 5 16 4 17 3 18 2 19 1 20
REMARK H PARENT
REMARK Flexibility Score: inf
ROOT
ATOM      1  C   UNL     1      27.906  -5.149  18.274  1.00  0.00     0.000 C 
ENDROOT
BRANCH   1   2
ATOM      2  C   UNL     1      26.707  -4.211  18.499  1.00  0.00     0.000 C 
BRANCH   2   3
ATOM      3  C   UNL     1      25.826  -4.653  19.683  1.00  0.00     0.000 C 
BRANCH   3   4
ATOM      4  C   UNL     1      24.455  -5.223  19.271  1.00  0.00     0.000 C 
BRANCH   4   5
ATOM      5  C   UNL     1      24.385  -6.753  19.422  1.00  0.00     0.000 C 
BRANCH   5   6
ATOM      6  C   UNL     1      25.665  -7.354  20.029  1.00  0.00     0.000 C 
BRANCH   6   7
ATOM      7  C   UNL     1      25.456  -8.636  20.856  1.00  0.00     0.006 C 
BRANCH   7   8
ATOM      8  C   UNL     1      23.976  -8.939  21.125  1.00  0.00     0.053 C 
BRANCH   8   9
ATOM      9  C   UNL     1      23.609  -8.553  22.524  1.00  0.00     0.041 C 
ATOM     10  O   UNL     1      23.824  -7.383  22.935  1.00  0.00    -0.550 OA
ATOM     11  O   UNL     1      22.983  -9.472  23.356  1.00  0.00    -0.550 OA
ENDBRANCH   8   9
ENDBRANCH   7   8
ENDBRANCH   6   7
ENDBRANCH   5   6
ENDBRANCH   4   5
ENDBRANCH   3   4
ENDBRANCH   2   3
ENDBRANCH   1   2
BRANCH   1  12
ATOM     12  C   UNL     1      29.250  -4.480  18.603  1.00  0.00     0.000 C 
BRANCH  12  13
ATOM     13  C   UNL     1      29.137  -3.452  19.740  1.00  0.00    -0.000 C 
BRANCH  13  14
ATOM     14  C   UNL     1      29.562  -2.056  19.260  1.00  0.00    -0.000 C 
BRANCH  14  15
ATOM     15  C   UNL     1      28.940  -0.921  20.093  1.00  0.00    -0.000 C 
BRANCH  15  16
ATOM     16  C   UNL     1      27.804  -0.146  19.395  1.00  0.00    -0.000 C 
BRANCH  16  17
ATOM     17  C   UNL     1      26.519   0.018  20.224  1.00  0.00    -0.000 C 
BRANCH  17  18
ATOM     18  C   UNL     1      25.364  -0.856  19.715  1.00  0.00    -0.000 C 
BRANCH  18  19
ATOM     19  C   UNL     1      24.067  -0.045  19.608  1.00  0.00    -0.003 C 
ATOM     20  C   UNL     1      24.314   1.303  18.937  1.00  0.00     0.004 C 
ENDBRANCH  18  19
ENDBRANCH  17  18
ENDBRANCH  16  17
ENDBRANCH  15  16
ENDBRANCH  14  15
ENDBRANCH  13  14
ENDBRANCH  12  13
ENDBRANCH   1  12
TORSDOF 16
ENDMDL
MODEL 7
REMARK VINA RESULT:    -6.708      4.250      8.567
REMARK INTER + INTRA:         -14.154
REMARK INTER:                 -12.852
REMARK INTRA:                  -1.302
REMARK UNBOUND:                -1.171
REMARK SMILES CCCCCCCCCCCCCCCCCC(=O)[O-]
REMARK SMILES IDX 10 1 11 2 12 3 13 4 14 5 15 6 16 7 17 8 18 9 19 10 20 11
REMARK SMILES IDX 9 12 8 13 7 14 6 15 5 16 4 17 3 18 2 19 1 20
REMARK H PARENT
REMARK Flexibility Score: inf
ROOT
ATOM      1  C   UNL     1      25.890  -3.135  19.887  1.00  0.00     0.000 C 
ENDROOT
BRANCH   1   2
ATOM      2  C   UNL     1      25.199  -4.437  19.446  1.00  0.00     0.000 C 
BRANCH   2   3
ATOM      3  C   UNL     1      26.179  -5.434  18.797  1.00  0.00     0.000 C 
BRANCH   3   4
ATOM      4  C   UNL     1      26.899  -6.355  19.801  1.00  0.00     0.000 C 
BRANCH   4   5
ATOM      5  C   UNL     1      26.800  -7.840  19.410  1.00  0.00     0.000 C 
BRANCH   5   6
ATOM      6  C   UNL     1      26.152  -8.706  20.506  1.00  0.00     0.000 C 
BRANCH   6   7
ATOM      7  C   UNL     1      24.765  -8.232  20.977  1.00  0.00     0.006 C 
BRANCH   7   8
ATOM      8  C   UNL     1      23.856  -9.388  21.414  1.00  0.00     0.053 C 
BRANCH   8   9
ATOM      9  C   UNL     1      23.300  -9.129  22.780  1.00  0.00     0.041 C 
ATOM     10  O   UNL     1      23.232  -7.952  23.223  1.00  0.00    -0.550 OA
ATOM     11  O   UNL     1      22.814 -10.182  23.543  1.00  0.00    -0.550 OA
ENDBRANCH   8   9
ENDBRANCH   7   8
ENDBRANCH   6   7
ENDBRANCH   5   6
ENDBRANCH   4   5
ENDBRANCH   3   4
ENDBRANCH   2   3
ENDBRANCH   1   2
BRANCH   1  12
ATOM     12  C   UNL     1      27.121  -2.800  19.030  1.00  0.00     0.000 C 
BRANCH  12  13
ATOM     13  C   UNL     1      28.422  -2.768  19.847  1.00  0.00    -0.000 C 
BRANCH  13  14
ATOM     14  C   UNL     1      28.757  -1.336  20.291  1.00  0.00    -0.000 C 
BRANCH  14  15
ATOM     15  C   UNL     1      28.189  -0.266  19.341  1.00  0.00    -0.000 C 
BRANCH  15  16
ATOM     16  C   UNL     1      27.428   0.883  20.032  1.00  0.00    -0.000 C 
BRANCH  16  17
ATOM     17  C   UNL     1      26.125   1.315  19.337  1.00  0.00    -0.000 C 
BRANCH  17  18
ATOM     18  C   UNL     1      24.911   0.483  19.775  1.00  0.00    -0.000 C 
BRANCH  18  19
ATOM     19  C   UNL     1      23.654   0.898  19.002  1.00  0.00    -0.003 C 
ATOM     20  C   UNL     1      23.865   2.222  18.274  1.00  0.00     0.004 C 
ENDBRANCH  18  19
ENDBRANCH  17  18
ENDBRANCH  16  17
ENDBRANCH  15  16
ENDBRANCH  14  15
ENDBRANCH  13  14
ENDBRANCH  12  13
ENDBRANCH   1  12
TORSDOF 16
ENDMDL
MODEL 8
REMARK VINA RESULT:    -6.499      3.495      8.086
REMARK INTER + INTRA:         -13.749
REMARK INTER:                 -12.298
REMARK INTRA:                  -1.451
REMARK UNBOUND:                -1.171
REMARK SMILES CCCCCCCCCCCCCCCCCC(=O)[O-]
REMARK SMILES IDX 10 1 11 2 12 3 13 4 14 5 15 6 16 7 17 8 18 9 19 10 20 11
REMARK SMILES IDX 9 12 8 13 7 14 6 15 5 16 4 17 3 18 2 19 1 20
REMARK H PARENT
REMARK Flexibility Score: inf
ROOT
ATOM      1  C   UNL     1      25.603  -2.595  19.717  1.00  0.00     0.000 C 
ENDROOT
BRANCH   1   2
ATOM      2  C   UNL     1      25.513  -4.096  19.387  1.00  0.00     0.000 C 
BRANCH   2   3
ATOM      3  C   UNL     1      26.432  -4.498  18.217  1.00  0.00     0.000 C 
BRANCH   3   4
ATOM      4  C   UNL     1      27.409  -5.643  18.547  1.00  0.00     0.000 C 
BRANCH   4   5
ATOM      5  C   UNL     1      26.970  -6.454  19.779  1.00  0.00     0.000 C 
BRANCH   5   6
ATOM      6  C   UNL     1      26.848  -7.962  19.490  1.00  0.00     0.000 C 
BRANCH   6   7
ATOM      7  C   UNL     1      25.978  -8.749  20.487  1.00  0.00     0.006 C 
BRANCH   7   8
ATOM      8  C   UNL     1      25.029  -7.850  21.291  1.00  0.00     0.053 C 
BRANCH   8   9
ATOM      9  C   UNL     1      23.694  -7.767  20.620  1.00  0.00     0.041 C 
ATOM     10  O   UNL     1      22.801  -8.615  20.880  1.00  0.00    -0.550 OA
ATOM     11  O   UNL     1      23.420  -6.724  19.744  1.00  0.00    -0.550 OA
ENDBRANCH   8   9
ENDBRANCH   7   8
ENDBRANCH   6   7
ENDBRANCH   5   6
ENDBRANCH   4   5
ENDBRANCH   3   4
ENDBRANCH   2   3
ENDBRANCH   1   2
BRANCH   1  12
ATOM     12  C   UNL     1      26.722  -2.276  20.720  1.00  0.00     0.000 C 
BRANCH  12  13
ATOM     13  C   UNL     1      28.111  -2.231  20.065  1.00  0.00    -0.000 C 
BRANCH  13  14
ATOM     14  C   UNL     1      28.384  -0.849  19.453  1.00  0.00    -0.000 C 
BRANCH  14  15
ATOM     15  C   UNL     1      27.766   0.301  20.270  1.00  0.00    -0.000 C 
BRANCH  15  16
ATOM     16  C   UNL     1      27.472   1.586  19.469  1.00  0.00    -0.000 C 
BRANCH  16  17
ATOM     17  C   UNL     1      26.087   1.637  18.802  1.00  0.00    -0.000 C 
BRANCH  17  18
ATOM     18  C   UNL     1      25.027   0.826  19.562  1.00  0.00    -0.000 C 
BRANCH  18  19
ATOM     19  C   UNL     1      23.615   1.177  19.079  1.00  0.00    -0.003 C 
ATOM     20  C   UNL     1      23.649   2.306  18.053  1.00  0.00     0.004 C 
ENDBRANCH  18  19
ENDBRANCH  17  18
ENDBRANCH  16  17
ENDBRANCH  15  16
ENDBRANCH  14  15
ENDBRANCH  13  14
ENDBRANCH  12  13
ENDBRANCH   1  12
TORSDOF 16
ENDMDL
MODEL 9
REMARK VINA RESULT:    -6.396      3.906      7.983
REMARK INTER + INTRA:         -13.549
REMARK INTER:                 -12.443
REMARK INTRA:                  -1.107
REMARK UNBOUND:                -1.171
REMARK SMILES CCCCCCCCCCCCCCCCCC(=O)[O-]
REMARK SMILES IDX 10 1 11 2 12 3 13 4 14 5 15 6 16 7 17 8 18 9 19 10 20 11
REMARK SMILES IDX 9 12 8 13 7 14 6 15 5 16 4 17 3 18 2 19 1 20
REMARK H PARENT
REMARK Flexibility Score: inf
ROOT
ATOM      1  C   UNL     1      25.041  -3.114  19.454  1.00  0.00     0.000 C 
ENDROOT
BRANCH   1   2
ATOM      2  C   UNL     1      26.149  -4.142  19.743  1.00  0.00     0.000 C 
BRANCH   2   3
ATOM      3  C   UNL     1      26.884  -4.591  18.466  1.00  0.00     0.000 C 
BRANCH   3   4
ATOM      4  C   UNL     1      27.722  -5.873  18.638  1.00  0.00     0.000 C 
BRANCH   4   5
ATOM      5  C   UNL     1      26.874  -7.151  18.512  1.00  0.00     0.000 C 
BRANCH   5   6
ATOM      6  C   UNL     1      26.609  -7.830  19.868  1.00  0.00     0.000 C 
BRANCH   6   7
ATOM      7  C   UNL     1      25.188  -7.635  20.429  1.00  0.00     0.006 C 
BRANCH   7   8
ATOM      8  C   UNL     1      24.803  -8.702  21.463  1.00  0.00     0.053 C 
BRANCH   8   9
ATOM      9  C   UNL     1      23.339  -8.630  21.767  1.00  0.00     0.041 C 
ATOM     10  O   UNL     1      22.918  -8.898  22.922  1.00  0.00    -0.550 OA
ATOM     11  O   UNL     1      22.445  -8.220  20.786  1.00  0.00    -0.550 OA
ENDBRANCH   8   9
ENDBRANCH   7   8
ENDBRANCH   6   7
ENDBRANCH   5   6
ENDBRANCH   4   5
ENDBRANCH   3   4
ENDBRANCH   2   3
ENDBRANCH   1   2
BRANCH   1  12
ATOM     12  C   UNL     1      25.270  -1.778  20.180  1.00  0.00     0.000 C 
BRANCH  12  13
ATOM     13  C   UNL     1      24.444  -0.629  19.581  1.00  0.00    -0.000 C 
BRANCH  13  14
ATOM     14  C   UNL     1      25.170   0.714  19.751  1.00  0.00    -0.000 C 
BRANCH  14  15
ATOM     15  C   UNL     1      26.579   0.562  20.353  1.00  0.00    -0.000 C 
BRANCH  15  16
ATOM     16  C   UNL     1      27.620  -0.088  19.419  1.00  0.00    -0.000 C 
BRANCH  16  17
ATOM     17  C   UNL     1      28.893  -0.600  20.116  1.00  0.00    -0.000 C 
BRANCH  17  18
ATOM     18  C   UNL     1      29.020  -2.130  20.080  1.00  0.00    -0.000 C 
BRANCH  18  19
ATOM     19  C   UNL     1      29.713  -2.593  18.793  1.00  0.00    -0.003 C 
ATOM     20  C   UNL     1      30.893  -3.510  19.101  1.00  0.00     0.004 C 
ENDBRANCH  18  19
ENDBRANCH  17  18
ENDBRANCH  16  17
ENDBRANCH  15  16
ENDBRANCH  14  15
ENDBRANCH  13  14
ENDBRANCH  12  13
ENDBRANCH   1  12
TORSDOF 16
ENDMDL
