MODEL 1
REMARK VINA RESULT:    -4.829      0.000      0.000
REMARK INTER + INTRA:          -5.626
REMARK INTER:                  -5.393
REMARK INTRA:                  -0.233
REMARK UNBOUND:                -0.233
REMARK SMILES O=C([O-])c1ccccc1C(=O)[O-]
REMARK SMILES IDX 4 1 9 2 5 3 8 4 6 5 7 6 2 7 1 8 3 9 10 10 11 11 12 12
REMARK H PARENT
REMARK Flexibility Score: inf
ROOT
ATOM      1  C   UNL     1      24.690  42.820  84.900  1.00  0.00     0.006 A 
ATOM      2  C   UNL     1      23.470  43.068  85.587  1.00  0.00     0.006 A 
ATOM      3  C   UNL     1      24.710  41.870  83.861  1.00  0.00     0.010 A 
ATOM      4  C   UNL     1      22.302  42.404  85.170  1.00  0.00     0.010 A 
ATOM      5  C   UNL     1      23.543  41.207  83.477  1.00  0.00     0.001 A 
ATOM      6  C   UNL     1      22.340  41.482  84.123  1.00  0.00     0.001 A 
ENDROOT
BRANCH   1   7
ATOM      7  C   UNL     1      25.933  43.576  85.180  1.00  0.00     0.072 C 
ATOM      8  O   UNL     1      26.133  44.693  84.634  1.00  0.00    -0.545 OA
ATOM      9  O   UNL     1      26.863  43.096  86.096  1.00  0.00    -0.545 OA
ENDBRANCH   1   7
BRANCH   2  10
ATOM     10  C   UNL     1      23.390  43.944  86.779  1.00  0.00     0.072 C 
ATOM     11  O   UNL     1      23.613  43.475  87.926  1.00  0.00    -0.545 OA
ATOM     12  O   UNL     1      23.136  45.304  86.643  1.00  0.00    -0.545 OA
ENDBRANCH   2  10
TORSDOF 2
ENDMDL
MODEL 2
REMARK VINA RESULT:    -4.804      0.069      3.127
REMARK INTER + INTRA:          -5.599
REMARK INTER:                  -5.365
REMARK INTRA:                  -0.234
REMARK UNBOUND:                -0.233
REMARK SMILES O=C([O-])c1ccccc1C(=O)[O-]
REMARK SMILES IDX 4 1 9 2 5 3 8 4 6 5 7 6 2 7 1 8 3 9 10 10 11 11 12 12
REMARK H PARENT
REMARK Flexibility Score: inf
ROOT
ATOM      1  C   UNL     1      23.516  43.091  85.601  1.00  0.00     0.006 A 
ATOM      2  C   UNL     1      24.720  42.818  84.896  1.00  0.00     0.006 A 
ATOM      3  C   UNL     1      22.327  42.455  85.198  1.00  0.00     0.010 A 
ATOM      4  C   UNL     1      24.704  41.873  83.853  1.00  0.00     0.010 A 
ATOM      5  C   UNL     1      22.330  41.536  84.147  1.00  0.00     0.001 A 
ATOM      6  C   UNL     1      23.518  41.237  83.484  1.00  0.00     0.001 A 
ENDROOT
BRANCH   1   7
ATOM      7  C   UNL     1      23.470  43.963  86.797  1.00  0.00     0.072 C 
ATOM      8  O   UNL     1      23.686  43.482  87.942  1.00  0.00    -0.545 OA
ATOM      9  O   UNL     1      23.255  45.330  86.669  1.00  0.00    -0.545 OA
ENDBRANCH   1   7
BRANCH   2  10
ATOM     10  C   UNL     1      25.982  43.546  85.162  1.00  0.00     0.072 C 
ATOM     11  O   UNL     1      26.206  44.652  84.603  1.00  0.00    -0.545 OA
ATOM     12  O   UNL     1      26.904  43.054  86.079  1.00  0.00    -0.545 OA
ENDBRANCH   2  10
TORSDOF 2
ENDMDL
MODEL 3
REMARK VINA RESULT:    -3.639      1.229      1.720
REMARK INTER + INTRA:          -4.298
REMARK INTER:                  -4.072
REMARK INTRA:                  -0.226
REMARK UNBOUND:                -0.233
REMARK SMILES O=C([O-])c1ccccc1C(=O)[O-]
REMARK SMILES IDX 4 1 9 2 5 3 8 4 6 5 7 6 2 7 1 8 3 9 10 10 11 11 12 12
REMARK H PARENT
REMARK Flexibility Score: inf
ROOT
ATOM      1  C   UNL     1      25.032  43.952  85.821  1.00  0.00     0.006 A 
ATOM      2  C   UNL     1      23.682  43.876  86.261  1.00  0.00     0.006 A 
ATOM      3  C   UNL     1      25.481  43.057  84.831  1.00  0.00     0.010 A 
ATOM      4  C   UNL     1      22.814  42.951  85.651  1.00  0.00     0.010 A 
ATOM      5  C   UNL     1      24.608  42.133  84.255  1.00  0.00     0.001 A 
ATOM      6  C   UNL     1      23.275  42.088  84.656  1.00  0.00     0.001 A 
ENDROOT
BRANCH   1   7
ATOM      7  C   UNL     1      25.974  44.987  86.306  1.00  0.00     0.072 C 
ATOM      8  O   UNL     1      26.837  44.699  87.178  1.00  0.00    -0.545 OA
ATOM      9  O   UNL     1      25.964  46.266  85.763  1.00  0.00    -0.545 OA
ENDBRANCH   1   7
BRANCH   2  10
ATOM     10  C   UNL     1      23.166  44.682  87.391  1.00  0.00     0.072 C 
ATOM     11  O   UNL     1      23.224  44.233  88.567  1.00  0.00    -0.545 OA
ATOM     12  O   UNL     1      22.674  45.965  87.181  1.00  0.00    -0.545 OA
ENDBRANCH   2  10
TORSDOF 2
ENDMDL
MODEL 4
REMARK VINA RESULT:    -3.558      2.212      3.616
REMARK INTER + INTRA:          -4.207
REMARK INTER:                  -4.030
REMARK INTRA:                  -0.177
REMARK UNBOUND:                -0.233
REMARK SMILES O=C([O-])c1ccccc1C(=O)[O-]
REMARK SMILES IDX 4 1 9 2 5 3 8 4 6 5 7 6 2 7 1 8 3 9 10 10 11 11 12 12
REMARK H PARENT
REMARK Flexibility Score: inf
ROOT
ATOM      1  C   UNL     1      22.765  42.403  85.422  1.00  0.00     0.006 A 
ATOM      2  C   UNL     1      23.626  43.390  85.974  1.00  0.00     0.006 A 
ATOM      3  C   UNL     1      21.762  41.837  86.233  1.00  0.00     0.010 A 
ATOM      4  C   UNL     1      23.414  43.821  87.297  1.00  0.00     0.010 A 
ATOM      5  C   UNL     1      21.584  42.265  87.550  1.00  0.00     0.001 A 
ATOM      6  C   UNL     1      22.400  43.262  88.077  1.00  0.00     0.001 A 
ENDROOT
BRANCH   1   7
ATOM      7  C   UNL     1      22.826  41.993  84.000  1.00  0.00     0.072 C 
ATOM      8  O   UNL     1      22.050  42.515  83.155  1.00  0.00    -0.545 OA
ATOM      9  O   UNL     1      23.781  41.081  83.566  1.00  0.00    -0.545 OA
ENDBRANCH   1   7
BRANCH   2  10
ATOM     10  C   UNL     1      24.791  43.934  85.238  1.00  0.00     0.072 C 
ATOM     11  O   UNL     1      24.787  45.130  84.843  1.00  0.00    -0.545 OA
ATOM     12  O   UNL     1      25.925  43.158  85.033  1.00  0.00    -0.545 OA
ENDBRANCH   2  10
TORSDOF 2
ENDMDL
MODEL 5
REMARK VINA RESULT:    -3.473      2.244      3.248
REMARK INTER + INTRA:          -4.112
REMARK INTER:                  -3.953
REMARK INTRA:                  -0.159
REMARK UNBOUND:                -0.233
REMARK SMILES O=C([O-])c1ccccc1C(=O)[O-]
REMARK SMILES IDX 4 1 9 2 5 3 8 4 6 5 7 6 2 7 1 8 3 9 10 10 11 11 12 12
REMARK H PARENT
REMARK Flexibility Score: inf
ROOT
ATOM      1  C   UNL     1      23.524  43.260  86.047  1.00  0.00     0.006 A 
ATOM      2  C   UNL     1      22.682  42.304  85.415  1.00  0.00     0.006 A 
ATOM      3  C   UNL     1      23.244  43.649  87.372  1.00  0.00     0.010 A 
ATOM      4  C   UNL     1      21.630  41.726  86.149  1.00  0.00     0.010 A 
ATOM      5  C   UNL     1      22.182  43.077  88.074  1.00  0.00     0.001 A 
ATOM      6  C   UNL     1      21.384  42.110  87.468  1.00  0.00     0.001 A 
ENDROOT
BRANCH   1   7
ATOM      7  C   UNL     1      24.734  43.814  85.398  1.00  0.00     0.072 C 
ATOM      8  O   UNL     1      24.726  44.986  84.935  1.00  0.00    -0.545 OA
ATOM      9  O   UNL     1      25.911  43.076  85.347  1.00  0.00    -0.545 OA
ENDBRANCH   1   7
BRANCH   2  10
ATOM     10  C   UNL     1      22.819  41.944  83.985  1.00  0.00     0.072 C 
ATOM     11  O   UNL     1      23.714  41.137  83.618  1.00  0.00    -0.545 OA
ATOM     12  O   UNL     1      21.925  42.436  83.041  1.00  0.00    -0.545 OA
ENDBRANCH   2  10
TORSDOF 2
ENDMDL
MODEL 6
REMARK VINA RESULT:    -3.394      1.858      3.671
REMARK INTER + INTRA:          -4.024
REMARK INTER:                  -3.968
REMARK INTRA:                  -0.056
REMARK UNBOUND:                -0.233
REMARK SMILES O=C([O-])c1ccccc1C(=O)[O-]
REMARK SMILES IDX 4 1 9 2 5 3 8 4 6 5 7 6 2 7 1 8 3 9 10 10 11 11 12 12
REMARK H PARENT
REMARK Flexibility Score: inf
ROOT
ATOM      1  C   UNL     1      23.548  42.709  85.454  1.00  0.00     0.006 A 
ATOM      2  C   UNL     1      24.493  43.608  86.021  1.00  0.00     0.006 A 
ATOM      3  C   UNL     1      22.379  42.401  86.176  1.00  0.00     0.010 A 
ATOM      4  C   UNL     1      24.206  44.214  87.258  1.00  0.00     0.010 A 
ATOM      5  C   UNL     1      22.124  42.997  87.412  1.00  0.00     0.001 A 
ATOM      6  C   UNL     1      23.031  43.911  87.946  1.00  0.00     0.001 A 
ENDROOT
BRANCH   1   7
ATOM      7  C   UNL     1      23.703  42.136  84.098  1.00  0.00     0.072 C 
ATOM      8  O   UNL     1      24.649  41.342  83.849  1.00  0.00    -0.545 OA
ATOM      9  O   UNL     1      22.774  42.414  83.101  1.00  0.00    -0.545 OA
ENDBRANCH   1   7
BRANCH   2  10
ATOM     10  C   UNL     1      25.809  43.879  85.397  1.00  0.00     0.072 C 
ATOM     11  O   UNL     1      25.951  44.860  84.619  1.00  0.00    -0.545 OA
ATOM     12  O   UNL     1      26.916  43.100  85.710  1.00  0.00    -0.545 OA
ENDBRANCH   2  10
TORSDOF 2
ENDMDL
MODEL 7
REMARK VINA RESULT:    -3.187      2.113      3.408
REMARK INTER + INTRA:          -3.793
REMARK INTER:                  -3.833
REMARK INTRA:                   0.041
REMARK UNBOUND:                -0.233
REMARK SMILES O=C([O-])c1ccccc1C(=O)[O-]
REMARK SMILES IDX 4 1 9 2 5 3 8 4 6 5 7 6 2 7 1 8 3 9 10 10 11 11 12 12
REMARK H PARENT
REMARK Flexibility Score: inf
ROOT
ATOM      1  C   UNL     1      24.306  43.193  85.614  1.00  0.00     0.006 A 
ATOM      2  C   UNL     1      24.324  44.073  86.731  1.00  0.00     0.006 A 
ATOM      3  C   UNL     1      25.528  42.781  85.047  1.00  0.00     0.010 A 
ATOM      4  C   UNL     1      25.562  44.458  87.279  1.00  0.00     0.010 A 
ATOM      5  C   UNL     1      26.744  43.193  85.595  1.00  0.00     0.001 A 
ATOM      6  C   UNL     1      26.761  44.020  86.715  1.00  0.00     0.001 A 
ENDROOT
BRANCH   1   7
ATOM      7  C   UNL     1      23.054  42.627  85.062  1.00  0.00     0.072 C 
ATOM      8  O   UNL     1      22.868  42.594  83.816  1.00  0.00    -0.545 OA
ATOM      9  O   UNL     1      22.098  42.068  85.903  1.00  0.00    -0.545 OA
ENDBRANCH   1   7
BRANCH   2  10
ATOM     10  C   UNL     1      23.091  44.665  87.300  1.00  0.00     0.072 C 
ATOM     11  O   UNL     1      22.577  45.686  86.771  1.00  0.00    -0.545 OA
ATOM     12  O   UNL     1      22.449  44.066  88.378  1.00  0.00    -0.545 OA
ENDBRANCH   2  10
TORSDOF 2
ENDMDL
MODEL 8
REMARK VINA RESULT:    -3.050      2.396      3.636
REMARK INTER + INTRA:          -3.639
REMARK INTER:                  -3.504
REMARK INTRA:                  -0.136
REMARK UNBOUND:                -0.233
REMARK SMILES O=C([O-])c1ccccc1C(=O)[O-]
REMARK SMILES IDX 4 1 9 2 5 3 8 4 6 5 7 6 2 7 1 8 3 9 10 10 11 11 12 12
REMARK H PARENT
REMARK Flexibility Score: inf
ROOT
ATOM      1  C   UNL     1      24.477  44.152  85.791  1.00  0.00     0.006 A 
ATOM      2  C   UNL     1      24.727  45.531  86.028  1.00  0.00     0.006 A 
ATOM      3  C   UNL     1      25.420  43.400  85.064  1.00  0.00     0.010 A 
ATOM      4  C   UNL     1      25.938  46.094  85.583  1.00  0.00     0.010 A 
ATOM      5  C   UNL     1      26.605  43.984  84.614  1.00  0.00     0.001 A 
ATOM      6  C   UNL     1      26.868  45.325  84.883  1.00  0.00     0.001 A 
ENDROOT
BRANCH   1   7
ATOM      7  C   UNL     1      23.297  43.447  86.343  1.00  0.00     0.072 C 
ATOM      8  O   UNL     1      22.470  42.893  85.571  1.00  0.00    -0.545 OA
ATOM      9  O   UNL     1      23.121  43.330  87.717  1.00  0.00    -0.545 OA
ENDBRANCH   1   7
BRANCH   2  10
ATOM     10  C   UNL     1      23.729  46.425  86.660  1.00  0.00     0.072 C 
ATOM     11  O   UNL     1      23.742  46.608  87.906  1.00  0.00    -0.545 OA
ATOM     12  O   UNL     1      22.812  47.124  85.884  1.00  0.00    -0.545 OA
ENDBRANCH   2  10
TORSDOF 2
ENDMDL
MODEL 9
REMARK VINA RESULT:    -3.041      2.383      3.742
REMARK INTER + INTRA:          -3.630
REMARK INTER:                  -3.482
REMARK INTRA:                  -0.147
REMARK UNBOUND:                -0.233
REMARK SMILES O=C([O-])c1ccccc1C(=O)[O-]
REMARK SMILES IDX 4 1 9 2 5 3 8 4 6 5 7 6 2 7 1 8 3 9 10 10 11 11 12 12
REMARK H PARENT
REMARK Flexibility Score: inf
ROOT
ATOM      1  C   UNL     1      24.809  45.536  85.976  1.00  0.00     0.006 A 
ATOM      2  C   UNL     1      24.545  44.153  85.772  1.00  0.00     0.006 A 
ATOM      3  C   UNL     1      26.016  46.080  85.496  1.00  0.00     0.010 A 
ATOM      4  C   UNL     1      25.466  43.381  85.042  1.00  0.00     0.010 A 
ATOM      5  C   UNL     1      26.926  45.290  84.792  1.00  0.00     0.001 A 
ATOM      6  C   UNL     1      26.646  43.946  84.555  1.00  0.00     0.001 A 
ENDROOT
BRANCH   1   7
ATOM      7  C   UNL     1      23.833  46.451  86.610  1.00  0.00     0.072 C 
ATOM      8  O   UNL     1      22.978  47.053  85.906  1.00  0.00    -0.545 OA
ATOM      9  O   UNL     1      23.802  46.609  87.990  1.00  0.00    -0.545 OA
ENDBRANCH   1   7
BRANCH   2  10
ATOM     10  C   UNL     1      23.371  43.471  86.363  1.00  0.00     0.072 C 
ATOM     11  O   UNL     1      22.510  42.931  85.618  1.00  0.00    -0.545 OA
ATOM     12  O   UNL     1      23.237  43.357  87.742  1.00  0.00    -0.545 OA
ENDBRANCH   2  10
TORSDOF 2
ENDMDL
