MODEL 1
REMARK VINA RESULT:    30.379      0.000      0.000
REMARK INTER + INTRA:          42.118
REMARK INTER:                  41.035
REMARK INTRA:                   1.083
REMARK UNBOUND:                 1.083
REMARK SMILES COc1ccc(-c2cc(=O)c3c(OC)c(OC)c(OC)c(OC)c3o2)cc1
REMARK SMILES IDX 7 1 8 2 9 3 10 4 11 5 24 6 25 7 21 8 18 9 15 10 12 11 6 12
REMARK SMILES IDX 3 13 4 14 27 15 5 16 26 17 2 18 1 19 22 20 23 21 13 22 14 23
REMARK SMILES IDX 19 24 20 25 16 26 17 27
REMARK H PARENT
REMARK Flexibility Score: inf
ROOT
ATOM      1  C   UNL     1     142.323 174.525 173.298  1.00  0.00     0.138 A 
ATOM      2  C   UNL     1     142.614 175.381 174.366  1.00  0.00     0.100 A 
ATOM      3  C   UNL     1     142.445 174.923 175.670  1.00  0.00     0.197 A 
ATOM      4  O   UNL     1     142.675 175.718 176.623  1.00  0.00    -0.289 OA
ATOM      5  C   UNL     1     142.004 173.601 175.899  1.00  0.00     0.115 A 
ATOM      6  C   UNL     1     141.714 172.798 174.770  1.00  0.00     0.188 A 
ATOM      7  O   UNL     1     141.882 173.294 173.546  1.00  0.00    -0.452 OA
ATOM      8  C   UNL     1     141.256 171.471 174.943  1.00  0.00     0.209 A 
ATOM      9  C   UNL     1     141.041 170.965 176.234  1.00  0.00     0.211 A 
ATOM     10  C   UNL     1     141.300 171.770 177.371  1.00  0.00     0.208 A 
ATOM     11  C   UNL     1     141.846 173.063 177.197  1.00  0.00     0.179 A 
ENDROOT
BRANCH   1  12
ATOM     12  C   UNL     1     142.485 174.964 171.892  1.00  0.00     0.018 A 
ATOM     13  C   UNL     1     142.766 175.754 169.196  1.00  0.00     0.118 A 
ATOM     14  C   UNL     1     143.782 176.035 170.129  1.00  0.00     0.047 A 
ATOM     15  C   UNL     1     141.619 175.076 169.621  1.00  0.00     0.047 A 
ATOM     16  C   UNL     1     143.642 175.641 171.464  1.00  0.00     0.016 A 
ATOM     17  C   UNL     1     141.478 174.681 170.954  1.00  0.00     0.016 A 
BRANCH  13  18
ATOM     18  O   UNL     1     142.862 176.124 167.846  1.00  0.00    -0.497 OA
ATOM     19  C   UNL     1     144.056 176.054 167.077  1.00  0.00     0.278 C 
ENDBRANCH  13  18
ENDBRANCH   1  12
BRANCH   8  20
ATOM     20  O   UNL     1     140.988 170.595 173.873  1.00  0.00    -0.490 OA
ATOM     21  C   UNL     1     141.261 169.199 173.826  1.00  0.00     0.278 C 
ENDBRANCH   8  20
BRANCH  11  22
ATOM     22  O   UNL     1     142.269 173.792 178.310  1.00  0.00    -0.492 OA
ATOM     23  C   UNL     1     143.404 173.384 179.065  1.00  0.00     0.278 C 
ENDBRANCH  11  22
BRANCH   9  24
ATOM     24  O   UNL     1     140.558 169.643 176.308  1.00  0.00    -0.490 OA
ATOM     25  C   UNL     1     141.310 168.468 176.589  1.00  0.00     0.279 C 
ENDBRANCH   9  24
BRANCH  10  26
ATOM     26  O   UNL     1     141.012 171.254 178.646  1.00  0.00    -0.490 OA
ATOM     27  C   UNL     1     139.725 170.876 179.125  1.00  0.00     0.278 C 
ENDBRANCH  10  26
TORSDOF 6
ENDMDL
MODEL 2
REMARK VINA RESULT:    30.731      3.810      7.570
REMARK INTER + INTRA:          42.594
REMARK INTER:                  41.928
REMARK INTRA:                   0.666
REMARK UNBOUND:                 1.083
REMARK SMILES COc1ccc(-c2cc(=O)c3c(OC)c(OC)c(OC)c(OC)c3o2)cc1
REMARK SMILES IDX 7 1 8 2 9 3 10 4 11 5 24 6 25 7 21 8 18 9 15 10 12 11 6 12
REMARK SMILES IDX 3 13 4 14 27 15 5 16 26 17 2 18 1 19 22 20 23 21 13 22 14 23
REMARK SMILES IDX 19 24 20 25 16 26 17 27
REMARK H PARENT
REMARK Flexibility Score: inf
ROOT
ATOM      1  C   UNL     1     141.189 168.244 175.090  1.00  0.00     0.138 A 
ATOM      2  C   UNL     1     140.324 169.321 174.862  1.00  0.00     0.100 A 
ATOM      3  C   UNL     1     140.642 170.571 175.386  1.00  0.00     0.197 A 
ATOM      4  O   UNL     1     139.834 171.523 175.205  1.00  0.00    -0.289 OA
ATOM      5  C   UNL     1     141.836 170.742 176.120  1.00  0.00     0.115 A 
ATOM      6  C   UNL     1     142.653 169.605 176.324  1.00  0.00     0.188 A 
ATOM      7  O   UNL     1     142.292 168.431 175.810  1.00  0.00    -0.452 OA
ATOM      8  C   UNL     1     143.853 169.718 177.064  1.00  0.00     0.209 A 
ATOM      9  C   UNL     1     144.211 170.947 177.639  1.00  0.00     0.211 A 
ATOM     10  C   UNL     1     143.385 172.086 177.466  1.00  0.00     0.208 A 
ATOM     11  C   UNL     1     142.235 171.991 176.649  1.00  0.00     0.179 A 
ENDROOT
BRANCH   1  12
ATOM     12  C   UNL     1     140.896 166.894 174.556  1.00  0.00     0.018 A 
ATOM     13  C   UNL     1     140.290 164.339 173.518  1.00  0.00     0.118 A 
ATOM     14  C   UNL     1     140.989 164.466 174.733  1.00  0.00     0.047 A 
ATOM     15  C   UNL     1     139.897 165.494 172.835  1.00  0.00     0.047 A 
ATOM     16  C   UNL     1     141.287 165.732 175.247  1.00  0.00     0.016 A 
ATOM     17  C   UNL     1     140.193 166.760 173.347  1.00  0.00     0.016 A 
BRANCH  13  18
ATOM     18  O   UNL     1     139.964 163.091 172.964  1.00  0.00    -0.497 OA
ATOM     19  C   UNL     1     139.083 162.151 173.566  1.00  0.00     0.278 C 
ENDBRANCH  13  18
ENDBRANCH   1  12
BRANCH   8  20
ATOM     20  O   UNL     1     144.743 168.646 177.274  1.00  0.00    -0.490 OA
ATOM     21  C   UNL     1     144.510 167.274 176.973  1.00  0.00     0.278 C 
ENDBRANCH   8  20
BRANCH  11  22
ATOM     22  O   UNL     1     141.516 173.145 176.328  1.00  0.00    -0.492 OA
ATOM     23  C   UNL     1     141.980 174.043 175.327  1.00  0.00     0.278 C 
ENDBRANCH  11  22
BRANCH   9  24
ATOM     24  O   UNL     1     145.409 170.959 178.382  1.00  0.00    -0.490 OA
ATOM     25  C   UNL     1     145.986 172.067 179.064  1.00  0.00     0.279 C 
ENDBRANCH   9  24
BRANCH  10  26
ATOM     26  O   UNL     1     143.739 173.284 178.109  1.00  0.00    -0.490 OA
ATOM     27  C   UNL     1     142.987 173.942 179.125  1.00  0.00     0.278 C 
ENDBRANCH  10  26
TORSDOF 6
ENDMDL
MODEL 3
REMARK VINA RESULT:    31.517      1.800      2.277
REMARK INTER + INTRA:          43.655
REMARK INTER:                  40.603
REMARK INTRA:                   3.052
REMARK UNBOUND:                 1.083
REMARK SMILES COc1ccc(-c2cc(=O)c3c(OC)c(OC)c(OC)c(OC)c3o2)cc1
REMARK SMILES IDX 7 1 8 2 9 3 10 4 11 5 24 6 25 7 21 8 18 9 15 10 12 11 6 12
REMARK SMILES IDX 3 13 4 14 27 15 5 16 26 17 2 18 1 19 22 20 23 21 13 22 14 23
REMARK SMILES IDX 19 24 20 25 16 26 17 27
REMARK H PARENT
REMARK Flexibility Score: inf
ROOT
ATOM      1  C   UNL     1     142.108 174.526 173.052  1.00  0.00     0.138 A 
ATOM      2  C   UNL     1     143.221 175.169 173.603  1.00  0.00     0.100 A 
ATOM      3  C   UNL     1     143.735 174.719 174.817  1.00  0.00     0.197 A 
ATOM      4  O   UNL     1     144.716 175.332 175.320  1.00  0.00    -0.289 OA
ATOM      5  C   UNL     1     143.142 173.612 175.463  1.00  0.00     0.115 A 
ATOM      6  C   UNL     1     142.009 173.022 174.854  1.00  0.00     0.188 A 
ATOM      7  O   UNL     1     141.555 173.504 173.699  1.00  0.00    -0.452 OA
ATOM      8  C   UNL     1     141.369 171.920 175.467  1.00  0.00     0.209 A 
ATOM      9  C   UNL     1     141.826 171.440 176.704  1.00  0.00     0.211 A 
ATOM     10  C   UNL     1     142.942 172.043 177.337  1.00  0.00     0.208 A 
ATOM     11  C   UNL     1     143.636 173.084 176.678  1.00  0.00     0.179 A 
ENDROOT
BRANCH   1  12
ATOM     12  C   UNL     1     141.522 174.966 171.764  1.00  0.00     0.018 A 
ATOM     13  C   UNL     1     140.377 175.757 169.307  1.00  0.00     0.118 A 
ATOM     14  C   UNL     1     141.698 176.124 169.628  1.00  0.00     0.047 A 
ATOM     15  C   UNL     1     139.642 174.993 170.219  1.00  0.00     0.047 A 
ATOM     16  C   UNL     1     142.264 175.730 170.844  1.00  0.00     0.016 A 
ATOM     17  C   UNL     1     140.207 174.597 171.435  1.00  0.00     0.016 A 
BRANCH  13  18
ATOM     18  O   UNL     1     139.767 176.125 168.099  1.00  0.00    -0.497 OA
ATOM     19  C   UNL     1     138.390 175.924 167.800  1.00  0.00     0.278 C 
ENDBRANCH  13  18
ENDBRANCH   1  12
BRANCH   8  20
ATOM     20  O   UNL     1     140.265 171.249 174.904  1.00  0.00    -0.490 OA
ATOM     21  C   UNL     1     140.251 169.931 174.369  1.00  0.00     0.278 C 
ENDBRANCH   8  20
BRANCH  11  22
ATOM     22  O   UNL     1     144.837 173.561 177.208  1.00  0.00    -0.492 OA
ATOM     23  C   UNL     1     145.763 172.680 177.834  1.00  0.00     0.278 C 
ENDBRANCH  11  22
BRANCH   9  24
ATOM     24  O   UNL     1     141.110 170.357 177.252  1.00  0.00    -0.490 OA
ATOM     25  C   UNL     1     139.869 170.412 177.946  1.00  0.00     0.279 C 
ENDBRANCH   9  24
BRANCH  10  26
ATOM     26  O   UNL     1     143.333 171.580 178.605  1.00  0.00    -0.490 OA
ATOM     27  C   UNL     1     144.669 171.319 179.026  1.00  0.00     0.278 C 
ENDBRANCH  10  26
TORSDOF 6
ENDMDL
