MODEL 1
REMARK VINA RESULT:    -4.482      0.000      0.000
REMARK INTER + INTRA:         -11.011
REMARK INTER:                  -8.674
REMARK INTRA:                  -2.337
REMARK UNBOUND:                -2.337
REMARK SMILES CCCCCC=CCC=CCCCCCCCCOC(C)=O
REMARK SMILES IDX 12 1 11 2 10 3 9 4 8 5 7 6 6 7 5 8 4 9 3 10 2 11 1 12 13 13
REMARK SMILES IDX 14 14 15 15 16 16 17 17 18 18 19 19 20 20 22 21 21 22
REMARK H PARENT
REMARK Flexibility Score: inf
ROOT
ATOM      1  C   UNL     1      66.960  51.771  18.729  1.00  0.00     0.004 C 
ENDROOT
BRANCH   1   2
ATOM      2  C   UNL     1      66.186  52.770  19.597  1.00  0.00     0.027 C 
BRANCH   2   3
ATOM      3  C   UNL     1      67.106  53.799  20.195  1.00  0.00    -0.031 C 
ATOM      4  C   UNL     1      66.707  54.554  21.228  1.00  0.00    -0.027 C 
BRANCH   4   5
ATOM      5  C   UNL     1      67.602  55.600  21.832  1.00  0.00     0.054 C 
BRANCH   5   6
ATOM      6  C   UNL     1      69.053  55.326  21.524  1.00  0.00    -0.027 C 
ATOM      7  C   UNL     1      69.838  54.486  22.224  1.00  0.00    -0.031 C 
BRANCH   7   8
ATOM      8  C   UNL     1      69.402  53.733  23.457  1.00  0.00     0.027 C 
BRANCH   8   9
ATOM      9  C   UNL     1      69.483  52.205  23.275  1.00  0.00     0.004 C 
BRANCH   9  10
ATOM     10  C   UNL     1      69.909  51.771  21.861  1.00  0.00     0.000 C 
BRANCH  10  11
ATOM     11  C   UNL     1      69.207  50.489  21.394  1.00  0.00    -0.003 C 
ATOM     12  C   UNL     1      68.855  49.593  22.578  1.00  0.00     0.004 C 
ENDBRANCH  10  11
ENDBRANCH   9  10
ENDBRANCH   8   9
ENDBRANCH   7   8
ENDBRANCH   5   6
ENDBRANCH   4   5
ENDBRANCH   2   3
ENDBRANCH   1   2
BRANCH   1  13
ATOM     13  C   UNL     1      67.907  52.500  17.763  1.00  0.00     0.000 C 
BRANCH  13  14
ATOM     14  C   UNL     1      69.367  52.040  17.903  1.00  0.00     0.000 C 
BRANCH  14  15
ATOM     15  C   UNL     1      70.281  53.129  18.487  1.00  0.00     0.000 C 
BRANCH  15  16
ATOM     16  C   UNL     1      71.629  53.167  17.752  1.00  0.00     0.003 C 
BRANCH  16  17
ATOM     17  C   UNL     1      71.874  54.505  17.038  1.00  0.00     0.042 C 
BRANCH  17  18
ATOM     18  C   UNL     1      70.861  54.776  15.918  1.00  0.00     0.233 C 
BRANCH  18  19
ATOM     19  O   UNL     1      71.521  54.826  14.654  1.00  0.00    -0.466 OA
BRANCH  19  20
ATOM     20  C   UNL     1      71.659  56.000  13.904  1.00  0.00     0.302 C 
ATOM     21  O   UNL     1      72.088  57.060  14.435  1.00  0.00    -0.253 OA
ATOM     22  C   UNL     1      71.305  55.995  12.456  1.00  0.00     0.139 C 
ENDBRANCH  19  20
ENDBRANCH  18  19
ENDBRANCH  17  18
ENDBRANCH  16  17
ENDBRANCH  15  16
ENDBRANCH  14  15
ENDBRANCH  13  14
ENDBRANCH   1  13
TORSDOF 16
ENDMDL
MODEL 2
REMARK VINA RESULT:    -4.474      2.000      3.850
REMARK INTER + INTRA:         -10.996
REMARK INTER:                  -7.904
REMARK INTRA:                  -3.093
REMARK UNBOUND:                -2.337
REMARK SMILES CCCCCC=CCC=CCCCCCCCCOC(C)=O
REMARK SMILES IDX 12 1 11 2 10 3 9 4 8 5 7 6 6 7 5 8 4 9 3 10 2 11 1 12 13 13
REMARK SMILES IDX 14 14 15 15 16 16 17 17 18 18 19 19 20 20 22 21 21 22
REMARK H PARENT
REMARK Flexibility Score: inf
ROOT
ATOM      1  C   UNL     1      65.994  55.228  21.145  1.00  0.00     0.004 C 
ENDROOT
BRANCH   1   2
ATOM      2  C   UNL     1      65.482  53.844  20.729  1.00  0.00     0.027 C 
BRANCH   2   3
ATOM      3  C   UNL     1      66.433  53.177  19.772  1.00  0.00    -0.031 C 
ATOM      4  C   UNL     1      66.125  51.997  19.214  1.00  0.00    -0.027 C 
BRANCH   4   5
ATOM      5  C   UNL     1      67.066  51.303  18.269  1.00  0.00     0.054 C 
BRANCH   5   6
ATOM      6  C   UNL     1      67.986  52.286  17.589  1.00  0.00    -0.027 C 
ATOM      7  C   UNL     1      69.287  52.451  17.893  1.00  0.00    -0.031 C 
BRANCH   7   8
ATOM      8  C   UNL     1      70.008  51.719  18.999  1.00  0.00     0.027 C 
BRANCH   8   9
ATOM      9  C   UNL     1      70.024  52.514  20.320  1.00  0.00     0.004 C 
BRANCH   9  10
ATOM     10  C   UNL     1      69.230  51.844  21.456  1.00  0.00     0.000 C 
BRANCH  10  11
ATOM     11  C   UNL     1      69.360  50.315  21.452  1.00  0.00    -0.003 C 
ATOM     12  C   UNL     1      69.437  49.767  22.875  1.00  0.00     0.004 C 
ENDBRANCH  10  11
ENDBRANCH   9  10
ENDBRANCH   8   9
ENDBRANCH   7   8
ENDBRANCH   5   6
ENDBRANCH   4   5
ENDBRANCH   2   3
ENDBRANCH   1   2
BRANCH   1  13
ATOM     13  C   UNL     1      67.321  55.115  21.911  1.00  0.00     0.000 C 
BRANCH  13  14
ATOM     14  C   UNL     1      68.454  55.924  21.259  1.00  0.00     0.000 C 
BRANCH  14  15
ATOM     15  C   UNL     1      68.228  56.160  19.758  1.00  0.00     0.000 C 
BRANCH  15  16
ATOM     16  C   UNL     1      69.536  55.991  18.972  1.00  0.00     0.003 C 
BRANCH  16  17
ATOM     17  C   UNL     1      70.749  56.579  19.710  1.00  0.00     0.042 C 
BRANCH  17  18
ATOM     18  C   UNL     1      72.081  56.241  19.028  1.00  0.00     0.233 C 
BRANCH  18  19
ATOM     19  O   UNL     1      72.105  54.867  18.642  1.00  0.00    -0.466 OA
BRANCH  19  20
ATOM     20  C   UNL     1      72.692  54.413  17.455  1.00  0.00     0.302 C 
ATOM     21  O   UNL     1      73.870  53.965  17.446  1.00  0.00    -0.253 OA
ATOM     22  C   UNL     1      71.909  54.447  16.187  1.00  0.00     0.139 C 
ENDBRANCH  19  20
ENDBRANCH  18  19
ENDBRANCH  17  18
ENDBRANCH  16  17
ENDBRANCH  15  16
ENDBRANCH  14  15
ENDBRANCH  13  14
ENDBRANCH   1  13
TORSDOF 16
ENDMDL
MODEL 3
REMARK VINA RESULT:    -4.409      1.643      2.461
REMARK INTER + INTRA:         -10.869
REMARK INTER:                  -8.330
REMARK INTRA:                  -2.539
REMARK UNBOUND:                -2.337
REMARK SMILES CCCCCC=CCC=CCCCCCCCCOC(C)=O
REMARK SMILES IDX 12 1 11 2 10 3 9 4 8 5 7 6 6 7 5 8 4 9 3 10 2 11 1 12 13 13
REMARK SMILES IDX 14 14 15 15 16 16 17 17 18 18 19 19 20 20 22 21 21 22
REMARK H PARENT
REMARK Flexibility Score: inf
ROOT
ATOM      1  C   UNL     1      66.204  51.572  18.455  1.00  0.00     0.004 C 
ENDROOT
BRANCH   1   2
ATOM      2  C   UNL     1      65.681  52.471  19.581  1.00  0.00     0.027 C 
BRANCH   2   3
ATOM      3  C   UNL     1      66.813  53.124  20.327  1.00  0.00    -0.031 C 
ATOM      4  C   UNL     1      66.780  54.434  20.608  1.00  0.00    -0.027 C 
BRANCH   4   5
ATOM      5  C   UNL     1      67.907  55.112  21.338  1.00  0.00     0.054 C 
BRANCH   5   6
ATOM      6  C   UNL     1      69.248  54.693  20.789  1.00  0.00    -0.027 C 
ATOM      7  C   UNL     1      70.139  53.930  21.448  1.00  0.00    -0.031 C 
BRANCH   7   8
ATOM      8  C   UNL     1      69.957  53.424  22.858  1.00  0.00     0.027 C 
BRANCH   8   9
ATOM      9  C   UNL     1      69.342  52.012  22.903  1.00  0.00     0.004 C 
BRANCH   9  10
ATOM     10  C   UNL     1      69.666  51.155  21.666  1.00  0.00     0.000 C 
BRANCH  10  11
ATOM     11  C   UNL     1      68.786  49.902  21.562  1.00  0.00    -0.003 C 
ATOM     12  C   UNL     1      68.715  49.168  22.899  1.00  0.00     0.004 C 
ENDBRANCH  10  11
ENDBRANCH   9  10
ENDBRANCH   8   9
ENDBRANCH   7   8
ENDBRANCH   5   6
ENDBRANCH   4   5
ENDBRANCH   2   3
ENDBRANCH   1   2
BRANCH   1  13
ATOM     13  C   UNL     1      67.738  51.619  18.382  1.00  0.00     0.000 C 
BRANCH  13  14
ATOM     14  C   UNL     1      68.253  52.623  17.339  1.00  0.00     0.000 C 
BRANCH  14  15
ATOM     15  C   UNL     1      69.754  52.918  17.486  1.00  0.00     0.000 C 
BRANCH  15  16
ATOM     16  C   UNL     1      70.053  54.398  17.205  1.00  0.00     0.003 C 
BRANCH  16  17
ATOM     17  C   UNL     1      70.864  54.601  15.916  1.00  0.00     0.042 C 
BRANCH  17  18
ATOM     18  C   UNL     1      72.307  55.047  16.186  1.00  0.00     0.233 C 
BRANCH  18  19
ATOM     19  O   UNL     1      72.996  54.059  16.951  1.00  0.00    -0.466 OA
BRANCH  19  20
ATOM     20  C   UNL     1      73.649  54.338  18.157  1.00  0.00     0.302 C 
ATOM     21  O   UNL     1      73.063  54.963  19.081  1.00  0.00    -0.253 OA
ATOM     22  C   UNL     1      75.054  53.880  18.357  1.00  0.00     0.139 C 
ENDBRANCH  19  20
ENDBRANCH  18  19
ENDBRANCH  17  18
ENDBRANCH  16  17
ENDBRANCH  15  16
ENDBRANCH  14  15
ENDBRANCH  13  14
ENDBRANCH   1  13
TORSDOF 16
ENDMDL
MODEL 4
REMARK VINA RESULT:    -4.394      4.124      7.410
REMARK INTER + INTRA:         -10.840
REMARK INTER:                  -8.436
REMARK INTRA:                  -2.405
REMARK UNBOUND:                -2.337
REMARK SMILES CCCCCC=CCC=CCCCCCCCCOC(C)=O
REMARK SMILES IDX 12 1 11 2 10 3 9 4 8 5 7 6 6 7 5 8 4 9 3 10 2 11 1 12 13 13
REMARK SMILES IDX 14 14 15 15 16 16 17 17 18 18 19 19 20 20 22 21 21 22
REMARK H PARENT
REMARK Flexibility Score: inf
ROOT
ATOM      1  C   UNL     1      66.308  56.381  20.677  1.00  0.00     0.004 C 
ENDROOT
BRANCH   1   2
ATOM      2  C   UNL     1      66.113  54.931  21.135  1.00  0.00     0.027 C 
BRANCH   2   3
ATOM      3  C   UNL     1      66.892  53.978  20.270  1.00  0.00    -0.031 C 
ATOM      4  C   UNL     1      66.289  52.927  19.696  1.00  0.00    -0.027 C 
BRANCH   4   5
ATOM      5  C   UNL     1      67.049  51.952  18.841  1.00  0.00     0.054 C 
BRANCH   5   6
ATOM      6  C   UNL     1      67.907  52.663  17.826  1.00  0.00    -0.027 C 
ATOM      7  C   UNL     1      69.252  52.608  17.788  1.00  0.00    -0.031 C 
BRANCH   7   8
ATOM      8  C   UNL     1      70.107  51.872  18.790  1.00  0.00     0.027 C 
BRANCH   8   9
ATOM      9  C   UNL     1      70.431  52.727  20.031  1.00  0.00     0.004 C 
BRANCH   9  10
ATOM     10  C   UNL     1      69.915  52.125  21.351  1.00  0.00     0.000 C 
BRANCH  10  11
ATOM     11  C   UNL     1      69.450  50.671  21.200  1.00  0.00    -0.003 C 
ATOM     12  C   UNL     1      69.500  49.938  22.538  1.00  0.00     0.004 C 
ENDBRANCH  10  11
ENDBRANCH   9  10
ENDBRANCH   8   9
ENDBRANCH   7   8
ENDBRANCH   5   6
ENDBRANCH   4   5
ENDBRANCH   2   3
ENDBRANCH   1   2
BRANCH   1  13
ATOM     13  C   UNL     1      66.092  57.360  21.841  1.00  0.00     0.000 C 
BRANCH  13  14
ATOM     14  C   UNL     1      65.669  56.654  23.140  1.00  0.00     0.000 C 
BRANCH  14  15
ATOM     15  C   UNL     1      65.637  57.602  24.349  1.00  0.00     0.000 C 
BRANCH  15  16
ATOM     16  C   UNL     1      65.773  56.821  25.663  1.00  0.00     0.003 C 
BRANCH  16  17
ATOM     17  C   UNL     1      67.027  57.215  26.459  1.00  0.00     0.042 C 
BRANCH  17  18
ATOM     18  C   UNL     1      67.964  56.029  26.717  1.00  0.00     0.233 C 
BRANCH  18  19
ATOM     19  O   UNL     1      67.846  55.066  25.671  1.00  0.00    -0.466 OA
BRANCH  19  20
ATOM     20  C   UNL     1      68.922  54.662  24.873  1.00  0.00     0.302 C 
ATOM     21  O   UNL     1      69.845  53.944  25.345  1.00  0.00    -0.253 OA
ATOM     22  C   UNL     1      68.974  55.076  23.441  1.00  0.00     0.139 C 
ENDBRANCH  19  20
ENDBRANCH  18  19
ENDBRANCH  17  18
ENDBRANCH  16  17
ENDBRANCH  15  16
ENDBRANCH  14  15
ENDBRANCH  13  14
ENDBRANCH   1  13
TORSDOF 16
ENDMDL
MODEL 5
REMARK VINA RESULT:    -4.249      3.465      6.585
REMARK INTER + INTRA:         -10.559
REMARK INTER:                  -7.975
REMARK INTRA:                  -2.584
REMARK UNBOUND:                -2.337
REMARK SMILES CCCCCC=CCC=CCCCCCCCCOC(C)=O
REMARK SMILES IDX 12 1 11 2 10 3 9 4 8 5 7 6 6 7 5 8 4 9 3 10 2 11 1 12 13 13
REMARK SMILES IDX 14 14 15 15 16 16 17 17 18 18 19 19 20 20 22 21 21 22
REMARK H PARENT
REMARK Flexibility Score: inf
ROOT
ATOM      1  C   UNL     1      67.908  56.770  20.461  1.00  0.00     0.004 C 
ENDROOT
BRANCH   1   2
ATOM      2  C   UNL     1      68.287  57.246  19.055  1.00  0.00     0.027 C 
BRANCH   2   3
ATOM      3  C   UNL     1      69.379  56.393  18.467  1.00  0.00    -0.031 C 
ATOM      4  C   UNL     1      70.152  55.634  19.257  1.00  0.00    -0.027 C 
BRANCH   4   5
ATOM      5  C   UNL     1      71.259  54.786  18.695  1.00  0.00     0.054 C 
BRANCH   5   6
ATOM      6  C   UNL     1      71.092  53.337  19.081  1.00  0.00    -0.027 C 
ATOM      7  C   UNL     1      70.238  52.482  18.489  1.00  0.00    -0.031 C 
BRANCH   7   8
ATOM      8  C   UNL     1      69.278  52.856  17.386  1.00  0.00     0.027 C 
BRANCH   8   9
ATOM      9  C   UNL     1      67.813  52.542  17.747  1.00  0.00     0.004 C 
BRANCH   9  10
ATOM     10  C   UNL     1      67.656  51.715  19.036  1.00  0.00     0.000 C 
BRANCH  10  11
ATOM     11  C   UNL     1      66.244  51.138  19.205  1.00  0.00    -0.003 C 
ATOM     12  C   UNL     1      65.285  51.720  18.170  1.00  0.00     0.004 C 
ENDBRANCH  10  11
ENDBRANCH   9  10
ENDBRANCH   8   9
ENDBRANCH   7   8
ENDBRANCH   5   6
ENDBRANCH   4   5
ENDBRANCH   2   3
ENDBRANCH   1   2
BRANCH   1  13
ATOM     13  C   UNL     1      66.628  55.920  20.428  1.00  0.00     0.000 C 
BRANCH  13  14
ATOM     14  C   UNL     1      66.812  54.544  21.088  1.00  0.00     0.000 C 
BRANCH  14  15
ATOM     15  C   UNL     1      67.845  54.564  22.226  1.00  0.00     0.000 C 
BRANCH  15  16
ATOM     16  C   UNL     1      68.891  53.456  22.036  1.00  0.00     0.003 C 
BRANCH  16  17
ATOM     17  C   UNL     1      69.191  52.698  23.338  1.00  0.00     0.042 C 
BRANCH  17  18
ATOM     18  C   UNL     1      70.614  52.125  23.377  1.00  0.00     0.233 C 
BRANCH  18  19
ATOM     19  O   UNL     1      70.583  50.708  23.208  1.00  0.00    -0.466 OA
BRANCH  19  20
ATOM     20  C   UNL     1      69.594  50.042  22.475  1.00  0.00     0.302 C 
ATOM     21  O   UNL     1      69.557  50.122  21.218  1.00  0.00    -0.253 OA
ATOM     22  C   UNL     1      68.577  49.218  23.190  1.00  0.00     0.139 C 
ENDBRANCH  19  20
ENDBRANCH  18  19
ENDBRANCH  17  18
ENDBRANCH  16  17
ENDBRANCH  15  16
ENDBRANCH  14  15
ENDBRANCH  13  14
ENDBRANCH   1  13
TORSDOF 16
ENDMDL
MODEL 6
REMARK VINA RESULT:    -4.228      1.504      3.266
REMARK INTER + INTRA:         -10.520
REMARK INTER:                  -7.866
REMARK INTRA:                  -2.654
REMARK UNBOUND:                -2.337
REMARK SMILES CCCCCC=CCC=CCCCCCCCCOC(C)=O
REMARK SMILES IDX 12 1 11 2 10 3 9 4 8 5 7 6 6 7 5 8 4 9 3 10 2 11 1 12 13 13
REMARK SMILES IDX 14 14 15 15 16 16 17 17 18 18 19 19 20 20 22 21 21 22
REMARK H PARENT
REMARK Flexibility Score: inf
ROOT
ATOM      1  C   UNL     1      66.618  56.048  21.049  1.00  0.00     0.004 C 
ENDROOT
BRANCH   1   2
ATOM      2  C   UNL     1      66.206  54.572  21.061  1.00  0.00     0.027 C 
BRANCH   2   3
ATOM      3  C   UNL     1      66.907  53.803  19.974  1.00  0.00    -0.031 C 
ATOM      4  C   UNL     1      66.433  52.620  19.559  1.00  0.00    -0.027 C 
BRANCH   4   5
ATOM      5  C   UNL     1      67.125  51.825  18.488  1.00  0.00     0.054 C 
BRANCH   5   6
ATOM      6  C   UNL     1      68.110  52.673  17.723  1.00  0.00    -0.027 C 
ATOM      7  C   UNL     1      69.444  52.644  17.901  1.00  0.00    -0.031 C 
BRANCH   7   8
ATOM      8  C   UNL     1      70.153  51.799  18.931  1.00  0.00     0.027 C 
BRANCH   8   9
ATOM      9  C   UNL     1      70.410  52.563  20.245  1.00  0.00     0.004 C 
BRANCH   9  10
ATOM     10  C   UNL     1      70.039  51.766  21.509  1.00  0.00     0.000 C 
BRANCH  10  11
ATOM     11  C   UNL     1      69.162  50.544  21.206  1.00  0.00    -0.003 C 
ATOM     12  C   UNL     1      69.298  49.487  22.299  1.00  0.00     0.004 C 
ENDBRANCH  10  11
ENDBRANCH   9  10
ENDBRANCH   8   9
ENDBRANCH   7   8
ENDBRANCH   5   6
ENDBRANCH   4   5
ENDBRANCH   2   3
ENDBRANCH   1   2
BRANCH   1  13
ATOM     13  C   UNL     1      67.258  56.430  19.705  1.00  0.00     0.000 C 
BRANCH  13  14
ATOM     14  C   UNL     1      68.636  57.091  19.871  1.00  0.00     0.000 C 
BRANCH  14  15
ATOM     15  C   UNL     1      69.785  56.070  19.899  1.00  0.00     0.000 C 
BRANCH  15  16
ATOM     16  C   UNL     1      70.990  56.578  19.093  1.00  0.00     0.003 C 
BRANCH  16  17
ATOM     17  C   UNL     1      71.243  55.750  17.824  1.00  0.00     0.042 C 
BRANCH  17  18
ATOM     18  C   UNL     1      70.346  56.170  16.652  1.00  0.00     0.233 C 
BRANCH  18  19
ATOM     19  O   UNL     1      70.590  55.339  15.518  1.00  0.00    -0.466 OA
BRANCH  19  20
ATOM     20  C   UNL     1      71.360  55.742  14.421  1.00  0.00     0.302 C 
ATOM     21  O   UNL     1      71.513  54.985  13.425  1.00  0.00    -0.253 OA
ATOM     22  C   UNL     1      72.000  57.089  14.425  1.00  0.00     0.139 C 
ENDBRANCH  19  20
ENDBRANCH  18  19
ENDBRANCH  17  18
ENDBRANCH  16  17
ENDBRANCH  15  16
ENDBRANCH  14  15
ENDBRANCH  13  14
ENDBRANCH   1  13
TORSDOF 16
ENDMDL
MODEL 7
REMARK VINA RESULT:    -4.186      3.500      6.288
REMARK INTER + INTRA:         -10.439
REMARK INTER:                  -7.227
REMARK INTRA:                  -3.212
REMARK UNBOUND:                -2.337
REMARK SMILES CCCCCC=CCC=CCCCCCCCCOC(C)=O
REMARK SMILES IDX 12 1 11 2 10 3 9 4 8 5 7 6 6 7 5 8 4 9 3 10 2 11 1 12 13 13
REMARK SMILES IDX 14 14 15 15 16 16 17 17 18 18 19 19 20 20 22 21 21 22
REMARK H PARENT
REMARK Flexibility Score: inf
ROOT
ATOM      1  C   UNL     1      67.306  52.608  18.505  1.00  0.00     0.004 C 
ENDROOT
BRANCH   1   2
ATOM      2  C   UNL     1      68.257  52.394  17.322  1.00  0.00     0.027 C 
BRANCH   2   3
ATOM      3  C   UNL     1      69.440  53.320  17.402  1.00  0.00    -0.031 C 
ATOM      4  C   UNL     1      70.625  52.877  17.848  1.00  0.00    -0.027 C 
BRANCH   4   5
ATOM      5  C   UNL     1      71.817  53.787  17.952  1.00  0.00     0.054 C 
BRANCH   5   6
ATOM      6  C   UNL     1      72.205  54.022  19.391  1.00  0.00    -0.027 C 
ATOM      7  C   UNL     1      71.602  54.904  20.210  1.00  0.00    -0.031 C 
BRANCH   7   8
ATOM      8  C   UNL     1      70.484  55.831  19.798  1.00  0.00     0.027 C 
BRANCH   8   9
ATOM      9  C   UNL     1      69.235  55.682  20.689  1.00  0.00     0.004 C 
BRANCH   9  10
ATOM     10  C   UNL     1      67.908  55.883  19.935  1.00  0.00     0.000 C 
BRANCH  10  11
ATOM     11  C   UNL     1      66.717  56.109  20.876  1.00  0.00    -0.003 C 
ATOM     12  C   UNL     1      65.883  54.839  21.021  1.00  0.00     0.004 C 
ENDBRANCH  10  11
ENDBRANCH   9  10
ENDBRANCH   8   9
ENDBRANCH   7   8
ENDBRANCH   5   6
ENDBRANCH   4   5
ENDBRANCH   2   3
ENDBRANCH   1   2
BRANCH   1  13
ATOM     13  C   UNL     1      67.547  51.559  19.602  1.00  0.00     0.000 C 
BRANCH  13  14
ATOM     14  C   UNL     1      68.420  52.091  20.750  1.00  0.00     0.000 C 
BRANCH  14  15
ATOM     15  C   UNL     1      69.681  51.242  20.980  1.00  0.00     0.000 C 
BRANCH  15  16
ATOM     16  C   UNL     1      69.475  50.257  22.140  1.00  0.00     0.003 C 
BRANCH  16  17
ATOM     17  C   UNL     1      70.384  50.561  23.341  1.00  0.00     0.042 C 
BRANCH  17  18
ATOM     18  C   UNL     1      71.158  51.875  23.183  1.00  0.00     0.233 C 
BRANCH  18  19
ATOM     19  O   UNL     1      70.811  52.785  24.225  1.00  0.00    -0.466 OA
BRANCH  19  20
ATOM     20  C   UNL     1      70.089  53.964  24.009  1.00  0.00     0.302 C 
ATOM     21  O   UNL     1      70.676  55.076  23.917  1.00  0.00    -0.253 OA
ATOM     22  C   UNL     1      68.605  53.904  23.873  1.00  0.00     0.139 C 
ENDBRANCH  19  20
ENDBRANCH  18  19
ENDBRANCH  17  18
ENDBRANCH  16  17
ENDBRANCH  15  16
ENDBRANCH  14  15
ENDBRANCH  13  14
ENDBRANCH   1  13
TORSDOF 16
ENDMDL
MODEL 8
REMARK VINA RESULT:    -4.183      1.447      2.002
REMARK INTER + INTRA:         -10.432
REMARK INTER:                  -8.155
REMARK INTRA:                  -2.278
REMARK UNBOUND:                -2.337
REMARK SMILES CCCCCC=CCC=CCCCCCCCCOC(C)=O
REMARK SMILES IDX 12 1 11 2 10 3 9 4 8 5 7 6 6 7 5 8 4 9 3 10 2 11 1 12 13 13
REMARK SMILES IDX 14 14 15 15 16 16 17 17 18 18 19 19 20 20 22 21 21 22
REMARK H PARENT
REMARK Flexibility Score: inf
ROOT
ATOM      1  C   UNL     1      66.269  51.544  18.460  1.00  0.00     0.004 C 
ENDROOT
BRANCH   1   2
ATOM      2  C   UNL     1      65.617  52.559  19.405  1.00  0.00     0.027 C 
BRANCH   2   3
ATOM      3  C   UNL     1      66.639  53.506  19.975  1.00  0.00    -0.031 C 
ATOM      4  C   UNL     1      66.289  54.413  20.898  1.00  0.00    -0.027 C 
BRANCH   4   5
ATOM      5  C   UNL     1      67.288  55.380  21.470  1.00  0.00     0.054 C 
BRANCH   5   6
ATOM      6  C   UNL     1      67.965  54.813  22.693  1.00  0.00    -0.027 C 
ATOM      7  C   UNL     1      69.064  54.036  22.667  1.00  0.00    -0.031 C 
BRANCH   7   8
ATOM      8  C   UNL     1      69.753  53.568  21.408  1.00  0.00     0.027 C 
BRANCH   8   9
ATOM      9  C   UNL     1      70.525  52.250  21.613  1.00  0.00     0.004 C 
BRANCH   9  10
ATOM     10  C   UNL     1      69.678  50.990  21.357  1.00  0.00     0.000 C 
BRANCH  10  11
ATOM     11  C   UNL     1      69.275  50.269  22.650  1.00  0.00    -0.003 C 
ATOM     12  C   UNL     1      68.627  48.921  22.348  1.00  0.00     0.004 C 
ENDBRANCH  10  11
ENDBRANCH   9  10
ENDBRANCH   8   9
ENDBRANCH   7   8
ENDBRANCH   5   6
ENDBRANCH   4   5
ENDBRANCH   2   3
ENDBRANCH   1   2
BRANCH   1  13
ATOM     13  C   UNL     1      67.798  51.549  18.617  1.00  0.00     0.000 C 
BRANCH  13  14
ATOM     14  C   UNL     1      68.524  52.014  17.345  1.00  0.00     0.000 C 
BRANCH  14  15
ATOM     15  C   UNL     1      69.305  53.322  17.550  1.00  0.00     0.000 C 
BRANCH  15  16
ATOM     16  C   UNL     1      70.803  53.042  17.742  1.00  0.00     0.003 C 
BRANCH  16  17
ATOM     17  C   UNL     1      71.688  53.942  16.866  1.00  0.00     0.042 C 
BRANCH  17  18
ATOM     18  C   UNL     1      70.875  54.898  15.984  1.00  0.00     0.233 C 
BRANCH  18  19
ATOM     19  O   UNL     1      71.143  56.253  16.341  1.00  0.00    -0.466 OA
BRANCH  19  20
ATOM     20  C   UNL     1      70.197  57.091  16.942  1.00  0.00     0.302 C 
ATOM     21  O   UNL     1      69.705  58.067  16.314  1.00  0.00    -0.253 OA
ATOM     22  C   UNL     1      69.756  56.821  18.341  1.00  0.00     0.139 C 
ENDBRANCH  19  20
ENDBRANCH  18  19
ENDBRANCH  17  18
ENDBRANCH  16  17
ENDBRANCH  15  16
ENDBRANCH  14  15
ENDBRANCH  13  14
ENDBRANCH   1  13
TORSDOF 16
ENDMDL
MODEL 9
REMARK VINA RESULT:    -4.163      4.758      7.715
REMARK INTER + INTRA:         -10.394
REMARK INTER:                  -7.722
REMARK INTRA:                  -2.672
REMARK UNBOUND:                -2.337
REMARK SMILES CCCCCC=CCC=CCCCCCCCCOC(C)=O
REMARK SMILES IDX 12 1 11 2 10 3 9 4 8 5 7 6 6 7 5 8 4 9 3 10 2 11 1 12 13 13
REMARK SMILES IDX 14 14 15 15 16 16 17 17 18 18 19 19 20 20 22 21 21 22
REMARK H PARENT
REMARK Flexibility Score: inf
ROOT
ATOM      1  C   UNL     1      66.068  56.853  20.682  1.00  0.00     0.004 C 
ENDROOT
BRANCH   1   2
ATOM      2  C   UNL     1      65.996  55.402  21.172  1.00  0.00     0.027 C 
BRANCH   2   3
ATOM      3  C   UNL     1      67.366  54.785  21.246  1.00  0.00    -0.031 C 
ATOM      4  C   UNL     1      67.925  54.501  22.431  1.00  0.00    -0.027 C 
BRANCH   4   5
ATOM      5  C   UNL     1      69.300  53.900  22.530  1.00  0.00     0.054 C 
BRANCH   5   6
ATOM      6  C   UNL     1      69.267  52.570  23.241  1.00  0.00    -0.027 C 
ATOM      7  C   UNL     1      69.448  51.378  22.641  1.00  0.00    -0.031 C 
BRANCH   7   8
ATOM      8  C   UNL     1      69.654  51.188  21.158  1.00  0.00     0.027 C 
BRANCH   8   9
ATOM      9  C   UNL     1      68.339  51.293  20.361  1.00  0.00     0.004 C 
BRANCH   9  10
ATOM     10  C   UNL     1      68.459  52.129  19.074  1.00  0.00     0.000 C 
BRANCH  10  11
ATOM     11  C   UNL     1      67.308  51.877  18.091  1.00  0.00    -0.003 C 
ATOM     12  C   UNL     1      66.011  51.565  18.833  1.00  0.00     0.004 C 
ENDBRANCH  10  11
ENDBRANCH   9  10
ENDBRANCH   8   9
ENDBRANCH   7   8
ENDBRANCH   5   6
ENDBRANCH   4   5
ENDBRANCH   2   3
ENDBRANCH   1   2
BRANCH   1  13
ATOM     13  C   UNL     1      66.225  57.826  21.861  1.00  0.00     0.000 C 
BRANCH  13  14
ATOM     14  C   UNL     1      65.493  57.349  23.125  1.00  0.00     0.000 C 
BRANCH  14  15
ATOM     15  C   UNL     1      66.421  57.241  24.345  1.00  0.00     0.000 C 
BRANCH  15  16
ATOM     16  C   UNL     1      67.777  57.905  24.064  1.00  0.00     0.003 C 
BRANCH  16  17
ATOM     17  C   UNL     1      68.655  58.010  25.320  1.00  0.00     0.042 C 
BRANCH  17  18
ATOM     18  C   UNL     1      67.987  57.409  26.564  1.00  0.00     0.233 C 
BRANCH  18  19
ATOM     19  O   UNL     1      68.761  56.321  27.066  1.00  0.00    -0.466 OA
BRANCH  19  20
ATOM     20  C   UNL     1      68.852  55.081  26.423  1.00  0.00     0.302 C 
ATOM     21  O   UNL     1      67.821  54.499  25.991  1.00  0.00    -0.253 OA
ATOM     22  C   UNL     1      70.188  54.446  26.236  1.00  0.00     0.139 C 
ENDBRANCH  19  20
ENDBRANCH  18  19
ENDBRANCH  17  18
ENDBRANCH  16  17
ENDBRANCH  15  16
ENDBRANCH  14  15
ENDBRANCH  13  14
ENDBRANCH   1  13
TORSDOF 16
ENDMDL
