MODEL 1
REMARK VINA RESULT:    -4.844      0.000      0.000
REMARK INTER + INTRA:          -5.512
REMARK INTER:                  -5.411
REMARK INTRA:                  -0.101
REMARK UNBOUND:                -0.101
REMARK SMILES CCc1ccc(O)cc1O
REMARK SMILES IDX 3 1 9 2 8 3 6 4 5 5 4 6 2 7 1 8 10 9 7 11
REMARK H PARENT 10 10 7 12
REMARK Flexibility Score: inf
ROOT
ATOM      1  C   UNL     1       5.244  11.031   6.742  1.00  0.00    -0.006 A 
ATOM      2  C   UNL     1       5.631  11.982   7.707  1.00  0.00     0.122 A 
ATOM      3  C   UNL     1       5.308  11.779   9.056  1.00  0.00     0.092 A 
ATOM      4  C   UNL     1       4.592  10.640   9.450  1.00  0.00     0.119 A 
ATOM      5  C   UNL     1       4.196   9.705   8.490  1.00  0.00     0.047 A 
ATOM      6  C   UNL     1       4.514   9.899   7.143  1.00  0.00     0.011 A 
ENDROOT
BRANCH   1   7
ATOM      7  C   UNL     1       5.552  11.239   5.280  1.00  0.00     0.036 C 
ATOM      8  C   UNL     1       6.877  10.583   4.907  1.00  0.00     0.009 C 
ENDBRANCH   1   7
BRANCH   2   9
ATOM      9  O   UNL     1       6.333  13.125   7.324  1.00  0.00    -0.508 OA
ATOM     10  H   UNL     1       5.998  14.055   7.549  1.00  0.00     0.293 HD
ENDBRANCH   2   9
BRANCH   4  11
ATOM     11  O   UNL     1       4.266  10.432  10.788  1.00  0.00    -0.508 OA
ATOM     12  H   UNL     1       3.492   9.836  11.059  1.00  0.00     0.293 HD
ENDBRANCH   4  11
TORSDOF 3
ENDMDL
MODEL 2
REMARK VINA RESULT:    -4.808      2.296      4.311
REMARK INTER + INTRA:          -5.472
REMARK INTER:                  -5.367
REMARK INTRA:                  -0.105
REMARK UNBOUND:                -0.101
REMARK SMILES CCc1ccc(O)cc1O
REMARK SMILES IDX 3 1 9 2 8 3 6 4 5 5 4 6 2 7 1 8 10 9 7 11
REMARK H PARENT 10 10 7 12
REMARK Flexibility Score: inf
ROOT
ATOM      1  C   UNL     1       3.231  10.908   9.112  1.00  0.00    -0.006 A 
ATOM      2  C   UNL     1       3.115  10.432   7.790  1.00  0.00     0.122 A 
ATOM      3  C   UNL     1       4.264  10.283   6.999  1.00  0.00     0.092 A 
ATOM      4  C   UNL     1       5.525  10.614   7.511  1.00  0.00     0.119 A 
ATOM      5  C   UNL     1       5.637  11.099   8.817  1.00  0.00     0.047 A 
ATOM      6  C   UNL     1       4.499  11.251   9.612  1.00  0.00     0.011 A 
ENDROOT
BRANCH   1   7
ATOM      7  C   UNL     1       2.011  11.108   9.975  1.00  0.00     0.036 C 
ATOM      8  C   UNL     1       1.479  12.530   9.839  1.00  0.00     0.009 C 
ENDBRANCH   1   7
BRANCH   2   9
ATOM      9  O   UNL     1       1.863  10.111   7.267  1.00  0.00    -0.508 OA
ATOM     10  H   UNL     1       1.050  10.692   7.440  1.00  0.00     0.293 HD
ENDBRANCH   2   9
BRANCH   4  11
ATOM     11  O   UNL     1       6.670  10.468   6.731  1.00  0.00    -0.508 OA
ATOM     12  H   UNL     1       6.939  11.169   6.049  1.00  0.00     0.293 HD
ENDBRANCH   4  11
TORSDOF 3
ENDMDL
MODEL 3
REMARK VINA RESULT:    -4.699      1.977      2.560
REMARK INTER + INTRA:          -5.350
REMARK INTER:                  -5.245
REMARK INTRA:                  -0.105
REMARK UNBOUND:                -0.101
REMARK SMILES CCc1ccc(O)cc1O
REMARK SMILES IDX 3 1 9 2 8 3 6 4 5 5 4 6 2 7 1 8 10 9 7 11
REMARK H PARENT 10 10 7 12
REMARK Flexibility Score: inf
ROOT
ATOM      1  C   UNL     1       6.390  11.770   5.951  1.00  0.00    -0.006 A 
ATOM      2  C   UNL     1       5.289  10.890   5.940  1.00  0.00     0.122 A 
ATOM      3  C   UNL     1       5.022  10.092   7.062  1.00  0.00     0.092 A 
ATOM      4  C   UNL     1       5.850  10.156   8.190  1.00  0.00     0.119 A 
ATOM      5  C   UNL     1       6.950  11.018   8.195  1.00  0.00     0.047 A 
ATOM      6  C   UNL     1       7.223  11.818   7.082  1.00  0.00     0.011 A 
ENDROOT
BRANCH   1   7
ATOM      7  C   UNL     1       6.718  12.618   4.748  1.00  0.00     0.036 C 
ATOM      8  C   UNL     1       7.946  12.076   4.023  1.00  0.00     0.009 C 
ENDBRANCH   1   7
BRANCH   2   9
ATOM      9  O   UNL     1       4.466  10.811   4.817  1.00  0.00    -0.508 OA
ATOM     10  H   UNL     1       3.681  11.439   4.687  1.00  0.00     0.293 HD
ENDBRANCH   2   9
BRANCH   4  11
ATOM     11  O   UNL     1       5.591   9.365   9.308  1.00  0.00    -0.508 OA
ATOM     12  H   UNL     1       6.336   8.890   9.804  1.00  0.00     0.293 HD
ENDBRANCH   4  11
TORSDOF 3
ENDMDL
MODEL 4
REMARK VINA RESULT:    -4.639     17.347     18.818
REMARK INTER + INTRA:          -5.283
REMARK INTER:                  -5.191
REMARK INTRA:                  -0.092
REMARK UNBOUND:                -0.101
REMARK SMILES CCc1ccc(O)cc1O
REMARK SMILES IDX 3 1 9 2 8 3 6 4 5 5 4 6 2 7 1 8 10 9 7 11
REMARK H PARENT 10 10 7 12
REMARK Flexibility Score: inf
ROOT
ATOM      1  C   UNL     1      -6.185  10.269  -6.920  1.00  0.00    -0.006 A 
ATOM      2  C   UNL     1      -5.534  10.138  -8.162  1.00  0.00     0.122 A 
ATOM      3  C   UNL     1      -4.386  10.899  -8.433  1.00  0.00     0.092 A 
ATOM      4  C   UNL     1      -3.891  11.797  -7.479  1.00  0.00     0.119 A 
ATOM      5  C   UNL     1      -4.545  11.937  -6.252  1.00  0.00     0.047 A 
ATOM      6  C   UNL     1      -5.688  11.183  -5.974  1.00  0.00     0.011 A 
ENDROOT
BRANCH   1   7
ATOM      7  C   UNL     1      -7.437   9.487  -6.613  1.00  0.00     0.036 C 
ATOM      8  C   UNL     1      -8.528  10.404  -6.070  1.00  0.00     0.009 C 
ENDBRANCH   1   7
BRANCH   2   9
ATOM      9  O   UNL     1      -6.027   9.256  -9.123  1.00  0.00    -0.508 OA
ATOM     10  H   UNL     1      -6.375   9.584 -10.017  1.00  0.00     0.293 HD
ENDBRANCH   2   9
BRANCH   4  11
ATOM     11  O   UNL     1      -2.752  12.556  -7.742  1.00  0.00    -0.508 OA
ATOM     12  H   UNL     1      -1.923  12.142  -8.152  1.00  0.00     0.293 HD
ENDBRANCH   4  11
TORSDOF 3
ENDMDL
MODEL 5
REMARK VINA RESULT:    -4.577      1.841      4.004
REMARK INTER + INTRA:          -5.214
REMARK INTER:                  -5.122
REMARK INTRA:                  -0.091
REMARK UNBOUND:                -0.101
REMARK SMILES CCc1ccc(O)cc1O
REMARK SMILES IDX 3 1 9 2 8 3 6 4 5 5 4 6 2 7 1 8 10 9 7 11
REMARK H PARENT 10 10 7 12
REMARK Flexibility Score: inf
ROOT
ATOM      1  C   UNL     1       4.951  10.387   6.937  1.00  0.00    -0.006 A 
ATOM      2  C   UNL     1       6.209  10.403   7.572  1.00  0.00     0.122 A 
ATOM      3  C   UNL     1       7.316  10.961   6.917  1.00  0.00     0.092 A 
ATOM      4  C   UNL     1       7.181  11.494   5.628  1.00  0.00     0.119 A 
ATOM      5  C   UNL     1       5.937  11.465   4.993  1.00  0.00     0.047 A 
ATOM      6  C   UNL     1       4.829  10.912   5.639  1.00  0.00     0.011 A 
ENDROOT
BRANCH   1   7
ATOM      7  C   UNL     1       3.751   9.766   7.606  1.00  0.00     0.036 C 
ATOM      8  C   UNL     1       3.014  10.794   8.458  1.00  0.00     0.009 C 
ENDBRANCH   1   7
BRANCH   2   9
ATOM      9  O   UNL     1       6.355   9.863   8.851  1.00  0.00    -0.508 OA
ATOM     10  H   UNL     1       6.848   8.992   9.006  1.00  0.00     0.293 HD
ENDBRANCH   2   9
BRANCH   4  11
ATOM     11  O   UNL     1       8.276  12.049   4.971  1.00  0.00    -0.508 OA
ATOM     12  H   UNL     1       8.287  12.165   3.964  1.00  0.00     0.293 HD
ENDBRANCH   4  11
TORSDOF 3
ENDMDL
MODEL 6
REMARK VINA RESULT:    -4.548      2.102      4.152
REMARK INTER + INTRA:          -5.181
REMARK INTER:                  -5.077
REMARK INTRA:                  -0.104
REMARK UNBOUND:                -0.101
REMARK SMILES CCc1ccc(O)cc1O
REMARK SMILES IDX 3 1 9 2 8 3 6 4 5 5 4 6 2 7 1 8 10 9 7 11
REMARK H PARENT 10 10 7 12
REMARK Flexibility Score: inf
ROOT
ATOM      1  C   UNL     1       2.907  10.701   8.868  1.00  0.00    -0.006 A 
ATOM      2  C   UNL     1       4.261  10.638   9.251  1.00  0.00     0.122 A 
ATOM      3  C   UNL     1       5.249  10.395   8.286  1.00  0.00     0.092 A 
ATOM      4  C   UNL     1       4.897  10.202   6.944  1.00  0.00     0.119 A 
ATOM      5  C   UNL     1       3.552  10.251   6.567  1.00  0.00     0.047 A 
ATOM      6  C   UNL     1       2.561  10.493   7.521  1.00  0.00     0.011 A 
ENDROOT
BRANCH   1   7
ATOM      7  C   UNL     1       1.821  10.930   9.889  1.00  0.00     0.036 C 
ATOM      8  C   UNL     1       1.416  12.400   9.927  1.00  0.00     0.009 C 
ENDBRANCH   1   7
BRANCH   2   9
ATOM      9  O   UNL     1       4.621  10.816  10.587  1.00  0.00    -0.508 OA
ATOM     10  H   UNL     1       4.877  11.726  10.952  1.00  0.00     0.293 HD
ENDBRANCH   2   9
BRANCH   4  11
ATOM     11  O   UNL     1       5.873   9.960   5.980  1.00  0.00    -0.508 OA
ATOM     12  H   UNL     1       6.785   9.595   6.230  1.00  0.00     0.293 HD
ENDBRANCH   4  11
TORSDOF 3
ENDMDL
MODEL 7
REMARK VINA RESULT:    -4.492      1.929      2.510
REMARK INTER + INTRA:          -5.118
REMARK INTER:                  -5.024
REMARK INTRA:                  -0.094
REMARK UNBOUND:                -0.101
REMARK SMILES CCc1ccc(O)cc1O
REMARK SMILES IDX 3 1 9 2 8 3 6 4 5 5 4 6 2 7 1 8 10 9 7 11
REMARK H PARENT 10 10 7 12
REMARK Flexibility Score: inf
ROOT
ATOM      1  C   UNL     1       5.437  11.608   7.700  1.00  0.00    -0.006 A 
ATOM      2  C   UNL     1       4.553  10.707   7.075  1.00  0.00     0.122 A 
ATOM      3  C   UNL     1       3.341  10.374   7.698  1.00  0.00     0.092 A 
ATOM      4  C   UNL     1       3.010  10.923   8.944  1.00  0.00     0.119 A 
ATOM      5  C   UNL     1       3.895  11.806   9.569  1.00  0.00     0.047 A 
ATOM      6  C   UNL     1       5.103  12.144   8.955  1.00  0.00     0.011 A 
ENDROOT
BRANCH   1   7
ATOM      7  C   UNL     1       6.761  11.960   7.067  1.00  0.00     0.036 C 
ATOM      8  C   UNL     1       7.841  10.968   7.484  1.00  0.00     0.009 C 
ENDBRANCH   1   7
BRANCH   2   9
ATOM      9  O   UNL     1       4.878  10.145   5.841  1.00  0.00    -0.508 OA
ATOM     10  H   UNL     1       4.616  10.589   4.969  1.00  0.00     0.293 HD
ENDBRANCH   2   9
BRANCH   4  11
ATOM     11  O   UNL     1       1.808  10.597   9.568  1.00  0.00    -0.508 OA
ATOM     12  H   UNL     1       0.918  10.713   9.097  1.00  0.00     0.293 HD
ENDBRANCH   4  11
TORSDOF 3
ENDMDL
MODEL 8
REMARK VINA RESULT:    -4.407      2.739      4.289
REMARK INTER + INTRA:          -5.024
REMARK INTER:                  -4.935
REMARK INTRA:                  -0.088
REMARK UNBOUND:                -0.101
REMARK SMILES CCc1ccc(O)cc1O
REMARK SMILES IDX 3 1 9 2 8 3 6 4 5 5 4 6 2 7 1 8 10 9 7 11
REMARK H PARENT 10 10 7 12
REMARK Flexibility Score: inf
ROOT
ATOM      1  C   UNL     1       6.016  10.728   6.637  1.00  0.00    -0.006 A 
ATOM      2  C   UNL     1       6.482  10.803   5.310  1.00  0.00     0.122 A 
ATOM      3  C   UNL     1       7.836  11.068   5.059  1.00  0.00     0.092 A 
ATOM      4  C   UNL     1       8.727  11.270   6.122  1.00  0.00     0.119 A 
ATOM      5  C   UNL     1       8.261  11.209   7.438  1.00  0.00     0.047 A 
ATOM      6  C   UNL     1       6.913  10.945   7.697  1.00  0.00     0.011 A 
ENDROOT
BRANCH   1   7
ATOM      7  C   UNL     1       4.559  10.475   6.936  1.00  0.00     0.036 C 
ATOM      8  C   UNL     1       4.406   9.441   8.046  1.00  0.00     0.009 C 
ENDBRANCH   1   7
BRANCH   2   9
ATOM      9  O   UNL     1       5.601  10.616   4.245  1.00  0.00    -0.508 OA
ATOM     10  H   UNL     1       5.790   9.942   3.511  1.00  0.00     0.293 HD
ENDBRANCH   2   9
BRANCH   4  11
ATOM     11  O   UNL     1      10.073  11.534   5.881  1.00  0.00    -0.508 OA
ATOM     12  H   UNL     1      10.363  12.241   5.215  1.00  0.00     0.293 HD
ENDBRANCH   4  11
TORSDOF 3
ENDMDL
MODEL 9
REMARK VINA RESULT:    -4.287      2.138      3.847
REMARK INTER + INTRA:          -4.890
REMARK INTER:                  -4.805
REMARK INTRA:                  -0.085
REMARK UNBOUND:                -0.101
REMARK SMILES CCc1ccc(O)cc1O
REMARK SMILES IDX 3 1 9 2 8 3 6 4 5 5 4 6 2 7 1 8 10 9 7 11
REMARK H PARENT 10 10 7 12
REMARK Flexibility Score: inf
ROOT
ATOM      1  C   UNL     1       4.088  11.187   8.546  1.00  0.00    -0.006 A 
ATOM      2  C   UNL     1       5.043  10.467   7.800  1.00  0.00     0.122 A 
ATOM      3  C   UNL     1       6.392  10.848   7.841  1.00  0.00     0.092 A 
ATOM      4  C   UNL     1       6.795  11.948   8.610  1.00  0.00     0.119 A 
ATOM      5  C   UNL     1       5.845  12.670   9.338  1.00  0.00     0.047 A 
ATOM      6  C   UNL     1       4.499  12.297   9.304  1.00  0.00     0.011 A 
ENDROOT
BRANCH   1   7
ATOM      7  C   UNL     1       2.626  10.818   8.497  1.00  0.00     0.036 C 
ATOM      8  C   UNL     1       1.850  11.540   9.593  1.00  0.00     0.009 C 
ENDBRANCH   1   7
BRANCH   2   9
ATOM      9  O   UNL     1       4.650   9.379   7.021  1.00  0.00    -0.508 OA
ATOM     10  H   UNL     1       4.768   9.375   6.014  1.00  0.00     0.293 HD
ENDBRANCH   2   9
BRANCH   4  11
ATOM     11  O   UNL     1       8.133  12.332   8.654  1.00  0.00    -0.508 OA
ATOM     12  H   UNL     1       8.407  13.264   8.944  1.00  0.00     0.293 HD
ENDBRANCH   4  11
TORSDOF 3
ENDMDL
