MODEL 1
REMARK VINA RESULT:    -5.436      0.000      0.000
REMARK INTER + INTRA:          -8.443
REMARK INTER:                  -8.297
REMARK INTRA:                  -0.146
REMARK UNBOUND:                -0.146
REMARK SMILES CC1=CCC[C@@H](C)C(=O)C[C@@H](C(C)C)C(=O)C1
REMARK SMILES IDX 8 1 9 2 6 3 7 4 5 5 4 6 3 7 2 8 1 9 10 11 11 12 15 13 16 14
REMARK SMILES IDX 17 15 12 17 13 18 14 19
REMARK H PARENT
REMARK Flexibility Score: 70.00
ROOT
ATOM      1  C   UNL     1     -11.324 -16.890  28.285  1.00  0.00     0.136 C 
ATOM      2  O   UNL     1     -10.298 -16.275  28.036  1.00  0.00    -0.299 OA
ENDROOT
BRANCH   1   3
ATOM      3  C   UNL     1     -12.484 -16.832  27.306  1.00  0.00     0.053 C 
ATOM      4  C   UNL     1     -11.935 -16.785  25.876  1.00  0.00     0.016 C 
BRANCH   3   5
ATOM      5  C   UNL     1     -13.409 -15.617  27.557  1.00  0.00     0.015 C 
BRANCH   5   6
ATOM      6  C   UNL     1     -12.894 -14.664  28.645  1.00  0.00     0.028 C 
BRANCH   6   7
ATOM      7  C   UNL     1     -13.912 -14.458  29.742  1.00  0.00    -0.028 C 
ATOM      8  C   UNL     1     -13.844 -14.968  30.994  1.00  0.00    -0.070 CG0
ATOM      9  C   UNL     1     -14.960 -14.633  31.951  1.00  0.00     0.039 C 
ATOM     10  G   UNL     1     -12.740 -15.902  31.464  1.00  0.00     0.000 G0
ENDBRANCH   6   7
ENDBRANCH   5   6
ENDBRANCH   3   5
ENDBRANCH   1   3
BRANCH   1  11
ATOM     11  C   UNL     1     -11.358 -17.818  29.481  1.00  0.00     0.087 C 
BRANCH  11  12
ATOM     12  C   UNL     1     -12.770 -18.154  30.033  1.00  0.00     0.066 C 
BRANCH  12  13
ATOM     13  C   UNL     1     -13.108 -17.350  31.282  1.00  0.00     0.140 C 
ATOM     14  O   UNL     1     -13.649 -17.941  32.208  1.00  0.00    -0.299 OA
BRANCH  13  15
ATOM     15  C   UNL     1     -12.736 -15.899  31.486  1.00  0.00     0.106 CG0
ATOM     16  G   UNL     1     -13.844 -14.977  31.004  1.00  0.00     0.000 G0
ENDBRANCH  13  15
ENDBRANCH  12  13
BRANCH  12  17
ATOM     17  C   UNL     1     -13.154 -19.676  30.075  1.00  0.00    -0.006 C 
ATOM     18  C   UNL     1     -13.341 -20.242  28.656  1.00  0.00     0.008 C 
ATOM     19  C   UNL     1     -12.168 -20.574  30.840  1.00  0.00     0.008 C 
ENDBRANCH  12  17
ENDBRANCH  11  12
ENDBRANCH   1  11
TORSDOF 1
ENDMDL
MODEL 2
REMARK VINA RESULT:    -5.265      1.985      4.258
REMARK INTER + INTRA:          -8.181
REMARK INTER:                  -7.761
REMARK INTRA:                  -0.419
REMARK UNBOUND:                -0.146
REMARK SMILES CC1=CCC[C@@H](C)C(=O)C[C@@H](C(C)C)C(=O)C1
REMARK SMILES IDX 8 1 9 2 6 3 7 4 5 5 4 6 3 7 2 8 1 9 10 11 11 12 15 13 16 14
REMARK SMILES IDX 17 15 12 17 13 18 14 19
REMARK H PARENT
REMARK Flexibility Score: 70.00
ROOT
ATOM      1  C   UNL     1     -11.327 -17.735  31.376  1.00  0.00     0.136 C 
ATOM      2  O   UNL     1     -10.201 -18.041  31.740  1.00  0.00    -0.299 OA
ENDROOT
BRANCH   1   3
ATOM      3  C   UNL     1     -12.226 -18.794  30.762  1.00  0.00     0.053 C 
ATOM      4  C   UNL     1     -12.230 -20.034  31.661  1.00  0.00     0.016 C 
BRANCH   3   5
ATOM      5  C   UNL     1     -11.788 -19.183  29.329  1.00  0.00     0.015 C 
BRANCH   5   6
ATOM      6  C   UNL     1     -11.178 -18.021  28.533  1.00  0.00     0.028 C 
BRANCH   6   7
ATOM      7  C   UNL     1     -12.194 -17.356  27.636  1.00  0.00    -0.028 C 
ATOM      8  C   UNL     1     -12.660 -16.091  27.765  1.00  0.00    -0.070 CG0
ATOM      9  C   UNL     1     -13.669 -15.607  26.754  1.00  0.00     0.039 C 
ATOM     10  G   UNL     1     -12.267 -15.161  28.902  1.00  0.00     0.000 G0
ENDBRANCH   6   7
ENDBRANCH   5   6
ENDBRANCH   3   5
ENDBRANCH   1   3
BRANCH   1  11
ATOM     11  C   UNL     1     -11.853 -16.349  31.686  1.00  0.00     0.087 C 
BRANCH  11  12
ATOM     12  C   UNL     1     -13.295 -16.050  31.193  1.00  0.00     0.066 C 
BRANCH  12  13
ATOM     13  C   UNL     1     -13.311 -15.114  29.991  1.00  0.00     0.140 C 
ATOM     14  O   UNL     1     -14.174 -14.245  29.960  1.00  0.00    -0.299 OA
BRANCH  13  15
ATOM     15  C   UNL     1     -12.280 -15.131  28.885  1.00  0.00     0.106 CG0
ATOM     16  G   UNL     1     -12.685 -16.088  27.775  1.00  0.00     0.000 G0
ENDBRANCH  13  15
ENDBRANCH  12  13
BRANCH  12  17
ATOM     17  C   UNL     1     -14.360 -15.750  32.308  1.00  0.00    -0.006 C 
ATOM     18  C   UNL     1     -14.644 -17.003  33.156  1.00  0.00     0.008 C 
ATOM     19  C   UNL     1     -14.009 -14.585  33.247  1.00  0.00     0.008 C 
ENDBRANCH  12  17
ENDBRANCH  11  12
ENDBRANCH   1  11
TORSDOF 1
ENDMDL
MODEL 3
REMARK VINA RESULT:    -5.067      1.820      4.536
REMARK INTER + INTRA:          -7.879
REMARK INTER:                  -8.232
REMARK INTRA:                   0.353
REMARK UNBOUND:                -0.146
REMARK SMILES CC1=CCC[C@@H](C)C(=O)C[C@@H](C(C)C)C(=O)C1
REMARK SMILES IDX 8 1 9 2 6 3 7 4 5 5 4 6 3 7 2 8 1 9 10 11 11 12 15 13 16 14
REMARK SMILES IDX 17 15 12 17 13 18 14 19
REMARK H PARENT
REMARK Flexibility Score: 70.00
ROOT
ATOM      1  C   UNL     1     -13.523 -14.832  29.976  1.00  0.00     0.136 C 
ATOM      2  O   UNL     1     -14.365 -13.979  29.738  1.00  0.00    -0.299 OA
ENDROOT
BRANCH   1   3
ATOM      3  C   UNL     1     -13.655 -15.679  31.230  1.00  0.00     0.053 C 
ATOM      4  C   UNL     1     -14.661 -15.021  32.180  1.00  0.00     0.016 C 
BRANCH   3   5
ATOM      5  C   UNL     1     -12.301 -15.880  31.952  1.00  0.00     0.015 C 
BRANCH   5   6
ATOM      6  C   UNL     1     -12.034 -17.333  32.372  1.00  0.00     0.028 C 
BRANCH   6   7
ATOM      7  C   UNL     1     -12.816 -18.315  31.534  1.00  0.00    -0.028 C 
ATOM      8  C   UNL     1     -12.387 -18.904  30.393  1.00  0.00    -0.070 CG0
ATOM      9  C   UNL     1     -13.319 -19.872  29.708  1.00  0.00     0.039 C 
ATOM     10  G   UNL     1     -11.049 -18.598  29.740  1.00  0.00     0.000 G0
ENDBRANCH   6   7
ENDBRANCH   5   6
ENDBRANCH   3   5
ENDBRANCH   1   3
BRANCH   1  11
ATOM     11  C   UNL     1     -12.459 -15.130  28.941  1.00  0.00     0.087 C 
BRANCH  11  12
ATOM     12  C   UNL     1     -12.356 -16.612  28.488  1.00  0.00     0.066 C 
BRANCH  12  13
ATOM     13  C   UNL     1     -11.084 -17.282  28.990  1.00  0.00     0.140 C 
ATOM     14  O   UNL     1     -10.031 -16.670  28.861  1.00  0.00    -0.299 OA
BRANCH  13  15
ATOM     15  C   UNL     1     -11.050 -18.608  29.715  1.00  0.00     0.106 CG0
ATOM     16  G   UNL     1     -12.381 -18.898  30.389  1.00  0.00     0.000 G0
ENDBRANCH  13  15
ENDBRANCH  12  13
BRANCH  12  17
ATOM     17  C   UNL     1     -12.741 -16.908  26.994  1.00  0.00    -0.006 C 
ATOM     18  C   UNL     1     -13.742 -15.867  26.462  1.00  0.00     0.008 C 
ATOM     19  C   UNL     1     -11.554 -16.997  26.022  1.00  0.00     0.008 C 
ENDBRANCH  12  17
ENDBRANCH  11  12
ENDBRANCH   1  11
TORSDOF 1
ENDMDL
MODEL 4
REMARK VINA RESULT:    -4.981      1.790      4.847
REMARK INTER + INTRA:          -7.748
REMARK INTER:                  -7.816
REMARK INTRA:                   0.067
REMARK UNBOUND:                -0.146
REMARK SMILES CC1=CCC[C@@H](C)C(=O)C[C@@H](C(C)C)C(=O)C1
REMARK SMILES IDX 8 1 9 2 6 3 7 4 5 5 4 6 3 7 2 8 1 9 10 11 11 12 15 13 16 14
REMARK SMILES IDX 17 15 12 17 13 18 14 19
REMARK H PARENT
REMARK Flexibility Score: 70.00
ROOT
ATOM      1  C   UNL     1     -12.858 -17.605  31.785  1.00  0.00     0.136 C 
ATOM      2  O   UNL     1     -13.947 -17.405  32.302  1.00  0.00    -0.299 OA
ENDROOT
BRANCH   1   3
ATOM      3  C   UNL     1     -12.397 -19.032  31.545  1.00  0.00     0.053 C 
ATOM      4  C   UNL     1     -10.915 -19.024  31.154  1.00  0.00     0.016 C 
BRANCH   3   5
ATOM      5  C   UNL     1     -13.227 -19.745  30.451  1.00  0.00     0.015 C 
BRANCH   5   6
ATOM      6  C   UNL     1     -12.575 -19.712  29.061  1.00  0.00     0.028 C 
BRANCH   6   7
ATOM      7  C   UNL     1     -13.312 -18.797  28.114  1.00  0.00    -0.028 C 
ATOM      8  C   UNL     1     -12.809 -17.681  27.535  1.00  0.00    -0.070 CG0
ATOM      9  C   UNL     1     -13.707 -16.907  26.602  1.00  0.00     0.039 C 
ATOM     10  G   UNL     1     -11.418 -17.140  27.819  1.00  0.00     0.000 G0
ENDBRANCH   6   7
ENDBRANCH   5   6
ENDBRANCH   3   5
ENDBRANCH   1   3
BRANCH   1  11
ATOM     11  C   UNL     1     -12.064 -16.429  31.256  1.00  0.00     0.087 C 
BRANCH  11  12
ATOM     12  C   UNL     1     -12.546 -15.846  29.899  1.00  0.00     0.066 C 
BRANCH  12  13
ATOM     13  C   UNL     1     -11.493 -15.977  28.807  1.00  0.00     0.140 C 
ATOM     14  O   UNL     1     -10.598 -15.142  28.778  1.00  0.00    -0.299 OA
BRANCH  13  15
ATOM     15  C   UNL     1     -11.430 -17.120  27.818  1.00  0.00     0.106 CG0
ATOM     16  G   UNL     1     -12.816 -17.678  27.539  1.00  0.00     0.000 G0
ENDBRANCH  13  15
ENDBRANCH  12  13
BRANCH  12  17
ATOM     17  C   UNL     1     -13.295 -14.467  29.965  1.00  0.00    -0.006 C 
ATOM     18  C   UNL     1     -13.861 -14.075  28.588  1.00  0.00     0.008 C 
ATOM     19  C   UNL     1     -14.424 -14.388  31.005  1.00  0.00     0.008 C 
ENDBRANCH  12  17
ENDBRANCH  11  12
ENDBRANCH   1  11
TORSDOF 1
ENDMDL
MODEL 5
REMARK VINA RESULT:    -4.979      1.517      3.764
REMARK INTER + INTRA:          -7.745
REMARK INTER:                  -8.291
REMARK INTRA:                   0.546
REMARK UNBOUND:                -0.146
REMARK SMILES CC1=CCC[C@@H](C)C(=O)C[C@@H](C(C)C)C(=O)C1
REMARK SMILES IDX 8 1 9 2 6 3 7 4 5 5 4 6 3 7 2 8 1 9 10 11 11 12 15 13 16 14
REMARK SMILES IDX 17 15 12 17 13 18 14 19
REMARK H PARENT
REMARK Flexibility Score: 70.00
ROOT
ATOM      1  C   UNL     1     -10.788 -16.951  28.496  1.00  0.00     0.136 C 
ATOM      2  O   UNL     1      -9.945 -17.526  29.168  1.00  0.00    -0.299 OA
ENDROOT
BRANCH   1   3
ATOM      3  C   UNL     1     -11.488 -17.701  27.377  1.00  0.00     0.053 C 
ATOM      4  C   UNL     1     -10.852 -17.315  26.037  1.00  0.00     0.016 C 
BRANCH   3   5
ATOM      5  C   UNL     1     -13.009 -17.422  27.339  1.00  0.00     0.015 C 
BRANCH   5   6
ATOM      6  C   UNL     1     -13.847 -18.458  28.102  1.00  0.00     0.028 C 
BRANCH   6   7
ATOM      7  C   UNL     1     -12.998 -19.306  29.018  1.00  0.00    -0.028 C 
ATOM      8  C   UNL     1     -12.733 -19.049  30.321  1.00  0.00    -0.070 CG0
ATOM      9  C   UNL     1     -11.870 -20.032  31.070  1.00  0.00     0.039 C 
ATOM     10  G   UNL     1     -13.210 -17.800  31.045  1.00  0.00     0.000 G0
ENDBRANCH   6   7
ENDBRANCH   5   6
ENDBRANCH   3   5
ENDBRANCH   1   3
BRANCH   1  11
ATOM     11  C   UNL     1     -11.226 -15.557  28.894  1.00  0.00     0.087 C 
BRANCH  11  12
ATOM     12  C   UNL     1     -12.271 -15.480  30.041  1.00  0.00     0.066 C 
BRANCH  12  13
ATOM     13  C   UNL     1     -12.189 -16.679  30.977  1.00  0.00     0.140 C 
ATOM     14  O   UNL     1     -11.268 -16.708  31.782  1.00  0.00    -0.299 OA
BRANCH  13  15
ATOM     15  C   UNL     1     -13.220 -17.784  31.036  1.00  0.00     0.106 CG0
ATOM     16  G   UNL     1     -12.725 -19.032  30.325  1.00  0.00     0.000 G0
ENDBRANCH  13  15
ENDBRANCH  12  13
BRANCH  12  17
ATOM     17  C   UNL     1     -13.718 -15.030  29.630  1.00  0.00    -0.006 C 
ATOM     18  C   UNL     1     -14.442 -14.346  30.804  1.00  0.00     0.008 C 
ATOM     19  C   UNL     1     -13.790 -14.110  28.401  1.00  0.00     0.008 C 
ENDBRANCH  12  17
ENDBRANCH  11  12
ENDBRANCH   1  11
TORSDOF 1
ENDMDL
MODEL 6
REMARK VINA RESULT:    -4.802      1.972      4.985
REMARK INTER + INTRA:          -7.475
REMARK INTER:                  -7.387
REMARK INTRA:                  -0.088
REMARK UNBOUND:                -0.146
REMARK SMILES CC1=CCC[C@@H](C)C(=O)C[C@@H](C(C)C)C(=O)C1
REMARK SMILES IDX 8 1 9 2 6 3 7 4 5 5 4 6 3 7 2 8 1 9 10 11 11 12 15 13 16 14
REMARK SMILES IDX 17 15 12 17 13 18 14 19
REMARK H PARENT
REMARK Flexibility Score: 70.00
ROOT
ATOM      1  C   UNL     1     -13.220 -15.531  31.103  1.00  0.00     0.136 C 
ATOM      2  O   UNL     1     -14.308 -14.978  31.055  1.00  0.00    -0.299 OA
ENDROOT
BRANCH   1   3
ATOM      3  C   UNL     1     -12.876 -16.396  32.304  1.00  0.00     0.053 C 
ATOM      4  C   UNL     1     -11.366 -16.657  32.321  1.00  0.00     0.016 C 
BRANCH   3   5
ATOM      5  C   UNL     1     -13.643 -17.739  32.304  1.00  0.00     0.015 C 
BRANCH   5   6
ATOM      6  C   UNL     1     -12.758 -18.957  32.000  1.00  0.00     0.028 C 
BRANCH   6   7
ATOM      7  C   UNL     1     -13.163 -19.644  30.719  1.00  0.00    -0.028 C 
ATOM      8  C   UNL     1     -12.588 -19.466  29.506  1.00  0.00    -0.070 CG0
ATOM      9  C   UNL     1     -13.134 -20.262  28.347  1.00  0.00     0.039 C 
ATOM     10  G   UNL     1     -11.470 -18.471  29.242  1.00  0.00     0.000 G0
ENDBRANCH   6   7
ENDBRANCH   5   6
ENDBRANCH   3   5
ENDBRANCH   1   3
BRANCH   1  11
ATOM     11  C   UNL     1     -12.304 -15.469  29.899  1.00  0.00     0.087 C 
BRANCH  11  12
ATOM     12  C   UNL     1     -12.798 -16.227  28.636  1.00  0.00     0.066 C 
BRANCH  12  13
ATOM     13  C   UNL     1     -11.890 -17.393  28.271  1.00  0.00     0.140 C 
ATOM     14  O   UNL     1     -11.420 -17.415  27.141  1.00  0.00    -0.299 OA
BRANCH  13  15
ATOM     15  C   UNL     1     -11.460 -18.473  29.240  1.00  0.00     0.106 CG0
ATOM     16  G   UNL     1     -12.586 -19.462  29.492  1.00  0.00     0.000 G0
ENDBRANCH  13  15
ENDBRANCH  12  13
BRANCH  12  17
ATOM     17  C   UNL     1     -13.281 -15.335  27.437  1.00  0.00    -0.006 C 
ATOM     18  C   UNL     1     -14.189 -16.131  26.482  1.00  0.00     0.008 C 
ATOM     19  C   UNL     1     -14.003 -14.039  27.840  1.00  0.00     0.008 C 
ENDBRANCH  12  17
ENDBRANCH  11  12
ENDBRANCH   1  11
TORSDOF 1
ENDMDL
MODEL 7
REMARK VINA RESULT:    -4.752      1.413      1.777
REMARK INTER + INTRA:          -7.398
REMARK INTER:                  -7.701
REMARK INTRA:                   0.303
REMARK UNBOUND:                -0.146
REMARK SMILES CC1=CCC[C@@H](C)C(=O)C[C@@H](C(C)C)C(=O)C1
REMARK SMILES IDX 8 1 9 2 6 3 7 4 5 5 4 6 3 7 2 8 1 9 10 11 11 12 15 13 16 14
REMARK SMILES IDX 17 15 12 17 13 18 14 19
REMARK H PARENT
REMARK Flexibility Score: 70.00
ROOT
ATOM      1  C   UNL     1     -11.480 -16.991  27.418  1.00  0.00     0.136 C 
ATOM      2  O   UNL     1     -10.976 -16.952  26.305  1.00  0.00    -0.299 OA
ENDROOT
BRANCH   1   3
ATOM      3  C   UNL     1     -12.922 -16.549  27.599  1.00  0.00     0.053 C 
ATOM      4  C   UNL     1     -13.702 -16.833  26.310  1.00  0.00     0.016 C 
BRANCH   3   5
ATOM      5  C   UNL     1     -13.039 -15.051  27.966  1.00  0.00     0.015 C 
BRANCH   5   6
ATOM      6  C   UNL     1     -12.621 -14.734  29.410  1.00  0.00     0.028 C 
BRANCH   6   7
ATOM      7  C   UNL     1     -13.491 -15.446  30.418  1.00  0.00    -0.028 C 
ATOM      8  C   UNL     1     -13.053 -16.143  31.493  1.00  0.00    -0.070 CG0
ATOM      9  C   UNL     1     -14.087 -16.773  32.392  1.00  0.00     0.039 C 
ATOM     10  G   UNL     1     -11.583 -16.372  31.805  1.00  0.00     0.000 G0
ENDBRANCH   6   7
ENDBRANCH   5   6
ENDBRANCH   3   5
ENDBRANCH   1   3
BRANCH   1  11
ATOM     11  C   UNL     1     -10.709 -17.623  28.557  1.00  0.00     0.087 C 
BRANCH  11  12
ATOM     12  C   UNL     1     -11.560 -18.088  29.771  1.00  0.00     0.066 C 
BRANCH  12  13
ATOM     13  C   UNL     1     -11.014 -17.564  31.092  1.00  0.00     0.140 C 
ATOM     14  O   UNL     1     -10.010 -18.098  31.544  1.00  0.00    -0.299 OA
BRANCH  13  15
ATOM     15  C   UNL     1     -11.578 -16.371  31.832  1.00  0.00     0.106 CG0
ATOM     16  G   UNL     1     -13.043 -16.158  31.491  1.00  0.00     0.000 G0
ENDBRANCH  13  15
ENDBRANCH  12  13
BRANCH  12  17
ATOM     17  C   UNL     1     -12.010 -19.593  29.765  1.00  0.00    -0.006 C 
ATOM     18  C   UNL     1     -12.390 -20.064  31.181  1.00  0.00     0.008 C 
ATOM     19  C   UNL     1     -13.166 -19.922  28.807  1.00  0.00     0.008 C 
ENDBRANCH  12  17
ENDBRANCH  11  12
ENDBRANCH   1  11
TORSDOF 1
ENDMDL
MODEL 8
REMARK VINA RESULT:    -4.695      2.033      3.897
REMARK INTER + INTRA:          -7.311
REMARK INTER:                  -7.572
REMARK INTRA:                   0.261
REMARK UNBOUND:                -0.146
REMARK SMILES CC1=CCC[C@@H](C)C(=O)C[C@@H](C(C)C)C(=O)C1
REMARK SMILES IDX 8 1 9 2 6 3 7 4 5 5 4 6 3 7 2 8 1 9 10 11 11 12 15 13 16 14
REMARK SMILES IDX 17 15 12 17 13 18 14 19
REMARK H PARENT
REMARK Flexibility Score: 70.00
ROOT
ATOM      1  C   UNL     1     -12.720 -15.763  28.360  1.00  0.00     0.136 C 
ATOM      2  O   UNL     1     -13.421 -14.768  28.254  1.00  0.00    -0.299 OA
ENDROOT
BRANCH   1   3
ATOM      3  C   UNL     1     -12.933 -16.930  27.411  1.00  0.00     0.053 C 
ATOM      4  C   UNL     1     -13.578 -16.417  26.119  1.00  0.00     0.016 C 
BRANCH   3   5
ATOM      5  C   UNL     1     -13.808 -18.045  28.031  1.00  0.00     0.015 C 
BRANCH   5   6
ATOM      6  C   UNL     1     -13.106 -19.407  28.114  1.00  0.00     0.028 C 
BRANCH   6   7
ATOM      7  C   UNL     1     -13.094 -19.951  29.522  1.00  0.00    -0.028 C 
ATOM      8  C   UNL     1     -12.191 -19.647  30.484  1.00  0.00    -0.070 CG0
ATOM      9  C   UNL     1     -12.363 -20.289  31.838  1.00  0.00     0.039 C 
ATOM     10  G   UNL     1     -10.990 -18.744  30.255  1.00  0.00     0.000 G0
ENDBRANCH   6   7
ENDBRANCH   5   6
ENDBRANCH   3   5
ENDBRANCH   1   3
BRANCH   1  11
ATOM     11  C   UNL     1     -11.557 -15.749  29.330  1.00  0.00     0.087 C 
BRANCH  11  12
ATOM     12  C   UNL     1     -11.867 -16.263  30.762  1.00  0.00     0.066 C 
BRANCH  12  13
ATOM     13  C   UNL     1     -11.052 -17.498  31.122  1.00  0.00     0.140 C 
ATOM     14  O   UNL     1     -10.486 -17.508  32.208  1.00  0.00    -0.299 OA
BRANCH  13  15
ATOM     15  C   UNL     1     -10.971 -18.743  30.267  1.00  0.00     0.106 CG0
ATOM     16  G   UNL     1     -12.187 -19.631  30.479  1.00  0.00     0.000 G0
ENDBRANCH  13  15
ENDBRANCH  12  13
BRANCH  12  17
ATOM     17  C   UNL     1     -13.383 -16.302  31.171  1.00  0.00    -0.006 C 
ATOM     18  C   UNL     1     -13.588 -17.101  32.471  1.00  0.00     0.008 C 
ATOM     19  C   UNL     1     -14.051 -14.926  31.325  1.00  0.00     0.008 C 
ENDBRANCH  12  17
ENDBRANCH  11  12
ENDBRANCH   1  11
TORSDOF 1
ENDMDL
MODEL 9
REMARK VINA RESULT:    -4.445      1.542      3.865
REMARK INTER + INTRA:          -6.930
REMARK INTER:                  -7.284
REMARK INTRA:                   0.354
REMARK UNBOUND:                -0.146
REMARK SMILES CC1=CCC[C@@H](C)C(=O)C[C@@H](C(C)C)C(=O)C1
REMARK SMILES IDX 8 1 9 2 6 3 7 4 5 5 4 6 3 7 2 8 1 9 10 11 11 12 15 13 16 14
REMARK SMILES IDX 17 15 12 17 13 18 14 19
REMARK H PARENT
REMARK Flexibility Score: 70.00
ROOT
ATOM      1  C   UNL     1     -13.207 -16.548  32.147  1.00  0.00     0.136 C 
ATOM      2  O   UNL     1     -13.993 -17.271  32.742  1.00  0.00    -0.299 OA
ENDROOT
BRANCH   1   3
ATOM      3  C   UNL     1     -13.682 -15.206  31.619  1.00  0.00     0.053 C 
ATOM      4  C   UNL     1     -14.849 -14.710  32.480  1.00  0.00     0.016 C 
BRANCH   3   5
ATOM      5  C   UNL     1     -14.114 -15.273  30.134  1.00  0.00     0.015 C 
BRANCH   5   6
ATOM      6  C   UNL     1     -13.232 -14.437  29.196  1.00  0.00     0.028 C 
BRANCH   6   7
ATOM      7  C   UNL     1     -12.656 -15.266  28.074  1.00  0.00    -0.028 C 
ATOM      8  C   UNL     1     -11.545 -16.037  28.145  1.00  0.00    -0.070 CG0
ATOM      9  C   UNL     1     -11.141 -16.803  26.910  1.00  0.00     0.039 C 
ATOM     10  G   UNL     1     -10.659 -16.124  29.376  1.00  0.00     0.000 G0
ENDBRANCH   6   7
ENDBRANCH   5   6
ENDBRANCH   3   5
ENDBRANCH   1   3
BRANCH   1  11
ATOM     11  C   UNL     1     -11.745 -16.936  32.087  1.00  0.00     0.087 C 
BRANCH  11  12
ATOM     12  C   UNL     1     -11.388 -18.064  31.080  1.00  0.00     0.066 C 
BRANCH  12  13
ATOM     13  C   UNL     1     -10.572 -17.548  29.902  1.00  0.00     0.140 C 
ATOM     14  O   UNL     1      -9.877 -18.353  29.297  1.00  0.00    -0.299 OA
BRANCH  13  15
ATOM     15  C   UNL     1     -10.637 -16.130  29.378  1.00  0.00     0.106 CG0
ATOM     16  G   UNL     1     -11.549 -16.036  28.166  1.00  0.00     0.000 G0
ENDBRANCH  13  15
ENDBRANCH  12  13
BRANCH  12  17
ATOM     17  C   UNL     1     -12.542 -19.068  30.726  1.00  0.00    -0.006 C 
ATOM     18  C   UNL     1     -12.830 -19.072  29.214  1.00  0.00     0.008 C 
ATOM     19  C   UNL     1     -12.311 -20.515  31.190  1.00  0.00     0.008 C 
ENDBRANCH  12  17
ENDBRANCH  11  12
ENDBRANCH   1  11
TORSDOF 1
ENDMDL
