MODEL 1
REMARK VINA RESULT:    -6.897      0.000      0.000
REMARK INTER + INTRA:         -11.445
REMARK INTER:                 -10.122
REMARK INTRA:                  -1.323
REMARK UNBOUND:                -1.323
REMARK SMILES O=c1c(O[C@H]2O[C@@H](CO)[C@H](O)[C@@H](O)[C@@H]2O)c(-c2ccc(O)c(O)c2)oc2cc(O)cc(O)c12
REMARK SMILES IDX 4 1 3 2 16 3 25 4 2 5 26 6 1 7 33 8 27 9 31 10 28 11 30 12
REMARK SMILES IDX 17 13 18 14 19 15 20 16 24 17 22 18 21 19 23 21 32 23 29 25
REMARK SMILES IDX 5 27 14 28 6 29 12 30 7 31 10 32 15 33 13 35 8 37 9 38 11 40
REMARK H PARENT 21 20 23 22 32 24 29 26 15 34 13 36 9 39 11 41
REMARK Flexibility Score: inf
ROOT
ATOM      1  O   UNL     1      -1.089 -20.017  28.596  1.00  0.00    -0.454 OA
ENDROOT
BRANCH   1   2
ATOM      2  C   UNL     1      -1.090 -21.377  28.924  1.00  0.00     0.214 A 
ATOM      3  C   UNL     1      -0.547 -22.341  28.054  1.00  0.00     0.180 A 
ATOM      4  O   UNL     1      -0.566 -23.623  28.399  1.00  0.00    -0.452 OA
ATOM      5  C   UNL     1      -1.639 -21.791  30.143  1.00  0.00     0.239 A 
ATOM      6  C   UNL     1      -1.074 -24.063  29.544  1.00  0.00     0.146 A 
ATOM      7  O   UNL     1      -2.096 -20.913  30.918  1.00  0.00    -0.285 OA
ATOM      8  C   UNL     1      -1.670 -23.167  30.472  1.00  0.00     0.111 A 
ATOM      9  C   UNL     1      -1.002 -25.430  29.822  1.00  0.00     0.094 A 
ATOM     10  C   UNL     1      -2.230 -23.703  31.671  1.00  0.00     0.134 A 
ATOM     11  C   UNL     1      -1.509 -25.935  31.020  1.00  0.00     0.123 A 
ATOM     12  C   UNL     1      -2.107 -25.073  31.939  1.00  0.00     0.093 A 
BRANCH   3  13
ATOM     13  C   UNL     1       0.035 -21.977  26.744  1.00  0.00     0.025 A 
ATOM     14  C   UNL     1       1.290 -22.487  26.385  1.00  0.00     0.016 A 
ATOM     15  C   UNL     1       1.828 -22.213  25.125  1.00  0.00     0.051 A 
ATOM     16  C   UNL     1       1.123 -21.418  24.215  1.00  0.00     0.157 A 
ATOM     17  C   UNL     1      -0.653 -21.143  25.843  1.00  0.00     0.062 A 
ATOM     18  C   UNL     1      -0.122 -20.877  24.576  1.00  0.00     0.158 A 
BRANCH  16  19
ATOM     19  O   UNL     1       1.646 -21.174  22.947  1.00  0.00    -0.504 OA
ATOM     20  H   UNL     1       1.271 -21.631  22.124  1.00  0.00     0.293 HD
ENDBRANCH  16  19
BRANCH  18  21
ATOM     21  O   UNL     1      -0.849 -20.083  23.691  1.00  0.00    -0.504 OA
ATOM     22  H   UNL     1      -0.429 -19.698  22.855  1.00  0.00     0.293 HD
ENDBRANCH  18  21
ENDBRANCH   3  13
BRANCH  10  23
ATOM     23  O   UNL     1      -2.932 -22.941  32.610  1.00  0.00    -0.507 OA
ATOM     24  H   UNL     1      -3.935 -22.921  32.694  1.00  0.00     0.293 HD
ENDBRANCH  10  23
BRANCH  11  25
ATOM     25  O   UNL     1      -1.434 -27.299  31.304  1.00  0.00    -0.508 OA
ATOM     26  H   UNL     1      -0.620 -27.704  31.755  1.00  0.00     0.293 HD
ENDBRANCH  11  25
ENDBRANCH   1   2
BRANCH   1  27
ATOM     27  C   UNL     1      -0.126 -19.108  29.127  1.00  0.00     0.339 C 
ATOM     28  C   UNL     1      -0.799 -17.750  29.399  1.00  0.00     0.214 C 
ATOM     29  O   UNL     1       1.000 -19.047  28.255  1.00  0.00    -0.332 OA
ATOM     30  C   UNL     1      -1.308 -17.130  28.068  1.00  0.00     0.180 C 
ATOM     31  C   UNL     1       1.011 -17.944  27.351  1.00  0.00     0.179 C 
ATOM     32  C   UNL     1      -0.406 -17.530  26.876  1.00  0.00     0.177 C 
BRANCH  28  33
ATOM     33  O   UNL     1       0.133 -16.894  30.018  1.00  0.00    -0.384 OA
ATOM     34  H   UNL     1       0.475 -16.281  29.315  1.00  0.00     0.211 HD
ENDBRANCH  28  33
BRANCH  30  35
ATOM     35  O   UNL     1      -2.626 -17.529  27.773  1.00  0.00    -0.387 OA
ATOM     36  H   UNL     1      -3.255 -17.017  28.349  1.00  0.00     0.211 HD
ENDBRANCH  30  35
BRANCH  31  37
ATOM     37  C   UNL     1       1.890 -18.328  26.152  1.00  0.00     0.191 C 
BRANCH  37  38
ATOM     38  O   UNL     1       2.344 -17.172  25.503  1.00  0.00    -0.394 OA
ATOM     39  H   UNL     1       1.566 -16.558  25.459  1.00  0.00     0.210 HD
ENDBRANCH  37  38
ENDBRANCH  31  37
BRANCH  32  40
ATOM     40  O   UNL     1      -0.318 -16.456  25.973  1.00  0.00    -0.387 OA
ATOM     41  H   UNL     1      -0.060 -16.842  25.096  1.00  0.00     0.211 HD
ENDBRANCH  32  40
ENDBRANCH   1  27
TORSDOF 12
ENDMDL
MODEL 2
REMARK VINA RESULT:    -6.856      1.904      5.033
REMARK INTER + INTRA:         -11.385
REMARK INTER:                  -9.813
REMARK INTRA:                  -1.572
REMARK UNBOUND:                -1.323
REMARK SMILES O=c1c(O[C@H]2O[C@@H](CO)[C@H](O)[C@@H](O)[C@@H]2O)c(-c2ccc(O)c(O)c2)oc2cc(O)cc(O)c12
REMARK SMILES IDX 4 1 3 2 16 3 25 4 2 5 26 6 1 7 33 8 27 9 31 10 28 11 30 12
REMARK SMILES IDX 17 13 18 14 19 15 20 16 24 17 22 18 21 19 23 21 32 23 29 25
REMARK SMILES IDX 5 27 14 28 6 29 12 30 7 31 10 32 15 33 13 35 8 37 9 38 11 40
REMARK H PARENT 21 20 23 22 32 24 29 26 15 34 13 36 9 39 11 41
REMARK Flexibility Score: inf
ROOT
ATOM      1  O   UNL     1       0.878 -21.711  26.480  1.00  0.00    -0.454 OA
ENDROOT
BRANCH   1   2
ATOM      2  C   UNL     1       0.195 -21.347  27.645  1.00  0.00     0.214 A 
ATOM      3  C   UNL     1      -0.227 -20.022  27.863  1.00  0.00     0.180 A 
ATOM      4  O   UNL     1      -0.873 -19.713  28.982  1.00  0.00    -0.452 OA
ATOM      5  C   UNL     1      -0.077 -22.317  28.616  1.00  0.00     0.239 A 
ATOM      6  C   UNL     1      -1.155 -20.599  29.929  1.00  0.00     0.146 A 
ATOM      7  O   UNL     1       0.287 -23.500  28.393  1.00  0.00    -0.285 OA
ATOM      8  C   UNL     1      -0.742 -21.954  29.811  1.00  0.00     0.111 A 
ATOM      9  C   UNL     1      -1.877 -20.172  31.046  1.00  0.00     0.094 A 
ATOM     10  C   UNL     1      -1.045 -22.853  30.878  1.00  0.00     0.134 A 
ATOM     11  C   UNL     1      -2.209 -21.072  32.060  1.00  0.00     0.123 A 
ATOM     12  C   UNL     1      -1.803 -22.402  31.967  1.00  0.00     0.093 A 
BRANCH   3  13
ATOM     13  C   UNL     1       0.039 -18.942  26.888  1.00  0.00     0.025 A 
ATOM     14  C   UNL     1      -1.039 -18.301  26.263  1.00  0.00     0.016 A 
ATOM     15  C   UNL     1      -0.813 -17.232  25.391  1.00  0.00     0.051 A 
ATOM     16  C   UNL     1       0.492 -16.800  25.127  1.00  0.00     0.157 A 
ATOM     17  C   UNL     1       1.352 -18.534  26.589  1.00  0.00     0.062 A 
ATOM     18  C   UNL     1       1.580 -17.457  25.726  1.00  0.00     0.158 A 
BRANCH  16  19
ATOM     19  O   UNL     1       0.712 -15.713  24.285  1.00  0.00    -0.504 OA
ATOM     20  H   UNL     1       1.195 -15.821  23.400  1.00  0.00     0.293 HD
ENDBRANCH  16  19
BRANCH  18  21
ATOM     21  O   UNL     1       2.891 -17.049  25.484  1.00  0.00    -0.504 OA
ATOM     22  H   UNL     1       3.122 -16.427  24.720  1.00  0.00     0.293 HD
ENDBRANCH  18  21
ENDBRANCH   3  13
BRANCH  10  23
ATOM     23  O   UNL     1      -0.604 -24.179  30.927  1.00  0.00    -0.507 OA
ATOM     24  H   UNL     1       0.187 -24.499  31.460  1.00  0.00     0.293 HD
ENDBRANCH  10  23
BRANCH  11  25
ATOM     25  O   UNL     1      -2.935 -20.650  33.175  1.00  0.00    -0.508 OA
ATOM     26  H   UNL     1      -3.383 -21.313  33.799  1.00  0.00     0.293 HD
ENDBRANCH  11  25
ENDBRANCH   1   2
BRANCH   1  27
ATOM     27  C   UNL     1       0.196 -22.056  25.275  1.00  0.00     0.339 C 
ATOM     28  C   UNL     1       0.736 -23.397  24.747  1.00  0.00     0.214 C 
ATOM     29  O   UNL     1       0.289 -20.974  24.352  1.00  0.00    -0.332 OA
ATOM     30  C   UNL     1       2.240 -23.261  24.381  1.00  0.00     0.180 C 
ATOM     31  C   UNL     1       1.311 -21.101  23.366  1.00  0.00     0.179 C 
ATOM     32  C   UNL     1       2.575 -21.832  23.889  1.00  0.00     0.177 C 
BRANCH  28  33
ATOM     33  O   UNL     1      -0.014 -23.779  23.617  1.00  0.00    -0.384 OA
ATOM     34  H   UNL     1      -0.855 -24.191  23.953  1.00  0.00     0.211 HD
ENDBRANCH  28  33
BRANCH  30  35
ATOM     35  O   UNL     1       3.075 -23.554  25.476  1.00  0.00    -0.387 OA
ATOM     36  H   UNL     1       2.950 -24.507  25.733  1.00  0.00     0.211 HD
ENDBRANCH  30  35
BRANCH  31  37
ATOM     37  C   UNL     1       1.669 -19.691  22.875  1.00  0.00     0.191 C 
BRANCH  37  38
ATOM     38  O   UNL     1       2.931 -19.322  23.360  1.00  0.00    -0.394 OA
ATOM     39  H   UNL     1       3.054 -18.370  23.113  1.00  0.00     0.210 HD
ENDBRANCH  37  38
ENDBRANCH  31  37
BRANCH  32  40
ATOM     40  O   UNL     1       3.547 -21.902  22.875  1.00  0.00    -0.387 OA
ATOM     41  H   UNL     1       4.431 -21.843  23.323  1.00  0.00     0.211 HD
ENDBRANCH  32  40
ENDBRANCH   1  27
TORSDOF 12
ENDMDL
MODEL 3
REMARK VINA RESULT:    -6.841      2.249      7.541
REMARK INTER + INTRA:         -11.363
REMARK INTER:                  -9.900
REMARK INTRA:                  -1.464
REMARK UNBOUND:                -1.323
REMARK SMILES O=c1c(O[C@H]2O[C@@H](CO)[C@H](O)[C@@H](O)[C@@H]2O)c(-c2ccc(O)c(O)c2)oc2cc(O)cc(O)c12
REMARK SMILES IDX 4 1 3 2 16 3 25 4 2 5 26 6 1 7 33 8 27 9 31 10 28 11 30 12
REMARK SMILES IDX 17 13 18 14 19 15 20 16 24 17 22 18 21 19 23 21 32 23 29 25
REMARK SMILES IDX 5 27 14 28 6 29 12 30 7 31 10 32 15 33 13 35 8 37 9 38 11 40
REMARK H PARENT 21 20 23 22 32 24 29 26 15 34 13 36 9 39 11 41
REMARK Flexibility Score: inf
ROOT
ATOM      1  O   UNL     1       0.071 -20.639  25.916  1.00  0.00    -0.454 OA
ENDROOT
BRANCH   1   2
ATOM      2  C   UNL     1      -0.411 -19.391  26.324  1.00  0.00     0.214 A 
ATOM      3  C   UNL     1      -0.801 -19.156  27.656  1.00  0.00     0.180 A 
ATOM      4  O   UNL     1      -1.254 -17.958  28.006  1.00  0.00    -0.452 OA
ATOM      5  C   UNL     1      -0.507 -18.352  25.392  1.00  0.00     0.239 A 
ATOM      6  C   UNL     1      -1.362 -16.942  27.159  1.00  0.00     0.146 A 
ATOM      7  O   UNL     1      -0.131 -18.573  24.212  1.00  0.00    -0.285 OA
ATOM      8  C   UNL     1      -1.021 -17.094  25.788  1.00  0.00     0.111 A 
ATOM      9  C   UNL     1      -1.812 -15.713  27.648  1.00  0.00     0.094 A 
ATOM     10  C   UNL     1      -1.189 -15.975  24.917  1.00  0.00     0.134 A 
ATOM     11  C   UNL     1      -1.927 -14.613  26.796  1.00  0.00     0.123 A 
ATOM     12  C   UNL     1      -1.606 -14.745  25.445  1.00  0.00     0.093 A 
BRANCH   3  13
ATOM     13  C   UNL     1      -0.740 -20.212  28.690  1.00  0.00     0.025 A 
ATOM     14  C   UNL     1       0.239 -20.138  29.689  1.00  0.00     0.016 A 
ATOM     15  C   UNL     1       0.271 -21.086  30.715  1.00  0.00     0.051 A 
ATOM     16  C   UNL     1      -0.668 -22.123  30.747  1.00  0.00     0.157 A 
ATOM     17  C   UNL     1      -1.657 -21.280  28.700  1.00  0.00     0.062 A 
ATOM     18  C   UNL     1      -1.635 -22.223  29.732  1.00  0.00     0.158 A 
BRANCH  16  19
ATOM     19  O   UNL     1      -0.654 -23.047  31.789  1.00  0.00    -0.504 OA
ATOM     20  H   UNL     1      -1.057 -23.971  31.681  1.00  0.00     0.293 HD
ENDBRANCH  16  19
BRANCH  18  21
ATOM     21  O   UNL     1      -2.584 -23.244  29.738  1.00  0.00    -0.504 OA
ATOM     22  H   UNL     1      -3.482 -23.137  29.284  1.00  0.00     0.293 HD
ENDBRANCH  18  21
ENDBRANCH   3  13
BRANCH  10  23
ATOM     23  O   UNL     1      -0.988 -16.027  23.534  1.00  0.00    -0.507 OA
ATOM     24  H   UNL     1      -0.492 -16.761  23.057  1.00  0.00     0.293 HD
ENDBRANCH  10  23
BRANCH  11  25
ATOM     25  O   UNL     1      -2.370 -13.382  27.281  1.00  0.00    -0.508 OA
ATOM     26  H   UNL     1      -3.301 -13.034  27.075  1.00  0.00     0.293 HD
ENDBRANCH  11  25
ENDBRANCH   1   2
BRANCH   1  27
ATOM     27  C   UNL     1       1.457 -20.975  25.975  1.00  0.00     0.339 C 
ATOM     28  C   UNL     1       2.070 -20.872  24.567  1.00  0.00     0.214 C 
ATOM     29  O   UNL     1       1.609 -22.250  26.596  1.00  0.00    -0.332 OA
ATOM     30  C   UNL     1       1.404 -21.906  23.617  1.00  0.00     0.180 C 
ATOM     31  C   UNL     1       1.766 -23.348  25.700  1.00  0.00     0.179 C 
ATOM     32  C   UNL     1       0.968 -23.178  24.381  1.00  0.00     0.177 C 
BRANCH  28  33
ATOM     33  O   UNL     1       3.457 -21.104  24.654  1.00  0.00    -0.384 OA
ATOM     34  H   UNL     1       3.575 -22.047  24.947  1.00  0.00     0.211 HD
ENDBRANCH  28  33
BRANCH  30  35
ATOM     35  O   UNL     1       0.270 -21.372  22.973  1.00  0.00    -0.387 OA
ATOM     36  H   UNL     1       0.540 -21.015  22.085  1.00  0.00     0.211 HD
ENDBRANCH  30  35
BRANCH  31  37
ATOM     37  C   UNL     1       1.324 -24.622  26.437  1.00  0.00     0.191 C 
BRANCH  37  38
ATOM     38  O   UNL     1       2.264 -25.640  26.234  1.00  0.00    -0.394 OA
ATOM     39  H   UNL     1       1.863 -26.257  25.569  1.00  0.00     0.210 HD
ENDBRANCH  37  38
ENDBRANCH  31  37
BRANCH  32  40
ATOM     40  O   UNL     1       1.151 -24.304  23.558  1.00  0.00    -0.387 OA
ATOM     41  H   UNL     1       0.765 -24.076  22.673  1.00  0.00     0.211 HD
ENDBRANCH  32  40
ENDBRANCH   1  27
TORSDOF 12
ENDMDL
MODEL 4
REMARK VINA RESULT:    -6.831      1.706      4.863
REMARK INTER + INTRA:         -11.349
REMARK INTER:                  -9.794
REMARK INTRA:                  -1.555
REMARK UNBOUND:                -1.323
REMARK SMILES O=c1c(O[C@H]2O[C@@H](CO)[C@H](O)[C@@H](O)[C@@H]2O)c(-c2ccc(O)c(O)c2)oc2cc(O)cc(O)c12
REMARK SMILES IDX 4 1 3 2 16 3 25 4 2 5 26 6 1 7 33 8 27 9 31 10 28 11 30 12
REMARK SMILES IDX 17 13 18 14 19 15 20 16 24 17 22 18 21 19 23 21 32 23 29 25
REMARK SMILES IDX 5 27 14 28 6 29 12 30 7 31 10 32 15 33 13 35 8 37 9 38 11 40
REMARK H PARENT 21 20 23 22 32 24 29 26 15 34 13 36 9 39 11 41
REMARK Flexibility Score: inf
ROOT
ATOM      1  O   UNL     1       0.853 -21.882  26.515  1.00  0.00    -0.454 OA
ENDROOT
BRANCH   1   2
ATOM      2  C   UNL     1       0.202 -21.904  27.752  1.00  0.00     0.214 A 
ATOM      3  C   UNL     1      -0.396 -20.747  28.286  1.00  0.00     0.180 A 
ATOM      4  O   UNL     1      -1.006 -20.807  29.465  1.00  0.00    -0.452 OA
ATOM      5  C   UNL     1       0.141 -23.100  28.476  1.00  0.00     0.239 A 
ATOM      6  C   UNL     1      -1.091 -21.918  30.187  1.00  0.00     0.146 A 
ATOM      7  O   UNL     1       0.659 -24.128  27.972  1.00  0.00    -0.285 OA
ATOM      8  C   UNL     1      -0.492 -23.127  29.742  1.00  0.00     0.111 A 
ATOM      9  C   UNL     1      -1.794 -21.874  31.393  1.00  0.00     0.094 A 
ATOM     10  C   UNL     1      -0.588 -24.281  30.578  1.00  0.00     0.134 A 
ATOM     11  C   UNL     1      -1.922 -23.021  32.178  1.00  0.00     0.123 A 
ATOM     12  C   UNL     1      -1.332 -24.215  31.764  1.00  0.00     0.093 A 
BRANCH   3  13
ATOM     13  C   UNL     1      -0.356 -19.446  27.584  1.00  0.00     0.025 A 
ATOM     14  C   UNL     1      -1.549 -18.738  27.383  1.00  0.00     0.016 A 
ATOM     15  C   UNL     1      -1.526 -17.476  26.784  1.00  0.00     0.051 A 
ATOM     16  C   UNL     1      -0.314 -16.913  26.369  1.00  0.00     0.157 A 
ATOM     17  C   UNL     1       0.856 -18.898  27.127  1.00  0.00     0.062 A 
ATOM     18  C   UNL     1       0.884 -17.630  26.538  1.00  0.00     0.158 A 
BRANCH  16  19
ATOM     19  O   UNL     1      -0.290 -15.641  25.803  1.00  0.00    -0.504 OA
ATOM     20  H   UNL     1      -0.630 -15.476  24.862  1.00  0.00     0.293 HD
ENDBRANCH  16  19
BRANCH  18  21
ATOM     21  O   UNL     1       2.107 -17.095  26.137  1.00  0.00    -0.504 OA
ATOM     22  H   UNL     1       2.384 -16.155  26.387  1.00  0.00     0.293 HD
ENDBRANCH  18  21
ENDBRANCH   3  13
BRANCH  10  23
ATOM     23  O   UNL     1       0.046 -25.496  30.302  1.00  0.00    -0.507 OA
ATOM     24  H   UNL     1       1.030 -25.598  30.116  1.00  0.00     0.293 HD
ENDBRANCH  10  23
BRANCH  11  25
ATOM     25  O   UNL     1      -2.628 -22.983  33.381  1.00  0.00    -0.508 OA
ATOM     26  H   UNL     1      -2.195 -23.251  34.259  1.00  0.00     0.293 HD
ENDBRANCH  11  25
ENDBRANCH   1   2
BRANCH   1  27
ATOM     27  C   UNL     1       0.166 -22.129  25.289  1.00  0.00     0.339 C 
ATOM     28  C   UNL     1       0.756 -23.381  24.615  1.00  0.00     0.214 C 
ATOM     29  O   UNL     1       0.194 -20.953  24.484  1.00  0.00    -0.332 OA
ATOM     30  C   UNL     1       2.246 -23.137  24.245  1.00  0.00     0.180 C 
ATOM     31  C   UNL     1       1.204 -20.928  23.478  1.00  0.00     0.179 C 
ATOM     32  C   UNL     1       2.509 -21.651  23.904  1.00  0.00     0.177 C 
BRANCH  28  33
ATOM     33  O   UNL     1       0.004 -23.676  23.461  1.00  0.00    -0.384 OA
ATOM     34  H   UNL     1       0.520 -23.334  22.683  1.00  0.00     0.211 HD
ENDBRANCH  28  33
BRANCH  30  35
ATOM     35  O   UNL     1       3.113 -23.505  25.293  1.00  0.00    -0.387 OA
ATOM     36  H   UNL     1       3.301 -24.480  25.229  1.00  0.00     0.211 HD
ENDBRANCH  30  35
BRANCH  31  37
ATOM     37  C   UNL     1       1.490 -19.459  23.134  1.00  0.00     0.191 C 
BRANCH  37  38
ATOM     38  O   UNL     1       2.618 -19.015  23.837  1.00  0.00    -0.394 OA
ATOM     39  H   UNL     1       3.248 -19.781  23.859  1.00  0.00     0.210 HD
ENDBRANCH  37  38
ENDBRANCH  31  37
BRANCH  32  40
ATOM     40  O   UNL     1       3.464 -21.568  22.876  1.00  0.00    -0.387 OA
ATOM     41  H   UNL     1       3.276 -22.315  22.251  1.00  0.00     0.211 HD
ENDBRANCH  32  40
ENDBRANCH   1  27
TORSDOF 12
ENDMDL
MODEL 5
REMARK VINA RESULT:    -6.727      1.968      6.497
REMARK INTER + INTRA:         -11.196
REMARK INTER:                  -9.529
REMARK INTRA:                  -1.668
REMARK UNBOUND:                -1.323
REMARK SMILES O=c1c(O[C@H]2O[C@@H](CO)[C@H](O)[C@@H](O)[C@@H]2O)c(-c2ccc(O)c(O)c2)oc2cc(O)cc(O)c12
REMARK SMILES IDX 4 1 3 2 16 3 25 4 2 5 26 6 1 7 33 8 27 9 31 10 28 11 30 12
REMARK SMILES IDX 17 13 18 14 19 15 20 16 24 17 22 18 21 19 23 21 32 23 29 25
REMARK SMILES IDX 5 27 14 28 6 29 12 30 7 31 10 32 15 33 13 35 8 37 9 38 11 40
REMARK H PARENT 21 20 23 22 32 24 29 26 15 34 13 36 9 39 11 41
REMARK Flexibility Score: inf
ROOT
ATOM      1  O   UNL     1      -0.149 -20.458  28.622  1.00  0.00    -0.454 OA
ENDROOT
BRANCH   1   2
ATOM      2  C   UNL     1      -0.428 -19.295  27.900  1.00  0.00     0.214 A 
ATOM      3  C   UNL     1       0.031 -19.123  26.581  1.00  0.00     0.180 A 
ATOM      4  O   UNL     1      -0.254 -18.003  25.925  1.00  0.00    -0.452 OA
ATOM      5  C   UNL     1      -1.182 -18.278  28.497  1.00  0.00     0.239 A 
ATOM      6  C   UNL     1      -0.966 -17.013  26.449  1.00  0.00     0.146 A 
ATOM      7  O   UNL     1      -1.605 -18.459  29.667  1.00  0.00    -0.285 OA
ATOM      8  C   UNL     1      -1.447 -17.084  27.784  1.00  0.00     0.111 A 
ATOM      9  C   UNL     1      -1.241 -15.899  25.652  1.00  0.00     0.094 A 
ATOM     10  C   UNL     1      -2.178 -15.973  28.303  1.00  0.00     0.134 A 
ATOM     11  C   UNL     1      -1.999 -14.840  26.156  1.00  0.00     0.123 A 
ATOM     12  C   UNL     1      -2.470 -14.886  27.467  1.00  0.00     0.093 A 
BRANCH   3  13
ATOM     13  C   UNL     1       0.845 -20.148  25.893  1.00  0.00     0.025 A 
ATOM     14  C   UNL     1       2.226 -20.202  26.129  1.00  0.00     0.016 A 
ATOM     15  C   UNL     1       3.002 -21.205  25.545  1.00  0.00     0.051 A 
ATOM     16  C   UNL     1       2.410 -22.159  24.709  1.00  0.00     0.157 A 
ATOM     17  C   UNL     1       0.260 -21.082  25.018  1.00  0.00     0.062 A 
ATOM     18  C   UNL     1       1.032 -22.095  24.441  1.00  0.00     0.158 A 
BRANCH  16  19
ATOM     19  O   UNL     1       3.181 -23.178  24.154  1.00  0.00    -0.504 OA
ATOM     20  H   UNL     1       4.110 -22.998  23.790  1.00  0.00     0.293 HD
ENDBRANCH  16  19
BRANCH  18  21
ATOM     21  O   UNL     1       0.414 -23.031  23.614  1.00  0.00    -0.504 OA
ATOM     22  H   UNL     1      -0.067 -23.838  23.991  1.00  0.00     0.293 HD
ENDBRANCH  18  21
ENDBRANCH   3  13
BRANCH  10  23
ATOM     23  O   UNL     1      -2.613 -15.879  29.629  1.00  0.00    -0.507 OA
ATOM     24  H   UNL     1      -2.004 -15.789  30.425  1.00  0.00     0.293 HD
ENDBRANCH  10  23
BRANCH  11  25
ATOM     25  O   UNL     1      -2.281 -13.728  25.362  1.00  0.00    -0.508 OA
ATOM     26  H   UNL     1      -2.967 -13.768  24.615  1.00  0.00     0.293 HD
ENDBRANCH  11  25
ENDBRANCH   1   2
BRANCH   1  27
ATOM     27  C   UNL     1      -0.912 -21.654  28.464  1.00  0.00     0.339 C 
ATOM     28  C   UNL     1      -1.894 -21.795  29.641  1.00  0.00     0.214 C 
ATOM     29  O   UNL     1      -0.030 -22.760  28.292  1.00  0.00    -0.332 OA
ATOM     30  C   UNL     1      -1.111 -21.943  30.976  1.00  0.00     0.180 C 
ATOM     31  C   UNL     1       0.224 -23.525  29.469  1.00  0.00     0.179 C 
ATOM     32  C   UNL     1       0.239 -22.668  30.762  1.00  0.00     0.177 C 
BRANCH  28  33
ATOM     33  O   UNL     1      -2.712 -22.920  29.422  1.00  0.00    -0.384 OA
ATOM     34  H   UNL     1      -2.701 -23.101  28.444  1.00  0.00     0.211 HD
ENDBRANCH  28  33
BRANCH  30  35
ATOM     35  O   UNL     1      -0.847 -20.694  31.571  1.00  0.00    -0.387 OA
ATOM     36  H   UNL     1      -1.666 -20.132  31.519  1.00  0.00     0.211 HD
ENDBRANCH  30  35
BRANCH  31  37
ATOM     37  C   UNL     1       1.569 -24.242  29.282  1.00  0.00     0.191 C 
BRANCH  37  38
ATOM     38  O   UNL     1       1.587 -25.425  30.032  1.00  0.00    -0.394 OA
ATOM     39  H   UNL     1       1.419 -25.158  30.973  1.00  0.00     0.210 HD
ENDBRANCH  37  38
ENDBRANCH  31  37
BRANCH  32  40
ATOM     40  O   UNL     1       0.516 -23.481  31.875  1.00  0.00    -0.387 OA
ATOM     41  H   UNL     1       0.931 -22.894  32.560  1.00  0.00     0.211 HD
ENDBRANCH  32  40
ENDBRANCH   1  27
TORSDOF 12
ENDMDL
MODEL 6
REMARK VINA RESULT:    -6.715      2.193      6.359
REMARK INTER + INTRA:         -11.179
REMARK INTER:                  -9.519
REMARK INTRA:                  -1.660
REMARK UNBOUND:                -1.323
REMARK SMILES O=c1c(O[C@H]2O[C@@H](CO)[C@H](O)[C@@H](O)[C@@H]2O)c(-c2ccc(O)c(O)c2)oc2cc(O)cc(O)c12
REMARK SMILES IDX 4 1 3 2 16 3 25 4 2 5 26 6 1 7 33 8 27 9 31 10 28 11 30 12
REMARK SMILES IDX 17 13 18 14 19 15 20 16 24 17 22 18 21 19 23 21 32 23 29 25
REMARK SMILES IDX 5 27 14 28 6 29 12 30 7 31 10 32 15 33 13 35 8 37 9 38 11 40
REMARK H PARENT 21 20 23 22 32 24 29 26 15 34 13 36 9 39 11 41
REMARK Flexibility Score: inf
ROOT
ATOM      1  O   UNL     1      -0.562 -20.604  27.494  1.00  0.00    -0.454 OA
ENDROOT
BRANCH   1   2
ATOM      2  C   UNL     1      -0.701 -19.293  27.029  1.00  0.00     0.214 A 
ATOM      3  C   UNL     1      -0.096 -18.873  25.829  1.00  0.00     0.180 A 
ATOM      4  O   UNL     1      -0.250 -17.620  25.419  1.00  0.00    -0.452 OA
ATOM      5  C   UNL     1      -1.458 -18.377  27.767  1.00  0.00     0.239 A 
ATOM      6  C   UNL     1      -0.960 -16.716  26.084  1.00  0.00     0.146 A 
ATOM      7  O   UNL     1      -2.012 -18.777  28.823  1.00  0.00    -0.285 OA
ATOM      8  C   UNL     1      -1.582 -17.040  27.319  1.00  0.00     0.111 A 
ATOM      9  C   UNL     1      -1.090 -15.438  25.536  1.00  0.00     0.094 A 
ATOM     10  C   UNL     1      -2.305 -16.017  28.006  1.00  0.00     0.134 A 
ATOM     11  C   UNL     1      -1.839 -14.460  26.193  1.00  0.00     0.123 A 
ATOM     12  C   UNL     1      -2.448 -14.756  27.412  1.00  0.00     0.093 A 
BRANCH   3  13
ATOM     13  C   UNL     1       0.731 -19.782  25.006  1.00  0.00     0.025 A 
ATOM     14  C   UNL     1       2.113 -19.568  24.924  1.00  0.00     0.016 A 
ATOM     15  C   UNL     1       2.922 -20.455  24.209  1.00  0.00     0.051 A 
ATOM     16  C   UNL     1       2.357 -21.558  23.559  1.00  0.00     0.157 A 
ATOM     17  C   UNL     1       0.159 -20.868  24.317  1.00  0.00     0.062 A 
ATOM     18  C   UNL     1       0.968 -21.764  23.610  1.00  0.00     0.158 A 
BRANCH  16  19
ATOM     19  O   UNL     1       3.170 -22.459  22.875  1.00  0.00    -0.504 OA
ATOM     20  H   UNL     1       2.871 -22.883  22.005  1.00  0.00     0.293 HD
ENDBRANCH  16  19
BRANCH  18  21
ATOM     21  O   UNL     1       0.376 -22.854  22.974  1.00  0.00    -0.504 OA
ATOM     22  H   UNL     1      -0.047 -22.771  22.059  1.00  0.00     0.293 HD
ENDBRANCH  18  21
ENDBRANCH   3  13
BRANCH  10  23
ATOM     23  O   UNL     1      -2.871 -16.181  29.273  1.00  0.00    -0.507 OA
ATOM     24  H   UNL     1      -3.858 -16.144  29.467  1.00  0.00     0.293 HD
ENDBRANCH  10  23
BRANCH  11  25
ATOM     25  O   UNL     1      -1.976 -13.183  25.647  1.00  0.00    -0.508 OA
ATOM     26  H   UNL     1      -1.181 -12.560  25.550  1.00  0.00     0.293 HD
ENDBRANCH  11  25
ENDBRANCH   1   2
BRANCH   1  27
ATOM     27  C   UNL     1       0.667 -21.095  28.030  1.00  0.00     0.339 C 
ATOM     28  C   UNL     1       0.475 -22.546  28.506  1.00  0.00     0.214 C 
ATOM     29  O   UNL     1       1.138 -20.198  29.033  1.00  0.00    -0.332 OA
ATOM     30  C   UNL     1      -0.563 -22.596  29.662  1.00  0.00     0.180 C 
ATOM     31  C   UNL     1       0.837 -20.575  30.375  1.00  0.00     0.179 C 
ATOM     32  C   UNL     1      -0.524 -21.305  30.514  1.00  0.00     0.177 C 
BRANCH  28  33
ATOM     33  O   UNL     1       1.716 -23.054  28.936  1.00  0.00    -0.384 OA
ATOM     34  H   UNL     1       1.971 -23.774  28.299  1.00  0.00     0.211 HD
ENDBRANCH  28  33
BRANCH  30  35
ATOM     35  O   UNL     1      -1.876 -22.763  29.181  1.00  0.00    -0.387 OA
ATOM     36  H   UNL     1      -2.494 -22.862  29.955  1.00  0.00     0.211 HD
ENDBRANCH  30  35
BRANCH  31  37
ATOM     37  C   UNL     1       0.857 -19.303  31.236  1.00  0.00     0.191 C 
BRANCH  37  38
ATOM     38  O   UNL     1      -0.433 -18.763  31.319  1.00  0.00    -0.394 OA
ATOM     39  H   UNL     1      -0.435 -17.962  30.734  1.00  0.00     0.210 HD
ENDBRANCH  37  38
ENDBRANCH  31  37
BRANCH  32  40
ATOM     40  O   UNL     1      -0.765 -21.625  31.862  1.00  0.00    -0.387 OA
ATOM     41  H   UNL     1      -1.735 -21.817  31.940  1.00  0.00     0.211 HD
ENDBRANCH  32  40
ENDBRANCH   1  27
TORSDOF 12
ENDMDL
MODEL 7
REMARK VINA RESULT:    -6.667      2.859      8.062
REMARK INTER + INTRA:         -11.108
REMARK INTER:                  -9.434
REMARK INTRA:                  -1.674
REMARK UNBOUND:                -1.323
REMARK SMILES O=c1c(O[C@H]2O[C@@H](CO)[C@H](O)[C@@H](O)[C@@H]2O)c(-c2ccc(O)c(O)c2)oc2cc(O)cc(O)c12
REMARK SMILES IDX 4 1 3 2 16 3 25 4 2 5 26 6 1 7 33 8 27 9 31 10 28 11 30 12
REMARK SMILES IDX 17 13 18 14 19 15 20 16 24 17 22 18 21 19 23 21 32 23 29 25
REMARK SMILES IDX 5 27 14 28 6 29 12 30 7 31 10 32 15 33 13 35 8 37 9 38 11 40
REMARK H PARENT 21 20 23 22 32 24 29 26 15 34 13 36 9 39 11 41
REMARK Flexibility Score: inf
ROOT
ATOM      1  O   UNL     1      -0.776 -17.224  26.497  1.00  0.00    -0.454 OA
ENDROOT
BRANCH   1   2
ATOM      2  C   UNL     1      -0.951 -16.151  27.376  1.00  0.00     0.214 A 
ATOM      3  C   UNL     1      -0.968 -16.342  28.771  1.00  0.00     0.180 A 
ATOM      4  O   UNL     1      -1.137 -15.299  29.575  1.00  0.00    -0.452 OA
ATOM      5  C   UNL     1      -1.110 -14.859  26.863  1.00  0.00     0.239 A 
ATOM      6  C   UNL     1      -1.290 -14.056  29.136  1.00  0.00     0.146 A 
ATOM      7  O   UNL     1      -1.067 -14.705  25.616  1.00  0.00    -0.285 OA
ATOM      8  C   UNL     1      -1.316 -13.770  27.744  1.00  0.00     0.111 A 
ATOM      9  C   UNL     1      -1.418 -13.030  30.074  1.00  0.00     0.094 A 
ATOM     10  C   UNL     1      -1.518 -12.419  27.331  1.00  0.00     0.134 A 
ATOM     11  C   UNL     1      -1.566 -11.705  29.658  1.00  0.00     0.123 A 
ATOM     12  C   UNL     1      -1.605 -11.406  28.296  1.00  0.00     0.093 A 
BRANCH   3  13
ATOM     13  C   UNL     1      -0.821 -17.681  29.382  1.00  0.00     0.025 A 
ATOM     14  C   UNL     1       0.426 -18.071  29.888  1.00  0.00     0.016 A 
ATOM     15  C   UNL     1       0.571 -19.303  30.532  1.00  0.00     0.051 A 
ATOM     16  C   UNL     1      -0.525 -20.162  30.667  1.00  0.00     0.157 A 
ATOM     17  C   UNL     1      -1.912 -18.565  29.481  1.00  0.00     0.062 A 
ATOM     18  C   UNL     1      -1.773 -19.793  30.135  1.00  0.00     0.158 A 
BRANCH  16  19
ATOM     19  O   UNL     1      -0.386 -21.374  31.338  1.00  0.00    -0.504 OA
ATOM     20  H   UNL     1       0.076 -22.167  30.906  1.00  0.00     0.293 HD
ENDBRANCH  16  19
BRANCH  18  21
ATOM     21  O   UNL     1      -2.884 -20.626  30.255  1.00  0.00    -0.504 OA
ATOM     22  H   UNL     1      -3.171 -21.240  29.504  1.00  0.00     0.293 HD
ENDBRANCH  18  21
ENDBRANCH   3  13
BRANCH  10  23
ATOM     23  O   UNL     1      -1.666 -12.026  25.997  1.00  0.00    -0.507 OA
ATOM     24  H   UNL     1      -1.946 -11.107  25.699  1.00  0.00     0.293 HD
ENDBRANCH  10  23
BRANCH  11  25
ATOM     25  O   UNL     1      -1.688 -10.676  30.592  1.00  0.00    -0.508 OA
ATOM     26  H   UNL     1      -2.571 -10.199  30.745  1.00  0.00     0.293 HD
ENDBRANCH  11  25
ENDBRANCH   1   2
BRANCH   1  27
ATOM     27  C   UNL     1       0.502 -17.817  26.265  1.00  0.00     0.339 C 
ATOM     28  C   UNL     1       1.064 -17.313  24.923  1.00  0.00     0.214 C 
ATOM     29  O   UNL     1       0.392 -19.235  26.367  1.00  0.00    -0.332 OA
ATOM     30  C   UNL     1       0.145 -17.768  23.754  1.00  0.00     0.180 C 
ATOM     31  C   UNL     1       0.263 -19.926  25.127  1.00  0.00     0.179 C 
ATOM     32  C   UNL     1      -0.530 -19.126  24.061  1.00  0.00     0.177 C 
BRANCH  28  33
ATOM     33  O   UNL     1       2.366 -17.822  24.753  1.00  0.00    -0.384 OA
ATOM     34  H   UNL     1       2.326 -18.795  24.954  1.00  0.00     0.211 HD
ENDBRANCH  28  33
BRANCH  30  35
ATOM     35  O   UNL     1      -0.867 -16.827  23.486  1.00  0.00    -0.387 OA
ATOM     36  H   UNL     1      -0.446 -15.951  23.270  1.00  0.00     0.211 HD
ENDBRANCH  30  35
BRANCH  31  37
ATOM     37  C   UNL     1      -0.419 -21.273  25.408  1.00  0.00     0.191 C 
BRANCH  37  38
ATOM     38  O   UNL     1      -1.811 -21.123  25.351  1.00  0.00    -0.394 OA
ATOM     39  H   UNL     1      -1.986 -20.148  25.389  1.00  0.00     0.210 HD
ENDBRANCH  37  38
ENDBRANCH  31  37
BRANCH  32  40
ATOM     40  O   UNL     1      -0.637 -19.875  22.876  1.00  0.00    -0.387 OA
ATOM     41  H   UNL     1       0.282 -20.169  22.642  1.00  0.00     0.211 HD
ENDBRANCH  32  40
ENDBRANCH   1  27
TORSDOF 12
ENDMDL
MODEL 8
REMARK VINA RESULT:    -6.545      1.980      7.259
REMARK INTER + INTRA:         -10.928
REMARK INTER:                  -9.429
REMARK INTRA:                  -1.499
REMARK UNBOUND:                -1.323
REMARK SMILES O=c1c(O[C@H]2O[C@@H](CO)[C@H](O)[C@@H](O)[C@@H]2O)c(-c2ccc(O)c(O)c2)oc2cc(O)cc(O)c12
REMARK SMILES IDX 4 1 3 2 16 3 25 4 2 5 26 6 1 7 33 8 27 9 31 10 28 11 30 12
REMARK SMILES IDX 17 13 18 14 19 15 20 16 24 17 22 18 21 19 23 21 32 23 29 25
REMARK SMILES IDX 5 27 14 28 6 29 12 30 7 31 10 32 15 33 13 35 8 37 9 38 11 40
REMARK H PARENT 21 20 23 22 32 24 29 26 15 34 13 36 9 39 11 41
REMARK Flexibility Score: inf
ROOT
ATOM      1  O   UNL     1       1.157 -21.448  27.074  1.00  0.00    -0.454 OA
ENDROOT
BRANCH   1   2
ATOM      2  C   UNL     1       0.340 -20.322  27.212  1.00  0.00     0.214 A 
ATOM      3  C   UNL     1      -0.648 -20.251  28.211  1.00  0.00     0.180 A 
ATOM      4  O   UNL     1      -1.405 -19.165  28.311  1.00  0.00    -0.452 OA
ATOM      5  C   UNL     1       0.507 -19.240  26.340  1.00  0.00     0.239 A 
ATOM      6  C   UNL     1      -1.283 -18.114  27.510  1.00  0.00     0.146 A 
ATOM      7  O   UNL     1       1.411 -19.311  25.469  1.00  0.00    -0.285 OA
ATOM      8  C   UNL     1      -0.333 -18.107  26.453  1.00  0.00     0.111 A 
ATOM      9  C   UNL     1      -2.106 -17.007  27.734  1.00  0.00     0.094 A 
ATOM     10  C   UNL     1      -0.271 -16.961  25.602  1.00  0.00     0.134 A 
ATOM     11  C   UNL     1      -2.002 -15.874  26.925  1.00  0.00     0.123 A 
ATOM     12  C   UNL     1      -1.083 -15.852  25.876  1.00  0.00     0.093 A 
BRANCH   3  13
ATOM     13  C   UNL     1      -0.890 -21.362  29.157  1.00  0.00     0.025 A 
ATOM     14  C   UNL     1      -1.868 -22.320  28.855  1.00  0.00     0.016 A 
ATOM     15  C   UNL     1      -2.065 -23.416  29.699  1.00  0.00     0.051 A 
ATOM     16  C   UNL     1      -1.296 -23.560  30.859  1.00  0.00     0.157 A 
ATOM     17  C   UNL     1      -0.147 -21.487  30.345  1.00  0.00     0.062 A 
ATOM     18  C   UNL     1      -0.334 -22.589  31.186  1.00  0.00     0.158 A 
BRANCH  16  19
ATOM     19  O   UNL     1      -1.472 -24.671  31.681  1.00  0.00    -0.504 OA
ATOM     20  H   UNL     1      -1.872 -25.532  31.327  1.00  0.00     0.293 HD
ENDBRANCH  16  19
BRANCH  18  21
ATOM     21  O   UNL     1       0.449 -22.706  32.334  1.00  0.00    -0.504 OA
ATOM     22  H   UNL     1       0.170 -23.292  33.110  1.00  0.00     0.293 HD
ENDBRANCH  18  21
ENDBRANCH   3  13
BRANCH  10  23
ATOM     23  O   UNL     1       0.545 -16.876  24.470  1.00  0.00    -0.507 OA
ATOM     24  H   UNL     1       0.242 -17.076  23.531  1.00  0.00     0.293 HD
ENDBRANCH  10  23
BRANCH  11  25
ATOM     25  O   UNL     1      -2.818 -14.764  27.149  1.00  0.00    -0.508 OA
ATOM     26  H   UNL     1      -2.463 -13.818  27.059  1.00  0.00     0.293 HD
ENDBRANCH  11  25
ENDBRANCH   1   2
BRANCH   1  27
ATOM     27  C   UNL     1       0.716 -22.632  26.410  1.00  0.00     0.339 C 
ATOM     28  C   UNL     1       1.779 -23.734  26.567  1.00  0.00     0.214 C 
ATOM     29  O   UNL     1       0.379 -22.320  25.060  1.00  0.00    -0.332 OA
ATOM     30  C   UNL     1       3.101 -23.304  25.873  1.00  0.00     0.180 C 
ATOM     31  C   UNL     1       1.392 -22.609  24.099  1.00  0.00     0.179 C 
ATOM     32  C   UNL     1       2.829 -22.403  24.645  1.00  0.00     0.177 C 
BRANCH  28  33
ATOM     33  O   UNL     1       1.288 -24.926  25.998  1.00  0.00    -0.384 OA
ATOM     34  H   UNL     1       0.526 -25.224  26.563  1.00  0.00     0.211 HD
ENDBRANCH  28  33
BRANCH  30  35
ATOM     35  O   UNL     1       3.950 -22.602  26.751  1.00  0.00    -0.387 OA
ATOM     36  H   UNL     1       3.579 -22.656  27.672  1.00  0.00     0.211 HD
ENDBRANCH  30  35
BRANCH  31  37
ATOM     37  C   UNL     1       1.147 -21.713  22.875  1.00  0.00     0.191 C 
BRANCH  37  38
ATOM     38  O   UNL     1       0.119 -20.802  23.148  1.00  0.00    -0.394 OA
ATOM     39  H   UNL     1       0.000 -20.264  22.324  1.00  0.00     0.210 HD
ENDBRANCH  37  38
ENDBRANCH  31  37
BRANCH  32  40
ATOM     40  O   UNL     1       3.772 -22.684  23.640  1.00  0.00    -0.387 OA
ATOM     41  H   UNL     1       3.419 -23.455  23.125  1.00  0.00     0.211 HD
ENDBRANCH  32  40
ENDBRANCH   1  27
TORSDOF 12
ENDMDL
MODEL 9
REMARK VINA RESULT:    -6.538      1.396      2.563
REMARK INTER + INTRA:         -10.918
REMARK INTER:                  -9.462
REMARK INTRA:                  -1.456
REMARK UNBOUND:                -1.323
REMARK SMILES O=c1c(O[C@H]2O[C@@H](CO)[C@H](O)[C@@H](O)[C@@H]2O)c(-c2ccc(O)c(O)c2)oc2cc(O)cc(O)c12
REMARK SMILES IDX 4 1 3 2 16 3 25 4 2 5 26 6 1 7 33 8 27 9 31 10 28 11 30 12
REMARK SMILES IDX 17 13 18 14 19 15 20 16 24 17 22 18 21 19 23 21 32 23 29 25
REMARK SMILES IDX 5 27 14 28 6 29 12 30 7 31 10 32 15 33 13 35 8 37 9 38 11 40
REMARK H PARENT 21 20 23 22 32 24 29 26 15 34 13 36 9 39 11 41
REMARK Flexibility Score: inf
ROOT
ATOM      1  O   UNL     1       0.115 -19.781  27.760  1.00  0.00    -0.454 OA
ENDROOT
BRANCH   1   2
ATOM      2  C   UNL     1      -0.180 -21.002  28.375  1.00  0.00     0.214 A 
ATOM      3  C   UNL     1       0.212 -22.226  27.802  1.00  0.00     0.180 A 
ATOM      4  O   UNL     1      -0.086 -23.365  28.416  1.00  0.00    -0.452 OA
ATOM      5  C   UNL     1      -0.877 -21.010  29.589  1.00  0.00     0.239 A 
ATOM      6  C   UNL     1      -0.743 -23.423  29.567  1.00  0.00     0.146 A 
ATOM      7  O   UNL     1      -1.198 -19.906  30.099  1.00  0.00    -0.285 OA
ATOM      8  C   UNL     1      -1.205 -22.241  30.206  1.00  0.00     0.111 A 
ATOM      9  C   UNL     1      -0.965 -24.675  30.145  1.00  0.00     0.094 A 
ATOM     10  C   UNL     1      -1.936 -22.368  31.426  1.00  0.00     0.134 A 
ATOM     11  C   UNL     1      -1.639 -24.783  31.362  1.00  0.00     0.123 A 
ATOM     12  C   UNL     1      -2.109 -23.635  31.999  1.00  0.00     0.093 A 
BRANCH   3  13
ATOM     13  C   UNL     1       0.938 -22.293  26.515  1.00  0.00     0.025 A 
ATOM     14  C   UNL     1       2.339 -22.268  26.515  1.00  0.00     0.016 A 
ATOM     15  C   UNL     1       3.046 -22.401  25.317  1.00  0.00     0.051 A 
ATOM     16  C   UNL     1       2.361 -22.548  24.106  1.00  0.00     0.157 A 
ATOM     17  C   UNL     1       0.251 -22.398  25.291  1.00  0.00     0.062 A 
ATOM     18  C   UNL     1       0.955 -22.543  24.092  1.00  0.00     0.158 A 
BRANCH  16  19
ATOM     19  O   UNL     1       3.068 -22.713  22.917  1.00  0.00    -0.504 OA
ATOM     20  H   UNL     1       2.865 -22.150  22.100  1.00  0.00     0.293 HD
ENDBRANCH  16  19
BRANCH  18  21
ATOM     21  O   UNL     1       0.245 -22.690  22.902  1.00  0.00    -0.504 OA
ATOM     22  H   UNL     1       0.563 -22.272  22.038  1.00  0.00     0.293 HD
ENDBRANCH  18  21
ENDBRANCH   3  13
BRANCH  10  23
ATOM     23  O   UNL     1      -2.530 -21.292  32.093  1.00  0.00    -0.507 OA
ATOM     24  H   UNL     1      -2.815 -21.305  33.058  1.00  0.00     0.293 HD
ENDBRANCH  10  23
BRANCH  11  25
ATOM     25  O   UNL     1      -1.857 -26.032  31.945  1.00  0.00    -0.508 OA
ATOM     26  H   UNL     1      -2.010 -26.862  31.381  1.00  0.00     0.293 HD
ENDBRANCH  11  25
ENDBRANCH   1   2
BRANCH   1  27
ATOM     27  C   UNL     1      -0.696 -19.240  26.717  1.00  0.00     0.339 C 
ATOM     28  C   UNL     1       0.202 -18.551  25.675  1.00  0.00     0.214 C 
ATOM     29  O   UNL     1      -1.699 -18.400  27.285  1.00  0.00    -0.332 OA
ATOM     30  C   UNL     1       0.950 -17.351  26.323  1.00  0.00     0.180 C 
ATOM     31  C   UNL     1      -1.404 -17.005  27.268  1.00  0.00     0.179 C 
ATOM     32  C   UNL     1       0.106 -16.697  27.443  1.00  0.00     0.177 C 
BRANCH  28  33
ATOM     33  O   UNL     1      -0.597 -18.112  24.601  1.00  0.00    -0.384 OA
ATOM     34  H   UNL     1      -0.700 -17.128  24.700  1.00  0.00     0.211 HD
ENDBRANCH  28  33
BRANCH  30  35
ATOM     35  O   UNL     1       2.185 -17.740  26.876  1.00  0.00    -0.387 OA
ATOM     36  H   UNL     1       2.673 -18.301  26.215  1.00  0.00     0.211 HD
ENDBRANCH  30  35
BRANCH  31  37
ATOM     37  C   UNL     1      -2.222 -16.338  28.384  1.00  0.00     0.191 C 
BRANCH  37  38
ATOM     38  O   UNL     1      -2.249 -17.165  29.515  1.00  0.00    -0.394 OA
ATOM     39  H   UNL     1      -2.347 -16.562  30.296  1.00  0.00     0.210 HD
ENDBRANCH  37  38
ENDBRANCH  31  37
BRANCH  32  40
ATOM     40  O   UNL     1       0.319 -15.308  27.440  1.00  0.00    -0.387 OA
ATOM     41  H   UNL     1       1.205 -15.156  27.019  1.00  0.00     0.211 HD
ENDBRANCH  32  40
ENDBRANCH   1  27
TORSDOF 12
ENDMDL
