MODEL 1
REMARK VINA RESULT:    -6.120      0.000      0.000
REMARK INTER + INTRA:         -11.849
REMARK INTER:                 -10.771
REMARK INTRA:                  -1.078
REMARK UNBOUND:                -1.078
REMARK SMILES CCCCCCCCCCCCCCC(=O)[O-]
REMARK SMILES IDX 9 1 10 2 11 3 12 4 13 5 14 6 15 7 16 8 17 9 8 10 7 11 6 12
REMARK SMILES IDX 5 13 4 14 3 15 2 16 1 17
REMARK H PARENT
REMARK Flexibility Score: inf
ROOT
ATOM      1  C   UNL     1       3.814   9.237  17.869  1.00  0.00     0.000 C 
ENDROOT
BRANCH   1   2
ATOM      2  C   UNL     1       2.400   9.245  18.473  1.00  0.00     0.000 C 
BRANCH   2   3
ATOM      3  C   UNL     1       2.158   8.071  19.434  1.00  0.00     0.000 C 
BRANCH   3   4
ATOM      4  C   UNL     1       1.928   6.768  18.661  1.00  0.00     0.000 C 
BRANCH   4   5
ATOM      5  C   UNL     1       2.391   5.552  19.478  1.00  0.00     0.006 C 
BRANCH   5   6
ATOM      6  C   UNL     1       2.950   4.434  18.590  1.00  0.00     0.053 C 
BRANCH   6   7
ATOM      7  C   UNL     1       2.776   3.086  19.221  1.00  0.00     0.041 C 
ATOM      8  O   UNL     1       3.617   2.173  19.009  1.00  0.00    -0.550 OA
ATOM      9  O   UNL     1       1.666   2.828  20.016  1.00  0.00    -0.550 OA
ENDBRANCH   6   7
ENDBRANCH   5   6
ENDBRANCH   4   5
ENDBRANCH   3   4
ENDBRANCH   2   3
ENDBRANCH   1   2
BRANCH   1  10
ATOM     10  C   UNL     1       3.805   8.989  16.353  1.00  0.00     0.000 C 
BRANCH  10  11
ATOM     11  C   UNL     1       4.809   7.906  15.920  1.00  0.00    -0.000 C 
BRANCH  11  12
ATOM     12  C   UNL     1       5.360   8.106  14.491  1.00  0.00    -0.000 C 
BRANCH  12  13
ATOM     13  C   UNL     1       5.899   6.796  13.889  1.00  0.00    -0.000 C 
BRANCH  13  14
ATOM     14  C   UNL     1       4.917   6.139  12.901  1.00  0.00    -0.000 C 
BRANCH  14  15
ATOM     15  C   UNL     1       4.475   4.713  13.277  1.00  0.00    -0.000 C 
BRANCH  15  16
ATOM     16  C   UNL     1       4.082   4.578  14.756  1.00  0.00    -0.003 C 
ATOM     17  C   UNL     1       2.912   3.613  14.927  1.00  0.00     0.004 C 
ENDBRANCH  15  16
ENDBRANCH  14  15
ENDBRANCH  13  14
ENDBRANCH  12  13
ENDBRANCH  11  12
ENDBRANCH  10  11
ENDBRANCH   1  10
TORSDOF 13
ENDMDL
MODEL 2
REMARK VINA RESULT:    -6.071      1.231      4.553
REMARK INTER + INTRA:         -11.764
REMARK INTER:                 -10.627
REMARK INTRA:                  -1.137
REMARK UNBOUND:                -1.078
REMARK SMILES CCCCCCCCCCCCCCC(=O)[O-]
REMARK SMILES IDX 9 1 10 2 11 3 12 4 13 5 14 6 15 7 16 8 17 9 8 10 7 11 6 12
REMARK SMILES IDX 5 13 4 14 3 15 2 16 1 17
REMARK H PARENT
REMARK Flexibility Score: inf
ROOT
ATOM      1  C   UNL     1       3.995   4.707  13.109  1.00  0.00     0.000 C 
ENDROOT
BRANCH   1   2
ATOM      2  C   UNL     1       4.314   3.248  13.474  1.00  0.00     0.000 C 
BRANCH   2   3
ATOM      3  C   UNL     1       3.524   2.757  14.697  1.00  0.00     0.000 C 
BRANCH   3   4
ATOM      4  C   UNL     1       3.001   3.938  15.523  1.00  0.00     0.000 C 
BRANCH   4   5
ATOM      5  C   UNL     1       3.126   3.656  17.028  1.00  0.00     0.006 C 
BRANCH   5   6
ATOM      6  C   UNL     1       2.574   4.805  17.881  1.00  0.00     0.053 C 
BRANCH   6   7
ATOM      7  C   UNL     1       2.332   4.378  19.296  1.00  0.00     0.041 C 
ATOM      8  O   UNL     1       2.926   4.957  20.244  1.00  0.00    -0.550 OA
ATOM      9  O   UNL     1       1.475   3.319  19.566  1.00  0.00    -0.550 OA
ENDBRANCH   6   7
ENDBRANCH   5   6
ENDBRANCH   4   5
ENDBRANCH   3   4
ENDBRANCH   2   3
ENDBRANCH   1   2
BRANCH   1  10
ATOM     10  C   UNL     1       5.260   5.549  12.886  1.00  0.00     0.000 C 
BRANCH  10  11
ATOM     11  C   UNL     1       5.021   7.053  13.102  1.00  0.00    -0.000 C 
BRANCH  11  12
ATOM     12  C   UNL     1       6.173   7.765  13.845  1.00  0.00    -0.000 C 
BRANCH  12  13
ATOM     13  C   UNL     1       5.992   7.721  15.373  1.00  0.00    -0.000 C 
BRANCH  13  14
ATOM     14  C   UNL     1       4.520   7.583  15.801  1.00  0.00    -0.000 C 
BRANCH  14  15
ATOM     15  C   UNL     1       3.965   8.769  16.612  1.00  0.00    -0.000 C 
BRANCH  15  16
ATOM     16  C   UNL     1       2.984   8.337  17.711  1.00  0.00    -0.003 C 
ATOM     17  C   UNL     1       2.625   9.510  18.619  1.00  0.00     0.004 C 
ENDBRANCH  15  16
ENDBRANCH  14  15
ENDBRANCH  13  14
ENDBRANCH  12  13
ENDBRANCH  11  12
ENDBRANCH  10  11
ENDBRANCH   1  10
TORSDOF 13
ENDMDL
MODEL 3
REMARK VINA RESULT:    -6.065      2.464      5.324
REMARK INTER + INTRA:         -11.752
REMARK INTER:                 -10.504
REMARK INTRA:                  -1.248
REMARK UNBOUND:                -1.078
REMARK SMILES CCCCCCCCCCCCCCC(=O)[O-]
REMARK SMILES IDX 9 1 10 2 11 3 12 4 13 5 14 6 15 7 16 8 17 9 8 10 7 11 6 12
REMARK SMILES IDX 5 13 4 14 3 15 2 16 1 17
REMARK H PARENT
REMARK Flexibility Score: inf
ROOT
ATOM      1  C   UNL     1       5.526   6.118  14.005  1.00  0.00     0.000 C 
ENDROOT
BRANCH   1   2
ATOM      2  C   UNL     1       5.790   7.577  13.599  1.00  0.00     0.000 C 
BRANCH   2   3
ATOM      3  C   UNL     1       5.029   8.584  14.476  1.00  0.00     0.000 C 
BRANCH   3   4
ATOM      4  C   UNL     1       4.696   7.976  15.844  1.00  0.00     0.000 C 
BRANCH   4   5
ATOM      5  C   UNL     1       3.754   8.893  16.639  1.00  0.00     0.006 C 
BRANCH   5   6
ATOM      6  C   UNL     1       2.964   8.127  17.707  1.00  0.00     0.053 C 
BRANCH   6   7
ATOM      7  C   UNL     1       2.603   9.005  18.866  1.00  0.00     0.041 C 
ATOM      8  O   UNL     1       1.609   8.727  19.587  1.00  0.00    -0.550 OA
ATOM      9  O   UNL     1       3.345  10.150  19.129  1.00  0.00    -0.550 OA
ENDBRANCH   6   7
ENDBRANCH   5   6
ENDBRANCH   4   5
ENDBRANCH   3   4
ENDBRANCH   2   3
ENDBRANCH   1   2
BRANCH   1  10
ATOM     10  C   UNL     1       4.526   5.418  13.071  1.00  0.00     0.000 C 
BRANCH  10  11
ATOM     11  C   UNL     1       4.160   4.001  13.544  1.00  0.00    -0.000 C 
BRANCH  11  12
ATOM     12  C   UNL     1       4.180   3.834  15.079  1.00  0.00    -0.000 C 
BRANCH  12  13
ATOM     13  C   UNL     1       2.845   4.249  15.725  1.00  0.00    -0.000 C 
BRANCH  13  14
ATOM     14  C   UNL     1       2.958   4.480  17.243  1.00  0.00    -0.000 C 
BRANCH  14  15
ATOM     15  C   UNL     1       2.994   3.198  18.094  1.00  0.00    -0.000 C 
BRANCH  15  16
ATOM     16  C   UNL     1       2.585   3.436  19.554  1.00  0.00    -0.003 C 
ATOM     17  C   UNL     1       2.672   4.917  19.915  1.00  0.00     0.004 C 
ENDBRANCH  15  16
ENDBRANCH  14  15
ENDBRANCH  13  14
ENDBRANCH  12  13
ENDBRANCH  11  12
ENDBRANCH  10  11
ENDBRANCH   1  10
TORSDOF 13
ENDMDL
MODEL 4
REMARK VINA RESULT:    -5.963      2.657      4.859
REMARK INTER + INTRA:         -11.573
REMARK INTER:                 -10.447
REMARK INTRA:                  -1.126
REMARK UNBOUND:                -1.078
REMARK SMILES CCCCCCCCCCCCCCC(=O)[O-]
REMARK SMILES IDX 9 1 10 2 11 3 12 4 13 5 14 6 15 7 16 8 17 9 8 10 7 11 6 12
REMARK SMILES IDX 5 13 4 14 3 15 2 16 1 17
REMARK H PARENT
REMARK Flexibility Score: inf
ROOT
ATOM      1  C   UNL     1       2.646   2.845  17.697  1.00  0.00     0.000 C 
ENDROOT
BRANCH   1   2
ATOM      2  C   UNL     1       3.222   3.099  19.100  1.00  0.00     0.000 C 
BRANCH   2   3
ATOM      3  C   UNL     1       2.720   4.412  19.718  1.00  0.00     0.000 C 
BRANCH   3   4
ATOM      4  C   UNL     1       1.839   5.183  18.728  1.00  0.00     0.000 C 
BRANCH   4   5
ATOM      5  C   UNL     1       2.565   6.428  18.198  1.00  0.00     0.006 C 
BRANCH   5   6
ATOM      6  C   UNL     1       2.192   7.695  18.977  1.00  0.00     0.053 C 
BRANCH   6   7
ATOM      7  C   UNL     1       2.537   8.937  18.214  1.00  0.00     0.041 C 
ATOM      8  O   UNL     1       3.284   8.874  17.203  1.00  0.00    -0.550 OA
ATOM      9  O   UNL     1       2.060  10.171  18.640  1.00  0.00    -0.550 OA
ENDBRANCH   6   7
ENDBRANCH   5   6
ENDBRANCH   4   5
ENDBRANCH   3   4
ENDBRANCH   2   3
ENDBRANCH   1   2
BRANCH   1  10
ATOM     10  C   UNL     1       3.741   2.672  16.633  1.00  0.00     0.000 C 
BRANCH  10  11
ATOM     11  C   UNL     1       3.203   2.803  15.197  1.00  0.00    -0.000 C 
BRANCH  11  12
ATOM     12  C   UNL     1       3.148   4.258  14.685  1.00  0.00    -0.000 C 
BRANCH  12  13
ATOM     13  C   UNL     1       3.998   4.460  13.418  1.00  0.00    -0.000 C 
BRANCH  13  14
ATOM     14  C   UNL     1       4.870   5.728  13.475  1.00  0.00    -0.000 C 
BRANCH  14  15
ATOM     15  C   UNL     1       4.988   6.372  14.869  1.00  0.00    -0.000 C 
BRANCH  15  16
ATOM     16  C   UNL     1       5.627   7.768  14.831  1.00  0.00    -0.003 C 
ATOM     17  C   UNL     1       6.785   7.816  13.837  1.00  0.00     0.004 C 
ENDBRANCH  15  16
ENDBRANCH  14  15
ENDBRANCH  13  14
ENDBRANCH  12  13
ENDBRANCH  11  12
ENDBRANCH  10  11
ENDBRANCH   1  10
TORSDOF 13
ENDMDL
MODEL 5
REMARK VINA RESULT:    -5.831      1.307      5.031
REMARK INTER + INTRA:         -11.340
REMARK INTER:                 -10.277
REMARK INTRA:                  -1.064
REMARK UNBOUND:                -1.078
REMARK SMILES CCCCCCCCCCCCCCC(=O)[O-]
REMARK SMILES IDX 9 1 10 2 11 3 12 4 13 5 14 6 15 7 16 8 17 9 8 10 7 11 6 12
REMARK SMILES IDX 5 13 4 14 3 15 2 16 1 17
REMARK H PARENT
REMARK Flexibility Score: inf
ROOT
ATOM      1  C   UNL     1       5.848   7.639  14.623  1.00  0.00     0.000 C 
ENDROOT
BRANCH   1   2
ATOM      2  C   UNL     1       5.228   7.308  13.256  1.00  0.00     0.000 C 
BRANCH   2   3
ATOM      3  C   UNL     1       5.302   5.811  12.917  1.00  0.00     0.000 C 
BRANCH   3   4
ATOM      4  C   UNL     1       3.940   5.136  13.113  1.00  0.00     0.000 C 
BRANCH   4   5
ATOM      5  C   UNL     1       4.082   3.825  13.900  1.00  0.00     0.006 C 
BRANCH   5   6
ATOM      6  C   UNL     1       3.115   3.754  15.089  1.00  0.00     0.053 C 
BRANCH   6   7
ATOM      7  C   UNL     1       3.091   2.387  15.702  1.00  0.00     0.041 C 
ATOM      8  O   UNL     1       2.229   1.544  15.339  1.00  0.00    -0.550 OA
ATOM      9  O   UNL     1       3.999   2.056  16.700  1.00  0.00    -0.550 OA
ENDBRANCH   6   7
ENDBRANCH   5   6
ENDBRANCH   4   5
ENDBRANCH   3   4
ENDBRANCH   2   3
ENDBRANCH   1   2
BRANCH   1  10
ATOM     10  C   UNL     1       4.857   7.447  15.781  1.00  0.00     0.000 C 
BRANCH  10  11
ATOM     11  C   UNL     1       4.091   8.735  16.129  1.00  0.00    -0.000 C 
BRANCH  11  12
ATOM     12  C   UNL     1       4.037   9.035  17.643  1.00  0.00    -0.000 C 
BRANCH  12  13
ATOM     13  C   UNL     1       2.597   9.262  18.139  1.00  0.00    -0.000 C 
BRANCH  13  14
ATOM     14  C   UNL     1       2.093   8.133  19.058  1.00  0.00    -0.000 C 
BRANCH  14  15
ATOM     15  C   UNL     1       2.304   6.709  18.513  1.00  0.00    -0.000 C 
BRANCH  15  16
ATOM     16  C   UNL     1       2.401   5.651  19.622  1.00  0.00    -0.003 C 
ATOM     17  C   UNL     1       2.754   4.282  19.046  1.00  0.00     0.004 C 
ENDBRANCH  15  16
ENDBRANCH  14  15
ENDBRANCH  13  14
ENDBRANCH  12  13
ENDBRANCH  11  12
ENDBRANCH  10  11
ENDBRANCH   1  10
TORSDOF 13
ENDMDL
MODEL 6
REMARK VINA RESULT:    -5.790      2.142      4.440
REMARK INTER + INTRA:         -11.268
REMARK INTER:                 -10.139
REMARK INTRA:                  -1.129
REMARK UNBOUND:                -1.078
REMARK SMILES CCCCCCCCCCCCCCC(=O)[O-]
REMARK SMILES IDX 9 1 10 2 11 3 12 4 13 5 14 6 15 7 16 8 17 9 8 10 7 11 6 12
REMARK SMILES IDX 5 13 4 14 3 15 2 16 1 17
REMARK H PARENT
REMARK Flexibility Score: inf
ROOT
ATOM      1  C   UNL     1       2.366   5.774  19.602  1.00  0.00     0.000 C 
ENDROOT
BRANCH   1   2
ATOM      2  C   UNL     1       2.556   4.537  18.709  1.00  0.00     0.000 C 
BRANCH   2   3
ATOM      3  C   UNL     1       2.617   4.888  17.215  1.00  0.00     0.000 C 
BRANCH   3   4
ATOM      4  C   UNL     1       3.353   3.799  16.425  1.00  0.00     0.000 C 
BRANCH   4   5
ATOM      5  C   UNL     1       3.539   2.533  17.274  1.00  0.00     0.006 C 
BRANCH   5   6
ATOM      6  C   UNL     1       3.954   1.323  16.429  1.00  0.00     0.053 C 
BRANCH   6   7
ATOM      7  C   UNL     1       3.166   1.238  15.157  1.00  0.00     0.041 C 
ATOM      8  O   UNL     1       3.701   1.543  14.058  1.00  0.00    -0.550 OA
ATOM      9  O   UNL     1       1.831   0.855  15.190  1.00  0.00    -0.550 OA
ENDBRANCH   6   7
ENDBRANCH   5   6
ENDBRANCH   4   5
ENDBRANCH   3   4
ENDBRANCH   2   3
ENDBRANCH   1   2
BRANCH   1  10
ATOM     10  C   UNL     1       1.892   7.004  18.813  1.00  0.00     0.000 C 
BRANCH  10  11
ATOM     11  C   UNL     1       2.194   8.329  19.534  1.00  0.00    -0.000 C 
BRANCH  11  12
ATOM     12  C   UNL     1       2.898   9.375  18.643  1.00  0.00    -0.000 C 
BRANCH  12  13
ATOM     13  C   UNL     1       3.014   8.908  17.181  1.00  0.00    -0.000 C 
BRANCH  13  14
ATOM     14  C   UNL     1       4.472   8.742  16.716  1.00  0.00    -0.000 C 
BRANCH  14  15
ATOM     15  C   UNL     1       4.709   7.594  15.717  1.00  0.00    -0.000 C 
BRANCH  15  16
ATOM     16  C   UNL     1       6.134   7.580  15.148  1.00  0.00    -0.003 C 
ATOM     17  C   UNL     1       6.133   7.893  13.653  1.00  0.00     0.004 C 
ENDBRANCH  15  16
ENDBRANCH  14  15
ENDBRANCH  13  14
ENDBRANCH  12  13
ENDBRANCH  11  12
ENDBRANCH  10  11
ENDBRANCH   1  10
TORSDOF 13
ENDMDL
MODEL 7
REMARK VINA RESULT:    -5.774      1.823      5.413
REMARK INTER + INTRA:         -11.240
REMARK INTER:                 -10.323
REMARK INTRA:                  -0.917
REMARK UNBOUND:                -1.078
REMARK SMILES CCCCCCCCCCCCCCC(=O)[O-]
REMARK SMILES IDX 9 1 10 2 11 3 12 4 13 5 14 6 15 7 16 8 17 9 8 10 7 11 6 12
REMARK SMILES IDX 5 13 4 14 3 15 2 16 1 17
REMARK H PARENT
REMARK Flexibility Score: inf
ROOT
ATOM      1  C   UNL     1       4.519   7.488  15.869  1.00  0.00     0.000 C 
ENDROOT
BRANCH   1   2
ATOM      2  C   UNL     1       5.888   7.515  15.170  1.00  0.00     0.000 C 
BRANCH   2   3
ATOM      3  C   UNL     1       5.805   8.027  13.723  1.00  0.00     0.000 C 
BRANCH   3   4
ATOM      4  C   UNL     1       4.890   7.133  12.877  1.00  0.00     0.000 C 
BRANCH   4   5
ATOM      5  C   UNL     1       5.269   5.653  13.032  1.00  0.00     0.006 C 
BRANCH   5   6
ATOM      6  C   UNL     1       4.058   4.724  12.876  1.00  0.00     0.053 C 
BRANCH   6   7
ATOM      7  C   UNL     1       3.859   3.865  14.087  1.00  0.00     0.041 C 
ATOM      8  O   UNL     1       3.196   4.294  15.068  1.00  0.00    -0.550 OA
ATOM      9  O   UNL     1       4.434   2.602  14.145  1.00  0.00    -0.550 OA
ENDBRANCH   6   7
ENDBRANCH   5   6
ENDBRANCH   4   5
ENDBRANCH   3   4
ENDBRANCH   2   3
ENDBRANCH   1   2
BRANCH   1  10
ATOM     10  C   UNL     1       4.017   8.893  16.235  1.00  0.00     0.000 C 
BRANCH  10  11
ATOM     11  C   UNL     1       3.934   9.120  17.755  1.00  0.00    -0.000 C 
BRANCH  11  12
ATOM     12  C   UNL     1       2.489   9.257  18.284  1.00  0.00    -0.000 C 
BRANCH  12  13
ATOM     13  C   UNL     1       2.108   8.107  19.234  1.00  0.00    -0.000 C 
BRANCH  13  14
ATOM     14  C   UNL     1       2.262   6.718  18.588  1.00  0.00    -0.000 C 
BRANCH  14  15
ATOM     15  C   UNL     1       2.428   5.555  19.583  1.00  0.00    -0.000 C 
BRANCH  15  16
ATOM     16  C   UNL     1       2.647   4.201  18.892  1.00  0.00    -0.003 C 
ATOM     17  C   UNL     1       2.058   3.061  19.718  1.00  0.00     0.004 C 
ENDBRANCH  15  16
ENDBRANCH  14  15
ENDBRANCH  13  14
ENDBRANCH  12  13
ENDBRANCH  11  12
ENDBRANCH  10  11
ENDBRANCH   1  10
TORSDOF 13
ENDMDL
MODEL 8
REMARK VINA RESULT:    -5.700      2.791      6.799
REMARK INTER + INTRA:         -11.111
REMARK INTER:                 -10.197
REMARK INTRA:                  -0.914
REMARK UNBOUND:                -1.078
REMARK SMILES CCCCCCCCCCCCCCC(=O)[O-]
REMARK SMILES IDX 9 1 10 2 11 3 12 4 13 5 14 6 15 7 16 8 17 9 8 10 7 11 6 12
REMARK SMILES IDX 5 13 4 14 3 15 2 16 1 17
REMARK H PARENT
REMARK Flexibility Score: inf
ROOT
ATOM      1  C   UNL     1       3.715   2.362  16.619  1.00  0.00     0.000 C 
ENDROOT
BRANCH   1   2
ATOM      2  C   UNL     1       3.906   2.497  15.099  1.00  0.00     0.000 C 
BRANCH   2   3
ATOM      3  C   UNL     1       3.405   3.844  14.556  1.00  0.00     0.000 C 
BRANCH   3   4
ATOM      4  C   UNL     1       4.175   4.247  13.293  1.00  0.00     0.000 C 
BRANCH   4   5
ATOM      5  C   UNL     1       4.801   5.641  13.450  1.00  0.00     0.006 C 
BRANCH   5   6
ATOM      6  C   UNL     1       4.751   6.140  14.900  1.00  0.00     0.053 C 
BRANCH   6   7
ATOM      7  C   UNL     1       5.381   7.492  15.042  1.00  0.00     0.041 C 
ATOM      8  O   UNL     1       4.930   8.316  15.881  1.00  0.00    -0.550 OA
ATOM      9  O   UNL     1       6.445   7.853  14.226  1.00  0.00    -0.550 OA
ENDBRANCH   6   7
ENDBRANCH   5   6
ENDBRANCH   4   5
ENDBRANCH   3   4
ENDBRANCH   2   3
ENDBRANCH   1   2
BRANCH   1  10
ATOM     10  C   UNL     1       2.980   3.564  17.230  1.00  0.00     0.000 C 
BRANCH  10  11
ATOM     11  C   UNL     1       2.273   3.221  18.552  1.00  0.00    -0.000 C 
BRANCH  11  12
ATOM     12  C   UNL     1       1.558   4.425  19.205  1.00  0.00    -0.000 C 
BRANCH  12  13
ATOM     13  C   UNL     1       2.520   5.597  19.469  1.00  0.00    -0.000 C 
BRANCH  13  14
ATOM     14  C   UNL     1       2.201   6.841  18.618  1.00  0.00    -0.000 C 
BRANCH  14  15
ATOM     15  C   UNL     1       1.991   8.139  19.419  1.00  0.00    -0.000 C 
BRANCH  15  16
ATOM     16  C   UNL     1       2.293   9.403  18.601  1.00  0.00    -0.003 C 
ATOM     17  C   UNL     1       3.543  10.108  19.120  1.00  0.00     0.004 C 
ENDBRANCH  15  16
ENDBRANCH  14  15
ENDBRANCH  13  14
ENDBRANCH  12  13
ENDBRANCH  11  12
ENDBRANCH  10  11
ENDBRANCH   1  10
TORSDOF 13
ENDMDL
MODEL 9
REMARK VINA RESULT:    -5.649      2.965      5.131
REMARK INTER + INTRA:         -11.021
REMARK INTER:                 -10.050
REMARK INTRA:                  -0.970
REMARK UNBOUND:                -1.078
REMARK SMILES CCCCCCCCCCCCCCC(=O)[O-]
REMARK SMILES IDX 9 1 10 2 11 3 12 4 13 5 14 6 15 7 16 8 17 9 8 10 7 11 6 12
REMARK SMILES IDX 5 13 4 14 3 15 2 16 1 17
REMARK H PARENT
REMARK Flexibility Score: inf
ROOT
ATOM      1  C   UNL     1       2.217   6.673  18.558  1.00  0.00     0.000 C 
ENDROOT
BRANCH   1   2
ATOM      2  C   UNL     1       2.180   7.992  19.346  1.00  0.00     0.000 C 
BRANCH   2   3
ATOM      3  C   UNL     1       2.853   9.151  18.596  1.00  0.00     0.000 C 
BRANCH   3   4
ATOM      4  C   UNL     1       3.010   8.823  17.107  1.00  0.00     0.000 C 
BRANCH   4   5
ATOM      5  C   UNL     1       4.493   8.736  16.714  1.00  0.00     0.006 C 
BRANCH   5   6
ATOM      6  C   UNL     1       4.776   7.560  15.771  1.00  0.00     0.053 C 
BRANCH   6   7
ATOM      7  C   UNL     1       5.514   7.999  14.544  1.00  0.00     0.041 C 
ATOM      8  O   UNL     1       5.105   8.985  13.876  1.00  0.00    -0.550 OA
ATOM      9  O   UNL     1       6.636   7.298  14.119  1.00  0.00    -0.550 OA
ENDBRANCH   6   7
ENDBRANCH   5   6
ENDBRANCH   4   5
ENDBRANCH   3   4
ENDBRANCH   2   3
ENDBRANCH   1   2
BRANCH   1  10
ATOM     10  C   UNL     1       1.778   5.468  19.404  1.00  0.00     0.000 C 
BRANCH  10  11
ATOM     11  C   UNL     1       2.929   4.486  19.684  1.00  0.00    -0.000 C 
BRANCH  11  12
ATOM     12  C   UNL     1       2.901   3.226  18.791  1.00  0.00    -0.000 C 
BRANCH  12  13
ATOM     13  C   UNL     1       3.019   3.572  17.296  1.00  0.00    -0.000 C 
BRANCH  13  14
ATOM     14  C   UNL     1       3.794   2.510  16.493  1.00  0.00    -0.000 C 
BRANCH  14  15
ATOM     15  C   UNL     1       3.829   2.746  14.972  1.00  0.00    -0.000 C 
BRANCH  15  16
ATOM     16  C   UNL     1       3.445   4.179  14.578  1.00  0.00    -0.003 C 
ATOM     17  C   UNL     1       4.222   4.638  13.347  1.00  0.00     0.004 C 
ENDBRANCH  15  16
ENDBRANCH  14  15
ENDBRANCH  13  14
ENDBRANCH  12  13
ENDBRANCH  11  12
ENDBRANCH  10  11
ENDBRANCH   1  10
TORSDOF 13
ENDMDL
