MODEL 1
REMARK VINA RESULT:    -3.434      0.000      0.000
REMARK INTER + INTRA:          -4.228
REMARK INTER:                  -4.136
REMARK INTRA:                  -0.091
REMARK UNBOUND:                -0.091
REMARK SMILES CC[C@@H](C)[C@@H]([NH3+])C(=O)[O-]
REMARK SMILES IDX 3 1 4 2 5 3 6 4 7 8 8 9 9 10 2 11 1 12
REMARK H PARENT 6 5 6 6 6 7
REMARK Flexibility Score: inf
ROOT
ATOM      1  C   UNL     1      29.960  16.314  20.973  1.00  0.00     0.050 C 
ATOM      2  C   UNL     1      30.751  14.998  21.115  1.00  0.00     0.014 C 
ENDROOT
BRANCH   1   3
ATOM      3  C   UNL     1      30.025  16.839  19.502  1.00  0.00     0.230 C 
BRANCH   3   4
ATOM      4  N   UNL     1      29.082  17.941  19.265  1.00  0.00    -0.350 N 
ATOM      5  H   UNL     1      29.595  18.843  19.151  1.00  0.00     0.345 HD
ATOM      6  H   UNL     1      28.447  18.051  20.089  1.00  0.00     0.345 HD
ATOM      7  H   UNL     1      28.501  17.753  18.414  1.00  0.00     0.345 HD
ENDBRANCH   3   4
BRANCH   3   8
ATOM      8  C   UNL     1      31.421  17.295  19.147  1.00  0.00     0.099 C 
ATOM      9  O   UNL     1      31.971  16.899  18.085  1.00  0.00    -0.544 OA
ATOM     10  O   UNL     1      32.105  18.160  19.993  1.00  0.00    -0.544 OA
ENDBRANCH   3   8
ENDBRANCH   1   3
BRANCH   1  11
ATOM     11  C   UNL     1      28.498  16.088  21.458  1.00  0.00     0.006 C 
ATOM     12  C   UNL     1      28.396  15.016  22.545  1.00  0.00     0.004 C 
ENDBRANCH   1  11
TORSDOF 4
ENDMDL
MODEL 2
REMARK VINA RESULT:    -3.310      2.261      3.913
REMARK INTER + INTRA:          -4.078
REMARK INTER:                  -4.004
REMARK INTRA:                  -0.074
REMARK UNBOUND:                -0.091
REMARK SMILES CC[C@@H](C)[C@@H]([NH3+])C(=O)[O-]
REMARK SMILES IDX 3 1 4 2 5 3 6 4 7 8 8 9 9 10 2 11 1 12
REMARK H PARENT 6 5 6 6 6 7
REMARK Flexibility Score: inf
ROOT
ATOM      1  C   UNL     1      31.674  16.530  18.822  1.00  0.00     0.050 C 
ATOM      2  C   UNL     1      33.091  17.053  19.131  1.00  0.00     0.014 C 
ENDROOT
BRANCH   1   3
ATOM      3  C   UNL     1      30.617  17.234  19.735  1.00  0.00     0.230 C 
BRANCH   3   4
ATOM      4  N   UNL     1      29.552  17.878  18.953  1.00  0.00    -0.350 N 
ATOM      5  H   UNL     1      29.070  18.606  19.525  1.00  0.00     0.345 HD
ATOM      6  H   UNL     1      28.830  17.171  18.683  1.00  0.00     0.345 HD
ATOM      7  H   UNL     1      29.943  18.310  18.083  1.00  0.00     0.345 HD
ENDBRANCH   3   4
BRANCH   3   8
ATOM      8  C   UNL     1      29.998  16.256  20.705  1.00  0.00     0.099 C 
ATOM      9  O   UNL     1      30.669  15.286  21.148  1.00  0.00    -0.544 OA
ATOM     10  O   UNL     1      28.683  16.426  21.118  1.00  0.00    -0.544 OA
ENDBRANCH   3   8
ENDBRANCH   1   3
BRANCH   1  11
ATOM     11  C   UNL     1      31.374  16.726  17.307  1.00  0.00     0.006 C 
ATOM     12  C   UNL     1      32.386  16.012  16.408  1.00  0.00     0.004 C 
ENDBRANCH   1  11
TORSDOF 4
ENDMDL
MODEL 3
REMARK VINA RESULT:    -2.882      2.870      4.682
REMARK INTER + INTRA:          -3.562
REMARK INTER:                  -3.479
REMARK INTRA:                  -0.083
REMARK UNBOUND:                -0.091
REMARK SMILES CC[C@@H](C)[C@@H]([NH3+])C(=O)[O-]
REMARK SMILES IDX 3 1 4 2 5 3 6 4 7 8 8 9 9 10 2 11 1 12
REMARK H PARENT 6 5 6 6 6 7
REMARK Flexibility Score: inf
ROOT
ATOM      1  C   UNL     1      31.856  16.646  17.230  1.00  0.00     0.050 C 
ATOM      2  C   UNL     1      30.540  16.702  16.427  1.00  0.00     0.014 C 
ENDROOT
BRANCH   1   3
ATOM      3  C   UNL     1      31.585  16.183  18.698  1.00  0.00     0.230 C 
BRANCH   3   4
ATOM      4  N   UNL     1      32.816  15.764  19.383  1.00  0.00    -0.350 N 
ATOM      5  H   UNL     1      33.229  14.929  18.914  1.00  0.00     0.345 HD
ATOM      6  H   UNL     1      32.600  15.488  20.369  1.00  0.00     0.345 HD
ATOM      7  H   UNL     1      33.514  16.544  19.397  1.00  0.00     0.345 HD
ENDBRANCH   3   4
BRANCH   3   8
ATOM      8  C   UNL     1      30.918  17.276  19.499  1.00  0.00     0.099 C 
ATOM      9  O   UNL     1      31.574  18.287  19.868  1.00  0.00    -0.544 OA
ATOM     10  O   UNL     1      29.573  17.172  19.831  1.00  0.00    -0.544 OA
ENDBRANCH   3   8
ENDBRANCH   1   3
BRANCH   1  11
ATOM     11  C   UNL     1      32.866  15.719  16.493  1.00  0.00     0.006 C 
ATOM     12  C   UNL     1      32.627  15.669  14.982  1.00  0.00     0.004 C 
ENDBRANCH   1  11
TORSDOF 4
ENDMDL
MODEL 4
REMARK VINA RESULT:    -2.865     10.028     10.724
REMARK INTER + INTRA:          -3.542
REMARK INTER:                  -3.485
REMARK INTRA:                  -0.057
REMARK UNBOUND:                -0.091
REMARK SMILES CC[C@@H](C)[C@@H]([NH3+])C(=O)[O-]
REMARK SMILES IDX 3 1 4 2 5 3 6 4 7 8 8 9 9 10 2 11 1 12
REMARK H PARENT 6 5 6 6 6 7
REMARK Flexibility Score: inf
ROOT
ATOM      1  C   UNL     1      20.548  21.116  19.385  1.00  0.00     0.050 C 
ATOM      2  C   UNL     1      21.753  21.684  20.162  1.00  0.00     0.014 C 
ENDROOT
BRANCH   1   3
ATOM      3  C   UNL     1      20.905  19.733  18.750  1.00  0.00     0.230 C 
BRANCH   3   4
ATOM      4  N   UNL     1      19.824  18.751  18.917  1.00  0.00    -0.350 N 
ATOM      5  H   UNL     1      19.080  19.130  19.543  1.00  0.00     0.345 HD
ATOM      6  H   UNL     1      20.196  17.885  19.372  1.00  0.00     0.345 HD
ATOM      7  H   UNL     1      19.412  18.495  17.990  1.00  0.00     0.345 HD
ENDBRANCH   3   4
BRANCH   3   8
ATOM      8  C   UNL     1      21.225  19.874  17.281  1.00  0.00     0.099 C 
ATOM      9  O   UNL     1      20.498  19.320  16.414  1.00  0.00    -0.544 OA
ATOM     10  O   UNL     1      22.325  20.622  16.879  1.00  0.00    -0.544 OA
ENDBRANCH   3   8
ENDBRANCH   1   3
BRANCH   1  11
ATOM     11  C   UNL     1      19.319  21.032  20.338  1.00  0.00     0.006 C 
ATOM     12  C   UNL     1      19.156  22.284  21.202  1.00  0.00     0.004 C 
ENDBRANCH   1  11
TORSDOF 4
ENDMDL
MODEL 5
REMARK VINA RESULT:    -2.840      2.703      3.360
REMARK INTER + INTRA:          -3.512
REMARK INTER:                  -3.420
REMARK INTRA:                  -0.092
REMARK UNBOUND:                -0.091
REMARK SMILES CC[C@@H](C)[C@@H]([NH3+])C(=O)[O-]
REMARK SMILES IDX 3 1 4 2 5 3 6 4 7 8 8 9 9 10 2 11 1 12
REMARK H PARENT 6 5 6 6 6 7
REMARK Flexibility Score: inf
ROOT
ATOM      1  C   UNL     1      31.595  17.463  19.140  1.00  0.00     0.050 C 
ATOM      2  C   UNL     1      32.515  18.210  20.126  1.00  0.00     0.014 C 
ENDROOT
BRANCH   1   3
ATOM      3  C   UNL     1      32.384  16.336  18.398  1.00  0.00     0.230 C 
BRANCH   3   4
ATOM      4  N   UNL     1      32.149  15.012  18.992  1.00  0.00    -0.350 N 
ATOM      5  H   UNL     1      31.225  14.634  18.688  1.00  0.00     0.345 HD
ATOM      6  H   UNL     1      32.121  15.089  20.035  1.00  0.00     0.345 HD
ATOM      7  H   UNL     1      32.911  14.347  18.724  1.00  0.00     0.345 HD
ENDBRANCH   3   4
BRANCH   3   8
ATOM      8  C   UNL     1      32.023  16.293  16.932  1.00  0.00     0.099 C 
ATOM      9  O   UNL     1      30.861  16.597  16.552  1.00  0.00    -0.544 OA
ATOM     10  O   UNL     1      32.977  15.920  15.993  1.00  0.00    -0.544 OA
ENDBRANCH   3   8
ENDBRANCH   1   3
BRANCH   1  11
ATOM     11  C   UNL     1      30.358  16.913  19.910  1.00  0.00     0.006 C 
ATOM     12  C   UNL     1      29.035  17.454  19.363  1.00  0.00     0.004 C 
ENDBRANCH   1  11
TORSDOF 4
ENDMDL
MODEL 6
REMARK VINA RESULT:    -2.810     10.432     11.072
REMARK INTER + INTRA:          -3.476
REMARK INTER:                  -3.481
REMARK INTRA:                   0.005
REMARK UNBOUND:                -0.091
REMARK SMILES CC[C@@H](C)[C@@H]([NH3+])C(=O)[O-]
REMARK SMILES IDX 3 1 4 2 5 3 6 4 7 8 8 9 9 10 2 11 1 12
REMARK H PARENT 6 5 6 6 6 7
REMARK Flexibility Score: inf
ROOT
ATOM      1  C   UNL     1      20.464  20.334  18.531  1.00  0.00     0.050 C 
ATOM      2  C   UNL     1      19.746  18.990  18.772  1.00  0.00     0.014 C 
ENDROOT
BRANCH   1   3
ATOM      3  C   UNL     1      21.112  20.856  19.854  1.00  0.00     0.230 C 
BRANCH   3   4
ATOM      4  N   UNL     1      22.415  21.494  19.618  1.00  0.00    -0.350 N 
ATOM      5  H   UNL     1      22.485  21.826  18.632  1.00  0.00     0.345 HD
ATOM      6  H   UNL     1      23.184  20.800  19.764  1.00  0.00     0.345 HD
ATOM      7  H   UNL     1      22.557  22.297  20.275  1.00  0.00     0.345 HD
ENDBRANCH   3   4
BRANCH   3   8
ATOM      8  C   UNL     1      20.201  21.833  20.558  1.00  0.00     0.099 C 
ATOM      9  O   UNL     1      20.682  22.776  21.241  1.00  0.00    -0.544 OA
ATOM     10  O   UNL     1      18.822  21.699  20.451  1.00  0.00    -0.544 OA
ENDBRANCH   3   8
ENDBRANCH   1   3
BRANCH   1  11
ATOM     11  C   UNL     1      21.507  20.159  17.388  1.00  0.00     0.006 C 
ATOM     12  C   UNL     1      21.199  18.961  16.487  1.00  0.00     0.004 C 
ENDBRANCH   1  11
TORSDOF 4
ENDMDL
MODEL 7
REMARK VINA RESULT:    -2.628      1.844      2.501
REMARK INTER + INTRA:          -3.257
REMARK INTER:                  -3.187
REMARK INTRA:                  -0.070
REMARK UNBOUND:                -0.091
REMARK SMILES CC[C@@H](C)[C@@H]([NH3+])C(=O)[O-]
REMARK SMILES IDX 3 1 4 2 5 3 6 4 7 8 8 9 9 10 2 11 1 12
REMARK H PARENT 6 5 6 6 6 7
REMARK Flexibility Score: inf
ROOT
ATOM      1  C   UNL     1      30.203  16.538  19.514  1.00  0.00     0.050 C 
ATOM      2  C   UNL     1      29.034  17.542  19.474  1.00  0.00     0.014 C 
ENDROOT
BRANCH   1   3
ATOM      3  C   UNL     1      31.521  17.208  19.007  1.00  0.00     0.230 C 
BRANCH   3   4
ATOM      4  N   UNL     1      32.632  17.033  19.954  1.00  0.00    -0.350 N 
ATOM      5  H   UNL     1      33.514  17.426  19.558  1.00  0.00     0.345 HD
ATOM      6  H   UNL     1      32.798  16.014  20.124  1.00  0.00     0.345 HD
ATOM      7  H   UNL     1      32.414  17.496  20.867  1.00  0.00     0.345 HD
ENDBRANCH   3   4
BRANCH   3   8
ATOM      8  C   UNL     1      31.927  16.660  17.659  1.00  0.00     0.099 C 
ATOM      9  O   UNL     1      33.115  16.299  17.449  1.00  0.00    -0.544 OA
ATOM     10  O   UNL     1      30.986  16.549  16.643  1.00  0.00    -0.544 OA
ENDBRANCH   3   8
ENDBRANCH   1   3
BRANCH   1  11
ATOM     11  C   UNL     1      30.343  15.972  20.958  1.00  0.00     0.006 C 
ATOM     12  C   UNL     1      28.991  15.774  21.647  1.00  0.00     0.004 C 
ENDBRANCH   1  11
TORSDOF 4
ENDMDL
MODEL 8
REMARK VINA RESULT:    -2.303      1.957      2.735
REMARK INTER + INTRA:          -2.866
REMARK INTER:                  -2.899
REMARK INTRA:                   0.033
REMARK UNBOUND:                -0.091
REMARK SMILES CC[C@@H](C)[C@@H]([NH3+])C(=O)[O-]
REMARK SMILES IDX 3 1 4 2 5 3 6 4 7 8 8 9 9 10 2 11 1 12
REMARK H PARENT 6 5 6 6 6 7
REMARK Flexibility Score: inf
ROOT
ATOM      1  C   UNL     1      30.282  16.897  18.400  1.00  0.00     0.050 C 
ATOM      2  C   UNL     1      30.120  17.319  16.925  1.00  0.00     0.014 C 
ENDROOT
BRANCH   1   3
ATOM      3  C   UNL     1      31.687  17.318  18.941  1.00  0.00     0.230 C 
BRANCH   3   4
ATOM      4  N   UNL     1      31.603  18.446  19.880  1.00  0.00    -0.350 N 
ATOM      5  H   UNL     1      31.606  18.102  20.865  1.00  0.00     0.345 HD
ATOM      6  H   UNL     1      30.704  18.963  19.738  1.00  0.00     0.345 HD
ATOM      7  H   UNL     1      32.399  19.108  19.733  1.00  0.00     0.345 HD
ENDBRANCH   3   4
BRANCH   3   8
ATOM      8  C   UNL     1      32.379  16.159  19.618  1.00  0.00     0.099 C 
ATOM      9  O   UNL     1      32.291  14.997  19.141  1.00  0.00    -0.544 OA
ATOM     10  O   UNL     1      33.123  16.372  20.772  1.00  0.00    -0.544 OA
ENDBRANCH   3   8
ENDBRANCH   1   3
BRANCH   1  11
ATOM     11  C   UNL     1      29.117  17.503  19.237  1.00  0.00     0.006 C 
ATOM     12  C   UNL     1      28.872  16.742  20.542  1.00  0.00     0.004 C 
ENDBRANCH   1  11
TORSDOF 4
ENDMDL
