MODEL 1
REMARK VINA RESULT:    -8.029      0.000      0.000
REMARK INTER + INTRA:         -11.563
REMARK INTER:                 -10.845
REMARK INTRA:                  -0.718
REMARK UNBOUND:                -0.718
REMARK SMILES O=c1c(-c2ccc(O)cc2)coc2c([C@@H]3O[C@H](CO)[C@@H](O)[C@H](O)[C@@H]3O)c(O)ccc12
REMARK SMILES IDX 3 1 11 2 12 3 13 4 30 5 2 6 1 7 29 8 28 9 26 10 14 11 4 12
REMARK SMILES IDX 5 13 6 14 7 15 10 16 9 17 8 18 15 20 24 21 16 22 22 23 17 24
REMARK SMILES IDX 20 25 25 26 23 28 18 30 19 31 21 33 27 35
REMARK H PARENT 8 19 25 27 23 29 19 32 21 34 27 36
REMARK Flexibility Score: inf
ROOT
ATOM      1  C   UNL     1     -13.305  11.342 -10.310  1.00  0.00     0.065 A 
ATOM      2  C   UNL     1     -13.608   9.976 -10.392  1.00  0.00     0.208 A 
ATOM      3  O   UNL     1     -13.904   9.276  -9.305  1.00  0.00    -0.463 OA
ATOM      4  C   UNL     1     -13.934   9.806  -8.084  1.00  0.00     0.147 A 
ATOM      5  C   UNL     1     -13.629  11.176  -7.907  1.00  0.00     0.066 A 
ATOM      6  C   UNL     1     -13.309  11.946  -9.040  1.00  0.00     0.200 A 
ATOM      7  O   UNL     1     -13.005  13.166  -8.915  1.00  0.00    -0.288 OA
ATOM      8  C   UNL     1     -13.639  11.727  -6.617  1.00  0.00     0.020 A 
ATOM      9  C   UNL     1     -13.936  10.929  -5.516  1.00  0.00     0.047 A 
ATOM     10  C   UNL     1     -14.236   9.571  -5.677  1.00  0.00     0.125 A 
ATOM     11  C   UNL     1     -14.263   8.997  -6.971  1.00  0.00     0.069 A 
ENDROOT
BRANCH   1  12
ATOM     12  C   UNL     1     -12.987  12.107 -11.543  1.00  0.00    -0.011 A 
ATOM     13  C   UNL     1     -13.814  12.002 -12.675  1.00  0.00     0.013 A 
ATOM     14  C   UNL     1     -13.522  12.727 -13.834  1.00  0.00     0.047 A 
ATOM     15  C   UNL     1     -12.406  13.568 -13.876  1.00  0.00     0.115 A 
ATOM     16  C   UNL     1     -11.871  12.960 -11.589  1.00  0.00     0.013 A 
ATOM     17  C   UNL     1     -11.581  13.685 -12.750  1.00  0.00     0.047 A 
BRANCH  15  18
ATOM     18  O   UNL     1     -12.127  14.284 -15.039  1.00  0.00    -0.508 OA
ATOM     19  H   UNL     1     -11.214  14.690 -15.203  1.00  0.00     0.293 HD
ENDBRANCH  15  18
ENDBRANCH   1  12
BRANCH  11  20
ATOM     20  C   UNL     1     -14.563   7.517  -7.177  1.00  0.00     0.188 C 
ATOM     21  C   UNL     1     -13.258   6.689  -7.176  1.00  0.00     0.179 C 
ATOM     22  O   UNL     1     -15.457   7.047  -6.178  1.00  0.00    -0.362 OA
ATOM     23  C   UNL     1     -13.608   5.208  -7.420  1.00  0.00     0.177 C 
ATOM     24  C   UNL     1     -15.898   5.729  -6.467  1.00  0.00     0.176 C 
ATOM     25  C   UNL     1     -14.704   4.740  -6.437  1.00  0.00     0.177 C 
BRANCH  21  26
ATOM     26  O   UNL     1     -12.591   6.824  -5.945  1.00  0.00    -0.387 OA
ATOM     27  H   UNL     1     -11.630   6.968  -6.149  1.00  0.00     0.211 HD
ENDBRANCH  21  26
BRANCH  23  28
ATOM     28  O   UNL     1     -12.462   4.395  -7.344  1.00  0.00    -0.387 OA
ATOM     29  H   UNL     1     -12.698   3.580  -6.829  1.00  0.00     0.211 HD
ENDBRANCH  23  28
BRANCH  24  30
ATOM     30  C   UNL     1     -16.956   5.332  -5.428  1.00  0.00     0.191 C 
BRANCH  30  31
ATOM     31  O   UNL     1     -17.789   4.325  -5.939  1.00  0.00    -0.394 OA
ATOM     32  H   UNL     1     -18.723   4.597  -5.737  1.00  0.00     0.210 HD
ENDBRANCH  30  31
ENDBRANCH  24  30
BRANCH  25  33
ATOM     33  O   UNL     1     -15.113   3.431  -6.745  1.00  0.00    -0.388 OA
ATOM     34  H   UNL     1     -15.071   3.326  -7.732  1.00  0.00     0.211 HD
ENDBRANCH  25  33
ENDBRANCH  11  20
BRANCH  10  35
ATOM     35  O   UNL     1     -14.496   8.793  -4.548  1.00  0.00    -0.507 OA
ATOM     36  H   UNL     1     -14.357   7.790  -4.548  1.00  0.00     0.293 HD
ENDBRANCH  10  35
TORSDOF 9
ENDMDL
MODEL 2
REMARK VINA RESULT:    -7.857      1.498      8.485
REMARK INTER + INTRA:         -11.331
REMARK INTER:                 -11.113
REMARK INTRA:                  -0.218
REMARK UNBOUND:                -0.718
REMARK SMILES O=c1c(-c2ccc(O)cc2)coc2c([C@@H]3O[C@H](CO)[C@@H](O)[C@H](O)[C@@H]3O)c(O)ccc12
REMARK SMILES IDX 3 1 11 2 12 3 13 4 30 5 2 6 1 7 29 8 28 9 26 10 14 11 4 12
REMARK SMILES IDX 5 13 6 14 7 15 10 16 9 17 8 18 15 20 24 21 16 22 22 23 17 24
REMARK SMILES IDX 20 25 25 26 23 28 18 30 19 31 21 33 27 35
REMARK H PARENT 8 19 25 27 23 29 19 32 21 34 27 36
REMARK Flexibility Score: inf
ROOT
ATOM      1  C   UNL     1     -14.267   8.210  -7.955  1.00  0.00     0.065 A 
ATOM      2  C   UNL     1     -13.746   8.422  -9.239  1.00  0.00     0.208 A 
ATOM      3  O   UNL     1     -13.347   9.628  -9.623  1.00  0.00    -0.463 OA
ATOM      4  C   UNL     1     -13.410  10.700  -8.836  1.00  0.00     0.147 A 
ATOM      5  C   UNL     1     -13.934  10.579  -7.528  1.00  0.00     0.066 A 
ATOM      6  C   UNL     1     -14.369   9.315  -7.091  1.00  0.00     0.200 A 
ATOM      7  O   UNL     1     -14.867   9.177  -5.938  1.00  0.00    -0.288 OA
ATOM      8  C   UNL     1     -14.020  11.715  -6.709  1.00  0.00     0.020 A 
ATOM      9  C   UNL     1     -13.605  12.956  -7.184  1.00  0.00     0.047 A 
ATOM     10  C   UNL     1     -13.088  13.089  -8.478  1.00  0.00     0.125 A 
ATOM     11  C   UNL     1     -12.960  11.954  -9.314  1.00  0.00     0.069 A 
ENDROOT
BRANCH   1  12
ATOM     12  C   UNL     1     -14.699   6.850  -7.545  1.00  0.00    -0.011 A 
ATOM     13  C   UNL     1     -13.748   5.901  -7.127  1.00  0.00     0.013 A 
ATOM     14  C   UNL     1     -14.152   4.622  -6.733  1.00  0.00     0.047 A 
ATOM     15  C   UNL     1     -15.506   4.276  -6.744  1.00  0.00     0.115 A 
ATOM     16  C   UNL     1     -16.060   6.497  -7.548  1.00  0.00     0.013 A 
ATOM     17  C   UNL     1     -16.460   5.218  -7.151  1.00  0.00     0.047 A 
BRANCH  15  18
ATOM     18  O   UNL     1     -15.894   2.997  -6.349  1.00  0.00    -0.508 OA
ATOM     19  H   UNL     1     -15.582   2.597  -5.472  1.00  0.00     0.293 HD
ENDBRANCH  15  18
ENDBRANCH   1  12
BRANCH  11  20
ATOM     20  C   UNL     1     -12.423  12.070 -10.736  1.00  0.00     0.188 C 
ATOM     21  C   UNL     1     -13.399  11.421 -11.744  1.00  0.00     0.179 C 
ATOM     22  O   UNL     1     -12.187  13.430 -11.068  1.00  0.00    -0.362 OA
ATOM     23  C   UNL     1     -12.801  11.534 -13.159  1.00  0.00     0.177 C 
ATOM     24  C   UNL     1     -11.508  13.542 -12.310  1.00  0.00     0.176 C 
ATOM     25  C   UNL     1     -12.389  12.992 -13.461  1.00  0.00     0.177 C 
BRANCH  21  26
ATOM     26  O   UNL     1     -14.649  12.067 -11.703  1.00  0.00    -0.387 OA
ATOM     27  H   UNL     1     -15.127  11.727 -10.902  1.00  0.00     0.211 HD
ENDBRANCH  21  26
BRANCH  23  28
ATOM     28  O   UNL     1     -13.688  11.035 -14.130  1.00  0.00    -0.387 OA
ATOM     29  H   UNL     1     -14.567  11.475 -13.998  1.00  0.00     0.211 HD
ENDBRANCH  23  28
BRANCH  24  30
ATOM     30  C   UNL     1     -11.167  15.020 -12.547  1.00  0.00     0.191 C 
BRANCH  30  31
ATOM     31  O   UNL     1     -10.016  15.136 -13.340  1.00  0.00    -0.394 OA
ATOM     32  H   UNL     1     -10.164  14.572 -14.143  1.00  0.00     0.210 HD
ENDBRANCH  30  31
ENDBRANCH  24  30
BRANCH  25  33
ATOM     33  O   UNL     1     -11.726  13.070 -14.698  1.00  0.00    -0.388 OA
ATOM     34  H   UNL     1     -11.319  12.182 -14.879  1.00  0.00     0.211 HD
ENDBRANCH  25  33
ENDBRANCH  11  20
BRANCH  10  35
ATOM     35  O   UNL     1     -12.711  14.353  -8.933  1.00  0.00    -0.507 OA
ATOM     36  H   UNL     1     -13.096  14.752  -9.781  1.00  0.00     0.293 HD
ENDBRANCH  10  35
TORSDOF 9
ENDMDL
MODEL 3
REMARK VINA RESULT:    -7.267      0.971      2.206
REMARK INTER + INTRA:         -10.534
REMARK INTER:                 -10.615
REMARK INTRA:                   0.080
REMARK UNBOUND:                -0.718
REMARK SMILES O=c1c(-c2ccc(O)cc2)coc2c([C@@H]3O[C@H](CO)[C@@H](O)[C@H](O)[C@@H]3O)c(O)ccc12
REMARK SMILES IDX 3 1 11 2 12 3 13 4 30 5 2 6 1 7 29 8 28 9 26 10 14 11 4 12
REMARK SMILES IDX 5 13 6 14 7 15 10 16 9 17 8 18 15 20 24 21 16 22 22 23 17 24
REMARK SMILES IDX 20 25 25 26 23 28 18 30 19 31 21 33 27 35
REMARK H PARENT 8 19 25 27 23 29 19 32 21 34 27 36
REMARK Flexibility Score: inf
ROOT
ATOM      1  C   UNL     1     -13.269  11.166  -9.502  1.00  0.00     0.065 A 
ATOM      2  C   UNL     1     -13.400   9.777  -9.369  1.00  0.00     0.208 A 
ATOM      3  O   UNL     1     -13.660   9.226  -8.190  1.00  0.00    -0.463 OA
ATOM      4  C   UNL     1     -13.813   9.934  -7.073  1.00  0.00     0.147 A 
ATOM      5  C   UNL     1     -13.685  11.342  -7.114  1.00  0.00     0.066 A 
ATOM      6  C   UNL     1     -13.407  11.958  -8.347  1.00  0.00     0.200 A 
ATOM      7  O   UNL     1     -13.260  13.210  -8.414  1.00  0.00    -0.288 OA
ATOM      8  C   UNL     1     -13.824  12.084  -5.932  1.00  0.00     0.020 A 
ATOM      9  C   UNL     1     -14.074  11.439  -4.723  1.00  0.00     0.047 A 
ATOM     10  C   UNL     1     -14.199  10.046  -4.669  1.00  0.00     0.125 A 
ATOM     11  C   UNL     1     -14.094   9.275  -5.853  1.00  0.00     0.069 A 
ENDROOT
BRANCH   1  12
ATOM     12  C   UNL     1     -12.987  11.760 -10.833  1.00  0.00    -0.011 A 
ATOM     13  C   UNL     1     -13.763  11.400 -11.949  1.00  0.00     0.013 A 
ATOM     14  C   UNL     1     -13.506  11.963 -13.202  1.00  0.00     0.047 A 
ATOM     15  C   UNL     1     -12.477  12.897 -13.356  1.00  0.00     0.115 A 
ATOM     16  C   UNL     1     -11.959  12.706 -10.994  1.00  0.00     0.013 A 
ATOM     17  C   UNL     1     -11.705  13.269 -12.248  1.00  0.00     0.047 A 
BRANCH  15  18
ATOM     18  O   UNL     1     -12.232  13.451 -14.611  1.00  0.00    -0.508 OA
ATOM     19  H   UNL     1     -12.703  14.294 -14.919  1.00  0.00     0.293 HD
ENDBRANCH  15  18
ENDBRANCH   1  12
BRANCH  11  20
ATOM     20  C   UNL     1     -14.202   7.756  -5.824  1.00  0.00     0.188 C 
ATOM     21  C   UNL     1     -15.683   7.313  -5.783  1.00  0.00     0.179 C 
ATOM     22  O   UNL     1     -13.540   7.189  -6.945  1.00  0.00    -0.362 OA
ATOM     23  C   UNL     1     -15.742   5.775  -5.722  1.00  0.00     0.177 C 
ATOM     24  C   UNL     1     -13.462   5.776  -6.832  1.00  0.00     0.176 C 
ATOM     25  C   UNL     1     -14.883   5.153  -6.846  1.00  0.00     0.177 C 
BRANCH  21  26
ATOM     26  O   UNL     1     -16.365   7.770  -6.926  1.00  0.00    -0.387 OA
ATOM     27  H   UNL     1     -16.135   7.153  -7.669  1.00  0.00     0.211 HD
ENDBRANCH  21  26
BRANCH  23  28
ATOM     28  O   UNL     1     -17.070   5.313  -5.769  1.00  0.00    -0.387 OA
ATOM     29  H   UNL     1     -17.205   4.855  -6.639  1.00  0.00     0.211 HD
ENDBRANCH  23  28
BRANCH  24  30
ATOM     30  C   UNL     1     -12.625   5.239  -8.001  1.00  0.00     0.191 C 
BRANCH  30  31
ATOM     31  O   UNL     1     -12.192   3.932  -7.733  1.00  0.00    -0.394 OA
ATOM     32  H   UNL     1     -13.002   3.357  -7.732  1.00  0.00     0.210 HD
ENDBRANCH  30  31
ENDBRANCH  24  30
BRANCH  25  33
ATOM     33  O   UNL     1     -14.833   3.755  -6.710  1.00  0.00    -0.388 OA
ATOM     34  H   UNL     1     -15.768   3.422  -6.665  1.00  0.00     0.211 HD
ENDBRANCH  25  33
ENDBRANCH  11  20
BRANCH  10  35
ATOM     35  O   UNL     1     -14.416   9.429  -3.437  1.00  0.00    -0.507 OA
ATOM     36  H   UNL     1     -15.325   9.066  -3.175  1.00  0.00     0.293 HD
ENDBRANCH  10  35
TORSDOF 9
ENDMDL
MODEL 4
REMARK VINA RESULT:    -7.011     14.000     16.738
REMARK INTER + INTRA:         -10.188
REMARK INTER:                 -10.125
REMARK INTRA:                  -0.063
REMARK UNBOUND:                -0.718
REMARK SMILES O=c1c(-c2ccc(O)cc2)coc2c([C@@H]3O[C@H](CO)[C@@H](O)[C@H](O)[C@@H]3O)c(O)ccc12
REMARK SMILES IDX 3 1 11 2 12 3 13 4 30 5 2 6 1 7 29 8 28 9 26 10 14 11 4 12
REMARK SMILES IDX 5 13 6 14 7 15 10 16 9 17 8 18 15 20 24 21 16 22 22 23 17 24
REMARK SMILES IDX 20 25 25 26 23 28 18 30 19 31 21 33 27 35
REMARK H PARENT 8 19 25 27 23 29 19 32 21 34 27 36
REMARK Flexibility Score: inf
ROOT
ATOM      1  C   UNL     1      -1.891   2.457 -10.444  1.00  0.00     0.065 A 
ATOM      2  C   UNL     1      -0.936   1.923 -11.320  1.00  0.00     0.208 A 
ATOM      3  O   UNL     1      -1.211   1.749 -12.606  1.00  0.00    -0.463 OA
ATOM      4  C   UNL     1      -2.386   2.060 -13.147  1.00  0.00     0.147 A 
ATOM      5  C   UNL     1      -3.413   2.593 -12.333  1.00  0.00     0.066 A 
ATOM      6  C   UNL     1      -3.155   2.788 -10.964  1.00  0.00     0.200 A 
ATOM      7  O   UNL     1      -4.059   3.236 -10.204  1.00  0.00    -0.288 OA
ATOM      8  C   UNL     1      -4.659   2.899 -12.902  1.00  0.00     0.020 A 
ATOM      9  C   UNL     1      -4.888   2.669 -14.256  1.00  0.00     0.047 A 
ATOM     10  C   UNL     1      -3.881   2.139 -15.071  1.00  0.00     0.125 A 
ATOM     11  C   UNL     1      -2.605   1.851 -14.530  1.00  0.00     0.069 A 
ENDROOT
BRANCH   1  12
ATOM     12  C   UNL     1      -1.557   2.651  -9.010  1.00  0.00    -0.011 A 
ATOM     13  C   UNL     1      -0.816   1.677  -8.317  1.00  0.00     0.013 A 
ATOM     14  C   UNL     1      -0.492   1.860  -6.970  1.00  0.00     0.047 A 
ATOM     15  C   UNL     1      -0.897   3.019  -6.299  1.00  0.00     0.115 A 
ATOM     16  C   UNL     1      -1.954   3.817  -8.332  1.00  0.00     0.013 A 
ATOM     17  C   UNL     1      -1.628   3.998  -6.985  1.00  0.00     0.047 A 
BRANCH  15  18
ATOM     18  O   UNL     1      -0.567   3.188  -4.956  1.00  0.00    -0.508 OA
ATOM     19  H   UNL     1      -1.243   3.533  -4.285  1.00  0.00     0.293 HD
ENDBRANCH  15  18
ENDBRANCH   1  12
BRANCH  11  20
ATOM     20  C   UNL     1      -1.495   1.252 -15.385  1.00  0.00     0.188 C 
ATOM     21  C   UNL     1      -0.664   2.366 -16.062  1.00  0.00     0.179 C 
ATOM     22  O   UNL     1      -0.663   0.409 -14.602  1.00  0.00    -0.362 OA
ATOM     23  C   UNL     1       0.422   1.714 -16.939  1.00  0.00     0.177 C 
ATOM     24  C   UNL     1       0.253  -0.306 -15.418  1.00  0.00     0.176 C 
ATOM     25  C   UNL     1       1.224   0.673 -16.128  1.00  0.00     0.177 C 
BRANCH  21  26
ATOM     26  O   UNL     1      -0.062   3.188 -15.091  1.00  0.00    -0.387 OA
ATOM     27  H   UNL     1       0.838   2.810 -14.908  1.00  0.00     0.211 HD
ENDBRANCH  21  26
BRANCH  23  28
ATOM     28  O   UNL     1       1.264   2.685 -17.513  1.00  0.00    -0.387 OA
ATOM     29  H   UNL     1       1.069   3.555 -17.079  1.00  0.00     0.211 HD
ENDBRANCH  23  28
BRANCH  24  30
ATOM     30  C   UNL     1       1.029  -1.290 -14.531  1.00  0.00     0.191 C 
BRANCH  30  31
ATOM     31  O   UNL     1       2.096  -0.639 -13.895  1.00  0.00    -0.394 OA
ATOM     32  H   UNL     1       1.737   0.214 -13.535  1.00  0.00     0.210 HD
ENDBRANCH  30  31
ENDBRANCH  24  30
BRANCH  25  33
ATOM     33  O   UNL     1       2.125  -0.012 -16.962  1.00  0.00    -0.388 OA
ATOM     34  H   UNL     1       1.609  -0.380 -17.726  1.00  0.00     0.211 HD
ENDBRANCH  25  33
ENDBRANCH  11  20
BRANCH  10  35
ATOM     35  O   UNL     1      -4.155   1.890 -16.417  1.00  0.00    -0.507 OA
ATOM     36  H   UNL     1      -5.069   1.582 -16.727  1.00  0.00     0.293 HD
ENDBRANCH  10  35
TORSDOF 9
ENDMDL
MODEL 5
REMARK VINA RESULT:    -6.932      2.157      2.692
REMARK INTER + INTRA:         -10.082
REMARK INTER:                  -9.200
REMARK INTRA:                  -0.882
REMARK UNBOUND:                -0.718
REMARK SMILES O=c1c(-c2ccc(O)cc2)coc2c([C@@H]3O[C@H](CO)[C@@H](O)[C@H](O)[C@@H]3O)c(O)ccc12
REMARK SMILES IDX 3 1 11 2 12 3 13 4 30 5 2 6 1 7 29 8 28 9 26 10 14 11 4 12
REMARK SMILES IDX 5 13 6 14 7 15 10 16 9 17 8 18 15 20 24 21 16 22 22 23 17 24
REMARK SMILES IDX 20 25 25 26 23 28 18 30 19 31 21 33 27 35
REMARK H PARENT 8 19 25 27 23 29 19 32 21 34 27 36
REMARK Flexibility Score: inf
ROOT
ATOM      1  C   UNL     1     -12.831  11.536  -8.587  1.00  0.00     0.065 A 
ATOM      2  C   UNL     1     -12.338  10.270  -8.243  1.00  0.00     0.208 A 
ATOM      3  O   UNL     1     -12.761   9.646  -7.152  1.00  0.00    -0.463 OA
ATOM      4  C   UNL     1     -13.663  10.163  -6.321  1.00  0.00     0.147 A 
ATOM      5  C   UNL     1     -14.205  11.443  -6.584  1.00  0.00     0.066 A 
ATOM      6  C   UNL     1     -13.776  12.133  -7.732  1.00  0.00     0.200 A 
ATOM      7  O   UNL     1     -14.219  13.289  -7.983  1.00  0.00    -0.288 OA
ATOM      8  C   UNL     1     -15.139  11.996  -5.696  1.00  0.00     0.020 A 
ATOM      9  C   UNL     1     -15.522  11.296  -4.554  1.00  0.00     0.047 A 
ATOM     10  C   UNL     1     -14.990  10.030  -4.281  1.00  0.00     0.125 A 
ATOM     11  C   UNL     1     -14.070   9.436  -5.177  1.00  0.00     0.069 A 
ENDROOT
BRANCH   1  12
ATOM     12  C   UNL     1     -12.350  12.210  -9.819  1.00  0.00    -0.011 A 
ATOM     13  C   UNL     1     -12.882  11.861 -11.073  1.00  0.00     0.013 A 
ATOM     14  C   UNL     1     -12.437  12.500 -12.234  1.00  0.00     0.047 A 
ATOM     15  C   UNL     1     -11.461  13.498 -12.158  1.00  0.00     0.115 A 
ATOM     16  C   UNL     1     -11.374  13.220  -9.749  1.00  0.00     0.013 A 
ATOM     17  C   UNL     1     -10.931  13.858 -10.912  1.00  0.00     0.047 A 
BRANCH  15  18
ATOM     18  O   UNL     1     -11.027  14.126 -13.324  1.00  0.00    -0.508 OA
ATOM     19  H   UNL     1     -11.265  13.764 -14.240  1.00  0.00     0.293 HD
ENDBRANCH  15  18
ENDBRANCH   1  12
BRANCH  11  20
ATOM     20  C   UNL     1     -13.456   8.070  -4.896  1.00  0.00     0.188 C 
ATOM     21  C   UNL     1     -12.132   8.216  -4.112  1.00  0.00     0.179 C 
ATOM     22  O   UNL     1     -14.373   7.250  -4.185  1.00  0.00    -0.362 OA
ATOM     23  C   UNL     1     -11.533   6.816  -3.879  1.00  0.00     0.177 C 
ATOM     24  C   UNL     1     -13.895   5.916  -4.086  1.00  0.00     0.176 C 
ATOM     25  C   UNL     1     -12.585   5.871  -3.256  1.00  0.00     0.177 C 
BRANCH  21  26
ATOM     26  O   UNL     1     -12.360   8.847  -2.875  1.00  0.00    -0.387 OA
ATOM     27  H   UNL     1     -12.034   9.781  -2.960  1.00  0.00     0.211 HD
ENDBRANCH  21  26
BRANCH  23  28
ATOM     28  O   UNL     1     -10.368   6.883  -3.094  1.00  0.00    -0.387 OA
ATOM     29  H   UNL     1      -9.617   7.156  -3.681  1.00  0.00     0.211 HD
ENDBRANCH  23  28
BRANCH  24  30
ATOM     30  C   UNL     1     -14.983   5.057  -3.429  1.00  0.00     0.191 C 
BRANCH  30  31
ATOM     31  O   UNL     1     -16.156   5.081  -4.197  1.00  0.00    -0.394 OA
ATOM     32  H   UNL     1     -16.893   4.782  -3.603  1.00  0.00     0.210 HD
ENDBRANCH  30  31
ENDBRANCH  24  30
BRANCH  25  33
ATOM     33  O   UNL     1     -12.079   4.563  -3.165  1.00  0.00    -0.388 OA
ATOM     34  H   UNL     1     -11.096   4.610  -3.297  1.00  0.00     0.211 HD
ENDBRANCH  25  33
ENDBRANCH  11  20
BRANCH  10  35
ATOM     35  O   UNL     1     -15.372   9.371  -3.111  1.00  0.00    -0.507 OA
ATOM     36  H   UNL     1     -16.290   9.496  -2.703  1.00  0.00     0.293 HD
ENDBRANCH  10  35
TORSDOF 9
ENDMDL
MODEL 6
REMARK VINA RESULT:    -6.867      2.033      7.832
REMARK INTER + INTRA:          -9.993
REMARK INTER:                  -9.703
REMARK INTRA:                  -0.290
REMARK UNBOUND:                -0.718
REMARK SMILES O=c1c(-c2ccc(O)cc2)coc2c([C@@H]3O[C@H](CO)[C@@H](O)[C@H](O)[C@@H]3O)c(O)ccc12
REMARK SMILES IDX 3 1 11 2 12 3 13 4 30 5 2 6 1 7 29 8 28 9 26 10 14 11 4 12
REMARK SMILES IDX 5 13 6 14 7 15 10 16 9 17 8 18 15 20 24 21 16 22 22 23 17 24
REMARK SMILES IDX 20 25 25 26 23 28 18 30 19 31 21 33 27 35
REMARK H PARENT 8 19 25 27 23 29 19 32 21 34 27 36
REMARK Flexibility Score: inf
ROOT
ATOM      1  C   UNL     1     -15.463   7.850  -7.066  1.00  0.00     0.065 A 
ATOM      2  C   UNL     1     -15.010   8.426  -8.261  1.00  0.00     0.208 A 
ATOM      3  O   UNL     1     -14.642   9.699  -8.308  1.00  0.00    -0.463 OA
ATOM      4  C   UNL     1     -14.674  10.507  -7.250  1.00  0.00     0.147 A 
ATOM      5  C   UNL     1     -15.130  10.012  -6.006  1.00  0.00     0.066 A 
ATOM      6  C   UNL     1     -15.530   8.666  -5.921  1.00  0.00     0.200 A 
ATOM      7  O   UNL     1     -15.968   8.200  -4.833  1.00  0.00    -0.288 OA
ATOM      8  C   UNL     1     -15.184  10.870  -4.897  1.00  0.00     0.020 A 
ATOM      9  C   UNL     1     -14.804  12.204  -5.024  1.00  0.00     0.047 A 
ATOM     10  C   UNL     1     -14.355  12.706  -6.250  1.00  0.00     0.125 A 
ATOM     11  C   UNL     1     -14.260  11.854  -7.377  1.00  0.00     0.069 A 
ENDROOT
BRANCH   1  12
ATOM     12  C   UNL     1     -15.861   6.420  -7.035  1.00  0.00    -0.011 A 
ATOM     13  C   UNL     1     -14.934   5.435  -6.649  1.00  0.00     0.013 A 
ATOM     14  C   UNL     1     -15.308   4.089  -6.610  1.00  0.00     0.047 A 
ATOM     15  C   UNL     1     -16.610   3.709  -6.950  1.00  0.00     0.115 A 
ATOM     16  C   UNL     1     -17.170   6.032  -7.368  1.00  0.00     0.013 A 
ATOM     17  C   UNL     1     -17.542   4.685  -7.328  1.00  0.00     0.047 A 
BRANCH  15  18
ATOM     18  O   UNL     1     -16.968   2.363  -6.908  1.00  0.00    -0.508 OA
ATOM     19  H   UNL     1     -17.320   1.883  -7.728  1.00  0.00     0.293 HD
ENDBRANCH  15  18
ENDBRANCH   1  12
BRANCH  11  20
ATOM     20  C   UNL     1     -13.797  12.376  -8.732  1.00  0.00     0.188 C 
ATOM     21  C   UNL     1     -12.254  12.437  -8.796  1.00  0.00     0.179 C 
ATOM     22  O   UNL     1     -14.312  11.566  -9.779  1.00  0.00    -0.362 OA
ATOM     23  C   UNL     1     -11.834  12.999 -10.168  1.00  0.00     0.177 C 
ATOM     24  C   UNL     1     -14.054  12.147 -11.048  1.00  0.00     0.176 C 
ATOM     25  C   UNL     1     -12.527  12.221 -11.309  1.00  0.00     0.177 C 
BRANCH  21  26
ATOM     26  O   UNL     1     -11.704  11.154  -8.619  1.00  0.00    -0.387 OA
ATOM     27  H   UNL     1     -12.297  10.514  -9.093  1.00  0.00     0.211 HD
ENDBRANCH  21  26
BRANCH  23  28
ATOM     28  O   UNL     1     -10.435  12.996 -10.313  1.00  0.00    -0.387 OA
ATOM     29  H   UNL     1     -10.156  12.084 -10.586  1.00  0.00     0.211 HD
ENDBRANCH  23  28
BRANCH  24  30
ATOM     30  C   UNL     1     -14.746  11.297 -12.122  1.00  0.00     0.191 C 
BRANCH  30  31
ATOM     31  O   UNL     1     -13.793  10.665 -12.935  1.00  0.00    -0.394 OA
ATOM     32  H   UNL     1     -14.113   9.736 -13.081  1.00  0.00     0.210 HD
ENDBRANCH  30  31
ENDBRANCH  24  30
BRANCH  25  33
ATOM     33  O   UNL     1     -12.245  12.817 -12.551  1.00  0.00    -0.388 OA
ATOM     34  H   UNL     1     -11.820  13.696 -12.374  1.00  0.00     0.211 HD
ENDBRANCH  25  33
ENDBRANCH  11  20
BRANCH  10  35
ATOM     35  O   UNL     1     -14.013  14.056  -6.349  1.00  0.00    -0.507 OA
ATOM     36  H   UNL     1     -13.954  14.527  -7.244  1.00  0.00     0.293 HD
ENDBRANCH  10  35
TORSDOF 9
ENDMDL
MODEL 7
REMARK VINA RESULT:    -6.579      1.878      8.348
REMARK INTER + INTRA:          -9.605
REMARK INTER:                  -9.139
REMARK INTRA:                  -0.466
REMARK UNBOUND:                -0.718
REMARK SMILES O=c1c(-c2ccc(O)cc2)coc2c([C@@H]3O[C@H](CO)[C@@H](O)[C@H](O)[C@@H]3O)c(O)ccc12
REMARK SMILES IDX 3 1 11 2 12 3 13 4 30 5 2 6 1 7 29 8 28 9 26 10 14 11 4 12
REMARK SMILES IDX 5 13 6 14 7 15 10 16 9 17 8 18 15 20 24 21 16 22 22 23 17 24
REMARK SMILES IDX 20 25 25 26 23 28 18 30 19 31 21 33 27 35
REMARK H PARENT 8 19 25 27 23 29 19 32 21 34 27 36
REMARK Flexibility Score: inf
ROOT
ATOM      1  C   UNL     1     -15.524   6.849  -7.288  1.00  0.00     0.065 A 
ATOM      2  C   UNL     1     -14.973   7.182  -8.533  1.00  0.00     0.208 A 
ATOM      3  O   UNL     1     -14.434   8.376  -8.744  1.00  0.00    -0.463 OA
ATOM      4  C   UNL     1     -14.378   9.324  -7.812  1.00  0.00     0.147 A 
ATOM      5  C   UNL     1     -14.922   9.078  -6.529  1.00  0.00     0.066 A 
ATOM      6  C   UNL     1     -15.503   7.823  -6.273  1.00  0.00     0.200 A 
ATOM      7  O   UNL     1     -16.022   7.580  -5.148  1.00  0.00    -0.288 OA
ATOM      8  C   UNL     1     -14.882  10.087  -5.555  1.00  0.00     0.020 A 
ATOM      9  C   UNL     1     -14.322  11.327  -5.852  1.00  0.00     0.047 A 
ATOM     10  C   UNL     1     -13.784  11.584  -7.118  1.00  0.00     0.125 A 
ATOM     11  C   UNL     1     -13.783  10.573  -8.110  1.00  0.00     0.069 A 
ENDROOT
BRANCH   1  12
ATOM     12  C   UNL     1     -16.113   5.503  -7.073  1.00  0.00    -0.011 A 
ATOM     13  C   UNL     1     -15.332   4.467  -6.531  1.00  0.00     0.013 A 
ATOM     14  C   UNL     1     -15.886   3.201  -6.319  1.00  0.00     0.047 A 
ATOM     15  C   UNL     1     -17.224   2.955  -6.639  1.00  0.00     0.115 A 
ATOM     16  C   UNL     1     -17.460   5.251  -7.386  1.00  0.00     0.013 A 
ATOM     17  C   UNL     1     -18.011   3.984  -7.172  1.00  0.00     0.047 A 
BRANCH  15  18
ATOM     18  O   UNL     1     -17.762   1.688  -6.423  1.00  0.00    -0.508 OA
ATOM     19  H   UNL     1     -17.448   1.103  -5.658  1.00  0.00     0.293 HD
ENDBRANCH  15  18
ENDBRANCH   1  12
BRANCH  11  20
ATOM     20  C   UNL     1     -13.225  10.828  -9.505  1.00  0.00     0.188 C 
ATOM     21  C   UNL     1     -14.339  10.705 -10.570  1.00  0.00     0.179 C 
ATOM     22  O   UNL     1     -12.610  12.107  -9.568  1.00  0.00    -0.362 OA
ATOM     23  C   UNL     1     -13.724  10.939 -11.963  1.00  0.00     0.177 C 
ATOM     24  C   UNL     1     -11.918  12.281 -10.795  1.00  0.00     0.176 C 
ATOM     25  C   UNL     1     -12.913  12.253 -11.986  1.00  0.00     0.177 C 
BRANCH  21  26
ATOM     26  O   UNL     1     -15.353  11.651 -10.333  1.00  0.00    -0.387 OA
ATOM     27  H   UNL     1     -15.208  12.400 -10.968  1.00  0.00     0.211 HD
ENDBRANCH  21  26
BRANCH  23  28
ATOM     28  O   UNL     1     -14.711  10.922 -12.965  1.00  0.00    -0.387 OA
ATOM     29  H   UNL     1     -14.364  10.394 -13.730  1.00  0.00     0.211 HD
ENDBRANCH  23  28
BRANCH  24  30
ATOM     30  C   UNL     1     -11.170  13.620 -10.746  1.00  0.00     0.191 C 
BRANCH  30  31
ATOM     31  O   UNL     1     -11.009  14.042  -9.419  1.00  0.00    -0.394 OA
ATOM     32  H   UNL     1     -10.912  13.222  -8.867  1.00  0.00     0.210 HD
ENDBRANCH  30  31
ENDBRANCH  24  30
BRANCH  25  33
ATOM     33  O   UNL     1     -12.247  12.399 -13.215  1.00  0.00    -0.388 OA
ATOM     34  H   UNL     1     -11.347  12.774 -13.028  1.00  0.00     0.211 HD
ENDBRANCH  25  33
ENDBRANCH  11  20
BRANCH  10  35
ATOM     35  O   UNL     1     -13.260  12.848  -7.392  1.00  0.00    -0.507 OA
ATOM     36  H   UNL     1     -13.802  13.559  -7.869  1.00  0.00     0.293 HD
ENDBRANCH  10  35
TORSDOF 9
ENDMDL
MODEL 8
REMARK VINA RESULT:    -6.517      1.965      3.280
REMARK INTER + INTRA:          -9.520
REMARK INTER:                  -9.136
REMARK INTRA:                  -0.385
REMARK UNBOUND:                -0.718
REMARK SMILES O=c1c(-c2ccc(O)cc2)coc2c([C@@H]3O[C@H](CO)[C@@H](O)[C@H](O)[C@@H]3O)c(O)ccc12
REMARK SMILES IDX 3 1 11 2 12 3 13 4 30 5 2 6 1 7 29 8 28 9 26 10 14 11 4 12
REMARK SMILES IDX 5 13 6 14 7 15 10 16 9 17 8 18 15 20 24 21 16 22 22 23 17 24
REMARK SMILES IDX 20 25 25 26 23 28 18 30 19 31 21 33 27 35
REMARK H PARENT 8 19 25 27 23 29 19 32 21 34 27 36
REMARK Flexibility Score: inf
ROOT
ATOM      1  C   UNL     1     -13.768  11.288 -10.687  1.00  0.00     0.065 A 
ATOM      2  C   UNL     1     -12.838  10.878  -9.722  1.00  0.00     0.208 A 
ATOM      3  O   UNL     1     -13.227  10.229  -8.632  1.00  0.00    -0.463 OA
ATOM      4  C   UNL     1     -14.499   9.926  -8.380  1.00  0.00     0.147 A 
ATOM      5  C   UNL     1     -15.505  10.313  -9.295  1.00  0.00     0.066 A 
ATOM      6  C   UNL     1     -15.127  11.005 -10.460  1.00  0.00     0.200 A 
ATOM      7  O   UNL     1     -16.003  11.389 -11.284  1.00  0.00    -0.288 OA
ATOM      8  C   UNL     1     -16.847  10.013  -9.017  1.00  0.00     0.020 A 
ATOM      9  C   UNL     1     -17.188   9.349  -7.841  1.00  0.00     0.047 A 
ATOM     10  C   UNL     1     -16.202   8.965  -6.925  1.00  0.00     0.125 A 
ATOM     11  C   UNL     1     -14.837   9.227  -7.197  1.00  0.00     0.069 A 
ENDROOT
BRANCH   1  12
ATOM     12  C   UNL     1     -13.308  12.005 -11.903  1.00  0.00    -0.011 A 
ATOM     13  C   UNL     1     -13.983  11.834 -13.125  1.00  0.00     0.013 A 
ATOM     14  C   UNL     1     -13.558  12.513 -14.270  1.00  0.00     0.047 A 
ATOM     15  C   UNL     1     -12.459  13.375 -14.210  1.00  0.00     0.115 A 
ATOM     16  C   UNL     1     -12.208  12.878 -11.848  1.00  0.00     0.013 A 
ATOM     17  C   UNL     1     -11.785  13.558 -12.995  1.00  0.00     0.047 A 
BRANCH  15  18
ATOM     18  O   UNL     1     -12.046  14.046 -15.359  1.00  0.00    -0.508 OA
ATOM     19  H   UNL     1     -12.656  14.694 -15.842  1.00  0.00     0.293 HD
ENDBRANCH  15  18
ENDBRANCH   1  12
BRANCH  11  20
ATOM     20  C   UNL     1     -13.742   8.842  -6.210  1.00  0.00     0.188 C 
ATOM     21  C   UNL     1     -13.520   9.966  -5.173  1.00  0.00     0.179 C 
ATOM     22  O   UNL     1     -14.063   7.618  -5.564  1.00  0.00    -0.362 OA
ATOM     23  C   UNL     1     -12.385   9.546  -4.218  1.00  0.00     0.177 C 
ATOM     24  C   UNL     1     -12.970   7.147  -4.790  1.00  0.00     0.176 C 
ATOM     25  C   UNL     1     -12.653   8.139  -3.641  1.00  0.00     0.177 C 
BRANCH  21  26
ATOM     26  O   UNL     1     -14.698  10.197  -4.438  1.00  0.00    -0.387 OA
ATOM     27  H   UNL     1     -14.458  10.792  -3.681  1.00  0.00     0.211 HD
ENDBRANCH  21  26
BRANCH  23  28
ATOM     28  O   UNL     1     -12.198  10.497  -3.199  1.00  0.00    -0.387 OA
ATOM     29  H   UNL     1     -12.598  11.354  -3.501  1.00  0.00     0.211 HD
ENDBRANCH  23  28
BRANCH  24  30
ATOM     30  C   UNL     1     -13.331   5.765  -4.229  1.00  0.00     0.191 C 
BRANCH  30  31
ATOM     31  O   UNL     1     -13.970   4.990  -5.209  1.00  0.00    -0.394 OA
ATOM     32  H   UNL     1     -14.272   4.156  -4.763  1.00  0.00     0.210 HD
ENDBRANCH  30  31
ENDBRANCH  24  30
BRANCH  25  33
ATOM     33  O   UNL     1     -11.557   7.705  -2.875  1.00  0.00    -0.388 OA
ATOM     34  H   UNL     1     -11.848   6.912  -2.353  1.00  0.00     0.211 HD
ENDBRANCH  25  33
ENDBRANCH  11  20
BRANCH  10  35
ATOM     35  O   UNL     1     -16.582   8.330  -5.742  1.00  0.00    -0.507 OA
ATOM     36  H   UNL     1     -15.902   7.910  -5.119  1.00  0.00     0.293 HD
ENDBRANCH  10  35
TORSDOF 9
ENDMDL
MODEL 9
REMARK VINA RESULT:    -6.482      2.028      8.626
REMARK INTER + INTRA:          -9.474
REMARK INTER:                  -9.766
REMARK INTRA:                   0.292
REMARK UNBOUND:                -0.718
REMARK SMILES O=c1c(-c2ccc(O)cc2)coc2c([C@@H]3O[C@H](CO)[C@@H](O)[C@H](O)[C@@H]3O)c(O)ccc12
REMARK SMILES IDX 3 1 11 2 12 3 13 4 30 5 2 6 1 7 29 8 28 9 26 10 14 11 4 12
REMARK SMILES IDX 5 13 6 14 7 15 10 16 9 17 8 18 15 20 24 21 16 22 22 23 17 24
REMARK SMILES IDX 20 25 25 26 23 28 18 30 19 31 21 33 27 35
REMARK H PARENT 8 19 25 27 23 29 19 32 21 34 27 36
REMARK Flexibility Score: inf
ROOT
ATOM      1  C   UNL     1     -13.374   9.355  -8.617  1.00  0.00     0.065 A 
ATOM      2  C   UNL     1     -13.437   9.208 -10.009  1.00  0.00     0.208 A 
ATOM      3  O   UNL     1     -13.062  10.192 -10.817  1.00  0.00    -0.463 OA
ATOM      4  C   UNL     1     -12.610  11.364 -10.376  1.00  0.00     0.147 A 
ATOM      5  C   UNL     1     -12.526  11.603  -8.984  1.00  0.00     0.066 A 
ATOM      6  C   UNL     1     -12.918  10.581  -8.100  1.00  0.00     0.200 A 
ATOM      7  O   UNL     1     -12.881  10.771  -6.852  1.00  0.00    -0.288 OA
ATOM      8  C   UNL     1     -12.071  12.847  -8.521  1.00  0.00     0.020 A 
ATOM      9  C   UNL     1     -11.717  13.845  -9.425  1.00  0.00     0.047 A 
ATOM     10  C   UNL     1     -11.799  13.622 -10.804  1.00  0.00     0.125 A 
ATOM     11  C   UNL     1     -12.225  12.365 -11.298  1.00  0.00     0.069 A 
ENDROOT
BRANCH   1  12
ATOM     12  C   UNL     1     -13.790   8.236  -7.733  1.00  0.00    -0.011 A 
ATOM     13  C   UNL     1     -15.100   7.730  -7.800  1.00  0.00     0.013 A 
ATOM     14  C   UNL     1     -15.493   6.672  -6.976  1.00  0.00     0.047 A 
ATOM     15  C   UNL     1     -14.583   6.101  -6.081  1.00  0.00     0.115 A 
ATOM     16  C   UNL     1     -12.878   7.654  -6.836  1.00  0.00     0.013 A 
ATOM     17  C   UNL     1     -13.273   6.594  -6.014  1.00  0.00     0.047 A 
BRANCH  15  18
ATOM     18  O   UNL     1     -14.988   5.047  -5.265  1.00  0.00    -0.508 OA
ATOM     19  H   UNL     1     -14.703   4.093  -5.453  1.00  0.00     0.293 HD
ENDBRANCH  15  18
ENDBRANCH   1  12
BRANCH  11  20
ATOM     20  C   UNL     1     -12.347  12.099 -12.794  1.00  0.00     0.188 C 
ATOM     21  C   UNL     1     -13.512  11.124 -13.082  1.00  0.00     0.179 C 
ATOM     22  O   UNL     1     -12.524  13.317 -13.502  1.00  0.00    -0.362 OA
ATOM     23  C   UNL     1     -13.576  10.860 -14.599  1.00  0.00     0.177 C 
ATOM     24  C   UNL     1     -12.444  13.108 -14.905  1.00  0.00     0.176 C 
ATOM     25  C   UNL     1     -13.601  12.192 -15.382  1.00  0.00     0.177 C 
BRANCH  21  26
ATOM     26  O   UNL     1     -14.731  11.671 -12.642  1.00  0.00    -0.387 OA
ATOM     27  H   UNL     1     -15.221  11.977 -13.450  1.00  0.00     0.211 HD
ENDBRANCH  21  26
BRANCH  23  28
ATOM     28  O   UNL     1     -14.674  10.045 -14.929  1.00  0.00    -0.387 OA
ATOM     29  H   UNL     1     -15.473  10.626 -15.016  1.00  0.00     0.211 HD
ENDBRANCH  23  28
BRANCH  24  30
ATOM     30  C   UNL     1     -12.510  14.472 -15.604  1.00  0.00     0.191 C 
BRANCH  30  31
ATOM     31  O   UNL     1     -11.772  15.426 -14.888  1.00  0.00    -0.394 OA
ATOM     32  H   UNL     1     -11.365  14.952 -14.116  1.00  0.00     0.210 HD
ENDBRANCH  30  31
ENDBRANCH  24  30
BRANCH  25  33
ATOM     33  O   UNL     1     -13.529  11.950 -16.765  1.00  0.00    -0.388 OA
ATOM     34  H   UNL     1     -12.571  11.835 -17.001  1.00  0.00     0.211 HD
ENDBRANCH  25  33
ENDBRANCH  11  20
BRANCH  10  35
ATOM     35  O   UNL     1     -11.466  14.655 -11.682  1.00  0.00    -0.507 OA
ATOM     36  H   UNL     1     -10.545  15.077 -11.684  1.00  0.00     0.293 HD
ENDBRANCH  10  35
TORSDOF 9
ENDMDL
