MODEL 1
REMARK VINA RESULT:    -6.294      0.000      0.000
REMARK INTER + INTRA:          -6.846
REMARK INTER:                  -6.846
REMARK INTRA:                   0.000
REMARK UNBOUND:                 0.000
REMARK SMILES Cc1cc(O)c2c(c1)C(=O)c1cc(O)cc(O)c1C2=O
REMARK SMILES IDX 1 1 2 2 8 3 7 4 6 5 4 6 3 7 19 8 20 9 18 10 11 11 9 12 10 13
REMARK SMILES IDX 12 14 13 15 15 16 16 17 5 18 17 20 14 22
REMARK H PARENT 5 19 17 21 14 23
REMARK Flexibility Score: inf
ROOT
ATOM      1  C   UNL     1      10.362  -0.442  17.865  1.00  0.00     0.044 C 
ATOM      2  C   UNL     1       9.131  -1.217  17.493  1.00  0.00    -0.047 A 
ATOM      3  C   UNL     1       9.077  -2.598  17.706  1.00  0.00     0.016 A 
ATOM      4  C   UNL     1       7.944  -3.341  17.329  1.00  0.00     0.038 A 
ATOM      5  C   UNL     1       6.850  -2.690  16.715  1.00  0.00     0.076 A 
ATOM      6  C   UNL     1       6.921  -1.294  16.483  1.00  0.00     0.127 A 
ATOM      7  C   UNL     1       8.060  -0.574  16.866  1.00  0.00     0.050 A 
ATOM      8  C   UNL     1       5.654  -3.486  16.321  1.00  0.00     0.201 C 
ATOM      9  O   UNL     1       4.671  -2.912  15.780  1.00  0.00    -0.288 OA
ATOM     10  C   UNL     1       5.608  -4.956  16.564  1.00  0.00     0.076 A 
ATOM     11  C   UNL     1       6.712  -5.591  17.178  1.00  0.00     0.041 A 
ATOM     12  C   UNL     1       7.900  -4.800  17.573  1.00  0.00     0.194 C 
ATOM     13  O   UNL     1       8.880  -5.374  18.122  1.00  0.00    -0.289 OA
ATOM     14  C   UNL     1       6.679  -6.977  17.412  1.00  0.00     0.059 A 
ATOM     15  C   UNL     1       5.564  -7.735  17.044  1.00  0.00     0.120 A 
ATOM     16  C   UNL     1       4.473  -7.114  16.439  1.00  0.00     0.093 A 
ATOM     17  C   UNL     1       4.483  -5.734  16.195  1.00  0.00     0.131 A 
ENDROOT
BRANCH   6  18
ATOM     18  O   UNL     1       5.867  -0.617  15.869  1.00  0.00    -0.507 OA
ATOM     19  H   UNL     1       5.820   0.395  15.850  1.00  0.00     0.293 HD
ENDBRANCH   6  18
BRANCH  17  20
ATOM     20  O   UNL     1       3.374  -5.146  15.588  1.00  0.00    -0.507 OA
ATOM     21  H   UNL     1       3.454  -4.298  15.037  1.00  0.00     0.293 HD
ENDBRANCH  17  20
BRANCH  15  22
ATOM     22  O   UNL     1       5.531  -9.108  17.276  1.00  0.00    -0.508 OA
ATOM     23  H   UNL     1       5.004  -9.734  16.679  1.00  0.00     0.293 HD
ENDBRANCH  15  22
TORSDOF 3
ENDMDL
MODEL 2
REMARK VINA RESULT:    -6.154      3.587      6.357
REMARK INTER + INTRA:          -6.694
REMARK INTER:                  -6.694
REMARK INTRA:                   0.000
REMARK UNBOUND:                 0.000
REMARK SMILES Cc1cc(O)c2c(c1)C(=O)c1cc(O)cc(O)c1C2=O
REMARK SMILES IDX 1 1 2 2 8 3 7 4 6 5 4 6 3 7 19 8 20 9 18 10 11 11 9 12 10 13
REMARK SMILES IDX 12 14 13 15 15 16 16 17 5 18 17 20 14 22
REMARK H PARENT 5 19 17 21 14 23
REMARK Flexibility Score: inf
ROOT
ATOM      1  C   UNL     1       5.125  -7.768  17.780  1.00  0.00     0.044 C 
ATOM      2  C   UNL     1       4.903  -6.296  17.592  1.00  0.00    -0.047 A 
ATOM      3  C   UNL     1       3.624  -5.751  17.750  1.00  0.00     0.016 A 
ATOM      4  C   UNL     1       3.395  -4.379  17.542  1.00  0.00     0.038 A 
ATOM      5  C   UNL     1       4.464  -3.540  17.155  1.00  0.00     0.076 A 
ATOM      6  C   UNL     1       5.752  -4.102  16.976  1.00  0.00     0.127 A 
ATOM      7  C   UNL     1       5.957  -5.471  17.189  1.00  0.00     0.050 A 
ATOM      8  C   UNL     1       4.210  -2.088  16.939  1.00  0.00     0.201 C 
ATOM      9  O   UNL     1       5.161  -1.331  16.601  1.00  0.00    -0.288 OA
ATOM     10  C   UNL     1       2.844  -1.521  17.121  1.00  0.00     0.076 A 
ATOM     11  C   UNL     1       1.787  -2.376  17.506  1.00  0.00     0.041 A 
ATOM     12  C   UNL     1       2.037  -3.819  17.725  1.00  0.00     0.194 C 
ATOM     13  O   UNL     1       1.088  -4.574  18.070  1.00  0.00    -0.289 OA
ATOM     14  C   UNL     1       0.493  -1.852  17.681  1.00  0.00     0.059 A 
ATOM     15  C   UNL     1       0.243  -0.492  17.477  1.00  0.00     0.120 A 
ATOM     16  C   UNL     1       1.282   0.355  17.098  1.00  0.00     0.093 A 
ATOM     17  C   UNL     1       2.579  -0.144  16.918  1.00  0.00     0.131 A 
ENDROOT
BRANCH   6  18
ATOM     18  O   UNL     1       6.831  -3.309  16.584  1.00  0.00    -0.507 OA
ATOM     19  H   UNL     1       7.786  -3.555  16.814  1.00  0.00     0.293 HD
ENDBRANCH   6  18
BRANCH  17  20
ATOM     20  O   UNL     1       3.595   0.732  16.537  1.00  0.00    -0.507 OA
ATOM     21  H   UNL     1       4.030   0.681  15.623  1.00  0.00     0.293 HD
ENDBRANCH  17  20
BRANCH  15  22
ATOM     22  O   UNL     1      -1.038   0.028  17.650  1.00  0.00    -0.508 OA
ATOM     23  H   UNL     1      -1.863  -0.554  17.563  1.00  0.00     0.293 HD
ENDBRANCH  15  22
TORSDOF 3
ENDMDL
MODEL 3
REMARK VINA RESULT:    -5.976      1.396      5.499
REMARK INTER + INTRA:          -6.500
REMARK INTER:                  -6.500
REMARK INTRA:                   0.000
REMARK UNBOUND:                 0.000
REMARK SMILES Cc1cc(O)c2c(c1)C(=O)c1cc(O)cc(O)c1C2=O
REMARK SMILES IDX 1 1 2 2 8 3 7 4 6 5 4 6 3 7 19 8 20 9 18 10 11 11 9 12 10 13
REMARK SMILES IDX 12 14 13 15 15 16 16 17 5 18 17 20 14 22
REMARK H PARENT 5 19 17 21 14 23
REMARK Flexibility Score: inf
ROOT
ATOM      1  C   UNL     1       4.887  -8.408  17.133  1.00  0.00     0.044 C 
ATOM      2  C   UNL     1       5.242  -6.967  16.907  1.00  0.00    -0.047 A 
ATOM      3  C   UNL     1       6.480  -6.473  17.328  1.00  0.00     0.016 A 
ATOM      4  C   UNL     1       6.811  -5.117  17.155  1.00  0.00     0.038 A 
ATOM      5  C   UNL     1       5.878  -4.236  16.563  1.00  0.00     0.076 A 
ATOM      6  C   UNL     1       4.617  -4.739  16.159  1.00  0.00     0.127 A 
ATOM      7  C   UNL     1       4.309  -6.094  16.341  1.00  0.00     0.050 A 
ATOM      8  C   UNL     1       6.239  -2.802  16.383  1.00  0.00     0.201 C 
ATOM      9  O   UNL     1       5.415  -2.012  15.848  1.00  0.00    -0.288 OA
ATOM     10  C   UNL     1       7.567  -2.294  16.828  1.00  0.00     0.076 A 
ATOM     11  C   UNL     1       8.488  -3.188  17.420  1.00  0.00     0.041 A 
ATOM     12  C   UNL     1       8.132  -4.615  17.596  1.00  0.00     0.194 C 
ATOM     13  O   UNL     1       8.960  -5.406  18.124  1.00  0.00    -0.289 OA
ATOM     14  C   UNL     1       9.745  -2.719  17.843  1.00  0.00     0.059 A 
ATOM     15  C   UNL     1      10.093  -1.375  17.683  1.00  0.00     0.120 A 
ATOM     16  C   UNL     1       9.190  -0.489  17.099  1.00  0.00     0.093 A 
ATOM     17  C   UNL     1       7.932  -0.934  16.670  1.00  0.00     0.131 A 
ENDROOT
BRANCH   6  18
ATOM     18  O   UNL     1       3.663  -3.901  15.580  1.00  0.00    -0.507 OA
ATOM     19  H   UNL     1       3.794  -2.897  15.531  1.00  0.00     0.293 HD
ENDBRANCH   6  18
BRANCH  17  20
ATOM     20  O   UNL     1       7.052  -0.019  16.090  1.00  0.00    -0.507 OA
ATOM     21  H   UNL     1       6.271   0.370  16.605  1.00  0.00     0.293 HD
ENDBRANCH  17  20
BRANCH  15  22
ATOM     22  O   UNL     1      11.338  -0.909  18.101  1.00  0.00    -0.508 OA
ATOM     23  H   UNL     1      12.157  -0.979  17.508  1.00  0.00     0.293 HD
ENDBRANCH  15  22
TORSDOF 3
ENDMDL
MODEL 4
REMARK VINA RESULT:    -5.948      2.445      3.867
REMARK INTER + INTRA:          -6.470
REMARK INTER:                  -6.470
REMARK INTRA:                   0.000
REMARK UNBOUND:                 0.000
REMARK SMILES Cc1cc(O)c2c(c1)C(=O)c1cc(O)cc(O)c1C2=O
REMARK SMILES IDX 1 1 2 2 8 3 7 4 6 5 4 6 3 7 19 8 20 9 18 10 11 11 9 12 10 13
REMARK SMILES IDX 12 14 13 15 15 16 16 17 5 18 17 20 14 22
REMARK H PARENT 5 19 17 21 14 23
REMARK Flexibility Score: inf
ROOT
ATOM      1  C   UNL     1       9.887  -4.648  17.828  1.00  0.00     0.044 C 
ATOM      2  C   UNL     1       8.635  -3.858  17.581  1.00  0.00    -0.047 A 
ATOM      3  C   UNL     1       7.385  -4.482  17.645  1.00  0.00     0.016 A 
ATOM      4  C   UNL     1       6.206  -3.762  17.380  1.00  0.00     0.038 A 
ATOM      5  C   UNL     1       6.282  -2.395  17.032  1.00  0.00     0.076 A 
ATOM      6  C   UNL     1       7.552  -1.774  16.948  1.00  0.00     0.127 A 
ATOM      7  C   UNL     1       8.714  -2.511  17.216  1.00  0.00     0.050 A 
ATOM      8  C   UNL     1       5.026  -1.641  16.755  1.00  0.00     0.201 C 
ATOM      9  O   UNL     1       5.085  -0.419  16.452  1.00  0.00    -0.288 OA
ATOM     10  C   UNL     1       3.702  -2.319  16.838  1.00  0.00     0.076 A 
ATOM     11  C   UNL     1       3.645  -3.687  17.186  1.00  0.00     0.041 A 
ATOM     12  C   UNL     1       4.891  -4.437  17.464  1.00  0.00     0.194 C 
ATOM     13  O   UNL     1       4.831  -5.658  17.776  1.00  0.00    -0.289 OA
ATOM     14  C   UNL     1       2.400  -4.337  17.267  1.00  0.00     0.059 A 
ATOM     15  C   UNL     1       1.216  -3.641  17.006  1.00  0.00     0.120 A 
ATOM     16  C   UNL     1       1.267  -2.292  16.663  1.00  0.00     0.093 A 
ATOM     17  C   UNL     1       2.495  -1.624  16.576  1.00  0.00     0.131 A 
ENDROOT
BRANCH   6  18
ATOM     18  O   UNL     1       7.670  -0.429  16.596  1.00  0.00    -0.507 OA
ATOM     19  H   UNL     1       8.091  -0.141  15.721  1.00  0.00     0.293 HD
ENDBRANCH   6  18
BRANCH  17  20
ATOM     20  O   UNL     1       2.508  -0.272  16.230  1.00  0.00    -0.507 OA
ATOM     21  H   UNL     1       3.374   0.228  16.065  1.00  0.00     0.293 HD
ENDBRANCH  17  20
BRANCH  15  22
ATOM     22  O   UNL     1      -0.017  -4.284  17.086  1.00  0.00    -0.508 OA
ATOM     23  H   UNL     1      -0.778  -3.904  17.637  1.00  0.00     0.293 HD
ENDBRANCH  15  22
TORSDOF 3
ENDMDL
MODEL 5
REMARK VINA RESULT:    -5.882      2.417      5.126
REMARK INTER + INTRA:          -6.398
REMARK INTER:                  -6.398
REMARK INTRA:                   0.000
REMARK UNBOUND:                 0.000
REMARK SMILES Cc1cc(O)c2c(c1)C(=O)c1cc(O)cc(O)c1C2=O
REMARK SMILES IDX 1 1 2 2 8 3 7 4 6 5 4 6 3 7 19 8 20 9 18 10 11 11 9 12 10 13
REMARK SMILES IDX 12 14 13 15 15 16 16 17 5 18 17 20 14 22
REMARK H PARENT 5 19 17 21 14 23
REMARK Flexibility Score: inf
ROOT
ATOM      1  C   UNL     1       1.251  -0.153  16.255  1.00  0.00     0.044 C 
ATOM      2  C   UNL     1       2.219  -1.272  16.511  1.00  0.00    -0.047 A 
ATOM      3  C   UNL     1       3.578  -1.000  16.693  1.00  0.00     0.016 A 
ATOM      4  C   UNL     1       4.500  -2.042  16.898  1.00  0.00     0.038 A 
ATOM      5  C   UNL     1       4.054  -3.382  16.908  1.00  0.00     0.076 A 
ATOM      6  C   UNL     1       2.678  -3.652  16.702  1.00  0.00     0.127 A 
ATOM      7  C   UNL     1       1.778  -2.598  16.500  1.00  0.00     0.050 A 
ATOM      8  C   UNL     1       5.039  -4.478  17.128  1.00  0.00     0.201 C 
ATOM      9  O   UNL     1       4.647  -5.677  17.146  1.00  0.00    -0.288 OA
ATOM     10  C   UNL     1       6.483  -4.170  17.329  1.00  0.00     0.076 A 
ATOM     11  C   UNL     1       6.912  -2.824  17.314  1.00  0.00     0.041 A 
ATOM     12  C   UNL     1       5.934  -1.733  17.099  1.00  0.00     0.194 C 
ATOM     13  O   UNL     1       6.325  -0.534  17.089  1.00  0.00    -0.289 OA
ATOM     14  C   UNL     1       8.273  -2.522  17.503  1.00  0.00     0.059 A 
ATOM     15  C   UNL     1       9.206  -3.542  17.707  1.00  0.00     0.120 A 
ATOM     16  C   UNL     1       8.789  -4.871  17.723  1.00  0.00     0.093 A 
ATOM     17  C   UNL     1       7.438  -5.196  17.537  1.00  0.00     0.131 A 
ENDROOT
BRANCH   6  18
ATOM     18  O   UNL     1       2.200  -4.963  16.694  1.00  0.00    -0.507 OA
ATOM     19  H   UNL     1       2.793  -5.747  16.453  1.00  0.00     0.293 HD
ENDBRANCH   6  18
BRANCH  17  20
ATOM     20  O   UNL     1       7.055  -6.537  17.559  1.00  0.00    -0.507 OA
ATOM     21  H   UNL     1       7.737  -7.287  17.548  1.00  0.00     0.293 HD
ENDBRANCH  17  20
BRANCH  15  22
ATOM     22  O   UNL     1      10.554  -3.244  17.895  1.00  0.00    -0.508 OA
ATOM     23  H   UNL     1      11.286  -3.852  17.547  1.00  0.00     0.293 HD
ENDBRANCH  15  22
TORSDOF 3
ENDMDL
MODEL 6
REMARK VINA RESULT:    -5.820      2.235      4.526
REMARK INTER + INTRA:          -6.330
REMARK INTER:                  -6.330
REMARK INTRA:                   0.000
REMARK UNBOUND:                 0.000
REMARK SMILES Cc1cc(O)c2c(c1)C(=O)c1cc(O)cc(O)c1C2=O
REMARK SMILES IDX 1 1 2 2 8 3 7 4 6 5 4 6 3 7 19 8 20 9 18 10 11 11 9 12 10 13
REMARK SMILES IDX 12 14 13 15 15 16 16 17 5 18 17 20 14 22
REMARK H PARENT 5 19 17 21 14 23
REMARK Flexibility Score: inf
ROOT
ATOM      1  C   UNL     1      10.632  -3.338  18.006  1.00  0.00     0.044 C 
ATOM      2  C   UNL     1       9.190  -3.644  17.727  1.00  0.00    -0.047 A 
ATOM      3  C   UNL     1       8.274  -2.605  17.532  1.00  0.00     0.016 A 
ATOM      4  C   UNL     1       6.913  -2.877  17.305  1.00  0.00     0.038 A 
ATOM      5  C   UNL     1       6.458  -4.215  17.286  1.00  0.00     0.076 A 
ATOM      6  C   UNL     1       7.387  -5.262  17.506  1.00  0.00     0.127 A 
ATOM      7  C   UNL     1       8.738  -4.967  17.730  1.00  0.00     0.050 A 
ATOM      8  C   UNL     1       5.015  -4.492  17.043  1.00  0.00     0.201 C 
ATOM      9  O   UNL     1       4.602  -5.683  17.017  1.00  0.00    -0.288 OA
ATOM     10  C   UNL     1       4.054  -3.374  16.827  1.00  0.00     0.076 A 
ATOM     11  C   UNL     1       4.526  -2.042  16.851  1.00  0.00     0.041 A 
ATOM     12  C   UNL     1       5.961  -1.764  17.089  1.00  0.00     0.194 C 
ATOM     13  O   UNL     1       6.374  -0.573  17.107  1.00  0.00    -0.289 OA
ATOM     14  C   UNL     1       3.628  -0.978  16.648  1.00  0.00     0.059 A 
ATOM     15  C   UNL     1       2.271  -1.226  16.423  1.00  0.00     0.120 A 
ATOM     16  C   UNL     1       1.801  -2.537  16.398  1.00  0.00     0.093 A 
ATOM     17  C   UNL     1       2.676  -3.612  16.597  1.00  0.00     0.131 A 
ENDROOT
BRANCH   6  18
ATOM     18  O   UNL     1       6.976  -6.595  17.506  1.00  0.00    -0.507 OA
ATOM     19  H   UNL     1       7.544  -7.329  17.911  1.00  0.00     0.293 HD
ENDBRANCH   6  18
BRANCH  17  20
ATOM     20  O   UNL     1       2.171  -4.913  16.566  1.00  0.00    -0.507 OA
ATOM     21  H   UNL     1       2.711  -5.687  16.197  1.00  0.00     0.293 HD
ENDBRANCH  17  20
BRANCH  15  22
ATOM     22  O   UNL     1       1.381  -0.173  16.222  1.00  0.00    -0.508 OA
ATOM     23  H   UNL     1       0.711   0.098  16.932  1.00  0.00     0.293 HD
ENDBRANCH  15  22
TORSDOF 3
ENDMDL
MODEL 7
REMARK VINA RESULT:    -5.694      3.322      5.046
REMARK INTER + INTRA:          -6.194
REMARK INTER:                  -6.194
REMARK INTRA:                   0.000
REMARK UNBOUND:                 0.000
REMARK SMILES Cc1cc(O)c2c(c1)C(=O)c1cc(O)cc(O)c1C2=O
REMARK SMILES IDX 1 1 2 2 8 3 7 4 6 5 4 6 3 7 19 8 20 9 18 10 11 11 9 12 10 13
REMARK SMILES IDX 12 14 13 15 15 16 16 17 5 18 17 20 14 22
REMARK H PARENT 5 19 17 21 14 23
REMARK Flexibility Score: inf
ROOT
ATOM      1  C   UNL     1      -0.507   0.251  17.313  1.00  0.00     0.044 C 
ATOM      2  C   UNL     1       0.866  -0.334  17.147  1.00  0.00    -0.047 A 
ATOM      3  C   UNL     1       1.059  -1.715  17.243  1.00  0.00     0.016 A 
ATOM      4  C   UNL     1       2.344  -2.273  17.125  1.00  0.00     0.038 A 
ATOM      5  C   UNL     1       3.459  -1.430  16.921  1.00  0.00     0.076 A 
ATOM      6  C   UNL     1       3.260  -0.029  16.846  1.00  0.00     0.127 A 
ATOM      7  C   UNL     1       1.970   0.504  16.966  1.00  0.00     0.050 A 
ATOM      8  C   UNL     1       4.817  -2.031  16.796  1.00  0.00     0.201 C 
ATOM      9  O   UNL     1       5.816  -1.286  16.605  1.00  0.00    -0.288 OA
ATOM     10  C   UNL     1       5.004  -3.506  16.891  1.00  0.00     0.076 A 
ATOM     11  C   UNL     1       3.878  -4.335  17.097  1.00  0.00     0.041 A 
ATOM     12  C   UNL     1       2.527  -3.739  17.218  1.00  0.00     0.194 C 
ATOM     13  O   UNL     1       1.527  -4.486  17.400  1.00  0.00    -0.289 OA
ATOM     14  C   UNL     1       4.042  -5.729  17.188  1.00  0.00     0.059 A 
ATOM     15  C   UNL     1       5.311  -6.304  17.076  1.00  0.00     0.120 A 
ATOM     16  C   UNL     1       6.425  -5.492  16.872  1.00  0.00     0.093 A 
ATOM     17  C   UNL     1       6.285  -4.101  16.778  1.00  0.00     0.131 A 
ENDROOT
BRANCH   6  18
ATOM     18  O   UNL     1       4.336   0.838  16.656  1.00  0.00    -0.507 OA
ATOM     19  H   UNL     1       5.250   0.503  16.378  1.00  0.00     0.293 HD
ENDBRANCH   6  18
BRANCH  17  20
ATOM     20  O   UNL     1       7.422  -3.318  16.574  1.00  0.00    -0.507 OA
ATOM     21  H   UNL     1       7.381  -2.305  16.582  1.00  0.00     0.293 HD
ENDBRANCH  17  20
BRANCH  15  22
ATOM     22  O   UNL     1       5.475  -7.684  17.165  1.00  0.00    -0.508 OA
ATOM     23  H   UNL     1       6.382  -8.100  17.345  1.00  0.00     0.293 HD
ENDBRANCH  15  22
TORSDOF 3
ENDMDL
MODEL 8
REMARK VINA RESULT:    -5.588      1.427      3.579
REMARK INTER + INTRA:          -6.078
REMARK INTER:                  -6.078
REMARK INTRA:                   0.000
REMARK UNBOUND:                 0.000
REMARK SMILES Cc1cc(O)c2c(c1)C(=O)c1cc(O)cc(O)c1C2=O
REMARK SMILES IDX 1 1 2 2 8 3 7 4 6 5 4 6 3 7 19 8 20 9 18 10 11 11 9 12 10 13
REMARK SMILES IDX 12 14 13 15 15 16 16 17 5 18 17 20 14 22
REMARK H PARENT 5 19 17 21 14 23
REMARK Flexibility Score: inf
ROOT
ATOM      1  C   UNL     1      10.963  -0.241  17.202  1.00  0.00     0.044 C 
ATOM      2  C   UNL     1      10.018  -1.406  17.248  1.00  0.00    -0.047 A 
ATOM      3  C   UNL     1       8.662  -1.226  16.958  1.00  0.00     0.016 A 
ATOM      4  C   UNL     1       7.759  -2.302  17.032  1.00  0.00     0.038 A 
ATOM      5  C   UNL     1       8.222  -3.580  17.417  1.00  0.00     0.076 A 
ATOM      6  C   UNL     1       9.593  -3.752  17.730  1.00  0.00     0.127 A 
ATOM      7  C   UNL     1      10.474  -2.665  17.649  1.00  0.00     0.050 A 
ATOM      8  C   UNL     1       7.258  -4.714  17.491  1.00  0.00     0.201 C 
ATOM      9  O   UNL     1       7.664  -5.859  17.826  1.00  0.00    -0.288 OA
ATOM     10  C   UNL     1       5.818  -4.506  17.169  1.00  0.00     0.076 A 
ATOM     11  C   UNL     1       5.372  -3.220  16.788  1.00  0.00     0.041 A 
ATOM     12  C   UNL     1       6.330  -2.093  16.711  1.00  0.00     0.194 C 
ATOM     13  O   UNL     1       5.924  -0.949  16.368  1.00  0.00    -0.289 OA
ATOM     14  C   UNL     1       4.015  -3.013  16.482  1.00  0.00     0.059 A 
ATOM     15  C   UNL     1       3.101  -4.068  16.551  1.00  0.00     0.120 A 
ATOM     16  C   UNL     1       3.535  -5.337  16.926  1.00  0.00     0.093 A 
ATOM     17  C   UNL     1       4.882  -5.568  17.235  1.00  0.00     0.131 A 
ENDROOT
BRANCH   6  18
ATOM     18  O   UNL     1      10.087  -4.995  18.125  1.00  0.00    -0.507 OA
ATOM     19  H   UNL     1      10.391  -5.173  19.074  1.00  0.00     0.293 HD
ENDBRANCH   6  18
BRANCH  17  20
ATOM     20  O   UNL     1       5.282  -6.852  17.607  1.00  0.00    -0.507 OA
ATOM     21  H   UNL     1       5.455  -7.577  16.920  1.00  0.00     0.293 HD
ENDBRANCH  17  20
BRANCH  15  22
ATOM     22  O   UNL     1       1.757  -3.863  16.248  1.00  0.00    -0.508 OA
ATOM     23  H   UNL     1       1.413  -2.960  15.944  1.00  0.00     0.293 HD
ENDBRANCH  15  22
TORSDOF 3
ENDMDL
MODEL 9
REMARK VINA RESULT:    -5.314      2.034      5.858
REMARK INTER + INTRA:          -5.780
REMARK INTER:                  -5.780
REMARK INTRA:                   0.000
REMARK UNBOUND:                 0.000
REMARK SMILES Cc1cc(O)c2c(c1)C(=O)c1cc(O)cc(O)c1C2=O
REMARK SMILES IDX 1 1 2 2 8 3 7 4 6 5 4 6 3 7 19 8 20 9 18 10 11 11 9 12 10 13
REMARK SMILES IDX 12 14 13 15 15 16 16 17 5 18 17 20 14 22
REMARK H PARENT 5 19 17 21 14 23
REMARK Flexibility Score: inf
ROOT
ATOM      1  C   UNL     1       2.125  -2.063  15.867  1.00  0.00     0.044 C 
ATOM      2  C   UNL     1       3.472  -2.597  16.258  1.00  0.00    -0.047 A 
ATOM      3  C   UNL     1       4.570  -1.736  16.353  1.00  0.00     0.016 A 
ATOM      4  C   UNL     1       5.846  -2.229  16.683  1.00  0.00     0.038 A 
ATOM      5  C   UNL     1       6.027  -3.612  16.909  1.00  0.00     0.076 A 
ATOM      6  C   UNL     1       4.915  -4.481  16.789  1.00  0.00     0.127 A 
ATOM      7  C   UNL     1       3.654  -3.968  16.459  1.00  0.00     0.050 A 
ATOM      8  C   UNL     1       7.382  -4.123  17.260  1.00  0.00     0.201 C 
ATOM      9  O   UNL     1       7.550  -5.355  17.470  1.00  0.00    -0.288 OA
ATOM     10  C   UNL     1       8.539  -3.191  17.367  1.00  0.00     0.076 A 
ATOM     11  C   UNL     1       8.340  -1.811  17.136  1.00  0.00     0.041 A 
ATOM     12  C   UNL     1       6.993  -1.300  16.791  1.00  0.00     0.194 C 
ATOM     13  O   UNL     1       6.824  -0.067  16.588  1.00  0.00    -0.289 OA
ATOM     14  C   UNL     1       9.426  -0.921  17.235  1.00  0.00     0.059 A 
ATOM     15  C   UNL     1      10.702  -1.390  17.560  1.00  0.00     0.120 A 
ATOM     16  C   UNL     1      10.904  -2.749  17.789  1.00  0.00     0.093 A 
ATOM     17  C   UNL     1       9.837  -3.654  17.696  1.00  0.00     0.131 A 
ENDROOT
BRANCH   6  18
ATOM     18  O   UNL     1       5.055  -5.855  16.993  1.00  0.00    -0.507 OA
ATOM     19  H   UNL     1       4.812  -6.529  16.277  1.00  0.00     0.293 HD
ENDBRANCH   6  18
BRANCH  17  20
ATOM     20  O   UNL     1      10.076  -5.008  17.931  1.00  0.00    -0.507 OA
ATOM     21  H   UNL     1      10.999  -5.355  18.164  1.00  0.00     0.293 HD
ENDBRANCH  17  20
BRANCH  15  22
ATOM     22  O   UNL     1      11.777  -0.510  17.659  1.00  0.00    -0.508 OA
ATOM     23  H   UNL     1      12.710  -0.777  17.365  1.00  0.00     0.293 HD
ENDBRANCH  15  22
TORSDOF 3
ENDMDL
