MODEL 1
REMARK VINA RESULT:    -3.131      0.000      0.000
REMARK INTER + INTRA:          -4.586
REMARK INTER:                  -4.229
REMARK INTRA:                  -0.357
REMARK UNBOUND:                -0.357
REMARK SMILES CCCCCCC=CC(=O)[O-]
REMARK SMILES IDX 5 1 6 2 7 3 8 4 9 5 10 6 11 7 4 8 3 9 2 10 1 11
REMARK H PARENT
REMARK Flexibility Score: inf
ROOT
ATOM      1  C   UNL     1      46.450  38.840 134.237  1.00  0.00     0.004 C 
ENDROOT
BRANCH   1   2
ATOM      2  C   UNL     1      47.015  39.150 135.636  1.00  0.00     0.027 C 
BRANCH   2   3
ATOM      3  C   UNL     1      48.052  38.160 136.084  1.00  0.00    -0.025 C 
ATOM      4  C   UNL     1      48.523  38.155 137.337  1.00  0.00     0.020 C 
BRANCH   4   5
ATOM      5  C   UNL     1      49.533  37.189 137.795  1.00  0.00     0.064 C 
ATOM      6  O   UNL     1      49.215  36.205 138.514  1.00  0.00    -0.545 OA
ATOM      7  O   UNL     1      50.861  37.364 137.427  1.00  0.00    -0.545 OA
ENDBRANCH   4   5
ENDBRANCH   2   3
ENDBRANCH   1   2
BRANCH   1   8
ATOM      8  C   UNL     1      46.602  37.368 133.811  1.00  0.00     0.000 C 
BRANCH   8   9
ATOM      9  C   UNL     1      45.273  36.726 133.376  1.00  0.00    -0.000 C 
BRANCH   9  10
ATOM     10  C   UNL     1      44.066  37.302 134.132  1.00  0.00    -0.003 C 
ATOM     11  C   UNL     1      42.949  36.277 134.335  1.00  0.00     0.004 C 
ENDBRANCH   9  10
ENDBRANCH   8   9
ENDBRANCH   1   8
TORSDOF 6
ENDMDL
MODEL 2
REMARK VINA RESULT:    -3.092      3.127      5.884
REMARK INTER + INTRA:          -4.534
REMARK INTER:                  -4.104
REMARK INTRA:                  -0.430
REMARK UNBOUND:                -0.357
REMARK SMILES CCCCCCC=CC(=O)[O-]
REMARK SMILES IDX 5 1 6 2 7 3 8 4 9 5 10 6 11 7 4 8 3 9 2 10 1 11
REMARK H PARENT
REMARK Flexibility Score: inf
ROOT
ATOM      1  C   UNL     1      48.785  38.115 137.895  1.00  0.00     0.004 C 
ENDROOT
BRANCH   1   2
ATOM      2  C   UNL     1      48.804  38.466 136.395  1.00  0.00     0.027 C 
BRANCH   2   3
ATOM      3  C   UNL     1      47.431  38.532 135.789  1.00  0.00    -0.025 C 
ATOM      4  C   UNL     1      47.062  37.716 134.795  1.00  0.00     0.020 C 
BRANCH   4   5
ATOM      5  C   UNL     1      45.720  37.763 134.194  1.00  0.00     0.064 C 
ATOM      6  O   UNL     1      45.307  36.833 133.451  1.00  0.00    -0.545 OA
ATOM      7  O   UNL     1      44.894  38.849 134.451  1.00  0.00    -0.545 OA
ENDBRANCH   4   5
ENDBRANCH   2   3
ENDBRANCH   1   2
BRANCH   1   8
ATOM      8  C   UNL     1      49.374  36.732 138.223  1.00  0.00     0.000 C 
BRANCH   8   9
ATOM      9  C   UNL     1      50.056  36.065 137.015  1.00  0.00    -0.000 C 
BRANCH   9  10
ATOM     10  C   UNL     1      51.567  35.875 137.223  1.00  0.00    -0.003 C 
ATOM     11  C   UNL     1      52.176  36.932 138.146  1.00  0.00     0.004 C 
ENDBRANCH   9  10
ENDBRANCH   8   9
ENDBRANCH   1   8
TORSDOF 6
ENDMDL
MODEL 3
REMARK VINA RESULT:    -3.040      3.269      5.917
REMARK INTER + INTRA:          -4.463
REMARK INTER:                  -3.718
REMARK INTRA:                  -0.745
REMARK UNBOUND:                -0.357
REMARK SMILES CCCCCCC=CC(=O)[O-]
REMARK SMILES IDX 5 1 6 2 7 3 8 4 9 5 10 6 11 7 4 8 3 9 2 10 1 11
REMARK H PARENT
REMARK Flexibility Score: inf
ROOT
ATOM      1  C   UNL     1      50.286  36.099 137.536  1.00  0.00     0.004 C 
ENDROOT
BRANCH   1   2
ATOM      2  C   UNL     1      49.603  37.129 138.456  1.00  0.00     0.027 C 
BRANCH   2   3
ATOM      3  C   UNL     1      48.795  38.146 137.701  1.00  0.00    -0.025 C 
ATOM      4  C   UNL     1      48.358  37.912 136.458  1.00  0.00     0.020 C 
BRANCH   4   5
ATOM      5  C   UNL     1      47.560  38.893 135.706  1.00  0.00     0.064 C 
ATOM      6  O   UNL     1      46.406  38.611 135.287  1.00  0.00    -0.545 OA
ATOM      7  O   UNL     1      48.088  40.153 135.454  1.00  0.00    -0.545 OA
ENDBRANCH   4   5
ENDBRANCH   2   3
ENDBRANCH   1   2
BRANCH   1   8
ATOM      8  C   UNL     1      51.817  36.045 137.681  1.00  0.00     0.000 C 
BRANCH   8   9
ATOM      9  C   UNL     1      52.497  37.397 137.397  1.00  0.00    -0.000 C 
BRANCH   9  10
ATOM     10  C   UNL     1      52.483  37.760 135.904  1.00  0.00    -0.003 C 
ATOM     11  C   UNL     1      51.790  39.094 135.624  1.00  0.00     0.004 C 
ENDBRANCH   9  10
ENDBRANCH   8   9
ENDBRANCH   1   8
TORSDOF 6
ENDMDL
MODEL 4
REMARK VINA RESULT:    -3.039      3.523      4.747
REMARK INTER + INTRA:          -4.462
REMARK INTER:                  -3.704
REMARK INTRA:                  -0.758
REMARK UNBOUND:                -0.357
REMARK SMILES CCCCCCC=CC(=O)[O-]
REMARK SMILES IDX 5 1 6 2 7 3 8 4 9 5 10 6 11 7 4 8 3 9 2 10 1 11
REMARK H PARENT
REMARK Flexibility Score: inf
ROOT
ATOM      1  C   UNL     1      48.791  38.093 137.874  1.00  0.00     0.004 C 
ENDROOT
BRANCH   1   2
ATOM      2  C   UNL     1      49.143  36.632 138.211  1.00  0.00     0.027 C 
BRANCH   2   3
ATOM      3  C   UNL     1      50.532  36.249 137.784  1.00  0.00    -0.025 C 
ATOM      4  C   UNL     1      51.602  36.964 138.153  1.00  0.00     0.020 C 
BRANCH   4   5
ATOM      5  C   UNL     1      52.969  36.601 137.750  1.00  0.00     0.064 C 
ATOM      6  O   UNL     1      53.209  36.138 136.603  1.00  0.00    -0.545 OA
ATOM      7  O   UNL     1      54.014  36.773 138.648  1.00  0.00    -0.545 OA
ENDBRANCH   4   5
ENDBRANCH   2   3
ENDBRANCH   1   2
BRANCH   1   8
ATOM      8  C   UNL     1      48.417  38.324 136.398  1.00  0.00     0.000 C 
BRANCH   8   9
ATOM      9  C   UNL     1      49.218  39.463 135.744  1.00  0.00    -0.000 C 
BRANCH   9  10
ATOM     10  C   UNL     1      50.553  38.982 135.157  1.00  0.00    -0.003 C 
ATOM     11  C   UNL     1      50.422  37.668 134.383  1.00  0.00     0.004 C 
ENDBRANCH   9  10
ENDBRANCH   8   9
ENDBRANCH   1   8
TORSDOF 6
ENDMDL
MODEL 5
REMARK VINA RESULT:    -3.028      3.081      4.653
REMARK INTER + INTRA:          -4.447
REMARK INTER:                  -3.912
REMARK INTRA:                  -0.535
REMARK UNBOUND:                -0.357
REMARK SMILES CCCCCCC=CC(=O)[O-]
REMARK SMILES IDX 5 1 6 2 7 3 8 4 9 5 10 6 11 7 4 8 3 9 2 10 1 11
REMARK H PARENT
REMARK Flexibility Score: inf
ROOT
ATOM      1  C   UNL     1      49.101  36.695 138.064  1.00  0.00     0.004 C 
ENDROOT
BRANCH   1   2
ATOM      2  C   UNL     1      50.402  36.028 137.579  1.00  0.00     0.027 C 
BRANCH   2   3
ATOM      3  C   UNL     1      51.498  37.015 137.293  1.00  0.00    -0.025 C 
ATOM      4  C   UNL     1      52.563  37.132 138.095  1.00  0.00     0.020 C 
BRANCH   4   5
ATOM      5  C   UNL     1      53.648  38.089 137.828  1.00  0.00     0.064 C 
ATOM      6  O   UNL     1      53.601  38.869 136.839  1.00  0.00    -0.545 OA
ATOM      7  O   UNL     1      54.743  38.135 138.681  1.00  0.00    -0.545 OA
ENDBRANCH   4   5
ENDBRANCH   2   3
ENDBRANCH   1   2
BRANCH   1   8
ATOM      8  C   UNL     1      48.959  38.170 137.648  1.00  0.00     0.000 C 
BRANCH   8   9
ATOM      9  C   UNL     1      47.991  38.373 136.468  1.00  0.00    -0.000 C 
BRANCH   9  10
ATOM     10  C   UNL     1      48.654  38.100 135.110  1.00  0.00    -0.003 C 
ATOM     11  C   UNL     1      48.112  36.843 134.427  1.00  0.00     0.004 C 
ENDBRANCH   9  10
ENDBRANCH   8   9
ENDBRANCH   1   8
TORSDOF 6
ENDMDL
MODEL 6
REMARK VINA RESULT:    -3.002      3.255      5.923
REMARK INTER + INTRA:          -4.412
REMARK INTER:                  -4.147
REMARK INTRA:                  -0.265
REMARK UNBOUND:                -0.357
REMARK SMILES CCCCCCC=CC(=O)[O-]
REMARK SMILES IDX 5 1 6 2 7 3 8 4 9 5 10 6 11 7 4 8 3 9 2 10 1 11
REMARK H PARENT
REMARK Flexibility Score: inf
ROOT
ATOM      1  C   UNL     1      48.248  37.897 136.124  1.00  0.00     0.004 C 
ENDROOT
BRANCH   1   2
ATOM      2  C   UNL     1      47.526  39.120 135.526  1.00  0.00     0.027 C 
BRANCH   2   3
ATOM      3  C   UNL     1      46.222  38.769 134.868  1.00  0.00    -0.025 C 
ATOM      4  C   UNL     1      46.020  37.572 134.304  1.00  0.00     0.020 C 
BRANCH   4   5
ATOM      5  C   UNL     1      44.748  37.209 133.660  1.00  0.00     0.064 C 
ATOM      6  O   UNL     1      43.898  38.088 133.356  1.00  0.00    -0.545 OA
ATOM      7  O   UNL     1      44.480  35.875 133.383  1.00  0.00    -0.545 OA
ENDBRANCH   4   5
ENDBRANCH   2   3
ENDBRANCH   1   2
BRANCH   1   8
ATOM      8  C   UNL     1      48.757  38.110 137.561  1.00  0.00     0.000 C 
BRANCH   8   9
ATOM      9  C   UNL     1      49.206  36.805 138.241  1.00  0.00    -0.000 C 
BRANCH   9  10
ATOM     10  C   UNL     1      50.385  36.139 137.516  1.00  0.00    -0.003 C 
ATOM     11  C   UNL     1      51.697  36.907 137.685  1.00  0.00     0.004 C 
ENDBRANCH   9  10
ENDBRANCH   8   9
ENDBRANCH   1   8
TORSDOF 6
ENDMDL
MODEL 7
REMARK VINA RESULT:    -2.932      3.388      5.410
REMARK INTER + INTRA:          -4.317
REMARK INTER:                  -3.591
REMARK INTRA:                  -0.726
REMARK UNBOUND:                -0.357
REMARK SMILES CCCCCCC=CC(=O)[O-]
REMARK SMILES IDX 5 1 6 2 7 3 8 4 9 5 10 6 11 7 4 8 3 9 2 10 1 11
REMARK H PARENT
REMARK Flexibility Score: inf
ROOT
ATOM      1  C   UNL     1      48.696  38.798 136.607  1.00  0.00     0.004 C 
ENDROOT
BRANCH   1   2
ATOM      2  C   UNL     1      47.525  38.454 135.666  1.00  0.00     0.027 C 
BRANCH   2   3
ATOM      3  C   UNL     1      47.890  37.439 134.620  1.00  0.00    -0.025 C 
ATOM      4  C   UNL     1      48.789  37.708 133.666  1.00  0.00     0.020 C 
BRANCH   4   5
ATOM      5  C   UNL     1      49.164  36.725 132.637  1.00  0.00     0.064 C 
ATOM      6  O   UNL     1      50.349  36.640 132.217  1.00  0.00    -0.545 OA
ATOM      7  O   UNL     1      48.195  35.875 132.120  1.00  0.00    -0.545 OA
ENDBRANCH   4   5
ENDBRANCH   2   3
ENDBRANCH   1   2
BRANCH   1   8
ATOM      8  C   UNL     1      48.733  37.957 137.895  1.00  0.00     0.000 C 
BRANCH   8   9
ATOM      9  C   UNL     1      49.693  36.758 137.805  1.00  0.00    -0.000 C 
BRANCH   9  10
ATOM     10  C   UNL     1      50.976  37.089 137.027  1.00  0.00    -0.003 C 
ATOM     11  C   UNL     1      51.264  36.089 135.906  1.00  0.00     0.004 C 
ENDBRANCH   9  10
ENDBRANCH   8   9
ENDBRANCH   1   8
TORSDOF 6
ENDMDL
MODEL 8
REMARK VINA RESULT:    -2.930      2.294      4.202
REMARK INTER + INTRA:          -4.316
REMARK INTER:                  -3.584
REMARK INTRA:                  -0.731
REMARK UNBOUND:                -0.357
REMARK SMILES CCCCCCC=CC(=O)[O-]
REMARK SMILES IDX 5 1 6 2 7 3 8 4 9 5 10 6 11 7 4 8 3 9 2 10 1 11
REMARK H PARENT
REMARK Flexibility Score: inf
ROOT
ATOM      1  C   UNL     1      47.077  39.676 134.115  1.00  0.00     0.004 C 
ENDROOT
BRANCH   1   2
ATOM      2  C   UNL     1      46.886  39.134 135.544  1.00  0.00     0.027 C 
BRANCH   2   3
ATOM      3  C   UNL     1      47.967  38.177 135.959  1.00  0.00    -0.025 C 
ATOM      4  C   UNL     1      48.479  38.190 137.196  1.00  0.00     0.020 C 
BRANCH   4   5
ATOM      5  C   UNL     1      49.533  37.256 137.621  1.00  0.00     0.064 C 
ATOM      6  O   UNL     1      50.715  37.372 137.201  1.00  0.00    -0.545 OA
ATOM      7  O   UNL     1      49.220  36.230 138.503  1.00  0.00    -0.545 OA
ENDBRANCH   4   5
ENDBRANCH   2   3
ENDBRANCH   1   2
BRANCH   1   8
ATOM      8  C   UNL     1      48.066  40.852 134.017  1.00  0.00     0.000 C 
BRANCH   8   9
ATOM      9  C   UNL     1      48.019  41.783 135.241  1.00  0.00    -0.000 C 
BRANCH   9  10
ATOM     10  C   UNL     1      49.392  41.941 135.913  1.00  0.00    -0.003 C 
ATOM     11  C   UNL     1      50.420  40.928 135.407  1.00  0.00     0.004 C 
ENDBRANCH   9  10
ENDBRANCH   8   9
ENDBRANCH   1   8
TORSDOF 6
ENDMDL
