MODEL 1
REMARK VINA RESULT:    -3.333      0.000      0.000
REMARK INTER + INTRA:          -4.626
REMARK INTER:                  -4.503
REMARK INTRA:                  -0.124
REMARK UNBOUND:                -0.124
REMARK SMILES [NH3+]CCCC[C@@H]([NH3+])C(=O)[O-]
REMARK SMILES IDX 4 1 3 2 2 3 1 4 5 8 6 9 7 10 8 14 9 15 10 16
REMARK H PARENT 1 5 1 6 1 7 7 11 7 12 7 13
REMARK Flexibility Score: inf
ROOT
ATOM      1  C   UNL     1      12.349   2.323  -3.369  1.00  0.00     0.012 C 
ENDROOT
BRANCH   1   2
ATOM      2  C   UNL     1      11.790   2.277  -1.935  1.00  0.00     0.061 C 
BRANCH   2   3
ATOM      3  C   UNL     1      10.404   2.926  -1.756  1.00  0.00     0.258 C 
BRANCH   3   4
ATOM      4  N   UNL     1      10.492   4.305  -1.271  1.00  0.00    -0.358 N 
ATOM      5  H   UNL     1      11.183   4.849  -1.837  1.00  0.00     0.344 HD
ATOM      6  H   UNL     1       9.553   4.763  -1.311  1.00  0.00     0.344 HD
ATOM      7  H   UNL     1      10.808   4.295  -0.274  1.00  0.00     0.344 HD
ENDBRANCH   3   4
ENDBRANCH   2   3
ENDBRANCH   1   2
BRANCH   1   8
ATOM      8  C   UNL     1      11.278   2.666  -4.419  1.00  0.00     0.072 C 
BRANCH   8   9
ATOM      9  C   UNL     1      11.788   3.660  -5.488  1.00  0.00     0.227 C 
BRANCH   9  10
ATOM     10  N   UNL     1      13.096   3.259  -6.026  1.00  0.00    -0.350 N 
ATOM     11  H   UNL     1      13.799   4.014  -5.870  1.00  0.00     0.345 HD
ATOM     12  H   UNL     1      13.024   3.108  -7.059  1.00  0.00     0.345 HD
ATOM     13  H   UNL     1      13.429   2.374  -5.576  1.00  0.00     0.345 HD
ENDBRANCH   9  10
BRANCH   9  14
ATOM     14  C   UNL     1      10.782   3.755  -6.604  1.00  0.00     0.099 C 
ATOM     15  O   UNL     1       9.862   2.902  -6.702  1.00  0.00    -0.544 OA
ATOM     16  O   UNL     1      10.875   4.774  -7.546  1.00  0.00    -0.544 OA
ENDBRANCH   9  14
ENDBRANCH   8   9
ENDBRANCH   1   8
TORSDOF 7
ENDMDL
MODEL 2
REMARK VINA RESULT:    -3.125     16.574     17.177
REMARK INTER + INTRA:          -4.345
REMARK INTER:                  -4.259
REMARK INTRA:                  -0.086
REMARK UNBOUND:                -0.124
REMARK SMILES [NH3+]CCCC[C@@H]([NH3+])C(=O)[O-]
REMARK SMILES IDX 4 1 3 2 2 3 1 4 5 8 6 9 7 10 8 14 9 15 10 16
REMARK H PARENT 1 5 1 6 1 7 7 11 7 12 7 13
REMARK Flexibility Score: inf
ROOT
ATOM      1  C   UNL     1      28.609   4.948  -3.802  1.00  0.00     0.012 C 
ENDROOT
BRANCH   1   2
ATOM      2  C   UNL     1      28.017   5.787  -2.654  1.00  0.00     0.061 C 
BRANCH   2   3
ATOM      3  C   UNL     1      29.055   6.507  -1.773  1.00  0.00     0.258 C 
BRANCH   3   4
ATOM      4  N   UNL     1      28.820   6.289  -0.343  1.00  0.00    -0.358 N 
ATOM      5  H   UNL     1      29.259   7.053   0.221  1.00  0.00     0.344 HD
ATOM      6  H   UNL     1      27.794   6.241  -0.148  1.00  0.00     0.344 HD
ATOM      7  H   UNL     1      29.249   5.377  -0.064  1.00  0.00     0.344 HD
ENDBRANCH   3   4
ENDBRANCH   2   3
ENDBRANCH   1   2
BRANCH   1   8
ATOM      8  C   UNL     1      27.572   4.594  -4.882  1.00  0.00     0.072 C 
BRANCH   8   9
ATOM      9  C   UNL     1      28.039   3.442  -5.802  1.00  0.00     0.227 C 
BRANCH   9  10
ATOM     10  N   UNL     1      27.029   2.379  -5.900  1.00  0.00    -0.350 N 
ATOM     11  H   UNL     1      26.076   2.792  -5.998  1.00  0.00     0.345 HD
ATOM     12  H   UNL     1      27.032   1.804  -5.025  1.00  0.00     0.345 HD
ATOM     13  H   UNL     1      27.224   1.754  -6.717  1.00  0.00     0.345 HD
ENDBRANCH   9  10
BRANCH   9  14
ATOM     14  C   UNL     1      28.344   3.988  -7.172  1.00  0.00     0.099 C 
ATOM     15  O   UNL     1      28.759   5.168  -7.305  1.00  0.00    -0.544 OA
ATOM     16  O   UNL     1      28.149   3.198  -8.299  1.00  0.00    -0.544 OA
ENDBRANCH   9  14
ENDBRANCH   8   9
ENDBRANCH   1   8
TORSDOF 7
ENDMDL
MODEL 3
REMARK VINA RESULT:    -3.060      1.467      1.837
REMARK INTER + INTRA:          -4.257
REMARK INTER:                  -4.182
REMARK INTRA:                  -0.075
REMARK UNBOUND:                -0.124
REMARK SMILES [NH3+]CCCC[C@@H]([NH3+])C(=O)[O-]
REMARK SMILES IDX 4 1 3 2 2 3 1 4 5 8 6 9 7 10 8 14 9 15 10 16
REMARK H PARENT 1 5 1 6 1 7 7 11 7 12 7 13
REMARK Flexibility Score: inf
ROOT
ATOM      1  C   UNL     1      12.346   3.311  -4.999  1.00  0.00     0.012 C 
ENDROOT
BRANCH   1   2
ATOM      2  C   UNL     1      12.404   2.197  -3.938  1.00  0.00     0.061 C 
BRANCH   2   3
ATOM      3  C   UNL     1      11.467   2.397  -2.732  1.00  0.00     0.258 C 
BRANCH   3   4
ATOM      4  N   UNL     1      12.163   2.964  -1.574  1.00  0.00    -0.358 N 
ATOM      5  H   UNL     1      12.902   3.636  -1.883  1.00  0.00     0.344 HD
ATOM      6  H   UNL     1      11.482   3.444  -0.942  1.00  0.00     0.344 HD
ATOM      7  H   UNL     1      12.616   2.189  -1.038  1.00  0.00     0.344 HD
ENDBRANCH   3   4
ENDBRANCH   2   3
ENDBRANCH   1   2
BRANCH   1   8
ATOM      8  C   UNL     1      11.073   3.252  -5.861  1.00  0.00     0.072 C 
BRANCH   8   9
ATOM      9  C   UNL     1      11.104   4.253  -7.039  1.00  0.00     0.227 C 
BRANCH   9  10
ATOM     10  N   UNL     1      12.161   3.924  -8.007  1.00  0.00    -0.350 N 
ATOM     11  H   UNL     1      11.751   3.458  -8.846  1.00  0.00     0.345 HD
ATOM     12  H   UNL     1      12.840   3.254  -7.578  1.00  0.00     0.345 HD
ATOM     13  H   UNL     1      12.676   4.786  -8.303  1.00  0.00     0.345 HD
ENDBRANCH   9  10
BRANCH   9  14
ATOM     14  C   UNL     1       9.764   4.260  -7.726  1.00  0.00     0.099 C 
ATOM     15  O   UNL     1       8.879   3.428  -7.397  1.00  0.00    -0.544 OA
ATOM     16  O   UNL     1       9.503   5.172  -8.742  1.00  0.00    -0.544 OA
ENDBRANCH   9  14
ENDBRANCH   8   9
ENDBRANCH   1   8
TORSDOF 7
ENDMDL
MODEL 4
REMARK VINA RESULT:    -3.020      2.926      4.853
REMARK INTER + INTRA:          -4.204
REMARK INTER:                  -4.111
REMARK INTRA:                  -0.093
REMARK UNBOUND:                -0.124
REMARK SMILES [NH3+]CCCC[C@@H]([NH3+])C(=O)[O-]
REMARK SMILES IDX 4 1 3 2 2 3 1 4 5 8 6 9 7 10 8 14 9 15 10 16
REMARK H PARENT 1 5 1 6 1 7 7 11 7 12 7 13
REMARK Flexibility Score: inf
ROOT
ATOM      1  C   UNL     1      12.415   3.031  -4.336  1.00  0.00     0.012 C 
ENDROOT
BRANCH   1   2
ATOM      2  C   UNL     1      12.534   2.773  -5.849  1.00  0.00     0.061 C 
BRANCH   2   3
ATOM      3  C   UNL     1      11.505   3.519  -6.719  1.00  0.00     0.258 C 
BRANCH   3   4
ATOM      4  N   UNL     1      12.073   3.972  -7.991  1.00  0.00    -0.358 N 
ATOM      5  H   UNL     1      11.729   4.932  -8.225  1.00  0.00     0.344 HD
ATOM      6  H   UNL     1      13.117   3.966  -7.944  1.00  0.00     0.344 HD
ATOM      7  H   UNL     1      11.776   3.315  -8.749  1.00  0.00     0.344 HD
ENDBRANCH   3   4
ENDBRANCH   2   3
ENDBRANCH   1   2
BRANCH   1   8
ATOM      8  C   UNL     1      11.157   2.396  -3.717  1.00  0.00     0.072 C 
BRANCH   8   9
ATOM      9  C   UNL     1      11.274   2.211  -2.187  1.00  0.00     0.227 C 
BRANCH   9  10
ATOM     10  N   UNL     1      12.501   2.823  -1.655  1.00  0.00    -0.350 N 
ATOM     11  H   UNL     1      12.552   2.691  -0.621  1.00  0.00     0.345 HD
ATOM     12  H   UNL     1      12.493   3.853  -1.839  1.00  0.00     0.345 HD
ATOM     13  H   UNL     1      13.350   2.405  -2.103  1.00  0.00     0.345 HD
ENDBRANCH   9  10
BRANCH   9  14
ATOM     14  C   UNL     1      10.068   2.814  -1.515  1.00  0.00     0.099 C 
ATOM     15  O   UNL     1       9.982   4.061  -1.370  1.00  0.00    -0.544 OA
ATOM     16  O   UNL     1       9.054   1.995  -1.033  1.00  0.00    -0.544 OA
ENDBRANCH   9  14
ENDBRANCH   8   9
ENDBRANCH   1   8
TORSDOF 7
ENDMDL
MODEL 5
REMARK VINA RESULT:    -3.007      2.901      4.128
REMARK INTER + INTRA:          -4.186
REMARK INTER:                  -4.053
REMARK INTRA:                  -0.133
REMARK UNBOUND:                -0.124
REMARK SMILES [NH3+]CCCC[C@@H]([NH3+])C(=O)[O-]
REMARK SMILES IDX 4 1 3 2 2 3 1 4 5 8 6 9 7 10 8 14 9 15 10 16
REMARK H PARENT 1 5 1 6 1 7 7 11 7 12 7 13
REMARK Flexibility Score: inf
ROOT
ATOM      1  C   UNL     1      10.687   4.066  -6.512  1.00  0.00     0.012 C 
ENDROOT
BRANCH   1   2
ATOM      2  C   UNL     1      11.092   3.482  -5.147  1.00  0.00     0.061 C 
BRANCH   2   3
ATOM      3  C   UNL     1      12.594   3.176  -4.989  1.00  0.00     0.258 C 
BRANCH   3   4
ATOM      4  N   UNL     1      13.285   3.092  -6.278  1.00  0.00    -0.358 N 
ATOM      5  H   UNL     1      12.684   2.607  -6.984  1.00  0.00     0.344 HD
ATOM      6  H   UNL     1      13.537   4.048  -6.617  1.00  0.00     0.344 HD
ATOM      7  H   UNL     1      14.167   2.545  -6.155  1.00  0.00     0.344 HD
ENDBRANCH   3   4
ENDBRANCH   2   3
ENDBRANCH   1   2
BRANCH   1   8
ATOM      8  C   UNL     1       9.791   3.119  -7.328  1.00  0.00     0.072 C 
BRANCH   8   9
ATOM      9  C   UNL     1       9.181   3.801  -8.574  1.00  0.00     0.227 C 
BRANCH   9  10
ATOM     10  N   UNL     1       8.956   5.237  -8.355  1.00  0.00    -0.350 N 
ATOM     11  H   UNL     1       9.264   5.783  -9.189  1.00  0.00     0.345 HD
ATOM     12  H   UNL     1       9.524   5.566  -7.540  1.00  0.00     0.345 HD
ATOM     13  H   UNL     1       7.946   5.432  -8.164  1.00  0.00     0.345 HD
ENDBRANCH   9  10
BRANCH   9  14
ATOM     14  C   UNL     1      10.095   3.599  -9.753  1.00  0.00     0.099 C 
ATOM     15  O   UNL     1      10.083   4.416 -10.710  1.00  0.00    -0.544 OA
ATOM     16  O   UNL     1      10.941   2.497  -9.802  1.00  0.00    -0.544 OA
ENDBRANCH   9  14
ENDBRANCH   8   9
ENDBRANCH   1   8
TORSDOF 7
ENDMDL
MODEL 6
REMARK VINA RESULT:    -2.992      2.787      4.703
REMARK INTER + INTRA:          -4.165
REMARK INTER:                  -3.990
REMARK INTRA:                  -0.175
REMARK UNBOUND:                -0.124
REMARK SMILES [NH3+]CCCC[C@@H]([NH3+])C(=O)[O-]
REMARK SMILES IDX 4 1 3 2 2 3 1 4 5 8 6 9 7 10 8 14 9 15 10 16
REMARK H PARENT 1 5 1 6 1 7 7 11 7 12 7 13
REMARK Flexibility Score: inf
ROOT
ATOM      1  C   UNL     1      10.640   3.858  -5.835  1.00  0.00     0.012 C 
ENDROOT
BRANCH   1   2
ATOM      2  C   UNL     1       9.959   3.843  -7.216  1.00  0.00     0.061 C 
BRANCH   2   3
ATOM      3  C   UNL     1      10.908   3.604  -8.406  1.00  0.00     0.258 C 
BRANCH   3   4
ATOM      4  N   UNL     1      12.301   3.914  -8.080  1.00  0.00    -0.358 N 
ATOM      5  H   UNL     1      12.581   4.831  -8.501  1.00  0.00     0.344 HD
ATOM      6  H   UNL     1      12.434   3.939  -7.044  1.00  0.00     0.344 HD
ATOM      7  H   UNL     1      12.917   3.164  -8.470  1.00  0.00     0.344 HD
ENDBRANCH   3   4
ENDBRANCH   2   3
ENDBRANCH   1   2
BRANCH   1   8
ATOM      8  C   UNL     1      10.847   2.449  -5.253  1.00  0.00     0.072 C 
BRANCH   8   9
ATOM      9  C   UNL     1      12.141   2.334  -4.415  1.00  0.00     0.227 C 
BRANCH   9  10
ATOM     10  N   UNL     1      13.045   3.469  -4.649  1.00  0.00    -0.350 N 
ATOM     11  H   UNL     1      13.871   3.165  -5.211  1.00  0.00     0.345 HD
ATOM     12  H   UNL     1      13.405   3.831  -3.735  1.00  0.00     0.345 HD
ATOM     13  H   UNL     1      12.549   4.244  -5.149  1.00  0.00     0.345 HD
ENDBRANCH   9  10
BRANCH   9  14
ATOM     14  C   UNL     1      11.786   2.254  -2.954  1.00  0.00     0.099 C 
ATOM     15  O   UNL     1      10.580   2.241  -2.595  1.00  0.00    -0.544 OA
ATOM     16  O   UNL     1      12.789   2.214  -1.992  1.00  0.00    -0.544 OA
ENDBRANCH   9  14
ENDBRANCH   8   9
ENDBRANCH   1   8
TORSDOF 7
ENDMDL
MODEL 7
REMARK VINA RESULT:    -2.897      2.254      2.996
REMARK INTER + INTRA:          -4.037
REMARK INTER:                  -3.859
REMARK INTRA:                  -0.178
REMARK UNBOUND:                -0.124
REMARK SMILES [NH3+]CCCC[C@@H]([NH3+])C(=O)[O-]
REMARK SMILES IDX 4 1 3 2 2 3 1 4 5 8 6 9 7 10 8 14 9 15 10 16
REMARK H PARENT 1 5 1 6 1 7 7 11 7 12 7 13
REMARK Flexibility Score: inf
ROOT
ATOM      1  C   UNL     1      11.169   3.647  -5.500  1.00  0.00     0.012 C 
ENDROOT
BRANCH   1   2
ATOM      2  C   UNL     1      12.581   3.174  -5.108  1.00  0.00     0.061 C 
BRANCH   2   3
ATOM      3  C   UNL     1      12.661   2.397  -3.779  1.00  0.00     0.258 C 
BRANCH   3   4
ATOM      4  N   UNL     1      11.684   2.871  -2.796  1.00  0.00    -0.358 N 
ATOM      5  H   UNL     1      11.765   2.326  -1.907  1.00  0.00     0.344 HD
ATOM      6  H   UNL     1      11.824   3.889  -2.608  1.00  0.00     0.344 HD
ATOM      7  H   UNL     1      10.722   2.739  -3.184  1.00  0.00     0.344 HD
ENDBRANCH   3   4
ENDBRANCH   2   3
ENDBRANCH   1   2
BRANCH   1   8
ATOM      8  C   UNL     1      10.449   2.667  -6.443  1.00  0.00     0.072 C 
BRANCH   8   9
ATOM      9  C   UNL     1       9.777   3.378  -7.640  1.00  0.00     0.227 C 
BRANCH   9  10
ATOM     10  N   UNL     1       9.467   4.782  -7.337  1.00  0.00    -0.350 N 
ATOM     11  H   UNL     1       9.299   5.314  -8.220  1.00  0.00     0.345 HD
ATOM     12  H   UNL     1      10.280   5.230  -6.853  1.00  0.00     0.345 HD
ATOM     13  H   UNL     1       8.625   4.853  -6.721  1.00  0.00     0.345 HD
ENDBRANCH   9  10
BRANCH   9  14
ATOM     14  C   UNL     1      10.683   3.300  -8.841  1.00  0.00     0.099 C 
ATOM     15  O   UNL     1      10.432   3.982  -9.868  1.00  0.00    -0.544 OA
ATOM     16  O   UNL     1      11.789   2.458  -8.830  1.00  0.00    -0.544 OA
ENDBRANCH   9  14
ENDBRANCH   8   9
ENDBRANCH   1   8
TORSDOF 7
ENDMDL
MODEL 8
REMARK VINA RESULT:    -2.881     23.695     24.973
REMARK INTER + INTRA:          -4.015
REMARK INTER:                  -3.581
REMARK INTRA:                  -0.434
REMARK UNBOUND:                -0.124
REMARK SMILES [NH3+]CCCC[C@@H]([NH3+])C(=O)[O-]
REMARK SMILES IDX 4 1 3 2 2 3 1 4 5 8 6 9 7 10 8 14 9 15 10 16
REMARK H PARENT 1 5 1 6 1 7 7 11 7 12 7 13
REMARK Flexibility Score: inf
ROOT
ATOM      1  C   UNL     1      27.328  19.480 -15.645  1.00  0.00     0.012 C 
ENDROOT
BRANCH   1   2
ATOM      2  C   UNL     1      27.967  20.879 -15.711  1.00  0.00     0.061 C 
BRANCH   2   3
ATOM      3  C   UNL     1      27.467  21.873 -14.645  1.00  0.00     0.258 C 
BRANCH   3   4
ATOM      4  N   UNL     1      26.223  21.432 -14.011  1.00  0.00    -0.358 N 
ATOM      5  H   UNL     1      26.344  20.484 -13.586  1.00  0.00     0.344 HD
ATOM      6  H   UNL     1      25.926  22.118 -13.280  1.00  0.00     0.344 HD
ATOM      7  H   UNL     1      25.471  21.381 -14.736  1.00  0.00     0.344 HD
ENDBRANCH   3   4
ENDBRANCH   2   3
ENDBRANCH   1   2
BRANCH   1   8
ATOM      8  C   UNL     1      26.513  19.134 -16.904  1.00  0.00     0.072 C 
BRANCH   8   9
ATOM      9  C   UNL     1      25.079  18.664 -16.574  1.00  0.00     0.227 C 
BRANCH   9  10
ATOM     10  N   UNL     1      25.026  17.915 -15.310  1.00  0.00    -0.350 N 
ATOM     11  H   UNL     1      24.318  18.336 -14.669  1.00  0.00     0.345 HD
ATOM     12  H   UNL     1      25.954  17.967 -14.827  1.00  0.00     0.345 HD
ATOM     13  H   UNL     1      24.789  16.911 -15.481  1.00  0.00     0.345 HD
ENDBRANCH   9  10
BRANCH   9  14
ATOM     14  C   UNL     1      24.165  19.859 -16.500  1.00  0.00     0.099 C 
ATOM     15  O   UNL     1      22.958  19.714 -16.176  1.00  0.00    -0.544 OA
ATOM     16  O   UNL     1      24.644  21.126 -16.811  1.00  0.00    -0.544 OA
ENDBRANCH   9  14
ENDBRANCH   8   9
ENDBRANCH   1   8
TORSDOF 7
ENDMDL
