MODEL 1
REMARK VINA RESULT:    -2.467      0.000      0.000
REMARK INTER + INTRA:          -3.140
REMARK INTER:                  -3.764
REMARK INTRA:                   0.624
REMARK UNBOUND:                 0.624
REMARK SMILES CC1=CCC[C@H](C)C(=O)C[C@H](C(C)C)C(=O)C1
REMARK SMILES IDX 8 1 9 2 6 3 7 4 5 5 4 6 3 7 2 8 1 9 10 11 11 12 15 13 16 14
REMARK SMILES IDX 17 15 12 17 13 18 14 19
REMARK H PARENT
REMARK Flexibility Score: 70.00
ROOT
ATOM      1  C   UNL     1      12.200   7.878   1.551  1.00  0.00     0.136 C 
ATOM      2  O   UNL     1      13.102   8.308   0.847  1.00  0.00    -0.299 OA
ENDROOT
BRANCH   1   3
ATOM      3  C   UNL     1      11.360   6.718   1.041  1.00  0.00     0.053 C 
ATOM      4  C   UNL     1      10.566   6.123   2.212  1.00  0.00     0.016 C 
BRANCH   3   5
ATOM      5  C   UNL     1      10.408   7.118  -0.120  1.00  0.00     0.015 C 
BRANCH   5   6
ATOM      6  C   UNL     1       9.612   8.423   0.082  1.00  0.00     0.028 C 
BRANCH   6   7
ATOM      7  C   UNL     1      10.227   9.690  -0.461  1.00  0.00    -0.028 C 
ATOM      8  C   UNL     1      10.541  10.794   0.253  1.00  0.00    -0.070 CG0
ATOM      9  C   UNL     1      10.876  12.047  -0.520  1.00  0.00     0.039 C 
ATOM     10  G   UNL     1      10.559  10.843   1.773  1.00  0.00     0.000 G0
ENDBRANCH   6   7
ENDBRANCH   5   6
ENDBRANCH   3   5
ENDBRANCH   1   3
BRANCH   1  11
ATOM     11  C   UNL     1      12.035   8.423   2.956  1.00  0.00     0.087 C 
BRANCH  11  12
ATOM     12  C   UNL     1      12.606   9.853   3.198  1.00  0.00     0.066 C 
BRANCH  12  13
ATOM     13  C   UNL     1      11.985  10.925   2.312  1.00  0.00     0.140 C 
ATOM     14  O   UNL     1      12.641  11.931   2.085  1.00  0.00    -0.299 OA
BRANCH  13  15
ATOM     15  C   UNL     1      10.573  10.840   1.776  1.00  0.00     0.106 CG0
ATOM     16  G   UNL     1      10.578  10.809   0.255  1.00  0.00     0.000 G0
ENDBRANCH  13  15
ENDBRANCH  12  13
BRANCH  12  17
ATOM     17  C   UNL     1      12.540  10.259   4.704  1.00  0.00    -0.006 C 
ATOM     18  C   UNL     1      11.104  10.619   5.132  1.00  0.00     0.008 C 
ATOM     19  C   UNL     1      13.065   9.141   5.625  1.00  0.00     0.008 C 
ENDBRANCH  12  17
ENDBRANCH  11  12
ENDBRANCH   1  11
TORSDOF 1
ENDMDL
MODEL 2
REMARK VINA RESULT:    -2.051      1.887      4.333
REMARK INTER + INTRA:          -2.505
REMARK INTER:                  -3.175
REMARK INTRA:                   0.669
REMARK UNBOUND:                 0.624
REMARK SMILES CC1=CCC[C@H](C)C(=O)C[C@H](C(C)C)C(=O)C1
REMARK SMILES IDX 8 1 9 2 6 3 7 4 5 5 4 6 3 7 2 8 1 9 10 11 11 12 15 13 16 14
REMARK SMILES IDX 17 15 12 17 13 18 14 19
REMARK H PARENT
REMARK Flexibility Score: 70.00
ROOT
ATOM      1  C   UNL     1      11.669   7.683   3.339  1.00  0.00     0.136 C 
ATOM      2  O   UNL     1      11.217   6.942   4.199  1.00  0.00    -0.299 OA
ENDROOT
BRANCH   1   3
ATOM      3  C   UNL     1      11.588   9.186   3.546  1.00  0.00     0.053 C 
ATOM      4  C   UNL     1      10.918   9.471   4.896  1.00  0.00     0.016 C 
BRANCH   3   5
ATOM      5  C   UNL     1      12.971   9.889   3.461  1.00  0.00     0.015 C 
BRANCH   5   6
ATOM      6  C   UNL     1      13.067  11.069   2.473  1.00  0.00     0.028 C 
BRANCH   6   7
ATOM      7  C   UNL     1      11.880  11.303   1.571  1.00  0.00    -0.028 C 
ATOM      8  C   UNL     1      11.553  10.575   0.479  1.00  0.00    -0.070 CG0
ATOM      9  C   UNL     1      10.501  11.145  -0.442  1.00  0.00     0.039 C 
ATOM     10  G   UNL     1      12.191   9.240   0.128  1.00  0.00     0.000 G0
ENDBRANCH   6   7
ENDBRANCH   5   6
ENDBRANCH   3   5
ENDBRANCH   1   3
BRANCH   1  11
ATOM     11  C   UNL     1      12.414   7.080   2.163  1.00  0.00     0.087 C 
BRANCH  11  12
ATOM     12  C   UNL     1      11.560   6.811   0.888  1.00  0.00     0.066 C 
BRANCH  12  13
ATOM     13  C   UNL     1      11.420   8.020  -0.029  1.00  0.00     0.140 C 
ATOM     14  O   UNL     1      10.662   7.928  -0.984  1.00  0.00    -0.299 OA
BRANCH  13  15
ATOM     15  C   UNL     1      12.233   9.284   0.138  1.00  0.00     0.106 CG0
ATOM     16  G   UNL     1      11.327  10.468   0.437  1.00  0.00     0.000 G0
ENDBRANCH  13  15
ENDBRANCH  12  13
BRANCH  12  17
ATOM     17  C   UNL     1      12.067   5.562   0.100  1.00  0.00    -0.006 C 
ATOM     18  C   UNL     1      10.902   4.781  -0.535  1.00  0.00     0.008 C 
ATOM     19  C   UNL     1      13.067   5.947  -1.006  1.00  0.00     0.008 C 
ENDBRANCH  12  17
ENDBRANCH  11  12
ENDBRANCH   1  11
TORSDOF 1
ENDMDL
MODEL 3
REMARK VINA RESULT:    -1.298      1.784      3.931
REMARK INTER + INTRA:          -1.357
REMARK INTER:                  -3.096
REMARK INTRA:                   1.739
REMARK UNBOUND:                 0.624
REMARK SMILES CC1=CCC[C@H](C)C(=O)C[C@H](C(C)C)C(=O)C1
REMARK SMILES IDX 8 1 9 2 6 3 7 4 5 5 4 6 3 7 2 8 1 9 10 11 11 12 15 13 16 14
REMARK SMILES IDX 17 15 12 17 13 18 14 19
REMARK H PARENT
REMARK Flexibility Score: 70.00
ROOT
ATOM      1  C   UNL     1       9.538   7.830   0.756  1.00  0.00     0.136 C 
ATOM      2  O   UNL     1       8.719   8.216  -0.066  1.00  0.00    -0.299 OA
ENDROOT
BRANCH   1   3
ATOM      3  C   UNL     1      10.155   6.452   0.587  1.00  0.00     0.053 C 
ATOM      4  C   UNL     1      10.991   6.430  -0.700  1.00  0.00     0.016 C 
BRANCH   3   5
ATOM      5  C   UNL     1      11.015   6.015   1.806  1.00  0.00     0.015 C 
BRANCH   5   6
ATOM      6  C   UNL     1      12.292   6.843   2.058  1.00  0.00     0.028 C 
BRANCH   6   7
ATOM      7  C   UNL     1      12.394   7.552   3.386  1.00  0.00    -0.028 C 
ATOM      8  C   UNL     1      12.829   8.818   3.583  1.00  0.00    -0.070 CG0
ATOM      9  C   UNL     1      13.125   9.235   5.004  1.00  0.00     0.039 C 
ATOM     10  G   UNL     1      13.046   9.823   2.462  1.00  0.00     0.000 G0
ENDBRANCH   6   7
ENDBRANCH   5   6
ENDBRANCH   3   5
ENDBRANCH   1   3
BRANCH   1  11
ATOM     11  C   UNL     1      10.010   8.787   1.833  1.00  0.00     0.087 C 
BRANCH  11  12
ATOM     12  C   UNL     1      10.648  10.115   1.325  1.00  0.00     0.066 C 
BRANCH  12  13
ATOM     13  C   UNL     1      11.803  10.615   2.184  1.00  0.00     0.140 C 
ATOM     14  O   UNL     1      11.736  11.751   2.628  1.00  0.00    -0.299 OA
BRANCH  13  15
ATOM     15  C   UNL     1      13.056   9.806   2.437  1.00  0.00     0.106 CG0
ATOM     16  G   UNL     1      12.832   8.811   3.565  1.00  0.00     0.000 G0
ENDBRANCH  13  15
ENDBRANCH  12  13
BRANCH  12  17
ATOM     17  C   UNL     1      11.062  10.024  -0.178  1.00  0.00    -0.006 C 
ATOM     18  C   UNL     1      10.921  11.383  -0.888  1.00  0.00     0.008 C 
ATOM     19  C   UNL     1      12.509   9.524  -0.346  1.00  0.00     0.008 C 
ENDBRANCH  12  17
ENDBRANCH  11  12
ENDBRANCH   1  11
TORSDOF 1
ENDMDL
MODEL 4
REMARK VINA RESULT:    -0.897     23.237     25.119
REMARK INTER + INTRA:          -0.745
REMARK INTER:                  -1.460
REMARK INTRA:                   0.716
REMARK UNBOUND:                 0.624
REMARK SMILES CC1=CCC[C@H](C)C(=O)C[C@H](C(C)C)C(=O)C1
REMARK SMILES IDX 8 1 9 2 6 3 7 4 5 5 4 6 3 7 2 8 1 9 10 11 11 12 15 13 16 14
REMARK SMILES IDX 17 15 12 17 13 18 14 19
REMARK H PARENT
REMARK Flexibility Score: 70.00
ROOT
ATOM      1  C   UNL     1      -0.067  -5.543  17.482  1.00  0.00     0.136 C 
ATOM      2  O   UNL     1      -0.308  -6.123  18.530  1.00  0.00    -0.299 OA
ENDROOT
BRANCH   1   3
ATOM      3  C   UNL     1       1.339  -5.617  16.908  1.00  0.00     0.053 C 
ATOM      4  C   UNL     1       1.946  -6.986  17.242  1.00  0.00     0.016 C 
BRANCH   3   5
ATOM      5  C   UNL     1       1.388  -5.355  15.377  1.00  0.00     0.015 C 
BRANCH   5   6
ATOM      6  C   UNL     1       1.343  -6.607  14.479  1.00  0.00     0.028 C 
BRANCH   6   7
ATOM      7  C   UNL     1       0.024  -6.926  13.817  1.00  0.00    -0.028 C 
ATOM      8  C   UNL     1      -0.980  -7.658  14.352  1.00  0.00    -0.070 CG0
ATOM      9  C   UNL     1      -2.086  -8.098  13.423  1.00  0.00     0.039 C 
ATOM     10  G   UNL     1      -1.044  -8.066  15.816  1.00  0.00     0.000 G0
ENDBRANCH   6   7
ENDBRANCH   5   6
ENDBRANCH   3   5
ENDBRANCH   1   3
BRANCH   1  11
ATOM     11  C   UNL     1      -1.203  -4.888  16.721  1.00  0.00     0.087 C 
BRANCH  11  12
ATOM     12  C   UNL     1      -2.387  -5.825  16.336  1.00  0.00     0.066 C 
BRANCH  12  13
ATOM     13  C   UNL     1      -2.110  -7.304  16.578  1.00  0.00     0.140 C 
ATOM     14  O   UNL     1      -2.722  -7.861  17.477  1.00  0.00    -0.299 OA
BRANCH  13  15
ATOM     15  C   UNL     1      -1.059  -8.083  15.819  1.00  0.00     0.106 CG0
ATOM     16  G   UNL     1      -1.009  -7.638  14.365  1.00  0.00     0.000 G0
ENDBRANCH  13  15
ENDBRANCH  12  13
BRANCH  12  17
ATOM     17  C   UNL     1      -3.723  -5.384  17.015  1.00  0.00    -0.006 C 
ATOM     18  C   UNL     1      -3.468  -4.656  18.348  1.00  0.00     0.008 C 
ATOM     19  C   UNL     1      -4.556  -4.466  16.101  1.00  0.00     0.008 C 
ENDBRANCH  12  17
ENDBRANCH  11  12
ENDBRANCH   1  11
TORSDOF 1
ENDMDL
MODEL 5
REMARK VINA RESULT:    -0.785     22.997     24.837
REMARK INTER + INTRA:          -0.574
REMARK INTER:                  -1.353
REMARK INTRA:                   0.779
REMARK UNBOUND:                 0.624
REMARK SMILES CC1=CCC[C@H](C)C(=O)C[C@H](C(C)C)C(=O)C1
REMARK SMILES IDX 8 1 9 2 6 3 7 4 5 5 4 6 3 7 2 8 1 9 10 11 11 12 15 13 16 14
REMARK SMILES IDX 17 15 12 17 13 18 14 19
REMARK H PARENT
REMARK Flexibility Score: 70.00
ROOT
ATOM      1  C   UNL     1       1.532  -5.628  16.367  1.00  0.00     0.136 C 
ATOM      2  O   UNL     1       2.125  -5.929  17.393  1.00  0.00    -0.299 OA
ENDROOT
BRANCH   1   3
ATOM      3  C   UNL     1       2.105  -6.072  15.031  1.00  0.00     0.053 C 
ATOM      4  C   UNL     1       2.791  -7.433  15.206  1.00  0.00     0.016 C 
BRANCH   3   5
ATOM      5  C   UNL     1       1.039  -6.136  13.902  1.00  0.00     0.015 C 
BRANCH   5   6
ATOM      6  C   UNL     1       0.265  -7.465  13.782  1.00  0.00     0.028 C 
BRANCH   6   7
ATOM      7  C   UNL     1      -1.124  -7.501  14.370  1.00  0.00    -0.028 C 
ATOM      8  C   UNL     1      -1.449  -7.889  15.625  1.00  0.00    -0.070 CG0
ATOM      9  C   UNL     1      -2.911  -8.125  15.919  1.00  0.00     0.039 C 
ATOM     10  G   UNL     1      -0.432  -8.110  16.733  1.00  0.00     0.000 G0
ENDBRANCH   6   7
ENDBRANCH   5   6
ENDBRANCH   3   5
ENDBRANCH   1   3
BRANCH   1  11
ATOM     11  C   UNL     1       0.183  -4.944  16.467  1.00  0.00     0.087 C 
BRANCH  11  12
ATOM     12  C   UNL     1      -0.827  -5.585  17.466  1.00  0.00     0.066 C 
BRANCH  12  13
ATOM     13  C   UNL     1      -0.536  -7.045  17.789  1.00  0.00     0.140 C 
ATOM     14  O   UNL     1      -0.305  -7.338  18.953  1.00  0.00    -0.299 OA
BRANCH  13  15
ATOM     15  C   UNL     1      -0.435  -8.122  16.732  1.00  0.00     0.106 CG0
ATOM     16  G   UNL     1      -1.439  -7.873  15.616  1.00  0.00     0.000 G0
ENDBRANCH  13  15
ENDBRANCH  12  13
BRANCH  12  17
ATOM     17  C   UNL     1      -0.973  -4.737  18.769  1.00  0.00    -0.006 C 
ATOM     18  C   UNL     1      -0.156  -3.434  18.693  1.00  0.00     0.008 C 
ATOM     19  C   UNL     1      -2.443  -4.384  19.064  1.00  0.00     0.008 C 
ENDBRANCH  12  17
ENDBRANCH  11  12
ENDBRANCH   1  11
TORSDOF 1
ENDMDL
MODEL 6
REMARK VINA RESULT:    -0.759      1.950      3.581
REMARK INTER + INTRA:          -0.534
REMARK INTER:                  -2.981
REMARK INTRA:                   2.446
REMARK UNBOUND:                 0.624
REMARK SMILES CC1=CCC[C@H](C)C(=O)C[C@H](C(C)C)C(=O)C1
REMARK SMILES IDX 8 1 9 2 6 3 7 4 5 5 4 6 3 7 2 8 1 9 10 11 11 12 15 13 16 14
REMARK SMILES IDX 17 15 12 17 13 18 14 19
REMARK H PARENT
REMARK Flexibility Score: 70.00
ROOT
ATOM      1  C   UNL     1      12.923   7.766   1.242  1.00  0.00     0.136 C 
ATOM      2  O   UNL     1      13.123   6.988   0.321  1.00  0.00    -0.299 OA
ENDROOT
BRANCH   1   3
ATOM      3  C   UNL     1      12.616   7.209   2.622  1.00  0.00     0.053 C 
ATOM      4  C   UNL     1      12.496   8.372   3.617  1.00  0.00     0.016 C 
BRANCH   3   5
ATOM      5  C   UNL     1      11.337   6.328   2.653  1.00  0.00     0.015 C 
BRANCH   5   6
ATOM      6  C   UNL     1      10.868   5.775   1.291  1.00  0.00     0.028 C 
BRANCH   6   7
ATOM      7  C   UNL     1       9.590   6.346   0.727  1.00  0.00    -0.028 C 
ATOM      8  C   UNL     1       9.220   7.647   0.747  1.00  0.00    -0.070 CG0
ATOM      9  C   UNL     1       7.787   7.964   0.391  1.00  0.00     0.039 C 
ATOM     10  G   UNL     1      10.155   8.787   1.118  1.00  0.00     0.000 G0
ENDBRANCH   6   7
ENDBRANCH   5   6
ENDBRANCH   3   5
ENDBRANCH   1   3
BRANCH   1  11
ATOM     11  C   UNL     1      13.122   9.252   1.009  1.00  0.00     0.087 C 
BRANCH  11  12
ATOM     12  C   UNL     1      12.240   9.884  -0.110  1.00  0.00     0.066 C 
BRANCH  12  13
ATOM     13  C   UNL     1      10.796   9.399  -0.108  1.00  0.00     0.140 C 
ATOM     14  O   UNL     1      10.137   9.558  -1.124  1.00  0.00    -0.299 OA
BRANCH  13  15
ATOM     15  C   UNL     1      10.121   8.814   1.114  1.00  0.00     0.106 CG0
ATOM     16  G   UNL     1       9.217   7.655   0.722  1.00  0.00     0.000 G0
ENDBRANCH  13  15
ENDBRANCH  12  13
BRANCH  12  17
ATOM     17  C   UNL     1      12.311  11.444  -0.095  1.00  0.00    -0.006 C 
ATOM     18  C   UNL     1      10.944  12.076  -0.419  1.00  0.00     0.008 C 
ATOM     19  C   UNL     1      12.798  11.984   1.263  1.00  0.00     0.008 C 
ENDBRANCH  12  17
ENDBRANCH  11  12
ENDBRANCH   1  11
TORSDOF 1
ENDMDL
MODEL 7
REMARK VINA RESULT:     0.495      1.925      4.671
REMARK INTER + INTRA:           1.380
REMARK INTER:                  -2.430
REMARK INTRA:                   3.810
REMARK UNBOUND:                 0.624
REMARK SMILES CC1=CCC[C@H](C)C(=O)C[C@H](C(C)C)C(=O)C1
REMARK SMILES IDX 8 1 9 2 6 3 7 4 5 5 4 6 3 7 2 8 1 9 10 11 11 12 15 13 16 14
REMARK SMILES IDX 17 15 12 17 13 18 14 19
REMARK H PARENT
REMARK Flexibility Score: 70.00
ROOT
ATOM      1  C   UNL     1      12.279   9.813   2.078  1.00  0.00     0.136 C 
ATOM      2  O   UNL     1      11.069   9.649   2.126  1.00  0.00    -0.299 OA
ENDROOT
BRANCH   1   3
ATOM      3  C   UNL     1      13.124   9.409   3.275  1.00  0.00     0.053 C 
ATOM      4  C   UNL     1      12.649  10.187   4.510  1.00  0.00     0.016 C 
BRANCH   3   5
ATOM      5  C   UNL     1      13.101   7.880   3.550  1.00  0.00     0.015 C 
BRANCH   5   6
ATOM      6  C   UNL     1      11.812   7.141   3.135  1.00  0.00     0.028 C 
BRANCH   6   7
ATOM      7  C   UNL     1      11.933   6.130   2.021  1.00  0.00    -0.028 C 
ATOM      8  C   UNL     1      11.448   6.265   0.765  1.00  0.00    -0.070 CG0
ATOM      9  C   UNL     1      11.423   5.030  -0.103  1.00  0.00     0.039 C 
ATOM     10  G   UNL     1      10.923   7.574   0.197  1.00  0.00     0.000 G0
ENDBRANCH   6   7
ENDBRANCH   5   6
ENDBRANCH   3   5
ENDBRANCH   1   3
BRANCH   1  11
ATOM     11  C   UNL     1      12.910  10.284   0.782  1.00  0.00     0.087 C 
BRANCH  11  12
ATOM     12  C   UNL     1      12.275   9.717  -0.523  1.00  0.00     0.066 C 
BRANCH  12  13
ATOM     13  C   UNL     1      12.166   8.198  -0.549  1.00  0.00     0.140 C 
ATOM     14  O   UNL     1      13.047   7.570  -1.117  1.00  0.00    -0.299 OA
BRANCH  13  15
ATOM     15  C   UNL     1      10.982   7.444   0.015  1.00  0.00     0.106 CG0
ATOM     16  G   UNL     1      11.449   6.274   0.867  1.00  0.00     0.000 G0
ENDBRANCH  13  15
ENDBRANCH  12  13
BRANCH  12  17
ATOM     17  C   UNL     1      10.900  10.387  -0.841  1.00  0.00    -0.006 C 
ATOM     18  C   UNL     1       9.731   9.408  -0.626  1.00  0.00     0.008 C 
ATOM     19  C   UNL     1      10.660  11.642   0.019  1.00  0.00     0.008 C 
ENDBRANCH  12  17
ENDBRANCH  11  12
ENDBRANCH   1  11
TORSDOF 1
ENDMDL
