MODEL 1
REMARK VINA RESULT:    -3.434      0.000      0.000
REMARK INTER + INTRA:          -4.604
REMARK INTER:                  -4.437
REMARK INTRA:                  -0.167
REMARK UNBOUND:                -0.167
REMARK SMILES CCCCCCC(=O)[O-]
REMARK SMILES IDX 5 1 6 2 7 3 8 4 9 5 4 6 3 7 2 8 1 9
REMARK H PARENT
REMARK Flexibility Score: inf
ROOT
ATOM      1  C   UNL     1     -20.309   2.796 -24.888  1.00  0.00     0.006 C 
ENDROOT
BRANCH   1   2
ATOM      2  C   UNL     1     -20.724   1.444 -25.475  1.00  0.00     0.053 C 
BRANCH   2   3
ATOM      3  C   UNL     1     -19.723   0.390 -25.123  1.00  0.00     0.041 C 
ATOM      4  O   UNL     1     -19.781  -0.194 -24.010  1.00  0.00    -0.550 OA
ATOM      5  O   UNL     1     -18.694   0.085 -26.006  1.00  0.00    -0.550 OA
ENDBRANCH   2   3
ENDBRANCH   1   2
BRANCH   1   6
ATOM      6  C   UNL     1     -21.082   3.093 -23.595  1.00  0.00     0.000 C 
BRANCH   6   7
ATOM      7  C   UNL     1     -20.207   2.964 -22.337  1.00  0.00    -0.000 C 
BRANCH   7   8
ATOM      8  C   UNL     1     -20.795   3.706 -21.129  1.00  0.00    -0.003 C 
ATOM      9  C   UNL     1     -20.090   3.299 -19.838  1.00  0.00     0.004 C 
ENDBRANCH   7   8
ENDBRANCH   6   7
ENDBRANCH   1   6
TORSDOF 5
ENDMDL
MODEL 2
REMARK VINA RESULT:    -3.359     11.869     13.038
REMARK INTER + INTRA:          -4.507
REMARK INTER:                  -4.226
REMARK INTRA:                  -0.281
REMARK UNBOUND:                -0.167
REMARK SMILES CCCCCCC(=O)[O-]
REMARK SMILES IDX 5 1 6 2 7 3 8 4 9 5 4 6 3 7 2 8 1 9
REMARK H PARENT
REMARK Flexibility Score: inf
ROOT
ATOM      1  C   UNL     1      -7.080  -0.760 -25.221  1.00  0.00     0.006 C 
ENDROOT
BRANCH   1   2
ATOM      2  C   UNL     1      -7.456  -1.764 -24.128  1.00  0.00     0.053 C 
BRANCH   2   3
ATOM      3  C   UNL     1      -6.557  -1.611 -22.943  1.00  0.00     0.041 C 
ATOM      4  O   UNL     1      -6.571  -0.548 -22.269  1.00  0.00    -0.550 OA
ATOM      5  O   UNL     1      -5.666  -2.624 -22.610  1.00  0.00    -0.550 OA
ENDBRANCH   2   3
ENDBRANCH   1   2
BRANCH   1   6
ATOM      6  C   UNL     1      -8.131   0.354 -25.329  1.00  0.00     0.000 C 
BRANCH   6   7
ATOM      7  C   UNL     1      -9.512  -0.082 -24.813  1.00  0.00    -0.000 C 
BRANCH   7   8
ATOM      8  C   UNL     1     -10.592  -0.036 -25.904  1.00  0.00    -0.003 C 
ATOM      9  C   UNL     1     -10.164   0.862 -27.062  1.00  0.00     0.004 C 
ENDBRANCH   7   8
ENDBRANCH   6   7
ENDBRANCH   1   6
TORSDOF 5
ENDMDL
MODEL 3
REMARK VINA RESULT:    -3.329      1.285      2.089
REMARK INTER + INTRA:          -4.469
REMARK INTER:                  -4.053
REMARK INTRA:                  -0.416
REMARK UNBOUND:                -0.167
REMARK SMILES CCCCCCC(=O)[O-]
REMARK SMILES IDX 5 1 6 2 7 3 8 4 9 5 4 6 3 7 2 8 1 9
REMARK H PARENT
REMARK Flexibility Score: inf
ROOT
ATOM      1  C   UNL     1     -21.274   2.010 -26.373  1.00  0.00     0.006 C 
ENDROOT
BRANCH   1   2
ATOM      2  C   UNL     1     -21.069   0.529 -26.043  1.00  0.00     0.053 C 
BRANCH   2   3
ATOM      3  C   UNL     1     -19.764   0.323 -25.342  1.00  0.00     0.041 C 
ATOM      4  O   UNL     1     -18.680   0.498 -25.957  1.00  0.00    -0.550 OA
ATOM      5  O   UNL     1     -19.744  -0.112 -24.022  1.00  0.00    -0.550 OA
ENDBRANCH   2   3
ENDBRANCH   1   2
BRANCH   1   6
ATOM      6  C   UNL     1     -21.599   2.815 -25.107  1.00  0.00     0.000 C 
BRANCH   6   7
ATOM      7  C   UNL     1     -20.557   3.907 -24.815  1.00  0.00    -0.000 C 
BRANCH   7   8
ATOM      8  C   UNL     1     -19.924   3.763 -23.424  1.00  0.00    -0.003 C 
ATOM      9  C   UNL     1     -20.791   2.898 -22.513  1.00  0.00     0.004 C 
ENDBRANCH   7   8
ENDBRANCH   6   7
ENDBRANCH   1   6
TORSDOF 5
ENDMDL
MODEL 4
REMARK VINA RESULT:    -3.239      2.572      3.253
REMARK INTER + INTRA:          -4.353
REMARK INTER:                  -3.979
REMARK INTRA:                  -0.374
REMARK UNBOUND:                -0.167
REMARK SMILES CCCCCCC(=O)[O-]
REMARK SMILES IDX 5 1 6 2 7 3 8 4 9 5 4 6 3 7 2 8 1 9
REMARK H PARENT
REMARK Flexibility Score: inf
ROOT
ATOM      1  C   UNL     1     -21.437   1.213 -26.086  1.00  0.00     0.006 C 
ENDROOT
BRANCH   1   2
ATOM      2  C   UNL     1     -20.650   0.120 -26.814  1.00  0.00     0.053 C 
BRANCH   2   3
ATOM      3  C   UNL     1     -19.548  -0.399 -25.946  1.00  0.00     0.041 C 
ATOM      4  O   UNL     1     -19.566  -0.191 -24.705  1.00  0.00    -0.550 OA
ATOM      5  O   UNL     1     -18.473  -1.072 -26.515  1.00  0.00    -0.550 OA
ENDBRANCH   2   3
ENDBRANCH   1   2
BRANCH   1   6
ATOM      6  C   UNL     1     -20.836   2.599 -26.362  1.00  0.00     0.000 C 
BRANCH   6   7
ATOM      7  C   UNL     1     -20.232   3.245 -25.105  1.00  0.00    -0.000 C 
BRANCH   7   8
ATOM      8  C   UNL     1     -18.828   3.815 -25.350  1.00  0.00    -0.003 C 
ATOM      9  C   UNL     1     -18.009   2.889 -26.246  1.00  0.00     0.004 C 
ENDBRANCH   7   8
ENDBRANCH   6   7
ENDBRANCH   1   6
TORSDOF 5
ENDMDL
MODEL 5
REMARK VINA RESULT:    -3.230     13.668     14.925
REMARK INTER + INTRA:          -4.341
REMARK INTER:                  -4.233
REMARK INTRA:                  -0.108
REMARK UNBOUND:                -0.167
REMARK SMILES CCCCCCC(=O)[O-]
REMARK SMILES IDX 5 1 6 2 7 3 8 4 9 5 4 6 3 7 2 8 1 9
REMARK H PARENT
REMARK Flexibility Score: inf
ROOT
ATOM      1  C   UNL     1      -7.089  -3.183 -24.876  1.00  0.00     0.006 C 
ENDROOT
BRANCH   1   2
ATOM      2  C   UNL     1      -7.556  -2.011 -24.008  1.00  0.00     0.053 C 
BRANCH   2   3
ATOM      3  C   UNL     1      -6.537  -1.697 -22.960  1.00  0.00     0.041 C 
ATOM      4  O   UNL     1      -6.487  -0.548 -22.447  1.00  0.00    -0.550 OA
ATOM      5  O   UNL     1      -5.607  -2.659 -22.583  1.00  0.00    -0.550 OA
ENDBRANCH   2   3
ENDBRANCH   1   2
BRANCH   1   6
ATOM      6  C   UNL     1      -8.264  -4.108 -25.228  1.00  0.00     0.000 C 
BRANCH   6   7
ATOM      7  C   UNL     1      -7.883  -5.183 -26.258  1.00  0.00    -0.000 C 
BRANCH   7   8
ATOM      8  C   UNL     1      -8.398  -6.578 -25.874  1.00  0.00    -0.003 C 
ATOM      9  C   UNL     1      -7.263  -7.598 -25.865  1.00  0.00     0.004 C 
ENDBRANCH   7   8
ENDBRANCH   6   7
ENDBRANCH   1   6
TORSDOF 5
ENDMDL
MODEL 6
REMARK VINA RESULT:    -3.206     12.423     13.325
REMARK INTER + INTRA:          -4.310
REMARK INTER:                  -3.937
REMARK INTRA:                  -0.374
REMARK UNBOUND:                -0.167
REMARK SMILES CCCCCCC(=O)[O-]
REMARK SMILES IDX 5 1 6 2 7 3 8 4 9 5 4 6 3 7 2 8 1 9
REMARK H PARENT
REMARK Flexibility Score: inf
ROOT
ATOM      1  C   UNL     1      -8.602  -1.276 -24.231  1.00  0.00     0.006 C 
ENDROOT
BRANCH   1   2
ATOM      2  C   UNL     1      -7.087  -1.459 -24.356  1.00  0.00     0.053 C 
BRANCH   2   3
ATOM      3  C   UNL     1      -6.450  -1.495 -23.003  1.00  0.00     0.041 C 
ATOM      4  O   UNL     1      -6.538  -0.503 -22.234  1.00  0.00    -0.550 OA
ATOM      5  O   UNL     1      -5.715  -2.607 -22.609  1.00  0.00    -0.550 OA
ENDBRANCH   2   3
ENDBRANCH   1   2
BRANCH   1   6
ATOM      6  C   UNL     1      -9.043   0.069 -24.826  1.00  0.00     0.000 C 
BRANCH   6   7
ATOM      7  C   UNL     1      -7.935   0.744 -25.651  1.00  0.00    -0.000 C 
BRANCH   7   8
ATOM      8  C   UNL     1      -7.819   2.248 -25.364  1.00  0.00    -0.003 C 
ATOM      9  C   UNL     1      -7.078   2.501 -24.054  1.00  0.00     0.004 C 
ENDBRANCH   7   8
ENDBRANCH   6   7
ENDBRANCH   1   6
TORSDOF 5
ENDMDL
MODEL 7
REMARK VINA RESULT:    -3.130     15.242     16.441
REMARK INTER + INTRA:          -4.212
REMARK INTER:                  -4.017
REMARK INTRA:                  -0.195
REMARK UNBOUND:                -0.167
REMARK SMILES CCCCCCC(=O)[O-]
REMARK SMILES IDX 5 1 6 2 7 3 8 4 9 5 4 6 3 7 2 8 1 9
REMARK H PARENT
REMARK Flexibility Score: inf
ROOT
ATOM      1  C   UNL     1     -11.165  -9.856 -27.982  1.00  0.00     0.006 C 
ENDROOT
BRANCH   1   2
ATOM      2  C   UNL     1      -9.907  -9.998 -27.120  1.00  0.00     0.053 C 
BRANCH   2   3
ATOM      3  C   UNL     1     -10.019  -9.158 -25.888  1.00  0.00     0.041 C 
ATOM      4  O   UNL     1     -10.100  -9.700 -24.755  1.00  0.00    -0.550 OA
ATOM      5  O   UNL     1     -10.083  -7.773 -25.993  1.00  0.00    -0.550 OA
ENDBRANCH   2   3
ENDBRANCH   1   2
BRANCH   1   6
ATOM      6  C   UNL     1     -12.242 -10.862 -27.551  1.00  0.00     0.000 C 
BRANCH   6   7
ATOM      7  C   UNL     1     -11.651 -12.211 -27.108  1.00  0.00    -0.000 C 
BRANCH   7   8
ATOM      8  C   UNL     1     -12.715 -13.169 -26.555  1.00  0.00    -0.003 C 
ATOM      9  C   UNL     1     -12.221 -14.613 -26.583  1.00  0.00     0.004 C 
ENDBRANCH   7   8
ENDBRANCH   6   7
ENDBRANCH   1   6
TORSDOF 5
ENDMDL
MODEL 8
REMARK VINA RESULT:    -3.080     12.168     13.554
REMARK INTER + INTRA:          -4.147
REMARK INTER:                  -3.915
REMARK INTRA:                  -0.232
REMARK UNBOUND:                -0.167
REMARK SMILES CCCCCCC(=O)[O-]
REMARK SMILES IDX 5 1 6 2 7 3 8 4 9 5 4 6 3 7 2 8 1 9
REMARK H PARENT
REMARK Flexibility Score: inf
ROOT
ATOM      1  C   UNL     1      -7.302  -3.015 -24.952  1.00  0.00     0.006 C 
ENDROOT
BRANCH   1   2
ATOM      2  C   UNL     1      -7.611  -2.055 -23.800  1.00  0.00     0.053 C 
BRANCH   2   3
ATOM      3  C   UNL     1      -6.390  -1.821 -22.970  1.00  0.00     0.041 C 
ATOM      4  O   UNL     1      -5.666  -2.789 -22.620  1.00  0.00    -0.550 OA
ATOM      5  O   UNL     1      -6.076  -0.537 -22.540  1.00  0.00    -0.550 OA
ENDBRANCH   2   3
ENDBRANCH   1   2
BRANCH   1   6
ATOM      6  C   UNL     1      -8.339  -2.877 -26.076  1.00  0.00     0.000 C 
BRANCH   6   7
ATOM      7  C   UNL     1      -8.436  -1.442 -26.620  1.00  0.00    -0.000 C 
BRANCH   7   8
ATOM      8  C   UNL     1      -9.882  -1.021 -26.920  1.00  0.00    -0.003 C 
ATOM      9  C   UNL     1     -10.406  -0.061 -25.855  1.00  0.00     0.004 C 
ENDBRANCH   7   8
ENDBRANCH   6   7
ENDBRANCH   1   6
TORSDOF 5
ENDMDL
MODEL 9
REMARK VINA RESULT:    -3.055     12.717     13.741
REMARK INTER + INTRA:          -4.115
REMARK INTER:                  -3.886
REMARK INTRA:                  -0.228
REMARK UNBOUND:                -0.167
REMARK SMILES CCCCCCC(=O)[O-]
REMARK SMILES IDX 5 1 6 2 7 3 8 4 9 5 4 6 3 7 2 8 1 9
REMARK H PARENT
REMARK Flexibility Score: inf
ROOT
ATOM      1  C   UNL     1      -6.286   0.254 -23.337  1.00  0.00     0.006 C 
ENDROOT
BRANCH   1   2
ATOM      2  C   UNL     1      -5.849   1.060 -22.111  1.00  0.00     0.053 C 
BRANCH   2   3
ATOM      3  C   UNL     1      -6.095   2.519 -22.328  1.00  0.00     0.041 C 
ATOM      4  O   UNL     1      -5.487   3.375 -21.633  1.00  0.00    -0.550 OA
ATOM      5  O   UNL     1      -7.033   2.935 -23.265  1.00  0.00    -0.550 OA
ENDBRANCH   2   3
ENDBRANCH   1   2
BRANCH   1   6
ATOM      6  C   UNL     1      -7.168  -0.935 -22.927  1.00  0.00     0.000 C 
BRANCH   6   7
ATOM      7  C   UNL     1      -8.327  -1.180 -23.906  1.00  0.00    -0.000 C 
BRANCH   7   8
ATOM      8  C   UNL     1      -8.615   0.038 -24.796  1.00  0.00    -0.003 C 
ATOM      9  C   UNL     1     -10.038  -0.009 -25.347  1.00  0.00     0.004 C 
ENDBRANCH   7   8
ENDBRANCH   6   7
ENDBRANCH   1   6
TORSDOF 5
ENDMDL
