MODEL 1
REMARK VINA RESULT:    -6.350      0.000      0.000
REMARK INTER + INTRA:          -7.148
REMARK INTER:                  -6.907
REMARK INTRA:                  -0.241
REMARK UNBOUND:                -0.241
REMARK SMILES CC(C)c1cc2c(cc1O)[C@]1(C)CCCC(C)(C)[C@@H]1CC2=O
REMARK SMILES IDX 4 1 9 2 8 3 7 4 6 5 5 6 21 7 22 8 20 9 19 10 11 11 13 12
REMARK SMILES IDX 14 13 15 14 16 15 17 16 18 17 12 18 2 19 1 20 3 21 10 22
REMARK H PARENT 10 23
REMARK Flexibility Score: inf
ROOT
ATOM      1  C   UNL     1     -12.241  14.566 -22.518  1.00  0.00    -0.003 A 
ATOM      2  C   UNL     1     -12.953  13.649 -21.721  1.00  0.00     0.119 A 
ATOM      3  C   UNL     1     -12.602  12.293 -21.729  1.00  0.00     0.051 A 
ATOM      4  C   UNL     1     -11.551  11.799 -22.538  1.00  0.00    -0.027 A 
ATOM      5  C   UNL     1     -10.793  12.739 -23.267  1.00  0.00     0.022 A 
ATOM      6  C   UNL     1     -11.156  14.097 -23.273  1.00  0.00     0.020 A 
ATOM      7  C   UNL     1      -9.581  12.312 -23.967  1.00  0.00     0.163 C 
ATOM      8  O   UNL     1      -8.991  13.084 -24.772  1.00  0.00    -0.294 OA
ATOM      9  C   UNL     1      -9.000  10.977 -23.667  1.00  0.00     0.086 C 
ATOM     10  C   UNL     1     -10.106   9.890 -23.626  1.00  0.00     0.013 C 
ATOM     11  C   UNL     1     -11.237  10.277 -22.568  1.00  0.00    -0.003 C 
ATOM     12  C   UNL     1     -10.788   9.876 -21.135  1.00  0.00     0.012 C 
ATOM     13  C   UNL     1     -10.309   8.430 -21.013  1.00  0.00     0.001 C 
ATOM     14  C   UNL     1      -9.150   8.143 -21.968  1.00  0.00     0.007 C 
ATOM     15  C   UNL     1      -9.491   8.421 -23.455  1.00  0.00    -0.031 C 
ATOM     16  C   UNL     1     -10.454   7.323 -24.005  1.00  0.00     0.011 C 
ATOM     17  C   UNL     1      -8.171   8.251 -24.263  1.00  0.00     0.011 C 
ATOM     18  C   UNL     1     -12.567   9.562 -22.951  1.00  0.00     0.017 C 
ENDROOT
BRANCH   1  19
ATOM     19  C   UNL     1     -12.585  16.050 -22.561  1.00  0.00     0.017 C 
ATOM     20  C   UNL     1     -11.451  16.916 -21.997  1.00  0.00     0.012 C 
ATOM     21  C   UNL     1     -12.991  16.500 -23.969  1.00  0.00     0.012 C 
ENDBRANCH   1  19
BRANCH   2  22
ATOM     22  O   UNL     1     -14.010  14.075 -20.919  1.00  0.00    -0.508 OA
ATOM     23  H   UNL     1     -14.951  14.178 -21.281  1.00  0.00     0.293 HD
ENDBRANCH   2  22
TORSDOF 2
ENDMDL
MODEL 2
REMARK VINA RESULT:    -6.322      6.118      7.562
REMARK INTER + INTRA:          -7.117
REMARK INTER:                  -6.904
REMARK INTRA:                  -0.213
REMARK UNBOUND:                -0.241
REMARK SMILES CC(C)c1cc2c(cc1O)[C@]1(C)CCCC(C)(C)[C@@H]1CC2=O
REMARK SMILES IDX 4 1 9 2 8 3 7 4 6 5 5 6 21 7 22 8 20 9 19 10 11 11 13 12
REMARK SMILES IDX 14 13 15 14 16 15 17 16 18 17 12 18 2 19 1 20 3 21 10 22
REMARK H PARENT 10 23
REMARK Flexibility Score: inf
ROOT
ATOM      1  C   UNL     1      -4.091  14.481 -24.600  1.00  0.00    -0.003 A 
ATOM      2  C   UNL     1      -5.232  13.863 -25.149  1.00  0.00     0.119 A 
ATOM      3  C   UNL     1      -5.351  12.468 -25.129  1.00  0.00     0.051 A 
ATOM      4  C   UNL     1      -4.341  11.640 -24.586  1.00  0.00    -0.027 A 
ATOM      5  C   UNL     1      -3.244  12.273 -23.965  1.00  0.00     0.022 A 
ATOM      6  C   UNL     1      -3.115  13.673 -23.999  1.00  0.00     0.020 A 
ATOM      7  C   UNL     1      -2.267  11.475 -23.221  1.00  0.00     0.163 C 
ATOM      8  O   UNL     1      -1.187  11.986 -22.817  1.00  0.00    -0.294 OA
ATOM      9  C   UNL     1      -2.591  10.066 -22.877  1.00  0.00     0.086 C 
ATOM     10  C   UNL     1      -3.194   9.324 -24.097  1.00  0.00     0.013 C 
ATOM     11  C   UNL     1      -4.482  10.093 -24.645  1.00  0.00    -0.003 C 
ATOM     12  C   UNL     1      -5.729   9.717 -23.798  1.00  0.00     0.012 C 
ATOM     13  C   UNL     1      -5.943   8.213 -23.635  1.00  0.00     0.001 C 
ATOM     14  C   UNL     1      -4.724   7.540 -23.003  1.00  0.00     0.007 C 
ATOM     15  C   UNL     1      -3.411   7.765 -23.799  1.00  0.00    -0.031 C 
ATOM     16  C   UNL     1      -3.423   6.920 -25.112  1.00  0.00     0.011 C 
ATOM     17  C   UNL     1      -2.254   7.176 -22.942  1.00  0.00     0.011 C 
ATOM     18  C   UNL     1      -4.701   9.729 -26.144  1.00  0.00     0.017 C 
ENDROOT
BRANCH   1  19
ATOM     19  C   UNL     1      -3.900  15.993 -24.602  1.00  0.00     0.017 C 
ATOM     20  C   UNL     1      -2.989  16.456 -23.458  1.00  0.00     0.012 C 
ATOM     21  C   UNL     1      -3.404  16.501 -25.961  1.00  0.00     0.012 C 
ENDBRANCH   1  19
BRANCH   2  22
ATOM     22  O   UNL     1      -6.251  14.627 -25.715  1.00  0.00    -0.508 OA
ATOM     23  H   UNL     1      -6.058  15.466 -26.251  1.00  0.00     0.293 HD
ENDBRANCH   2  22
TORSDOF 2
ENDMDL
MODEL 3
REMARK VINA RESULT:    -6.308     10.560     12.343
REMARK INTER + INTRA:          -7.103
REMARK INTER:                  -6.856
REMARK INTRA:                  -0.247
REMARK UNBOUND:                -0.241
REMARK SMILES CC(C)c1cc2c(cc1O)[C@]1(C)CCCC(C)(C)[C@@H]1CC2=O
REMARK SMILES IDX 4 1 9 2 8 3 7 4 6 5 5 6 21 7 22 8 20 9 19 10 11 11 13 12
REMARK SMILES IDX 14 13 15 14 16 15 17 16 18 17 12 18 2 19 1 20 3 21 10 22
REMARK H PARENT 10 23
REMARK Flexibility Score: inf
ROOT
ATOM      1  C   UNL     1       1.108  13.517 -19.368  1.00  0.00    -0.003 A 
ATOM      2  C   UNL     1       0.808  13.010 -20.647  1.00  0.00     0.119 A 
ATOM      3  C   UNL     1       0.404  11.677 -20.796  1.00  0.00     0.051 A 
ATOM      4  C   UNL     1       0.303  10.800 -19.691  1.00  0.00    -0.027 A 
ATOM      5  C   UNL     1       0.526  11.340 -18.408  1.00  0.00     0.022 A 
ATOM      6  C   UNL     1       0.948  12.674 -18.258  1.00  0.00     0.020 A 
ATOM      7  C   UNL     1       0.251  10.532 -17.218  1.00  0.00     0.163 C 
ATOM      8  O   UNL     1       0.612  10.921 -16.074  1.00  0.00    -0.294 OA
ATOM      9  C   UNL     1      -0.529   9.275 -17.358  1.00  0.00     0.086 C 
ATOM     10  C   UNL     1      -0.026   8.445 -18.567  1.00  0.00     0.013 C 
ATOM     11  C   UNL     1      -0.082   9.310 -19.908  1.00  0.00    -0.003 C 
ATOM     12  C   UNL     1      -1.522   9.293 -20.494  1.00  0.00     0.012 C 
ATOM     13  C   UNL     1      -2.118   7.895 -20.647  1.00  0.00     0.001 C 
ATOM     14  C   UNL     1      -2.143   7.149 -19.312  1.00  0.00     0.007 C 
ATOM     15  C   UNL     1      -0.747   7.017 -18.651  1.00  0.00    -0.031 C 
ATOM     16  C   UNL     1       0.121   5.974 -19.423  1.00  0.00     0.011 C 
ATOM     17  C   UNL     1      -0.970   6.400 -17.239  1.00  0.00     0.011 C 
ATOM     18  C   UNL     1       0.939   8.737 -20.935  1.00  0.00     0.017 C 
ENDROOT
BRANCH   1  19
ATOM     19  C   UNL     1       1.562  14.954 -19.144  1.00  0.00     0.017 C 
ATOM     20  C   UNL     1       0.857  15.597 -17.944  1.00  0.00     0.012 C 
ATOM     21  C   UNL     1       3.088  15.055 -19.023  1.00  0.00     0.012 C 
ENDBRANCH   1  19
BRANCH   2  22
ATOM     22  O   UNL     1       0.907  13.823 -21.775  1.00  0.00    -0.508 OA
ATOM     23  H   UNL     1       0.917  13.440 -22.713  1.00  0.00     0.293 HD
ENDBRANCH   2  22
TORSDOF 2
ENDMDL
MODEL 4
REMARK VINA RESULT:    -6.293     10.293     12.172
REMARK INTER + INTRA:          -7.086
REMARK INTER:                  -6.839
REMARK INTRA:                  -0.247
REMARK UNBOUND:                -0.241
REMARK SMILES CC(C)c1cc2c(cc1O)[C@]1(C)CCCC(C)(C)[C@@H]1CC2=O
REMARK SMILES IDX 4 1 9 2 8 3 7 4 6 5 5 6 21 7 22 8 20 9 19 10 11 11 13 12
REMARK SMILES IDX 14 13 15 14 16 15 17 16 18 17 12 18 2 19 1 20 3 21 10 22
REMARK H PARENT 10 23
REMARK Flexibility Score: inf
ROOT
ATOM      1  C   UNL     1      -8.764  11.568  -9.836  1.00  0.00    -0.003 A 
ATOM      2  C   UNL     1      -7.687  10.680  -9.646  1.00  0.00     0.119 A 
ATOM      3  C   UNL     1      -7.677   9.440 -10.298  1.00  0.00     0.051 A 
ATOM      4  C   UNL     1      -8.737   9.032 -11.141  1.00  0.00    -0.027 A 
ATOM      5  C   UNL     1      -9.768   9.962 -11.389  1.00  0.00     0.022 A 
ATOM      6  C   UNL     1      -9.788  11.200 -10.722  1.00  0.00     0.020 A 
ATOM      7  C   UNL     1     -10.788   9.669 -12.398  1.00  0.00     0.163 C 
ATOM      8  O   UNL     1     -11.816  10.392 -12.509  1.00  0.00    -0.294 OA
ATOM      9  C   UNL     1     -10.568   8.549 -13.349  1.00  0.00     0.086 C 
ATOM     10  C   UNL     1     -10.051   7.288 -12.608  1.00  0.00     0.013 C 
ATOM     11  C   UNL     1      -8.719   7.621 -11.792  1.00  0.00    -0.003 C 
ATOM     12  C   UNL     1      -7.487   7.572 -12.739  1.00  0.00     0.012 C 
ATOM     13  C   UNL     1      -7.388   6.293 -13.570  1.00  0.00     0.001 C 
ATOM     14  C   UNL     1      -8.643   6.080 -14.418  1.00  0.00     0.007 C 
ATOM     15  C   UNL     1      -9.950   6.023 -13.585  1.00  0.00    -0.031 C 
ATOM     16  C   UNL     1     -10.033   4.677 -12.799  1.00  0.00     0.011 C 
ATOM     17  C   UNL     1     -11.132   5.980 -14.597  1.00  0.00     0.011 C 
ATOM     18  C   UNL     1      -8.561   6.601 -10.626  1.00  0.00     0.017 C 
ENDROOT
BRANCH   1  19
ATOM     19  C   UNL     1      -8.836  12.924  -9.145  1.00  0.00     0.017 C 
ATOM     20  C   UNL     1      -9.306  14.028 -10.100  1.00  0.00     0.012 C 
ATOM     21  C   UNL     1      -9.697  12.870  -7.877  1.00  0.00     0.012 C 
ENDBRANCH   1  19
BRANCH   2  22
ATOM     22  O   UNL     1      -6.624  11.020  -8.812  1.00  0.00    -0.508 OA
ATOM     23  H   UNL     1      -6.348  10.438  -8.029  1.00  0.00     0.293 HD
ENDBRANCH   2  22
TORSDOF 2
ENDMDL
MODEL 5
REMARK VINA RESULT:    -6.025      5.584      7.010
REMARK INTER + INTRA:          -6.795
REMARK INTER:                  -6.587
REMARK INTRA:                  -0.208
REMARK UNBOUND:                -0.241
REMARK SMILES CC(C)c1cc2c(cc1O)[C@]1(C)CCCC(C)(C)[C@@H]1CC2=O
REMARK SMILES IDX 4 1 9 2 8 3 7 4 6 5 5 6 21 7 22 8 20 9 19 10 11 11 13 12
REMARK SMILES IDX 14 13 15 14 16 15 17 16 18 17 12 18 2 19 1 20 3 21 10 22
REMARK H PARENT 10 23
REMARK Flexibility Score: inf
ROOT
ATOM      1  C   UNL     1     -13.994  12.775 -15.061  1.00  0.00    -0.003 A 
ATOM      2  C   UNL     1     -13.717  11.714 -14.177  1.00  0.00     0.119 A 
ATOM      3  C   UNL     1     -13.433  10.438 -14.681  1.00  0.00     0.051 A 
ATOM      4  C   UNL     1     -13.434  10.166 -16.070  1.00  0.00    -0.027 A 
ATOM      5  C   UNL     1     -13.631  11.254 -16.946  1.00  0.00     0.022 A 
ATOM      6  C   UNL     1     -13.932  12.532 -16.441  1.00  0.00     0.020 A 
ATOM      7  C   UNL     1     -13.452  11.070 -18.387  1.00  0.00     0.163 C 
ATOM      8  O   UNL     1     -13.798  11.969 -19.202  1.00  0.00    -0.294 OA
ATOM      9  C   UNL     1     -12.787   9.839 -18.887  1.00  0.00     0.086 C 
ATOM     10  C   UNL     1     -13.341   8.582 -18.167  1.00  0.00     0.013 C 
ATOM     11  C   UNL     1     -13.181   8.722 -16.584  1.00  0.00    -0.003 C 
ATOM     12  C   UNL     1     -11.738   8.333 -16.157  1.00  0.00     0.012 C 
ATOM     13  C   UNL     1     -11.269   6.983 -16.699  1.00  0.00     0.001 C 
ATOM     14  C   UNL     1     -11.336   6.940 -18.226  1.00  0.00     0.007 C 
ATOM     15  C   UNL     1     -12.751   7.230 -18.791  1.00  0.00    -0.031 C 
ATOM     16  C   UNL     1     -13.696   6.014 -18.535  1.00  0.00     0.011 C 
ATOM     17  C   UNL     1     -12.612   7.322 -20.339  1.00  0.00     0.011 C 
ATOM     18  C   UNL     1     -14.230   7.814 -15.877  1.00  0.00     0.017 C 
ENDROOT
BRANCH   1  19
ATOM     19  C   UNL     1     -14.320  14.181 -14.573  1.00  0.00     0.017 C 
ATOM     20  C   UNL     1     -13.058  14.958 -14.179  1.00  0.00     0.012 C 
ATOM     21  C   UNL     1     -15.165  14.955 -15.592  1.00  0.00     0.012 C 
ENDBRANCH   1  19
BRANCH   2  22
ATOM     22  O   UNL     1     -13.721  11.917 -12.799  1.00  0.00    -0.508 OA
ATOM     23  H   UNL     1     -13.619  11.151 -12.143  1.00  0.00     0.293 HD
ENDBRANCH   2  22
TORSDOF 2
ENDMDL
MODEL 6
REMARK VINA RESULT:    -6.025     12.428     14.039
REMARK INTER + INTRA:          -6.794
REMARK INTER:                  -6.569
REMARK INTRA:                  -0.226
REMARK UNBOUND:                -0.241
REMARK SMILES CC(C)c1cc2c(cc1O)[C@]1(C)CCCC(C)(C)[C@@H]1CC2=O
REMARK SMILES IDX 4 1 9 2 8 3 7 4 6 5 5 6 21 7 22 8 20 9 19 10 11 11 13 12
REMARK SMILES IDX 14 13 15 14 16 15 17 16 18 17 12 18 2 19 1 20 3 21 10 22
REMARK H PARENT 10 23
REMARK Flexibility Score: inf
ROOT
ATOM      1  C   UNL     1      -0.827  11.592 -12.394  1.00  0.00    -0.003 A 
ATOM      2  C   UNL     1      -0.205  10.947 -13.482  1.00  0.00     0.119 A 
ATOM      3  C   UNL     1      -0.641   9.680 -13.887  1.00  0.00     0.051 A 
ATOM      4  C   UNL     1      -1.689   9.002 -13.221  1.00  0.00    -0.027 A 
ATOM      5  C   UNL     1      -2.358   9.692 -12.188  1.00  0.00     0.022 A 
ATOM      6  C   UNL     1      -1.910  10.957 -11.769  1.00  0.00     0.020 A 
ATOM      7  C   UNL     1      -3.567   9.120 -11.593  1.00  0.00     0.163 C 
ATOM      8  O   UNL     1      -4.075   9.620 -10.552  1.00  0.00    -0.294 OA
ATOM      9  C   UNL     1      -4.242   7.982 -12.270  1.00  0.00     0.086 C 
ATOM     10  C   UNL     1      -3.210   6.915 -12.719  1.00  0.00     0.013 C 
ATOM     11  C   UNL     1      -2.097   7.568 -13.660  1.00  0.00    -0.003 C 
ATOM     12  C   UNL     1      -2.626   7.672 -15.118  1.00  0.00     0.012 C 
ATOM     13  C   UNL     1      -3.200   6.367 -15.669  1.00  0.00     0.001 C 
ATOM     14  C   UNL     1      -4.337   5.843 -14.792  1.00  0.00     0.007 C 
ATOM     15  C   UNL     1      -3.922   5.611 -13.315  1.00  0.00    -0.031 C 
ATOM     16  C   UNL     1      -3.010   4.349 -13.200  1.00  0.00     0.011 C 
ATOM     17  C   UNL     1      -5.218   5.252 -12.531  1.00  0.00     0.011 C 
ATOM     18  C   UNL     1      -0.802   6.705 -13.602  1.00  0.00     0.017 C 
ENDROOT
BRANCH   1  19
ATOM     19  C   UNL     1      -0.389  12.965 -11.900  1.00  0.00     0.017 C 
ATOM     20  C   UNL     1      -1.009  14.096 -12.729  1.00  0.00     0.012 C 
ATOM     21  C   UNL     1      -0.666  13.145 -10.403  1.00  0.00     0.012 C 
ENDBRANCH   1  19
BRANCH   2  22
ATOM     22  O   UNL     1       0.845  11.558 -14.164  1.00  0.00    -0.508 OA
ATOM     23  H   UNL     1       1.768  11.653 -13.755  1.00  0.00     0.293 HD
ENDBRANCH   2  22
TORSDOF 2
ENDMDL
MODEL 7
REMARK VINA RESULT:    -5.954      9.582     11.283
REMARK INTER + INTRA:          -6.718
REMARK INTER:                  -6.471
REMARK INTRA:                  -0.247
REMARK UNBOUND:                -0.241
REMARK SMILES CC(C)c1cc2c(cc1O)[C@]1(C)CCCC(C)(C)[C@@H]1CC2=O
REMARK SMILES IDX 4 1 9 2 8 3 7 4 6 5 5 6 21 7 22 8 20 9 19 10 11 11 13 12
REMARK SMILES IDX 14 13 15 14 16 15 17 16 18 17 12 18 2 19 1 20 3 21 10 22
REMARK H PARENT 10 23
REMARK Flexibility Score: inf
ROOT
ATOM      1  C   UNL     1      -9.656  12.945 -10.372  1.00  0.00    -0.003 A 
ATOM      2  C   UNL     1     -10.395  13.398 -11.482  1.00  0.00     0.119 A 
ATOM      3  C   UNL     1     -10.786  12.495 -12.479  1.00  0.00     0.051 A 
ATOM      4  C   UNL     1     -10.444  11.124 -12.420  1.00  0.00    -0.027 A 
ATOM      5  C   UNL     1      -9.776  10.668 -11.264  1.00  0.00     0.022 A 
ATOM      6  C   UNL     1      -9.368  11.576 -10.271  1.00  0.00     0.020 A 
ATOM      7  C   UNL     1      -9.567   9.233 -11.061  1.00  0.00     0.163 C 
ATOM      8  O   UNL     1      -8.818   8.812 -10.137  1.00  0.00    -0.294 OA
ATOM      9  C   UNL     1     -10.307   8.263 -11.910  1.00  0.00     0.086 C 
ATOM     10  C   UNL     1     -10.265   8.690 -13.400  1.00  0.00     0.013 C 
ATOM     11  C   UNL     1     -10.840  10.169 -13.580  1.00  0.00    -0.003 C 
ATOM     12  C   UNL     1     -12.393  10.135 -13.633  1.00  0.00     0.012 C 
ATOM     13  C   UNL     1     -12.962   9.134 -14.637  1.00  0.00     0.001 C 
ATOM     14  C   UNL     1     -12.469   7.715 -14.353  1.00  0.00     0.007 C 
ATOM     15  C   UNL     1     -10.923   7.585 -14.355  1.00  0.00    -0.031 C 
ATOM     16  C   UNL     1     -10.374   7.678 -15.813  1.00  0.00     0.011 C 
ATOM     17  C   UNL     1     -10.588   6.140 -13.881  1.00  0.00     0.011 C 
ATOM     18  C   UNL     1     -10.256  10.793 -14.882  1.00  0.00     0.017 C 
ENDROOT
BRANCH   1  19
ATOM     19  C   UNL     1      -9.193  13.881  -9.262  1.00  0.00     0.017 C 
ATOM     20  C   UNL     1      -9.350  13.247  -7.875  1.00  0.00     0.012 C 
ATOM     21  C   UNL     1      -7.760  14.376  -9.497  1.00  0.00     0.012 C 
ENDBRANCH   1  19
BRANCH   2  22
ATOM     22  O   UNL     1     -10.744  14.742 -11.603  1.00  0.00    -0.508 OA
ATOM     23  H   UNL     1     -10.071  15.449 -11.876  1.00  0.00     0.293 HD
ENDBRANCH   2  22
TORSDOF 2
ENDMDL
MODEL 8
REMARK VINA RESULT:    -5.852      7.608      8.701
REMARK INTER + INTRA:          -6.606
REMARK INTER:                  -6.360
REMARK INTRA:                  -0.246
REMARK UNBOUND:                -0.241
REMARK SMILES CC(C)c1cc2c(cc1O)[C@]1(C)CCCC(C)(C)[C@@H]1CC2=O
REMARK SMILES IDX 4 1 9 2 8 3 7 4 6 5 5 6 21 7 22 8 20 9 19 10 11 11 13 12
REMARK SMILES IDX 14 13 15 14 16 15 17 16 18 17 12 18 2 19 1 20 3 21 10 22
REMARK H PARENT 10 23
REMARK Flexibility Score: inf
ROOT
ATOM      1  C   UNL     1      -3.207  15.566 -23.809  1.00  0.00    -0.003 A 
ATOM      2  C   UNL     1      -2.392  15.507 -22.662  1.00  0.00     0.119 A 
ATOM      3  C   UNL     1      -2.068  14.268 -22.095  1.00  0.00     0.051 A 
ATOM      4  C   UNL     1      -2.554  13.052 -22.631  1.00  0.00    -0.027 A 
ATOM      5  C   UNL     1      -3.300  13.119 -23.826  1.00  0.00     0.022 A 
ATOM      6  C   UNL     1      -3.639  14.363 -24.387  1.00  0.00     0.020 A 
ATOM      7  C   UNL     1      -3.665  11.887 -24.528  1.00  0.00     0.163 C 
ATOM      8  O   UNL     1      -4.481  11.907 -25.490  1.00  0.00    -0.294 OA
ATOM      9  C   UNL     1      -3.006  10.610 -24.146  1.00  0.00     0.086 C 
ATOM     10  C   UNL     1      -2.960  10.453 -22.603  1.00  0.00     0.013 C 
ATOM     11  C   UNL     1      -2.227  11.703 -21.931  1.00  0.00    -0.003 C 
ATOM     12  C   UNL     1      -0.686  11.518 -21.998  1.00  0.00     0.012 C 
ATOM     13  C   UNL     1      -0.195  10.170 -21.472  1.00  0.00     0.001 C 
ATOM     14  C   UNL     1      -0.843   9.007 -22.224  1.00  0.00     0.007 C 
ATOM     15  C   UNL     1      -2.393   9.020 -22.168  1.00  0.00    -0.031 C 
ATOM     16  C   UNL     1      -2.886   8.611 -20.744  1.00  0.00     0.011 C 
ATOM     17  C   UNL     1      -2.892   7.890 -23.115  1.00  0.00     0.011 C 
ATOM     18  C   UNL     1      -2.703  11.846 -20.455  1.00  0.00     0.017 C 
ENDROOT
BRANCH   1  19
ATOM     19  C   UNL     1      -3.602  16.884 -24.464  1.00  0.00     0.017 C 
ATOM     20  C   UNL     1      -3.670  16.766 -25.991  1.00  0.00     0.012 C 
ATOM     21  C   UNL     1      -4.907  17.439 -23.881  1.00  0.00     0.012 C 
ENDBRANCH   1  19
BRANCH   2  22
ATOM     22  O   UNL     1      -1.900  16.673 -22.079  1.00  0.00    -0.508 OA
ATOM     23  H   UNL     1      -2.403  17.552 -22.129  1.00  0.00     0.293 HD
ENDBRANCH   2  22
TORSDOF 2
ENDMDL
MODEL 9
REMARK VINA RESULT:    -5.819     12.042     13.391
REMARK INTER + INTRA:          -6.571
REMARK INTER:                  -6.334
REMARK INTRA:                  -0.238
REMARK UNBOUND:                -0.241
REMARK SMILES CC(C)c1cc2c(cc1O)[C@]1(C)CCCC(C)(C)[C@@H]1CC2=O
REMARK SMILES IDX 4 1 9 2 8 3 7 4 6 5 5 6 21 7 22 8 20 9 19 10 11 11 13 12
REMARK SMILES IDX 14 13 15 14 16 15 17 16 18 17 12 18 2 19 1 20 3 21 10 22
REMARK H PARENT 10 23
REMARK Flexibility Score: inf
ROOT
ATOM      1  C   UNL     1      -2.595  11.585 -11.284  1.00  0.00    -0.003 A 
ATOM      2  C   UNL     1      -3.498  10.568 -10.917  1.00  0.00     0.119 A 
ATOM      3  C   UNL     1      -3.560   9.384 -11.662  1.00  0.00     0.051 A 
ATOM      4  C   UNL     1      -2.750   9.176 -12.803  1.00  0.00    -0.027 A 
ATOM      5  C   UNL     1      -1.793  10.165 -13.111  1.00  0.00     0.022 A 
ATOM      6  C   UNL     1      -1.740  11.362 -12.374  1.00  0.00     0.020 A 
ATOM      7  C   UNL     1      -0.802   9.919 -14.160  1.00  0.00     0.163 C 
ATOM      8  O   UNL     1      -0.059  10.848 -14.580  1.00  0.00    -0.294 OA
ATOM      9  C   UNL     1      -0.622   8.539 -14.681  1.00  0.00     0.086 C 
ATOM     10  C   UNL     1      -1.994   7.870 -14.957  1.00  0.00     0.013 C 
ATOM     11  C   UNL     1      -2.899   7.876 -13.642  1.00  0.00    -0.003 C 
ATOM     12  C   UNL     1      -2.505   6.690 -12.717  1.00  0.00     0.012 C 
ATOM     13  C   UNL     1      -2.466   5.335 -13.423  1.00  0.00     0.001 C 
ATOM     14  C   UNL     1      -1.500   5.350 -14.608  1.00  0.00     0.007 C 
ATOM     15  C   UNL     1      -1.829   6.441 -15.660  1.00  0.00    -0.031 C 
ATOM     16  C   UNL     1      -3.103   6.044 -16.471  1.00  0.00     0.011 C 
ATOM     17  C   UNL     1      -0.667   6.438 -16.696  1.00  0.00     0.011 C 
ATOM     18  C   UNL     1      -4.400   7.785 -14.048  1.00  0.00     0.017 C 
ENDROOT
BRANCH   1  19
ATOM     19  C   UNL     1      -2.489  12.899 -10.519  1.00  0.00     0.017 C 
ATOM     20  C   UNL     1      -1.067  13.472 -10.560  1.00  0.00     0.012 C 
ATOM     21  C   UNL     1      -3.524  13.922 -11.002  1.00  0.00     0.012 C 
ENDBRANCH   1  19
BRANCH   2  22
ATOM     22  O   UNL     1      -4.334  10.725  -9.814  1.00  0.00    -0.508 OA
ATOM     23  H   UNL     1      -4.160  11.427  -9.104  1.00  0.00     0.293 HD
ENDBRANCH   2  22
TORSDOF 2
ENDMDL
