MODEL 1
REMARK VINA RESULT:    -6.030      0.000      0.000
REMARK INTER + INTRA:         -10.228
REMARK INTER:                  -8.144
REMARK INTRA:                  -2.084
REMARK UNBOUND:                -2.084
REMARK SMILES CC[C@H](CC[C@H](C)[C@@H]1CC[C@H]2[C@@H]3CC(=O)C4=CC(=O)CC[C@@]4(C)[C@@H]3CC[C@@]21C)C(C)C
REMARK SMILES IDX 4 1 3 2 2 3 1 4 29 5 30 6 31 7 5 8 6 9 7 10 8 11 9 12 27 13
REMARK SMILES IDX 10 14 11 15 26 16 28 17 12 18 25 19 24 20 13 21 22 22 14 23
REMARK SMILES IDX 16 24 21 25 23 26 15 27 17 28 20 29 18 30 19 31
REMARK H PARENT
REMARK Flexibility Score: inf
ROOT
ATOM      1  C   UNL     1      25.045  28.662  29.931  1.00  0.00     0.004 C 
ENDROOT
BRANCH   1   2
ATOM      2  C   UNL     1      23.920  28.790  28.866  1.00  0.00    -0.009 C 
BRANCH   2   3
ATOM      3  C   UNL     1      24.456  28.470  27.444  1.00  0.00     0.000 C 
ATOM      4  C   UNL     1      25.948  28.136  27.426  1.00  0.00     0.004 C 
ENDBRANCH   2   3
BRANCH   2   5
ATOM      5  C   UNL     1      22.558  28.096  29.217  1.00  0.00    -0.014 C 
ATOM      6  C   UNL     1      21.293  28.897  28.859  1.00  0.00     0.007 C 
ATOM      7  C   UNL     1      22.462  26.671  28.651  1.00  0.00     0.007 C 
ENDBRANCH   2   5
ENDBRANCH   1   2
BRANCH   1   8
ATOM      8  C   UNL     1      24.995  29.692  31.086  1.00  0.00     0.004 C 
BRANCH   8   9
ATOM      9  C   UNL     1      24.514  31.110  30.655  1.00  0.00    -0.011 C 
ATOM     10  C   UNL     1      25.660  31.838  29.939  1.00  0.00     0.008 C 
BRANCH   9  11
ATOM     11  C   UNL     1      23.774  31.846  31.856  1.00  0.00    -0.002 C 
ATOM     12  C   UNL     1      23.738  30.838  33.048  1.00  0.00     0.005 C 
ATOM     13  C   UNL     1      22.255  32.255  31.760  1.00  0.00    -0.026 C 
ATOM     14  C   UNL     1      22.339  30.193  33.044  1.00  0.00     0.005 C 
ATOM     15  C   UNL     1      21.586  30.879  31.902  1.00  0.00    -0.001 C 
ATOM     16  C   UNL     1      21.720  33.026  30.500  1.00  0.00     0.007 C 
ATOM     17  C   UNL     1      21.922  33.181  32.986  1.00  0.00     0.012 C 
ATOM     18  C   UNL     1      20.044  30.959  32.017  1.00  0.00     0.004 C 
ATOM     19  C   UNL     1      20.496  32.347  29.847  1.00  0.00     0.005 C 
ATOM     20  C   UNL     1      19.432  31.907  30.904  1.00  0.00     0.003 C 
ATOM     21  C   UNL     1      19.438  29.547  32.040  1.00  0.00     0.085 C 
ATOM     22  C   UNL     1      18.067  31.429  30.245  1.00  0.00    -0.000 C 
ATOM     23  C   UNL     1      17.950  29.630  32.101  1.00  0.00     0.159 C 
ATOM     24  C   UNL     1      17.243  30.605  31.243  1.00  0.00     0.005 C 
ATOM     25  C   UNL     1      17.256  32.697  29.815  1.00  0.00     0.020 C 
ATOM     26  C   UNL     1      18.314  30.544  28.992  1.00  0.00     0.017 C 
ATOM     27  O   UNL     1      17.317  28.847  32.861  1.00  0.00    -0.295 OA
ATOM     28  C   UNL     1      15.896  30.649  31.258  1.00  0.00     0.055 C 
ATOM     29  C   UNL     1      15.835  32.372  29.344  1.00  0.00     0.081 C 
ATOM     30  C   UNL     1      15.133  31.526  30.357  1.00  0.00     0.156 C 
ATOM     31  O   UNL     1      13.875  31.528  30.407  1.00  0.00    -0.295 OA
ENDBRANCH   9  11
ENDBRANCH   8   9
ENDBRANCH   1   8
TORSDOF 6
ENDMDL
MODEL 2
REMARK VINA RESULT:    -5.960      5.274      8.502
REMARK INTER + INTRA:         -10.134
REMARK INTER:                  -8.880
REMARK INTRA:                  -1.254
REMARK UNBOUND:                -2.084
REMARK SMILES CC[C@H](CC[C@H](C)[C@@H]1CC[C@H]2[C@@H]3CC(=O)C4=CC(=O)CC[C@@]4(C)[C@@H]3CC[C@@]21C)C(C)C
REMARK SMILES IDX 4 1 3 2 2 3 1 4 29 5 30 6 31 7 5 8 6 9 7 10 8 11 9 12 27 13
REMARK SMILES IDX 10 14 11 15 26 16 28 17 12 18 25 19 24 20 13 21 22 22 14 23
REMARK SMILES IDX 16 24 21 25 23 26 15 27 17 28 20 29 18 30 19 31
REMARK H PARENT
REMARK Flexibility Score: inf
ROOT
ATOM      1  C   UNL     1      14.658  24.088  28.894  1.00  0.00     0.004 C 
ENDROOT
BRANCH   1   2
ATOM      2  C   UNL     1      14.415  22.729  28.178  1.00  0.00    -0.009 C 
BRANCH   2   3
ATOM      3  C   UNL     1      15.514  22.450  27.117  1.00  0.00     0.000 C 
ATOM      4  C   UNL     1      15.323  23.255  25.830  1.00  0.00     0.004 C 
ENDBRANCH   2   3
BRANCH   2   5
ATOM      5  C   UNL     1      14.087  21.510  29.108  1.00  0.00    -0.014 C 
ATOM      6  C   UNL     1      15.018  20.294  28.962  1.00  0.00     0.007 C 
ATOM      7  C   UNL     1      13.970  21.915  30.586  1.00  0.00     0.007 C 
ENDBRANCH   2   5
ENDBRANCH   1   2
BRANCH   1   8
ATOM      8  C   UNL     1      16.110  24.350  29.361  1.00  0.00     0.004 C 
BRANCH   8   9
ATOM      9  C   UNL     1      16.451  25.855  29.571  1.00  0.00    -0.011 C 
ATOM     10  C   UNL     1      15.279  26.547  30.281  1.00  0.00     0.008 C 
BRANCH   9  11
ATOM     11  C   UNL     1      17.021  26.500  28.233  1.00  0.00    -0.002 C 
ATOM     12  C   UNL     1      17.772  25.363  27.470  1.00  0.00     0.005 C 
ATOM     13  C   UNL     1      18.126  27.623  28.266  1.00  0.00    -0.026 C 
ATOM     14  C   UNL     1      19.272  25.536  27.777  1.00  0.00     0.005 C 
ATOM     15  C   UNL     1      19.359  26.790  28.649  1.00  0.00    -0.001 C 
ATOM     16  C   UNL     1      17.961  28.870  29.207  1.00  0.00     0.007 C 
ATOM     17  C   UNL     1      18.264  28.212  26.815  1.00  0.00     0.012 C 
ATOM     18  C   UNL     1      20.680  27.597  28.600  1.00  0.00     0.004 C 
ATOM     19  C   UNL     1      19.182  29.106  30.123  1.00  0.00     0.005 C 
ATOM     20  C   UNL     1      20.533  28.987  29.347  1.00  0.00     0.003 C 
ATOM     21  C   UNL     1      21.848  26.735  29.104  1.00  0.00     0.085 C 
ATOM     22  C   UNL     1      21.784  29.460  30.206  1.00  0.00    -0.000 C 
ATOM     23  C   UNL     1      23.109  27.532  29.102  1.00  0.00     0.159 C 
ATOM     24  C   UNL     1      23.089  28.922  29.605  1.00  0.00     0.005 C 
ATOM     25  C   UNL     1      21.814  31.025  30.213  1.00  0.00     0.020 C 
ATOM     26  C   UNL     1      21.696  28.954  31.673  1.00  0.00     0.017 C 
ATOM     27  O   UNL     1      24.179  26.998  28.698  1.00  0.00    -0.295 OA
ATOM     28  C   UNL     1      24.235  29.629  29.651  1.00  0.00     0.055 C 
ATOM     29  C   UNL     1      23.085  31.600  30.846  1.00  0.00     0.081 C 
ATOM     30  C   UNL     1      24.298  30.979  30.232  1.00  0.00     0.156 C 
ATOM     31  O   UNL     1      25.395  31.597  30.256  1.00  0.00    -0.295 OA
ENDBRANCH   9  11
ENDBRANCH   8   9
ENDBRANCH   1   8
TORSDOF 6
ENDMDL
MODEL 3
REMARK VINA RESULT:    -5.906      2.323      3.875
REMARK INTER + INTRA:         -10.062
REMARK INTER:                  -8.557
REMARK INTRA:                  -1.505
REMARK UNBOUND:                -2.084
REMARK SMILES CC[C@H](CC[C@H](C)[C@@H]1CC[C@H]2[C@@H]3CC(=O)C4=CC(=O)CC[C@@]4(C)[C@@H]3CC[C@@]21C)C(C)C
REMARK SMILES IDX 4 1 3 2 2 3 1 4 29 5 30 6 31 7 5 8 6 9 7 10 8 11 9 12 27 13
REMARK SMILES IDX 10 14 11 15 26 16 28 17 12 18 25 19 24 20 13 21 22 22 14 23
REMARK SMILES IDX 16 24 21 25 23 26 15 27 17 28 20 29 18 30 19 31
REMARK H PARENT
REMARK Flexibility Score: inf
ROOT
ATOM      1  C   UNL     1      27.807  31.582  29.440  1.00  0.00     0.004 C 
ENDROOT
BRANCH   1   2
ATOM      2  C   UNL     1      28.906  30.779  30.193  1.00  0.00    -0.009 C 
BRANCH   2   3
ATOM      3  C   UNL     1      30.119  30.486  29.269  1.00  0.00     0.000 C 
ATOM      4  C   UNL     1      30.161  31.384  28.032  1.00  0.00     0.004 C 
ENDBRANCH   2   3
BRANCH   2   5
ATOM      5  C   UNL     1      29.289  31.309  31.619  1.00  0.00    -0.014 C 
ATOM      6  C   UNL     1      29.474  32.832  31.733  1.00  0.00     0.007 C 
ATOM      7  C   UNL     1      28.328  30.808  32.709  1.00  0.00     0.007 C 
ENDBRANCH   2   5
ENDBRANCH   1   2
BRANCH   1   8
ATOM      8  C   UNL     1      26.426  30.893  29.337  1.00  0.00     0.004 C 
BRANCH   8   9
ATOM      9  C   UNL     1      25.301  31.593  30.158  1.00  0.00    -0.011 C 
ATOM     10  C   UNL     1      25.845  32.899  30.752  1.00  0.00     0.008 C 
BRANCH   9  11
ATOM     11  C   UNL     1      24.576  30.558  31.124  1.00  0.00    -0.002 C 
ATOM     12  C   UNL     1      24.534  29.191  30.370  1.00  0.00     0.005 C 
ATOM     13  C   UNL     1      23.062  30.728  31.526  1.00  0.00    -0.026 C 
ATOM     14  C   UNL     1      23.128  29.065  29.755  1.00  0.00     0.005 C 
ATOM     15  C   UNL     1      22.377  30.317  30.213  1.00  0.00    -0.001 C 
ATOM     16  C   UNL     1      22.528  32.113  32.041  1.00  0.00     0.007 C 
ATOM     17  C   UNL     1      22.746  29.706  32.678  1.00  0.00     0.012 C 
ATOM     18  C   UNL     1      20.837  30.215  30.333  1.00  0.00     0.004 C 
ATOM     19  C   UNL     1      21.293  32.617  31.263  1.00  0.00     0.005 C 
ATOM     20  C   UNL     1      20.230  31.491  31.052  1.00  0.00     0.003 C 
ATOM     21  C   UNL     1      20.215  29.914  28.961  1.00  0.00     0.085 C 
ATOM     22  C   UNL     1      18.855  32.039  30.471  1.00  0.00    -0.000 C 
ATOM     23  C   UNL     1      18.728  29.866  29.073  1.00  0.00     0.159 C 
ATOM     24  C   UNL     1      18.028  30.897  29.870  1.00  0.00     0.005 C 
ATOM     25  C   UNL     1      18.058  32.707  31.641  1.00  0.00     0.020 C 
ATOM     26  C   UNL     1      19.086  33.095  29.355  1.00  0.00     0.017 C 
ATOM     27  O   UNL     1      18.089  28.966  28.463  1.00  0.00    -0.295 OA
ATOM     28  C   UNL     1      16.682  30.886  29.933  1.00  0.00     0.055 C 
ATOM     29  C   UNL     1      16.631  33.101  31.248  1.00  0.00     0.081 C 
ATOM     30  C   UNL     1      15.924  31.940  30.626  1.00  0.00     0.156 C 
ATOM     31  O   UNL     1      14.666  31.888  30.653  1.00  0.00    -0.295 OA
ENDBRANCH   9  11
ENDBRANCH   8   9
ENDBRANCH   1   8
TORSDOF 6
ENDMDL
MODEL 4
REMARK VINA RESULT:    -5.763      4.937      7.840
REMARK INTER + INTRA:          -9.868
REMARK INTER:                  -8.352
REMARK INTRA:                  -1.517
REMARK UNBOUND:                -2.084
REMARK SMILES CC[C@H](CC[C@H](C)[C@@H]1CC[C@H]2[C@@H]3CC(=O)C4=CC(=O)CC[C@@]4(C)[C@@H]3CC[C@@]21C)C(C)C
REMARK SMILES IDX 4 1 3 2 2 3 1 4 29 5 30 6 31 7 5 8 6 9 7 10 8 11 9 12 27 13
REMARK SMILES IDX 10 14 11 15 26 16 28 17 12 18 25 19 24 20 13 21 22 22 14 23
REMARK SMILES IDX 16 24 21 25 23 26 15 27 17 28 20 29 18 30 19 31
REMARK H PARENT
REMARK Flexibility Score: inf
ROOT
ATOM      1  C   UNL     1      14.634  24.089  29.220  1.00  0.00     0.004 C 
ENDROOT
BRANCH   1   2
ATOM      2  C   UNL     1      15.033  22.930  28.263  1.00  0.00    -0.009 C 
BRANCH   2   3
ATOM      3  C   UNL     1      14.162  21.670  28.515  1.00  0.00     0.000 C 
ATOM      4  C   UNL     1      14.991  20.414  28.791  1.00  0.00     0.004 C 
ENDBRANCH   2   3
BRANCH   2   5
ATOM      5  C   UNL     1      15.198  23.314  26.750  1.00  0.00    -0.014 C 
ATOM      6  C   UNL     1      14.946  24.793  26.410  1.00  0.00     0.007 C 
ATOM      7  C   UNL     1      16.548  22.859  26.174  1.00  0.00     0.007 C 
ENDBRANCH   2   5
ENDBRANCH   1   2
BRANCH   1   8
ATOM      8  C   UNL     1      15.763  24.622  30.134  1.00  0.00     0.004 C 
BRANCH   8   9
ATOM      9  C   UNL     1      16.010  26.156  30.014  1.00  0.00    -0.011 C 
ATOM     10  C   UNL     1      14.694  26.903  30.268  1.00  0.00     0.008 C 
BRANCH   9  11
ATOM     11  C   UNL     1      16.840  26.496  28.700  1.00  0.00    -0.002 C 
ATOM     12  C   UNL     1      17.960  25.412  28.582  1.00  0.00     0.005 C 
ATOM     13  C   UNL     1      17.686  27.819  28.580  1.00  0.00    -0.026 C 
ATOM     14  C   UNL     1      19.250  26.044  29.138  1.00  0.00     0.005 C 
ATOM     15  C   UNL     1      18.868  27.480  29.502  1.00  0.00    -0.001 C 
ATOM     16  C   UNL     1      17.048  29.205  28.952  1.00  0.00     0.007 C 
ATOM     17  C   UNL     1      18.153  27.965  27.086  1.00  0.00     0.012 C 
ATOM     18  C   UNL     1      19.993  28.543  29.469  1.00  0.00     0.004 C 
ATOM     19  C   UNL     1      17.884  30.005  29.975  1.00  0.00     0.005 C 
ATOM     20  C   UNL     1      19.406  30.007  29.619  1.00  0.00     0.003 C 
ATOM     21  C   UNL     1      21.082  28.197  30.496  1.00  0.00     0.085 C 
ATOM     22  C   UNL     1      20.249  31.016  30.512  1.00  0.00    -0.000 C 
ATOM     23  C   UNL     1      22.139  29.249  30.495  1.00  0.00     0.159 C 
ATOM     24  C   UNL     1      21.743  30.674  30.453  1.00  0.00     0.005 C 
ATOM     25  C   UNL     1      20.020  32.466  29.968  1.00  0.00     0.020 C 
ATOM     26  C   UNL     1      19.811  30.965  32.002  1.00  0.00     0.017 C 
ATOM     27  O   UNL     1      23.352  28.910  30.561  1.00  0.00    -0.295 OA
ATOM     28  C   UNL     1      22.692  31.629  30.502  1.00  0.00     0.055 C 
ATOM     29  C   UNL     1      20.933  33.507  30.625  1.00  0.00     0.081 C 
ATOM     30  C   UNL     1      22.358  33.060  30.563  1.00  0.00     0.156 C 
ATOM     31  O   UNL     1      23.282  33.914  30.612  1.00  0.00    -0.295 OA
ENDBRANCH   9  11
ENDBRANCH   8   9
ENDBRANCH   1   8
TORSDOF 6
ENDMDL
MODEL 5
REMARK VINA RESULT:    -5.607      2.599      5.015
REMARK INTER + INTRA:          -9.658
REMARK INTER:                  -8.173
REMARK INTRA:                  -1.484
REMARK UNBOUND:                -2.084
REMARK SMILES CC[C@H](CC[C@H](C)[C@@H]1CC[C@H]2[C@@H]3CC(=O)C4=CC(=O)CC[C@@]4(C)[C@@H]3CC[C@@]21C)C(C)C
REMARK SMILES IDX 4 1 3 2 2 3 1 4 29 5 30 6 31 7 5 8 6 9 7 10 8 11 9 12 27 13
REMARK SMILES IDX 10 14 11 15 26 16 28 17 12 18 25 19 24 20 13 21 22 22 14 23
REMARK SMILES IDX 16 24 21 25 23 26 15 27 17 28 20 29 18 30 19 31
REMARK H PARENT
REMARK Flexibility Score: inf
ROOT
ATOM      1  C   UNL     1      21.744  32.850  31.524  1.00  0.00     0.004 C 
ENDROOT
BRANCH   1   2
ATOM      2  C   UNL     1      22.583  31.859  30.667  1.00  0.00    -0.009 C 
BRANCH   2   3
ATOM      3  C   UNL     1      24.049  32.349  30.518  1.00  0.00     0.000 C 
ATOM      4  C   UNL     1      25.000  31.708  31.530  1.00  0.00     0.004 C 
ENDBRANCH   2   3
BRANCH   2   5
ATOM      5  C   UNL     1      22.439  30.341  31.034  1.00  0.00    -0.014 C 
ATOM      6  C   UNL     1      21.241  29.986  31.932  1.00  0.00     0.007 C 
ATOM      7  C   UNL     1      22.460  29.434  29.793  1.00  0.00     0.007 C 
ENDBRANCH   2   5
ENDBRANCH   1   2
BRANCH   1   8
ATOM      8  C   UNL     1      20.517  33.475  30.818  1.00  0.00     0.004 C 
BRANCH   8   9
ATOM      9  C   UNL     1      19.357  33.865  31.781  1.00  0.00    -0.011 C 
ATOM     10  C   UNL     1      19.543  33.138  33.121  1.00  0.00     0.008 C 
BRANCH   9  11
ATOM     11  C   UNL     1      17.950  33.760  31.046  1.00  0.00    -0.002 C 
ATOM     12  C   UNL     1      16.868  33.606  32.163  1.00  0.00     0.005 C 
ATOM     13  C   UNL     1      17.597  32.540  30.114  1.00  0.00    -0.026 C 
ATOM     14  C   UNL     1      16.536  32.105  32.257  1.00  0.00     0.005 C 
ATOM     15  C   UNL     1      17.376  31.440  31.165  1.00  0.00    -0.001 C 
ATOM     16  C   UNL     1      18.603  32.075  29.000  1.00  0.00     0.007 C 
ATOM     17  C   UNL     1      16.263  32.878  29.353  1.00  0.00     0.012 C 
ATOM     18  C   UNL     1      16.838  30.119  30.562  1.00  0.00     0.004 C 
ATOM     19  C   UNL     1      18.943  30.571  29.077  1.00  0.00     0.005 C 
ATOM     20  C   UNL     1      17.670  29.689  29.284  1.00  0.00     0.003 C 
ATOM     21  C   UNL     1      16.752  29.036  31.648  1.00  0.00     0.085 C 
ATOM     22  C   UNL     1      17.963  28.134  29.125  1.00  0.00    -0.000 C 
ATOM     23  C   UNL     1      16.280  27.752  31.053  1.00  0.00     0.159 C 
ATOM     24  C   UNL     1      16.839  27.304  29.760  1.00  0.00     0.005 C 
ATOM     25  C   UNL     1      18.062  27.805  27.598  1.00  0.00     0.020 C 
ATOM     26  C   UNL     1      19.295  27.729  29.813  1.00  0.00     0.017 C 
ATOM     27  O   UNL     1      15.434  27.054  31.677  1.00  0.00    -0.295 OA
ATOM     28  C   UNL     1      16.452  26.121  29.242  1.00  0.00     0.055 C 
ATOM     29  C   UNL     1      18.148  26.302  27.311  1.00  0.00     0.081 C 
ATOM     30  C   UNL     1      17.045  25.576  28.011  1.00  0.00     0.156 C 
ATOM     31  O   UNL     1      16.653  24.463  27.571  1.00  0.00    -0.295 OA
ENDBRANCH   9  11
ENDBRANCH   8   9
ENDBRANCH   1   8
TORSDOF 6
ENDMDL
MODEL 6
REMARK VINA RESULT:    -5.509      2.852      4.832
REMARK INTER + INTRA:          -9.526
REMARK INTER:                  -8.106
REMARK INTRA:                  -1.420
REMARK UNBOUND:                -2.084
REMARK SMILES CC[C@H](CC[C@H](C)[C@@H]1CC[C@H]2[C@@H]3CC(=O)C4=CC(=O)CC[C@@]4(C)[C@@H]3CC[C@@]21C)C(C)C
REMARK SMILES IDX 4 1 3 2 2 3 1 4 29 5 30 6 31 7 5 8 6 9 7 10 8 11 9 12 27 13
REMARK SMILES IDX 10 14 11 15 26 16 28 17 12 18 25 19 24 20 13 21 22 22 14 23
REMARK SMILES IDX 16 24 21 25 23 26 15 27 17 28 20 29 18 30 19 31
REMARK H PARENT
REMARK Flexibility Score: inf
ROOT
ATOM      1  C   UNL     1      25.212  32.754  30.047  1.00  0.00     0.004 C 
ENDROOT
BRANCH   1   2
ATOM      2  C   UNL     1      26.696  32.550  30.465  1.00  0.00    -0.009 C 
BRANCH   2   3
ATOM      3  C   UNL     1      26.902  32.860  31.972  1.00  0.00     0.000 C 
ATOM      4  C   UNL     1      27.262  31.622  32.795  1.00  0.00     0.004 C 
ENDBRANCH   2   3
BRANCH   2   5
ATOM      5  C   UNL     1      27.371  31.220  29.977  1.00  0.00    -0.014 C 
ATOM      6  C   UNL     1      26.537  30.374  28.998  1.00  0.00     0.007 C 
ATOM      7  C   UNL     1      28.781  31.451  29.411  1.00  0.00     0.007 C 
ENDBRANCH   2   5
ENDBRANCH   1   2
BRANCH   1   8
ATOM      8  C   UNL     1      24.246  33.165  31.185  1.00  0.00     0.004 C 
BRANCH   8   9
ATOM      9  C   UNL     1      22.829  32.525  31.081  1.00  0.00    -0.011 C 
ATOM     10  C   UNL     1      21.767  33.630  31.162  1.00  0.00     0.008 C 
BRANCH   9  11
ATOM     11  C   UNL     1      22.701  31.270  32.050  1.00  0.00    -0.002 C 
ATOM     12  C   UNL     1      23.974  30.393  31.821  1.00  0.00     0.005 C 
ATOM     13  C   UNL     1      21.560  30.199  31.864  1.00  0.00    -0.026 C 
ATOM     14  C   UNL     1      23.566  29.256  30.867  1.00  0.00     0.005 C 
ATOM     15  C   UNL     1      22.070  29.461  30.617  1.00  0.00    -0.001 C 
ATOM     16  C   UNL     1      20.066  30.654  31.691  1.00  0.00     0.007 C 
ATOM     17  C   UNL     1      21.564  29.260  33.125  1.00  0.00     0.012 C 
ATOM     18  C   UNL     1      21.232  28.208  30.264  1.00  0.00     0.004 C 
ATOM     19  C   UNL     1      19.391  30.057  30.438  1.00  0.00     0.005 C 
ATOM     20  C   UNL     1      19.680  28.529  30.283  1.00  0.00     0.003 C 
ATOM     21  C   UNL     1      21.728  27.590  28.948  1.00  0.00     0.085 C 
ATOM     22  C   UNL     1      18.805  27.845  29.146  1.00  0.00    -0.000 C 
ATOM     23  C   UNL     1      20.886  26.412  28.586  1.00  0.00     0.159 C 
ATOM     24  C   UNL     1      19.417  26.502  28.726  1.00  0.00     0.005 C 
ATOM     25  C   UNL     1      17.362  27.614  29.706  1.00  0.00     0.020 C 
ATOM     26  C   UNL     1      18.714  28.738  27.878  1.00  0.00     0.017 C 
ATOM     27  O   UNL     1      21.438  25.370  28.140  1.00  0.00    -0.295 OA
ATOM     28  C   UNL     1      18.649  25.458  28.355  1.00  0.00     0.055 C 
ATOM     29  C   UNL     1      16.479  26.783  28.769  1.00  0.00     0.081 C 
ATOM     30  C   UNL     1      17.180  25.523  28.377  1.00  0.00     0.156 C 
ATOM     31  O   UNL     1      16.507  24.522  28.015  1.00  0.00    -0.295 OA
ENDBRANCH   9  11
ENDBRANCH   8   9
ENDBRANCH   1   8
TORSDOF 6
ENDMDL
MODEL 7
REMARK VINA RESULT:    -5.385      3.930      7.307
REMARK INTER + INTRA:          -9.358
REMARK INTER:                  -7.935
REMARK INTRA:                  -1.424
REMARK UNBOUND:                -2.084
REMARK SMILES CC[C@H](CC[C@H](C)[C@@H]1CC[C@H]2[C@@H]3CC(=O)C4=CC(=O)CC[C@@]4(C)[C@@H]3CC[C@@]21C)C(C)C
REMARK SMILES IDX 4 1 3 2 2 3 1 4 29 5 30 6 31 7 5 8 6 9 7 10 8 11 9 12 27 13
REMARK SMILES IDX 10 14 11 15 26 16 28 17 12 18 25 19 24 20 13 21 22 22 14 23
REMARK SMILES IDX 16 24 21 25 23 26 15 27 17 28 20 29 18 30 19 31
REMARK H PARENT
REMARK Flexibility Score: inf
ROOT
ATOM      1  C   UNL     1      16.770  25.570  29.354  1.00  0.00     0.004 C 
ENDROOT
BRANCH   1   2
ATOM      2  C   UNL     1      16.922  25.208  27.849  1.00  0.00    -0.009 C 
BRANCH   2   3
ATOM      3  C   UNL     1      18.405  24.923  27.488  1.00  0.00     0.000 C 
ATOM      4  C   UNL     1      19.356  25.107  28.671  1.00  0.00     0.004 C 
ENDBRANCH   2   3
BRANCH   2   5
ATOM      5  C   UNL     1      15.903  24.155  27.288  1.00  0.00    -0.014 C 
ATOM      6  C   UNL     1      16.505  23.067  26.381  1.00  0.00     0.007 C 
ATOM      7  C   UNL     1      15.054  23.512  28.396  1.00  0.00     0.007 C 
ENDBRANCH   2   5
ENDBRANCH   1   2
BRANCH   1   8
ATOM      8  C   UNL     1      16.009  26.883  29.654  1.00  0.00     0.004 C 
BRANCH   8   9
ATOM      9  C   UNL     1      16.832  27.927  30.466  1.00  0.00    -0.011 C 
ATOM     10  C   UNL     1      16.139  28.185  31.811  1.00  0.00     0.008 C 
BRANCH   9  11
ATOM     11  C   UNL     1      17.222  29.173  29.557  1.00  0.00    -0.002 C 
ATOM     12  C   UNL     1      17.663  28.599  28.172  1.00  0.00     0.005 C 
ATOM     13  C   UNL     1      18.451  30.095  29.907  1.00  0.00    -0.026 C 
ATOM     14  C   UNL     1      19.202  28.565  28.174  1.00  0.00     0.005 C 
ATOM     15  C   UNL     1      19.614  29.168  29.518  1.00  0.00    -0.001 C 
ATOM     16  C   UNL     1      18.630  30.660  31.362  1.00  0.00     0.007 C 
ATOM     17  C   UNL     1      18.393  31.359  28.974  1.00  0.00     0.012 C 
ATOM     18  C   UNL     1      20.997  29.862  29.590  1.00  0.00     0.004 C 
ATOM     19  C   UNL     1      20.020  30.361  31.964  1.00  0.00     0.005 C 
ATOM     20  C   UNL     1      21.175  30.651  30.953  1.00  0.00     0.003 C 
ATOM     21  C   UNL     1      22.115  28.849  29.301  1.00  0.00     0.085 C 
ATOM     22  C   UNL     1      22.616  30.583  31.622  1.00  0.00    -0.000 C 
ATOM     23  C   UNL     1      23.448  29.510  29.420  1.00  0.00     0.159 C 
ATOM     24  C   UNL     1      23.704  30.425  30.553  1.00  0.00     0.005 C 
ATOM     25  C   UNL     1      22.851  31.908  32.421  1.00  0.00     0.020 C 
ATOM     26  C   UNL     1      22.737  29.381  32.599  1.00  0.00     0.017 C 
ATOM     27  O   UNL     1      24.344  29.255  28.569  1.00  0.00    -0.295 OA
ATOM     28  C   UNL     1      24.921  30.987  30.691  1.00  0.00     0.055 C 
ATOM     29  C   UNL     1      24.282  32.045  32.951  1.00  0.00     0.081 C 
ATOM     30  C   UNL     1      25.267  31.825  31.849  1.00  0.00     0.156 C 
ATOM     31  O   UNL     1      26.421  32.323  31.934  1.00  0.00    -0.295 OA
ENDBRANCH   9  11
ENDBRANCH   8   9
ENDBRANCH   1   8
TORSDOF 6
ENDMDL
MODEL 8
REMARK VINA RESULT:    -5.278      4.717      7.960
REMARK INTER + INTRA:          -9.213
REMARK INTER:                  -8.561
REMARK INTRA:                  -0.652
REMARK UNBOUND:                -2.084
REMARK SMILES CC[C@H](CC[C@H](C)[C@@H]1CC[C@H]2[C@@H]3CC(=O)C4=CC(=O)CC[C@@]4(C)[C@@H]3CC[C@@]21C)C(C)C
REMARK SMILES IDX 4 1 3 2 2 3 1 4 29 5 30 6 31 7 5 8 6 9 7 10 8 11 9 12 27 13
REMARK SMILES IDX 10 14 11 15 26 16 28 17 12 18 25 19 24 20 13 21 22 22 14 23
REMARK SMILES IDX 16 24 21 25 23 26 15 27 17 28 20 29 18 30 19 31
REMARK H PARENT
REMARK Flexibility Score: inf
ROOT
ATOM      1  C   UNL     1      15.170  24.284  29.051  1.00  0.00     0.004 C 
ENDROOT
BRANCH   1   2
ATOM      2  C   UNL     1      14.491  23.048  28.396  1.00  0.00    -0.009 C 
BRANCH   2   3
ATOM      3  C   UNL     1      15.147  22.707  27.030  1.00  0.00     0.000 C 
ATOM      4  C   UNL     1      16.374  23.566  26.723  1.00  0.00     0.004 C 
ENDBRANCH   2   3
BRANCH   2   5
ATOM      5  C   UNL     1      14.263  21.811  29.333  1.00  0.00    -0.014 C 
ATOM      6  C   UNL     1      14.897  20.492  28.857  1.00  0.00     0.007 C 
ATOM      7  C   UNL     1      14.662  22.097  30.789  1.00  0.00     0.007 C 
ENDBRANCH   2   5
ENDBRANCH   1   2
BRANCH   1   8
ATOM      8  C   UNL     1      14.299  25.561  29.135  1.00  0.00     0.004 C 
BRANCH   8   9
ATOM      9  C   UNL     1      15.098  26.889  28.984  1.00  0.00    -0.011 C 
ATOM     10  C   UNL     1      16.559  26.566  28.639  1.00  0.00     0.008 C 
BRANCH   9  11
ATOM     11  C   UNL     1      14.800  27.872  30.199  1.00  0.00    -0.002 C 
ATOM     12  C   UNL     1      13.876  29.004  29.646  1.00  0.00     0.005 C 
ATOM     13  C   UNL     1      15.944  28.719  30.873  1.00  0.00    -0.026 C 
ATOM     14  C   UNL     1      14.782  30.213  29.348  1.00  0.00     0.005 C 
ATOM     15  C   UNL     1      16.182  29.781  29.787  1.00  0.00    -0.001 C 
ATOM     16  C   UNL     1      17.289  28.032  31.307  1.00  0.00     0.007 C 
ATOM     17  C   UNL     1      15.365  29.364  32.184  1.00  0.00     0.012 C 
ATOM     18  C   UNL     1      17.162  30.895  30.227  1.00  0.00     0.004 C 
ATOM     19  C   UNL     1      18.541  28.733  30.738  1.00  0.00     0.005 C 
ATOM     20  C   UNL     1      18.468  30.286  30.888  1.00  0.00     0.003 C 
ATOM     21  C   UNL     1      17.440  31.852  29.058  1.00  0.00     0.085 C 
ATOM     22  C   UNL     1      19.839  31.008  30.532  1.00  0.00    -0.000 C 
ATOM     23  C   UNL     1      18.422  32.896  29.472  1.00  0.00     0.159 C 
ATOM     24  C   UNL     1      19.611  32.500  30.258  1.00  0.00     0.005 C 
ATOM     25  C   UNL     1      20.814  30.840  31.746  1.00  0.00     0.020 C 
ATOM     26  C   UNL     1      20.500  30.392  29.269  1.00  0.00     0.017 C 
ATOM     27  O   UNL     1      18.239  34.093  29.121  1.00  0.00    -0.295 OA
ATOM     28  C   UNL     1      20.526  33.431  30.592  1.00  0.00     0.055 C 
ATOM     29  C   UNL     1      22.100  31.659  31.602  1.00  0.00     0.081 C 
ATOM     30  C   UNL     1      21.776  33.084  31.286  1.00  0.00     0.156 C 
ATOM     31  O   UNL     1      22.602  33.990  31.572  1.00  0.00    -0.295 OA
ENDBRANCH   9  11
ENDBRANCH   8   9
ENDBRANCH   1   8
TORSDOF 6
ENDMDL
MODEL 9
REMARK VINA RESULT:    -5.117      2.929      7.379
REMARK INTER + INTRA:          -8.995
REMARK INTER:                  -7.399
REMARK INTRA:                  -1.596
REMARK UNBOUND:                -2.084
REMARK SMILES CC[C@H](CC[C@H](C)[C@@H]1CC[C@H]2[C@@H]3CC(=O)C4=CC(=O)CC[C@@]4(C)[C@@H]3CC[C@@]21C)C(C)C
REMARK SMILES IDX 4 1 3 2 2 3 1 4 29 5 30 6 31 7 5 8 6 9 7 10 8 11 9 12 27 13
REMARK SMILES IDX 10 14 11 15 26 16 28 17 12 18 25 19 24 20 13 21 22 22 14 23
REMARK SMILES IDX 16 24 21 25 23 26 15 27 17 28 20 29 18 30 19 31
REMARK H PARENT
REMARK Flexibility Score: inf
ROOT
ATOM      1  C   UNL     1      15.379  29.071  31.370  1.00  0.00     0.004 C 
ENDROOT
BRANCH   1   2
ATOM      2  C   UNL     1      14.990  27.952  30.362  1.00  0.00    -0.009 C 
BRANCH   2   3
ATOM      3  C   UNL     1      16.127  27.702  29.336  1.00  0.00     0.000 C 
ATOM      4  C   UNL     1      17.511  27.626  29.982  1.00  0.00     0.004 C 
ENDBRANCH   2   3
BRANCH   2   5
ATOM      5  C   UNL     1      14.378  26.648  30.984  1.00  0.00    -0.014 C 
ATOM      6  C   UNL     1      14.443  25.395  30.094  1.00  0.00     0.007 C 
ATOM      7  C   UNL     1      14.947  26.340  32.378  1.00  0.00     0.007 C 
ENDBRANCH   2   5
ENDBRANCH   1   2
BRANCH   1   8
ATOM      8  C   UNL     1      15.087  30.519  30.909  1.00  0.00     0.004 C 
BRANCH   8   9
ATOM      9  C   UNL     1      15.807  31.614  31.752  1.00  0.00    -0.011 C 
ATOM     10  C   UNL     1      14.794  32.272  32.700  1.00  0.00     0.008 C 
BRANCH   9  11
ATOM     11  C   UNL     1      16.701  32.547  30.824  1.00  0.00    -0.002 C 
ATOM     12  C   UNL     1      16.587  31.980  29.373  1.00  0.00     0.005 C 
ATOM     13  C   UNL     1      18.265  32.623  30.997  1.00  0.00    -0.026 C 
ATOM     14  C   UNL     1      17.846  31.125  29.129  1.00  0.00     0.005 C 
ATOM     15  C   UNL     1      18.678  31.266  30.405  1.00  0.00    -0.001 C 
ATOM     16  C   UNL     1      18.897  32.844  32.418  1.00  0.00     0.007 C 
ATOM     17  C   UNL     1      18.795  33.813  30.117  1.00  0.00     0.012 C 
ATOM     18  C   UNL     1      20.211  31.098  30.273  1.00  0.00     0.004 C 
ATOM     19  C   UNL     1      19.958  31.784  32.784  1.00  0.00     0.005 C 
ATOM     20  C   UNL     1      20.953  31.516  31.609  1.00  0.00     0.003 C 
ATOM     21  C   UNL     1      20.552  29.682  29.784  1.00  0.00     0.085 C 
ATOM     22  C   UNL     1      22.191  30.616  32.039  1.00  0.00    -0.000 C 
ATOM     23  C   UNL     1      22.031  29.509  29.705  1.00  0.00     0.159 C 
ATOM     24  C   UNL     1      22.879  30.016  30.806  1.00  0.00     0.005 C 
ATOM     25  C   UNL     1      23.206  31.514  32.823  1.00  0.00     0.020 C 
ATOM     26  C   UNL     1      21.753  29.439  32.953  1.00  0.00     0.017 C 
ATOM     27  O   UNL     1      22.533  28.907  28.717  1.00  0.00    -0.295 OA
ATOM     28  C   UNL     1      24.211  29.819  30.762  1.00  0.00     0.055 C 
ATOM     29  C   UNL     1      24.531  30.805  33.121  1.00  0.00     0.081 C 
ATOM     30  C   UNL     1      25.095  30.212  31.871  1.00  0.00     0.156 C 
ATOM     31  O   UNL     1      26.334  30.002  31.784  1.00  0.00    -0.295 OA
ENDBRANCH   9  11
ENDBRANCH   8   9
ENDBRANCH   1   8
TORSDOF 6
ENDMDL
