MODEL 1
REMARK VINA RESULT:    -4.970      0.000      0.000
REMARK INTER + INTRA:          -8.753
REMARK INTER:                  -7.585
REMARK INTRA:                  -1.168
REMARK UNBOUND:                -1.168
REMARK SMILES OC[C@H]1O[C@H](O[C@]2(CO)O[C@H](CO)[C@@H](O)[C@H]2O)[C@H](O)[C@@H](O)[C@@H]1O
REMARK SMILES IDX 6 1 5 2 3 3 22 4 4 5 20 6 18 7 2 8 1 9 23 11 21 13 19 15
REMARK SMILES IDX 7 17 16 18 10 19 14 20 11 21 8 22 9 23 17 25 15 27 12 29
REMARK SMILES IDX 13 30
REMARK H PARENT 1 10 23 12 21 14 19 16 9 24 17 26 15 28 13 31
REMARK Flexibility Score: inf
ROOT
ATOM      1  O   UNL     1      -9.397  -2.778  24.818  1.00  0.00    -0.313 OA
ENDROOT
BRANCH   1   2
ATOM      2  C   UNL     1     -10.276  -1.683  24.568  1.00  0.00     0.285 C 
ATOM      3  C   UNL     1     -10.129  -0.955  26.808  1.00  0.00     0.178 C 
ATOM      4  C   UNL     1      -9.285   0.288  26.430  1.00  0.00     0.177 C 
ATOM      5  O   UNL     1     -10.994  -1.337  25.745  1.00  0.00    -0.341 OA
ATOM      6  C   UNL     1      -8.514   0.029  25.127  1.00  0.00     0.179 C 
ATOM      7  C   UNL     1      -9.482  -0.467  24.049  1.00  0.00     0.202 C 
BRANCH   3   8
ATOM      8  C   UNL     1     -10.981  -0.640  28.049  1.00  0.00     0.191 C 
BRANCH   8   9
ATOM      9  O   UNL     1     -12.081  -1.504  28.125  1.00  0.00    -0.394 OA
ATOM     10  H   UNL     1     -12.204  -1.893  27.220  1.00  0.00     0.210 HD
ENDBRANCH   8   9
ENDBRANCH   3   8
BRANCH   4  11
ATOM     11  O   UNL     1      -8.378   0.572  27.465  1.00  0.00    -0.387 OA
ATOM     12  H   UNL     1      -8.481   1.534  27.685  1.00  0.00     0.211 HD
ENDBRANCH   4  11
BRANCH   6  13
ATOM     13  O   UNL     1      -7.904   1.215  24.684  1.00  0.00    -0.387 OA
ATOM     14  H   UNL     1      -7.247   1.480  25.381  1.00  0.00     0.211 HD
ENDBRANCH   6  13
BRANCH   7  15
ATOM     15  O   UNL     1      -8.759  -0.805  22.894  1.00  0.00    -0.385 OA
ATOM     16  H   UNL     1      -7.802  -0.624  23.091  1.00  0.00     0.211 HD
ENDBRANCH   7  15
ENDBRANCH   1   2
BRANCH   1  17
ATOM     17  C   UNL     1      -9.963  -4.065  24.575  1.00  0.00     0.224 C 
ATOM     18  C   UNL     1     -10.968  -3.904  23.416  1.00  0.00     0.208 C 
ATOM     19  O   UNL     1      -8.968  -4.984  24.147  1.00  0.00    -0.337 OA
ATOM     20  C   UNL     1     -10.097  -4.146  22.208  1.00  0.00     0.180 C 
ATOM     21  C   UNL     1      -9.078  -5.150  22.747  1.00  0.00     0.179 C 
BRANCH  17  22
ATOM     22  C   UNL     1     -10.640  -4.594  25.865  1.00  0.00     0.225 C 
BRANCH  22  23
ATOM     23  O   UNL     1     -11.881  -3.971  26.070  1.00  0.00    -0.391 OA
ATOM     24  H   UNL     1     -11.884  -3.626  26.999  1.00  0.00     0.210 HD
ENDBRANCH  22  23
ENDBRANCH  17  22
BRANCH  18  25
ATOM     25  O   UNL     1     -12.043  -4.818  23.477  1.00  0.00    -0.385 OA
ATOM     26  H   UNL     1     -11.674  -5.740  23.511  1.00  0.00     0.211 HD
ENDBRANCH  18  25
BRANCH  20  27
ATOM     27  O   UNL     1     -10.837  -4.674  21.137  1.00  0.00    -0.387 OA
ATOM     28  H   UNL     1     -10.201  -4.798  20.387  1.00  0.00     0.211 HD
ENDBRANCH  20  27
BRANCH  21  29
ATOM     29  C   UNL     1      -7.695  -4.990  22.105  1.00  0.00     0.191 C 
BRANCH  29  30
ATOM     30  O   UNL     1      -6.891  -4.118  22.851  1.00  0.00    -0.394 OA
ATOM     31  H   UNL     1      -7.490  -3.660  23.496  1.00  0.00     0.210 HD
ENDBRANCH  29  30
ENDBRANCH  21  29
ENDBRANCH   1  17
TORSDOF 13
ENDMDL
MODEL 2
REMARK VINA RESULT:    -4.873      1.362      2.508
REMARK INTER + INTRA:          -8.605
REMARK INTER:                  -7.154
REMARK INTRA:                  -1.452
REMARK UNBOUND:                -1.168
REMARK SMILES OC[C@H]1O[C@H](O[C@]2(CO)O[C@H](CO)[C@@H](O)[C@H]2O)[C@H](O)[C@@H](O)[C@@H]1O
REMARK SMILES IDX 6 1 5 2 3 3 22 4 4 5 20 6 18 7 2 8 1 9 23 11 21 13 19 15
REMARK SMILES IDX 7 17 16 18 10 19 14 20 11 21 8 22 9 23 17 25 15 27 12 29
REMARK SMILES IDX 13 30
REMARK H PARENT 1 10 23 12 21 14 19 16 9 24 17 26 15 28 13 31
REMARK Flexibility Score: inf
ROOT
ATOM      1  O   UNL     1      -9.218  -2.877  23.666  1.00  0.00    -0.313 OA
ENDROOT
BRANCH   1   2
ATOM      2  C   UNL     1     -10.154  -1.806  23.769  1.00  0.00     0.285 C 
ATOM      3  C   UNL     1     -10.137  -1.916  26.126  1.00  0.00     0.178 C 
ATOM      4  C   UNL     1      -9.359  -0.583  26.260  1.00  0.00     0.177 C 
ATOM      5  O   UNL     1     -10.937  -1.934  24.949  1.00  0.00    -0.341 OA
ATOM      6  C   UNL     1      -8.525  -0.326  24.996  1.00  0.00     0.179 C 
ATOM      7  C   UNL     1      -9.419  -0.450  23.759  1.00  0.00     0.202 C 
BRANCH   3   8
ATOM      8  C   UNL     1     -11.053  -2.102  27.347  1.00  0.00     0.191 C 
BRANCH   8   9
ATOM      9  O   UNL     1     -11.390  -0.862  27.906  1.00  0.00    -0.394 OA
ATOM     10  H   UNL     1     -11.940  -1.050  28.710  1.00  0.00     0.210 HD
ENDBRANCH   8   9
ENDBRANCH   3   8
BRANCH   4  11
ATOM     11  O   UNL     1      -8.511  -0.645  27.378  1.00  0.00    -0.387 OA
ATOM     12  H   UNL     1      -7.963   0.183  27.374  1.00  0.00     0.211 HD
ENDBRANCH   4  11
BRANCH   6  13
ATOM     13  O   UNL     1      -7.974   0.966  25.036  1.00  0.00    -0.387 OA
ATOM     14  H   UNL     1      -6.990   0.863  24.950  1.00  0.00     0.211 HD
ENDBRANCH   6  13
BRANCH   7  15
ATOM     15  O   UNL     1      -8.634  -0.322  22.603  1.00  0.00    -0.385 OA
ATOM     16  H   UNL     1      -7.812  -0.860  22.752  1.00  0.00     0.211 HD
ENDBRANCH   7  15
ENDBRANCH   1   2
BRANCH   1  17
ATOM     17  C   UNL     1      -9.661  -3.983  22.880  1.00  0.00     0.224 C 
ATOM     18  C   UNL     1      -8.401  -4.657  22.301  1.00  0.00     0.208 C 
ATOM     19  O   UNL     1     -10.323  -4.946  23.688  1.00  0.00    -0.337 OA
ATOM     20  C   UNL     1      -8.058  -5.660  23.375  1.00  0.00     0.180 C 
ATOM     21  C   UNL     1      -9.438  -6.024  23.923  1.00  0.00     0.179 C 
BRANCH  17  22
ATOM     22  C   UNL     1     -10.621  -3.488  21.769  1.00  0.00     0.225 C 
BRANCH  22  23
ATOM     23  O   UNL     1     -11.414  -4.541  21.287  1.00  0.00    -0.391 OA
ATOM     24  H   UNL     1     -10.854  -5.359  21.307  1.00  0.00     0.210 HD
ENDBRANCH  22  23
ENDBRANCH  17  22
BRANCH  18  25
ATOM     25  O   UNL     1      -8.625  -5.284  21.054  1.00  0.00    -0.385 OA
ATOM     26  H   UNL     1      -9.470  -5.803  21.108  1.00  0.00     0.211 HD
ENDBRANCH  18  25
BRANCH  20  27
ATOM     27  O   UNL     1      -7.393  -6.777  22.844  1.00  0.00    -0.387 OA
ATOM     28  H   UNL     1      -6.672  -7.009  23.485  1.00  0.00     0.211 HD
ENDBRANCH  20  27
BRANCH  21  29
ATOM     29  C   UNL     1      -9.412  -6.345  25.421  1.00  0.00     0.191 C 
BRANCH  29  30
ATOM     30  O   UNL     1      -8.097  -6.391  25.904  1.00  0.00    -0.394 OA
ATOM     31  H   UNL     1      -7.715  -7.257  25.606  1.00  0.00     0.210 HD
ENDBRANCH  29  30
ENDBRANCH  21  29
ENDBRANCH   1  17
TORSDOF 13
ENDMDL
MODEL 3
REMARK VINA RESULT:    -4.617     22.795     24.417
REMARK INTER + INTRA:          -8.214
REMARK INTER:                  -6.483
REMARK INTRA:                  -1.731
REMARK UNBOUND:                -1.168
REMARK SMILES OC[C@H]1O[C@H](O[C@]2(CO)O[C@H](CO)[C@@H](O)[C@H]2O)[C@H](O)[C@@H](O)[C@@H]1O
REMARK SMILES IDX 6 1 5 2 3 3 22 4 4 5 20 6 18 7 2 8 1 9 23 11 21 13 19 15
REMARK SMILES IDX 7 17 16 18 10 19 14 20 11 21 8 22 9 23 17 25 15 27 12 29
REMARK SMILES IDX 13 30
REMARK H PARENT 1 10 23 12 21 14 19 16 9 24 17 26 15 28 13 31
REMARK Flexibility Score: inf
ROOT
ATOM      1  O   UNL     1       5.729  10.298  12.051  1.00  0.00    -0.313 OA
ENDROOT
BRANCH   1   2
ATOM      2  C   UNL     1       6.006  11.688  12.215  1.00  0.00     0.285 C 
ATOM      3  C   UNL     1       3.951  12.292  11.224  1.00  0.00     0.178 C 
ATOM      4  C   UNL     1       3.352  12.766  12.571  1.00  0.00     0.177 C 
ATOM      5  O   UNL     1       5.365  12.450  11.200  1.00  0.00    -0.341 OA
ATOM      6  C   UNL     1       4.031  12.036  13.740  1.00  0.00     0.179 C 
ATOM      7  C   UNL     1       5.551  12.164  13.610  1.00  0.00     0.202 C 
BRANCH   3   8
ATOM      8  C   UNL     1       3.343  13.111  10.073  1.00  0.00     0.191 C 
BRANCH   8   9
ATOM      9  O   UNL     1       2.118  12.564   9.670  1.00  0.00    -0.394 OA
ATOM     10  H   UNL     1       2.084  11.640  10.030  1.00  0.00     0.210 HD
ENDBRANCH   8   9
ENDBRANCH   3   8
BRANCH   4  11
ATOM     11  O   UNL     1       1.972  12.503  12.590  1.00  0.00    -0.387 OA
ATOM     12  H   UNL     1       1.571  13.001  11.831  1.00  0.00     0.211 HD
ENDBRANCH   4  11
BRANCH   6  13
ATOM     13  O   UNL     1       3.626  12.601  14.961  1.00  0.00    -0.387 OA
ATOM     14  H   UNL     1       2.636  12.675  14.932  1.00  0.00     0.211 HD
ENDBRANCH   6  13
BRANCH   7  15
ATOM     15  O   UNL     1       6.169  11.406  14.616  1.00  0.00    -0.385 OA
ATOM     16  H   UNL     1       7.013  11.051  14.231  1.00  0.00     0.211 HD
ENDBRANCH   7  15
ENDBRANCH   1   2
BRANCH   1  17
ATOM     17  C   UNL     1       6.842   9.514  11.626  1.00  0.00     0.224 C 
ATOM     18  C   UNL     1       6.276   8.332  10.812  1.00  0.00     0.208 C 
ATOM     19  O   UNL     1       7.685  10.259  10.759  1.00  0.00    -0.337 OA
ATOM     20  C   UNL     1       6.243   8.899   9.415  1.00  0.00     0.180 C 
ATOM     21  C   UNL     1       7.441   9.849   9.428  1.00  0.00     0.179 C 
BRANCH  17  22
ATOM     22  C   UNL     1       7.653   9.038  12.859  1.00  0.00     0.225 C 
BRANCH  22  23
ATOM     23  O   UNL     1       6.810   8.451  13.815  1.00  0.00    -0.391 OA
ATOM     24  H   UNL     1       7.263   8.535  14.693  1.00  0.00     0.210 HD
ENDBRANCH  22  23
ENDBRANCH  17  22
BRANCH  18  25
ATOM     25  O   UNL     1       7.076   7.169  10.885  1.00  0.00    -0.385 OA
ATOM     26  H   UNL     1       6.559   6.458  11.347  1.00  0.00     0.211 HD
ENDBRANCH  18  25
BRANCH  20  27
ATOM     27  O   UNL     1       6.383   7.891   8.446  1.00  0.00    -0.387 OA
ATOM     28  H   UNL     1       7.357   7.760   8.313  1.00  0.00     0.211 HD
ENDBRANCH  20  27
BRANCH  21  29
ATOM     29  C   UNL     1       7.225  11.083   8.546  1.00  0.00     0.191 C 
BRANCH  29  30
ATOM     30  O   UNL     1       5.860  11.372   8.408  1.00  0.00    -0.394 OA
ATOM     31  H   UNL     1       5.795  12.338   8.188  1.00  0.00     0.210 HD
ENDBRANCH  29  30
ENDBRANCH  21  29
ENDBRANCH   1  17
TORSDOF 13
ENDMDL
MODEL 4
REMARK VINA RESULT:    -4.578     22.233     24.390
REMARK INTER + INTRA:          -8.154
REMARK INTER:                  -6.676
REMARK INTRA:                  -1.478
REMARK UNBOUND:                -1.168
REMARK SMILES OC[C@H]1O[C@H](O[C@]2(CO)O[C@H](CO)[C@@H](O)[C@H]2O)[C@H](O)[C@@H](O)[C@@H]1O
REMARK SMILES IDX 6 1 5 2 3 3 22 4 4 5 20 6 18 7 2 8 1 9 23 11 21 13 19 15
REMARK SMILES IDX 7 17 16 18 10 19 14 20 11 21 8 22 9 23 17 25 15 27 12 29
REMARK SMILES IDX 13 30
REMARK H PARENT 1 10 23 12 21 14 19 16 9 24 17 26 15 28 13 31
REMARK Flexibility Score: inf
ROOT
ATOM      1  O   UNL     1       5.781  10.806  12.746  1.00  0.00    -0.313 OA
ENDROOT
BRANCH   1   2
ATOM      2  C   UNL     1       6.047  11.869  11.834  1.00  0.00     0.285 C 
ATOM      3  C   UNL     1       5.883  10.420   9.978  1.00  0.00     0.178 C 
ATOM      4  C   UNL     1       4.537  11.034   9.519  1.00  0.00     0.177 C 
ATOM      5  O   UNL     1       6.684  11.377  10.661  1.00  0.00    -0.341 OA
ATOM      6  C   UNL     1       3.799  11.650  10.717  1.00  0.00     0.179 C 
ATOM      7  C   UNL     1       4.739  12.599  11.465  1.00  0.00     0.202 C 
BRANCH   3   8
ATOM      8  C   UNL     1       6.661   9.910   8.753  1.00  0.00     0.191 C 
BRANCH   8   9
ATOM      9  O   UNL     1       6.510   8.524   8.614  1.00  0.00    -0.394 OA
ATOM     10  H   UNL     1       7.288   8.104   9.065  1.00  0.00     0.210 HD
ENDBRANCH   8   9
ENDBRANCH   3   8
BRANCH   4  11
ATOM     11  O   UNL     1       3.739  10.034   8.938  1.00  0.00    -0.387 OA
ATOM     12  H   UNL     1       2.957   9.903   9.536  1.00  0.00     0.211 HD
ENDBRANCH   4  11
BRANCH   6  13
ATOM     13  O   UNL     1       2.677  12.371  10.273  1.00  0.00    -0.387 OA
ATOM     14  H   UNL     1       1.883  11.973  10.719  1.00  0.00     0.211 HD
ENDBRANCH   6  13
BRANCH   7  15
ATOM     15  O   UNL     1       4.097  13.076  12.619  1.00  0.00    -0.385 OA
ATOM     16  H   UNL     1       3.469  12.365  12.912  1.00  0.00     0.211 HD
ENDBRANCH   7  15
ENDBRANCH   1   2
BRANCH   1  17
ATOM     17  C   UNL     1       6.848  10.511  13.646  1.00  0.00     0.224 C 
ATOM     18  C   UNL     1       6.330   9.432  14.620  1.00  0.00     0.208 C 
ATOM     19  O   UNL     1       7.956   9.956  12.952  1.00  0.00    -0.337 OA
ATOM     20  C   UNL     1       6.691   8.157  13.899  1.00  0.00     0.180 C 
ATOM     21  C   UNL     1       7.969   8.558  13.163  1.00  0.00     0.179 C 
BRANCH  17  22
ATOM     22  C   UNL     1       7.287  11.801  14.384  1.00  0.00     0.225 C 
BRANCH  22  23
ATOM     23  O   UNL     1       6.186  12.435  14.979  1.00  0.00    -0.391 OA
ATOM     24  H   UNL     1       5.793  13.037  14.297  1.00  0.00     0.210 HD
ENDBRANCH  22  23
ENDBRANCH  17  22
BRANCH  18  25
ATOM     25  O   UNL     1       6.931   9.497  15.898  1.00  0.00    -0.385 OA
ATOM     26  H   UNL     1       7.545   8.723  15.998  1.00  0.00     0.211 HD
ENDBRANCH  18  25
BRANCH  20  27
ATOM     27  O   UNL     1       6.912   7.101  14.799  1.00  0.00    -0.387 OA
ATOM     28  H   UNL     1       6.019   6.755  15.055  1.00  0.00     0.211 HD
ENDBRANCH  20  27
BRANCH  21  29
ATOM     29  C   UNL     1       8.124   7.841  11.817  1.00  0.00     0.191 C 
BRANCH  29  30
ATOM     30  O   UNL     1       6.877   7.470  11.297  1.00  0.00    -0.394 OA
ATOM     31  H   UNL     1       6.658   8.128  10.587  1.00  0.00     0.210 HD
ENDBRANCH  29  30
ENDBRANCH  21  29
ENDBRANCH   1  17
TORSDOF 13
ENDMDL
MODEL 5
REMARK VINA RESULT:    -4.329      1.703      5.548
REMARK INTER + INTRA:          -7.775
REMARK INTER:                  -6.835
REMARK INTRA:                  -0.940
REMARK UNBOUND:                -1.168
REMARK SMILES OC[C@H]1O[C@H](O[C@]2(CO)O[C@H](CO)[C@@H](O)[C@H]2O)[C@H](O)[C@@H](O)[C@@H]1O
REMARK SMILES IDX 6 1 5 2 3 3 22 4 4 5 20 6 18 7 2 8 1 9 23 11 21 13 19 15
REMARK SMILES IDX 7 17 16 18 10 19 14 20 11 21 8 22 9 23 17 25 15 27 12 29
REMARK SMILES IDX 13 30
REMARK H PARENT 1 10 23 12 21 14 19 16 9 24 17 26 15 28 13 31
REMARK Flexibility Score: inf
ROOT
ATOM      1  O   UNL     1      -9.786  -3.267  23.281  1.00  0.00    -0.313 OA
ENDROOT
BRANCH   1   2
ATOM      2  C   UNL     1      -9.193  -4.468  23.771  1.00  0.00     0.285 C 
ATOM      3  C   UNL     1     -10.670  -5.804  22.506  1.00  0.00     0.178 C 
ATOM      4  C   UNL     1      -9.555  -6.247  21.526  1.00  0.00     0.177 C 
ATOM      5  O   UNL     1     -10.144  -5.524  23.798  1.00  0.00    -0.341 OA
ATOM      6  C   UNL     1      -8.443  -5.188  21.475  1.00  0.00     0.179 C 
ATOM      7  C   UNL     1      -7.983  -4.861  22.898  1.00  0.00     0.202 C 
BRANCH   3   8
ATOM      8  C   UNL     1     -11.718  -6.923  22.631  1.00  0.00     0.191 C 
BRANCH   8   9
ATOM      9  O   UNL     1     -12.125  -7.072  23.964  1.00  0.00    -0.394 OA
ATOM     10  H   UNL     1     -12.933  -7.648  23.955  1.00  0.00     0.210 HD
ENDBRANCH   8   9
ENDBRANCH   3   8
BRANCH   4  11
ATOM     11  O   UNL     1     -10.100  -6.418  20.242  1.00  0.00    -0.387 OA
ATOM     12  H   UNL     1      -9.773  -7.292  19.902  1.00  0.00     0.211 HD
ENDBRANCH   4  11
BRANCH   6  13
ATOM     13  O   UNL     1      -7.349  -5.674  20.740  1.00  0.00    -0.387 OA
ATOM     14  H   UNL     1      -6.867  -4.883  20.381  1.00  0.00     0.211 HD
ENDBRANCH   6  13
BRANCH   7  15
ATOM     15  O   UNL     1      -7.044  -3.819  22.856  1.00  0.00    -0.385 OA
ATOM     16  H   UNL     1      -6.591  -3.805  23.740  1.00  0.00     0.211 HD
ENDBRANCH   7  15
ENDBRANCH   1   2
BRANCH   1  17
ATOM     17  C   UNL     1     -10.501  -2.513  24.260  1.00  0.00     0.224 C 
ATOM     18  C   UNL     1      -9.792  -2.742  25.610  1.00  0.00     0.208 C 
ATOM     19  O   UNL     1     -10.432  -1.123  23.977  1.00  0.00    -0.337 OA
ATOM     20  C   UNL     1      -8.767  -1.635  25.620  1.00  0.00     0.180 C 
ATOM     21  C   UNL     1      -9.484  -0.531  24.842  1.00  0.00     0.179 C 
BRANCH  17  22
ATOM     22  C   UNL     1     -11.982  -2.966  24.294  1.00  0.00     0.225 C 
BRANCH  22  23
ATOM     23  O   UNL     1     -12.125  -4.155  25.026  1.00  0.00    -0.391 OA
ATOM     24  H   UNL     1     -12.658  -4.777  24.468  1.00  0.00     0.210 HD
ENDBRANCH  22  23
ENDBRANCH  17  22
BRANCH  18  25
ATOM     25  O   UNL     1     -10.662  -2.658  26.720  1.00  0.00    -0.385 OA
ATOM     26  H   UNL     1     -10.194  -3.018  27.518  1.00  0.00     0.211 HD
ENDBRANCH  18  25
BRANCH  20  27
ATOM     27  O   UNL     1      -8.453  -1.235  26.930  1.00  0.00    -0.387 OA
ATOM     28  H   UNL     1      -8.960  -0.400  27.100  1.00  0.00     0.211 HD
ENDBRANCH  20  27
BRANCH  21  29
ATOM     29  C   UNL     1      -8.519   0.337  24.026  1.00  0.00     0.191 C 
BRANCH  29  30
ATOM     30  O   UNL     1      -8.736   0.173  22.651  1.00  0.00    -0.394 OA
ATOM     31  H   UNL     1      -9.590  -0.323  22.555  1.00  0.00     0.210 HD
ENDBRANCH  29  30
ENDBRANCH  21  29
ENDBRANCH   1  17
TORSDOF 13
ENDMDL
MODEL 6
REMARK VINA RESULT:    -4.277     22.714     24.268
REMARK INTER + INTRA:          -7.696
REMARK INTER:                  -6.109
REMARK INTRA:                  -1.586
REMARK UNBOUND:                -1.168
REMARK SMILES OC[C@H]1O[C@H](O[C@]2(CO)O[C@H](CO)[C@@H](O)[C@H]2O)[C@H](O)[C@@H](O)[C@@H]1O
REMARK SMILES IDX 6 1 5 2 3 3 22 4 4 5 20 6 18 7 2 8 1 9 23 11 21 13 19 15
REMARK SMILES IDX 7 17 16 18 10 19 14 20 11 21 8 22 9 23 17 25 15 27 12 29
REMARK SMILES IDX 13 30
REMARK H PARENT 1 10 23 12 21 14 19 16 9 24 17 26 15 28 13 31
REMARK Flexibility Score: inf
ROOT
ATOM      1  O   UNL     1       5.184  10.665  12.470  1.00  0.00    -0.313 OA
ENDROOT
BRANCH   1   2
ATOM      2  C   UNL     1       5.305  12.083  12.573  1.00  0.00     0.285 C 
ATOM      3  C   UNL     1       4.441  12.392  10.399  1.00  0.00     0.178 C 
ATOM      4  C   UNL     1       3.105  12.971  10.929  1.00  0.00     0.177 C 
ATOM      5  O   UNL     1       5.514  12.664  11.293  1.00  0.00    -0.341 OA
ATOM      6  C   UNL     1       2.822  12.443  12.343  1.00  0.00     0.179 C 
ATOM      7  C   UNL     1       4.045  12.681  13.232  1.00  0.00     0.202 C 
BRANCH   3   8
ATOM      8  C   UNL     1       4.766  13.017   9.032  1.00  0.00     0.191 C 
BRANCH   8   9
ATOM      9  O   UNL     1       4.159  12.290   8.000  1.00  0.00    -0.394 OA
ATOM     10  H   UNL     1       3.457  11.727   8.419  1.00  0.00     0.210 HD
ENDBRANCH   8   9
ENDBRANCH   3   8
BRANCH   4  11
ATOM     11  O   UNL     1       2.058  12.597  10.069  1.00  0.00    -0.387 OA
ATOM     12  H   UNL     1       1.780  13.414   9.577  1.00  0.00     0.211 HD
ENDBRANCH   4  11
BRANCH   6  13
ATOM     13  O   UNL     1       1.717  13.112  12.895  1.00  0.00    -0.387 OA
ATOM     14  H   UNL     1       1.130  13.375  12.138  1.00  0.00     0.211 HD
ENDBRANCH   6  13
BRANCH   7  15
ATOM     15  O   UNL     1       3.824  12.102  14.492  1.00  0.00    -0.385 OA
ATOM     16  H   UNL     1       3.083  11.450  14.382  1.00  0.00     0.211 HD
ENDBRANCH   7  15
ENDBRANCH   1   2
BRANCH   1  17
ATOM     17  C   UNL     1       6.395   9.945  12.697  1.00  0.00     0.224 C 
ATOM     18  C   UNL     1       6.066   8.447  12.530  1.00  0.00     0.208 C 
ATOM     19  O   UNL     1       7.371  10.276  11.720  1.00  0.00    -0.337 OA
ATOM     20  C   UNL     1       6.309   8.235  11.056  1.00  0.00     0.180 C 
ATOM     21  C   UNL     1       7.435   9.228  10.772  1.00  0.00     0.179 C 
BRANCH  17  22
ATOM     22  C   UNL     1       6.942  10.268  14.111  1.00  0.00     0.225 C 
BRANCH  22  23
ATOM     23  O   UNL     1       6.029   9.875  15.102  1.00  0.00    -0.391 OA
ATOM     24  H   UNL     1       6.347   9.007  15.461  1.00  0.00     0.210 HD
ENDBRANCH  22  23
ENDBRANCH  17  22
BRANCH  18  25
ATOM     25  O   UNL     1       6.880   7.605  13.320  1.00  0.00    -0.385 OA
ATOM     26  H   UNL     1       6.603   6.663  13.167  1.00  0.00     0.211 HD
ENDBRANCH  18  25
BRANCH  20  27
ATOM     27  O   UNL     1       6.695   6.912  10.784  1.00  0.00    -0.387 OA
ATOM     28  H   UNL     1       7.162   6.580  11.594  1.00  0.00     0.211 HD
ENDBRANCH  20  27
BRANCH  21  29
ATOM     29  C   UNL     1       7.361   9.815   9.358  1.00  0.00     0.191 C 
BRANCH  29  30
ATOM     30  O   UNL     1       7.023   8.830   8.420  1.00  0.00    -0.394 OA
ATOM     31  H   UNL     1       6.045   8.684   8.502  1.00  0.00     0.210 HD
ENDBRANCH  29  30
ENDBRANCH  21  29
ENDBRANCH   1  17
TORSDOF 13
ENDMDL
MODEL 7
REMARK VINA RESULT:    -4.135      1.676      3.790
REMARK INTER + INTRA:          -7.479
REMARK INTER:                  -6.196
REMARK INTRA:                  -1.283
REMARK UNBOUND:                -1.168
REMARK SMILES OC[C@H]1O[C@H](O[C@]2(CO)O[C@H](CO)[C@@H](O)[C@H]2O)[C@H](O)[C@@H](O)[C@@H]1O
REMARK SMILES IDX 6 1 5 2 3 3 22 4 4 5 20 6 18 7 2 8 1 9 23 11 21 13 19 15
REMARK SMILES IDX 7 17 16 18 10 19 14 20 11 21 8 22 9 23 17 25 15 27 12 29
REMARK SMILES IDX 13 30
REMARK H PARENT 1 10 23 12 21 14 19 16 9 24 17 26 15 28 13 31
REMARK Flexibility Score: inf
ROOT
ATOM      1  O   UNL     1     -10.520  -2.874  24.090  1.00  0.00    -0.313 OA
ENDROOT
BRANCH   1   2
ATOM      2  C   UNL     1      -9.171  -2.746  24.535  1.00  0.00     0.285 C 
ATOM      3  C   UNL     1      -9.142  -0.442  24.027  1.00  0.00     0.178 C 
ATOM      4  C   UNL     1      -9.145  -0.033  25.521  1.00  0.00     0.177 C 
ATOM      5  O   UNL     1      -8.508  -1.701  23.835  1.00  0.00    -0.341 OA
ATOM      6  C   UNL     1      -9.792  -1.136  26.371  1.00  0.00     0.179 C 
ATOM      7  C   UNL     1      -9.132  -2.481  26.054  1.00  0.00     0.202 C 
BRANCH   3   8
ATOM      8  C   UNL     1      -8.391   0.619  23.205  1.00  0.00     0.191 C 
BRANCH   8   9
ATOM      9  O   UNL     1      -9.145   1.796  23.110  1.00  0.00    -0.394 OA
ATOM     10  H   UNL     1      -9.954   1.664  23.668  1.00  0.00     0.210 HD
ENDBRANCH   8   9
ENDBRANCH   3   8
BRANCH   4  11
ATOM     11  O   UNL     1      -9.863   1.165  25.678  1.00  0.00    -0.387 OA
ATOM     12  H   UNL     1      -9.607   1.543  26.559  1.00  0.00     0.211 HD
ENDBRANCH   4  11
BRANCH   6  13
ATOM     13  O   UNL     1      -9.623  -0.853  27.737  1.00  0.00    -0.387 OA
ATOM     14  H   UNL     1     -10.289  -0.155  27.973  1.00  0.00     0.211 HD
ENDBRANCH   6  13
BRANCH   7  15
ATOM     15  O   UNL     1      -9.797  -3.501  26.752  1.00  0.00    -0.385 OA
ATOM     16  H   UNL     1      -9.302  -4.343  26.569  1.00  0.00     0.211 HD
ENDBRANCH   7  15
ENDBRANCH   1   2
BRANCH   1  17
ATOM     17  C   UNL     1     -10.747  -3.946  23.176  1.00  0.00     0.224 C 
ATOM     18  C   UNL     1      -9.508  -4.862  23.239  1.00  0.00     0.208 C 
ATOM     19  O   UNL     1     -11.868  -4.722  23.574  1.00  0.00    -0.337 OA
ATOM     20  C   UNL     1      -9.885  -5.825  24.339  1.00  0.00     0.180 C 
ATOM     21  C   UNL     1     -11.403  -5.912  24.179  1.00  0.00     0.179 C 
BRANCH  17  22
ATOM     22  C   UNL     1     -10.983  -3.382  21.751  1.00  0.00     0.225 C 
BRANCH  22  23
ATOM     23  O   UNL     1     -11.795  -4.245  21.000  1.00  0.00    -0.391 OA
ATOM     24  H   UNL     1     -12.262  -3.690  20.324  1.00  0.00     0.210 HD
ENDBRANCH  22  23
ENDBRANCH  17  22
BRANCH  18  25
ATOM     25  O   UNL     1      -9.246  -5.534  22.024  1.00  0.00    -0.385 OA
ATOM     26  H   UNL     1      -9.010  -6.477  22.229  1.00  0.00     0.211 HD
ENDBRANCH  18  25
BRANCH  20  27
ATOM     27  O   UNL     1      -9.266  -7.074  24.164  1.00  0.00    -0.387 OA
ATOM     28  H   UNL     1      -9.221  -7.496  25.060  1.00  0.00     0.211 HD
ENDBRANCH  20  27
BRANCH  21  29
ATOM     29  C   UNL     1     -12.125  -6.121  25.515  1.00  0.00     0.191 C 
BRANCH  29  30
ATOM     30  O   UNL     1     -11.210  -6.246  26.569  1.00  0.00    -0.394 OA
ATOM     31  H   UNL     1     -11.254  -7.190  26.873  1.00  0.00     0.210 HD
ENDBRANCH  29  30
ENDBRANCH  21  29
ENDBRANCH   1  17
TORSDOF 13
ENDMDL
MODEL 8
REMARK VINA RESULT:    -3.853      1.688      5.883
REMARK INTER + INTRA:          -7.048
REMARK INTER:                  -6.446
REMARK INTRA:                  -0.602
REMARK UNBOUND:                -1.168
REMARK SMILES OC[C@H]1O[C@H](O[C@]2(CO)O[C@H](CO)[C@@H](O)[C@H]2O)[C@H](O)[C@@H](O)[C@@H]1O
REMARK SMILES IDX 6 1 5 2 3 3 22 4 4 5 20 6 18 7 2 8 1 9 23 11 21 13 19 15
REMARK SMILES IDX 7 17 16 18 10 19 14 20 11 21 8 22 9 23 17 25 15 27 12 29
REMARK SMILES IDX 13 30
REMARK H PARENT 1 10 23 12 21 14 19 16 9 24 17 26 15 28 13 31
REMARK Flexibility Score: inf
ROOT
ATOM      1  O   UNL     1      -9.813  -3.847  24.180  1.00  0.00    -0.313 OA
ENDROOT
BRANCH   1   2
ATOM      2  C   UNL     1     -10.321  -5.180  24.185  1.00  0.00     0.285 C 
ATOM      3  C   UNL     1     -10.347  -5.261  21.826  1.00  0.00     0.178 C 
ATOM      4  C   UNL     1      -9.157  -6.251  21.770  1.00  0.00     0.177 C 
ATOM      5  O   UNL     1     -11.101  -5.425  23.022  1.00  0.00    -0.341 OA
ATOM      6  C   UNL     1      -8.283  -6.103  23.025  1.00  0.00     0.179 C 
ATOM      7  C   UNL     1      -9.163  -6.195  24.275  1.00  0.00     0.202 C 
BRANCH   3   8
ATOM      8  C   UNL     1     -11.272  -5.500  20.622  1.00  0.00     0.191 C 
BRANCH   8   9
ATOM      9  O   UNL     1     -10.902  -6.665  19.937  1.00  0.00    -0.394 OA
ATOM     10  H   UNL     1     -11.091  -7.427  20.544  1.00  0.00     0.210 HD
ENDBRANCH   8   9
ENDBRANCH   3   8
BRANCH   4  11
ATOM     11  O   UNL     1      -8.384  -5.991  20.626  1.00  0.00    -0.387 OA
ATOM     12  H   UNL     1      -7.903  -5.138  20.788  1.00  0.00     0.211 HD
ENDBRANCH   4  11
BRANCH   6  13
ATOM     13  O   UNL     1      -7.320  -7.125  23.066  1.00  0.00    -0.387 OA
ATOM     14  H   UNL     1      -7.113  -7.365  22.125  1.00  0.00     0.211 HD
ENDBRANCH   6  13
BRANCH   7  15
ATOM     15  O   UNL     1      -8.380  -5.951  25.414  1.00  0.00    -0.385 OA
ATOM     16  H   UNL     1      -8.925  -5.383  26.020  1.00  0.00     0.211 HD
ENDBRANCH   7  15
ENDBRANCH   1   2
BRANCH   1  17
ATOM     17  C   UNL     1     -10.542  -2.927  24.990  1.00  0.00     0.224 C 
ATOM     18  C   UNL     1      -9.669  -2.623  26.224  1.00  0.00     0.208 C 
ATOM     19  O   UNL     1     -10.747  -1.700  24.304  1.00  0.00    -0.337 OA
ATOM     20  C   UNL     1      -8.857  -1.442  25.752  1.00  0.00     0.180 C 
ATOM     21  C   UNL     1      -9.832  -0.745  24.803  1.00  0.00     0.179 C 
BRANCH  17  22
ATOM     22  C   UNL     1     -11.911  -3.540  25.380  1.00  0.00     0.225 C 
BRANCH  22  23
ATOM     23  O   UNL     1     -11.769  -4.441  26.448  1.00  0.00    -0.391 OA
ATOM     24  H   UNL     1     -12.460  -4.207  27.119  1.00  0.00     0.210 HD
ENDBRANCH  22  23
ENDBRANCH  17  22
BRANCH  18  25
ATOM     25  O   UNL     1     -10.421  -2.311  27.379  1.00  0.00    -0.385 OA
ATOM     26  H   UNL     1     -10.309  -1.344  27.578  1.00  0.00     0.211 HD
ENDBRANCH  18  25
BRANCH  20  27
ATOM     27  O   UNL     1      -8.484  -0.612  26.822  1.00  0.00    -0.387 OA
ATOM     28  H   UNL     1      -8.084  -1.203  27.512  1.00  0.00     0.211 HD
ENDBRANCH  20  27
BRANCH  21  29
ATOM     29  C   UNL     1      -9.123  -0.057  23.630  1.00  0.00     0.191 C 
BRANCH  29  30
ATOM     30  O   UNL     1      -7.840   0.371  23.998  1.00  0.00    -0.394 OA
ATOM     31  H   UNL     1      -7.267  -0.440  24.022  1.00  0.00     0.210 HD
ENDBRANCH  29  30
ENDBRANCH  21  29
ENDBRANCH   1  17
TORSDOF 13
ENDMDL
