MODEL 1
REMARK VINA RESULT:    -3.335      0.000      0.000
REMARK INTER + INTRA:          -3.906
REMARK INTER:                  -3.627
REMARK INTRA:                  -0.279
REMARK UNBOUND:                -0.279
REMARK SMILES C[C@@H]1[C@@H](C)CC[C@@]2(C(=O)[O-])CC[C@@]3(C)C(=CC[C@@H]4[C@]5(C)CC[C@H](O)C(C)(C)[C@@H]5CC[C@@]43C)[C@@H]12
REMARK SMILES IDX 7 1 6 2 11 3 33 4 5 5 12 6 15 7 2 8 3 9 13 10 16 11 1 12
REMARK SMILES IDX 4 13 14 14 31 15 17 16 18 17 30 18 32 19 19 20 29 21 28 22
REMARK SMILES IDX 21 23 20 24 25 25 22 26 23 27 26 28 27 29 8 30 9 31 10 32
REMARK SMILES IDX 24 33
REMARK H PARENT 24 34
REMARK Flexibility Score: inf
ROOT
ATOM      1  C   UNL     1      23.064  18.626   1.885  1.00  0.00     0.017 C 
ATOM      2  C   UNL     1      24.128  19.241   0.942  1.00  0.00     0.014 C 
ATOM      3  C   UNL     1      21.983  19.687   2.249  1.00  0.00     0.014 C 
ATOM      4  C   UNL     1      22.413  17.346   1.218  1.00  0.00     0.030 C 
ATOM      5  C   UNL     1      25.229  18.228   0.559  1.00  0.00     0.004 C 
ATOM      6  C   UNL     1      20.981  20.027   1.126  1.00  0.00     0.013 C 
ATOM      7  C   UNL     1      20.889  17.522   1.036  1.00  0.00    -0.063 C 
ATOM      8  C   UNL     1      23.146  16.825  -0.064  1.00  0.00    -0.003 C 
ATOM      9  C   UNL     1      24.690  16.820   0.161  1.00  0.00    -0.011 C 
ATOM     10  C   UNL     1      20.332  18.799   0.365  1.00  0.00    -0.006 C 
ATOM     11  C   UNL     1      20.118  16.767   1.841  1.00  0.00    -0.027 C 
ATOM     12  C   UNL     1      22.599  15.435  -0.452  1.00  0.00     0.008 C 
ATOM     13  C   UNL     1      25.469  16.296  -1.065  1.00  0.00     0.008 C 
ATOM     14  C   UNL     1      20.805  18.845  -1.125  1.00  0.00     0.017 C 
ATOM     15  C   UNL     1      18.711  18.872   0.376  1.00  0.00    -0.020 C 
ATOM     16  C   UNL     1      18.666  16.976   2.071  1.00  0.00     0.032 C 
ATOM     17  C   UNL     1      18.151  18.412   1.774  1.00  0.00     0.006 C 
ATOM     18  C   UNL     1      18.069  17.915  -0.688  1.00  0.00     0.008 C 
ATOM     19  C   UNL     1      18.293  20.351   0.023  1.00  0.00     0.012 C 
ATOM     20  C   UNL     1      16.542  18.551   1.942  1.00  0.00    -0.025 C 
ATOM     21  C   UNL     1      16.587  17.512  -0.436  1.00  0.00     0.005 C 
ATOM     22  C   UNL     1      15.802  18.444   0.535  1.00  0.00     0.003 C 
ATOM     23  C   UNL     1      15.982  17.453   2.922  1.00  0.00     0.010 C 
ATOM     24  C   UNL     1      16.254  19.941   2.603  1.00  0.00     0.012 C 
ATOM     25  C   UNL     1      14.228  18.159   0.589  1.00  0.00    -0.006 C 
ATOM     26  C   UNL     1      14.455  17.358   3.004  1.00  0.00     0.033 C 
ATOM     27  C   UNL     1      13.854  17.065   1.633  1.00  0.00     0.120 C 
ATOM     28  C   UNL     1      13.667  17.715  -0.789  1.00  0.00     0.014 C 
ATOM     29  C   UNL     1      13.456  19.470   0.921  1.00  0.00     0.014 C 
ENDROOT
BRANCH   1  30
ATOM     30  C   UNL     1      23.715  18.261   3.226  1.00  0.00     0.048 C 
ATOM     31  O   UNL     1      23.779  17.059   3.600  1.00  0.00    -0.550 OA
ATOM     32  O   UNL     1      24.131  19.245   4.114  1.00  0.00    -0.550 OA
ENDBRANCH   1  30
BRANCH  27  33
ATOM     33  O   UNL     1      14.292  15.798   1.202  1.00  0.00    -0.393 OA
ATOM     34  H   UNL     1      13.992  15.123   1.865  1.00  0.00     0.210 HD
ENDBRANCH  27  33
TORSDOF 2
ENDMDL
