MODEL 1
REMARK VINA RESULT:    -4.562      0.000      0.000
REMARK INTER + INTRA:          -5.483
REMARK INTER:                  -5.229
REMARK INTRA:                  -0.255
REMARK UNBOUND:                -0.255
REMARK SMILES COc1ccc(C=O)c(O)c1
REMARK SMILES IDX 3 1 11 2 9 3 6 4 5 5 4 6 2 7 1 8 10 9 7 11 8 12
REMARK H PARENT 10 10
REMARK Flexibility Score: inf
ROOT
ATOM      1  C   UNL     1      44.897  -1.144  14.599  1.00  0.00     0.122 A 
ATOM      2  C   UNL     1      45.440  -0.836  15.850  1.00  0.00     0.093 A 
ATOM      3  C   UNL     1      46.404  -1.666  16.440  1.00  0.00     0.129 A 
ATOM      4  C   UNL     1      46.836  -2.827  15.770  1.00  0.00     0.056 A 
ATOM      5  C   UNL     1      46.289  -3.135  14.513  1.00  0.00     0.019 A 
ATOM      6  C   UNL     1      45.329  -2.303  13.931  1.00  0.00     0.047 A 
ENDROOT
BRANCH   1   7
ATOM      7  O   UNL     1      43.936  -0.277  14.057  1.00  0.00    -0.497 OA
ATOM      8  C   UNL     1      44.126   1.122  13.877  1.00  0.00     0.278 C 
ENDBRANCH   1   7
BRANCH   3   9
ATOM      9  O   UNL     1      46.931  -1.337  17.689  1.00  0.00    -0.507 OA
ATOM     10  H   UNL     1      47.516  -1.983  18.207  1.00  0.00     0.293 HD
ENDBRANCH   3   9
BRANCH   4  11
ATOM     11  C   UNL     1      47.851  -3.710  16.382  1.00  0.00     0.263 C 
ATOM     12  O   UNL     1      47.803  -4.005  17.606  1.00  0.00    -0.298 OA
ENDBRANCH   4  11
TORSDOF 3
ENDMDL
MODEL 2
REMARK VINA RESULT:    -4.544      7.307      8.905
REMARK INTER + INTRA:          -5.462
REMARK INTER:                  -5.192
REMARK INTRA:                  -0.271
REMARK UNBOUND:                -0.255
REMARK SMILES COc1ccc(C=O)c(O)c1
REMARK SMILES IDX 3 1 11 2 9 3 6 4 5 5 4 6 2 7 1 8 10 9 7 11 8 12
REMARK H PARENT 10 10
REMARK Flexibility Score: inf
ROOT
ATOM      1  C   UNL     1      45.599   7.415  17.593  1.00  0.00     0.122 A 
ATOM      2  C   UNL     1      46.775   6.657  17.594  1.00  0.00     0.093 A 
ATOM      3  C   UNL     1      47.163   5.930  16.459  1.00  0.00     0.129 A 
ATOM      4  C   UNL     1      46.364   5.958  15.299  1.00  0.00     0.056 A 
ATOM      5  C   UNL     1      45.182   6.719  15.301  1.00  0.00     0.019 A 
ATOM      6  C   UNL     1      44.802   7.441  16.436  1.00  0.00     0.047 A 
ENDROOT
BRANCH   1   7
ATOM      7  O   UNL     1      45.260   8.121  18.757  1.00  0.00    -0.497 OA
ATOM      8  C   UNL     1      46.069   8.176  19.928  1.00  0.00     0.278 C 
ENDBRANCH   1   7
BRANCH   3   9
ATOM      9  O   UNL     1      48.340   5.183  16.484  1.00  0.00    -0.507 OA
ATOM     10  H   UNL     1      49.169   5.479  15.981  1.00  0.00     0.293 HD
ENDBRANCH   3   9
BRANCH   4  11
ATOM     11  C   UNL     1      46.762   5.196  14.098  1.00  0.00     0.263 C 
ATOM     12  O   UNL     1      47.092   3.983  14.177  1.00  0.00    -0.298 OA
ENDBRANCH   4  11
TORSDOF 3
ENDMDL
MODEL 3
REMARK VINA RESULT:    -4.493      8.069      9.797
REMARK INTER + INTRA:          -5.405
REMARK INTER:                  -5.134
REMARK INTRA:                  -0.271
REMARK UNBOUND:                -0.255
REMARK SMILES COc1ccc(C=O)c(O)c1
REMARK SMILES IDX 3 1 11 2 9 3 6 4 5 5 4 6 2 7 1 8 10 9 7 11 8 12
REMARK H PARENT 10 10
REMARK Flexibility Score: inf
ROOT
ATOM      1  C   UNL     1      45.705   7.882  18.742  1.00  0.00     0.122 A 
ATOM      2  C   UNL     1      46.752   7.023  18.398  1.00  0.00     0.093 A 
ATOM      3  C   UNL     1      46.795   6.411  17.136  1.00  0.00     0.129 A 
ATOM      4  C   UNL     1      45.774   6.660  16.199  1.00  0.00     0.056 A 
ATOM      5  C   UNL     1      44.721   7.523  16.548  1.00  0.00     0.019 A 
ATOM      6  C   UNL     1      44.685   8.129  17.807  1.00  0.00     0.047 A 
ENDROOT
BRANCH   1   7
ATOM      7  O   UNL     1      45.713   8.465  20.018  1.00  0.00    -0.497 OA
ATOM      8  C   UNL     1      46.409   7.933  21.141  1.00  0.00     0.278 C 
ENDBRANCH   1   7
BRANCH   3   9
ATOM      9  O   UNL     1      47.852   5.558  16.815  1.00  0.00    -0.507 OA
ATOM     10  H   UNL     1      47.891   4.605  17.159  1.00  0.00     0.293 HD
ENDBRANCH   3   9
BRANCH   4  11
ATOM     11  C   UNL     1      45.808   6.021  14.867  1.00  0.00     0.263 C 
ATOM     12  O   UNL     1      46.829   6.100  14.134  1.00  0.00    -0.298 OA
ENDBRANCH   4  11
TORSDOF 3
ENDMDL
MODEL 4
REMARK VINA RESULT:    -4.333      8.950     10.549
REMARK INTER + INTRA:          -5.221
REMARK INTER:                  -4.966
REMARK INTRA:                  -0.254
REMARK UNBOUND:                -0.255
REMARK SMILES COc1ccc(C=O)c(O)c1
REMARK SMILES IDX 3 1 11 2 9 3 6 4 5 5 4 6 2 7 1 8 10 9 7 11 8 12
REMARK H PARENT 10 10
REMARK Flexibility Score: inf
ROOT
ATOM      1  C   UNL     1      46.013   7.882  19.331  1.00  0.00     0.122 A 
ATOM      2  C   UNL     1      44.895   8.516  18.779  1.00  0.00     0.093 A 
ATOM      3  C   UNL     1      44.473   8.220  17.474  1.00  0.00     0.129 A 
ATOM      4  C   UNL     1      45.179   7.275  16.705  1.00  0.00     0.056 A 
ATOM      5  C   UNL     1      46.302   6.640  17.262  1.00  0.00     0.019 A 
ATOM      6  C   UNL     1      46.717   6.940  18.562  1.00  0.00     0.047 A 
ENDROOT
BRANCH   1   7
ATOM      7  O   UNL     1      46.390   8.218  20.641  1.00  0.00    -0.497 OA
ATOM      8  C   UNL     1      47.169   7.383  21.491  1.00  0.00     0.278 C 
ENDBRANCH   1   7
BRANCH   3   9
ATOM      9  O   UNL     1      43.355   8.865  16.946  1.00  0.00    -0.507 OA
ATOM     10  H   UNL     1      42.600   9.193  17.538  1.00  0.00     0.293 HD
ENDBRANCH   3   9
BRANCH   4  11
ATOM     11  C   UNL     1      44.744   6.956  15.329  1.00  0.00     0.263 C 
ATOM     12  O   UNL     1      43.623   6.425  15.108  1.00  0.00    -0.298 OA
ENDBRANCH   4  11
TORSDOF 3
ENDMDL
MODEL 5
REMARK VINA RESULT:    -4.312      9.198     10.902
REMARK INTER + INTRA:          -5.197
REMARK INTER:                  -4.947
REMARK INTRA:                  -0.250
REMARK UNBOUND:                -0.255
REMARK SMILES COc1ccc(C=O)c(O)c1
REMARK SMILES IDX 3 1 11 2 9 3 6 4 5 5 4 6 2 7 1 8 10 9 7 11 8 12
REMARK H PARENT 10 10
REMARK Flexibility Score: inf
ROOT
ATOM      1  C   UNL     1      46.073   8.042  20.633  1.00  0.00     0.122 A 
ATOM      2  C   UNL     1      46.750   7.124  19.824  1.00  0.00     0.093 A 
ATOM      3  C   UNL     1      46.413   6.973  18.471  1.00  0.00     0.129 A 
ATOM      4  C   UNL     1      45.380   7.750  17.913  1.00  0.00     0.056 A 
ATOM      5  C   UNL     1      44.700   8.672  18.728  1.00  0.00     0.019 A 
ATOM      6  C   UNL     1      45.042   8.817  20.075  1.00  0.00     0.047 A 
ENDROOT
BRANCH   1   7
ATOM      7  O   UNL     1      46.452   8.151  21.980  1.00  0.00    -0.497 OA
ATOM      8  C   UNL     1      47.720   7.753  22.492  1.00  0.00     0.278 C 
ENDBRANCH   1   7
BRANCH   3   9
ATOM      9  O   UNL     1      47.104   6.051  17.684  1.00  0.00    -0.507 OA
ATOM     10  H   UNL     1      48.021   5.709  17.947  1.00  0.00     0.293 HD
ENDBRANCH   3   9
BRANCH   4  11
ATOM     11  C   UNL     1      45.016   7.599  16.489  1.00  0.00     0.263 C 
ATOM     12  O   UNL     1      44.525   6.524  16.054  1.00  0.00    -0.298 OA
ENDBRANCH   4  11
TORSDOF 3
ENDMDL
MODEL 6
REMARK VINA RESULT:    -4.305      9.250     10.787
REMARK INTER + INTRA:          -5.188
REMARK INTER:                  -4.917
REMARK INTRA:                  -0.271
REMARK UNBOUND:                -0.255
REMARK SMILES COc1ccc(C=O)c(O)c1
REMARK SMILES IDX 3 1 11 2 9 3 6 4 5 5 4 6 2 7 1 8 10 9 7 11 8 12
REMARK H PARENT 10 10
REMARK Flexibility Score: inf
ROOT
ATOM      1  C   UNL     1      46.181   7.578  18.165  1.00  0.00     0.122 A 
ATOM      2  C   UNL     1      46.756   6.704  19.093  1.00  0.00     0.093 A 
ATOM      3  C   UNL     1      46.778   7.019  20.460  1.00  0.00     0.129 A 
ATOM      4  C   UNL     1      46.216   8.229  20.911  1.00  0.00     0.056 A 
ATOM      5  C   UNL     1      45.638   9.106  19.977  1.00  0.00     0.019 A 
ATOM      6  C   UNL     1      45.620   8.785  18.617  1.00  0.00     0.047 A 
ENDROOT
BRANCH   1   7
ATOM      7  O   UNL     1      46.187   7.212  16.811  1.00  0.00    -0.497 OA
ATOM      8  C   UNL     1      47.044   6.222  16.250  1.00  0.00     0.278 C 
ENDBRANCH   1   7
BRANCH   3   9
ATOM      9  O   UNL     1      47.357   6.131  21.366  1.00  0.00    -0.507 OA
ATOM     10  H   UNL     1      47.376   5.132  21.194  1.00  0.00     0.293 HD
ENDBRANCH   3   9
BRANCH   4  11
ATOM     11  C   UNL     1      46.233   8.572  22.349  1.00  0.00     0.263 C 
ATOM     12  O   UNL     1      47.306   8.551  23.009  1.00  0.00    -0.298 OA
ENDBRANCH   4  11
TORSDOF 3
ENDMDL
MODEL 7
REMARK VINA RESULT:    -4.258      8.054     10.007
REMARK INTER + INTRA:          -5.135
REMARK INTER:                  -4.866
REMARK INTRA:                  -0.269
REMARK UNBOUND:                -0.255
REMARK SMILES COc1ccc(C=O)c(O)c1
REMARK SMILES IDX 3 1 11 2 9 3 6 4 5 5 4 6 2 7 1 8 10 9 7 11 8 12
REMARK H PARENT 10 10
REMARK Flexibility Score: inf
ROOT
ATOM      1  C   UNL     1      46.021   6.657  16.415  1.00  0.00     0.122 A 
ATOM      2  C   UNL     1      46.749   6.473  17.595  1.00  0.00     0.093 A 
ATOM      3  C   UNL     1      46.401   7.157  18.769  1.00  0.00     0.129 A 
ATOM      4  C   UNL     1      45.305   8.042  18.768  1.00  0.00     0.056 A 
ATOM      5  C   UNL     1      44.575   8.226  17.581  1.00  0.00     0.019 A 
ATOM      6  C   UNL     1      44.928   7.541  16.415  1.00  0.00     0.047 A 
ENDROOT
BRANCH   1   7
ATOM      7  O   UNL     1      46.415   5.947  15.271  1.00  0.00    -0.497 OA
ATOM      8  C   UNL     1      47.622   5.200  15.165  1.00  0.00     0.278 C 
ENDBRANCH   1   7
BRANCH   3   9
ATOM      9  O   UNL     1      47.142   6.956  19.933  1.00  0.00    -0.507 OA
ATOM     10  H   UNL     1      47.505   7.732  20.474  1.00  0.00     0.293 HD
ENDBRANCH   3   9
BRANCH   4  11
ATOM     11  C   UNL     1      44.929   8.768  19.998  1.00  0.00     0.263 C 
ATOM     12  O   UNL     1      45.793   9.372  20.687  1.00  0.00    -0.298 OA
ENDBRANCH   4  11
TORSDOF 3
ENDMDL
MODEL 8
REMARK VINA RESULT:    -4.199      8.054     10.112
REMARK INTER + INTRA:          -5.068
REMARK INTER:                  -4.803
REMARK INTRA:                  -0.265
REMARK UNBOUND:                -0.255
REMARK SMILES COc1ccc(C=O)c(O)c1
REMARK SMILES IDX 3 1 11 2 9 3 6 4 5 5 4 6 2 7 1 8 10 9 7 11 8 12
REMARK H PARENT 10 10
REMARK Flexibility Score: inf
ROOT
ATOM      1  C   UNL     1      45.933   6.553  16.248  1.00  0.00     0.122 A 
ATOM      2  C   UNL     1      44.793   7.355  16.358  1.00  0.00     0.093 A 
ATOM      3  C   UNL     1      44.562   8.123  17.509  1.00  0.00     0.129 A 
ATOM      4  C   UNL     1      45.486   8.091  18.572  1.00  0.00     0.056 A 
ATOM      5  C   UNL     1      46.631   7.283  18.460  1.00  0.00     0.019 A 
ATOM      6  C   UNL     1      46.854   6.521  17.310  1.00  0.00     0.047 A 
ENDROOT
BRANCH   1   7
ATOM      7  O   UNL     1      46.112   5.806  15.074  1.00  0.00    -0.497 OA
ATOM      8  C   UNL     1      47.349   5.226  14.671  1.00  0.00     0.278 C 
ENDBRANCH   1   7
BRANCH   3   9
ATOM      9  O   UNL     1      43.418   8.916  17.595  1.00  0.00    -0.507 OA
ATOM     10  H   UNL     1      42.603   8.739  17.018  1.00  0.00     0.293 HD
ENDBRANCH   3   9
BRANCH   4  11
ATOM     11  C   UNL     1      45.253   8.895  19.790  1.00  0.00     0.263 C 
ATOM     12  O   UNL     1      44.214   8.737  20.484  1.00  0.00    -0.298 OA
ENDBRANCH   4  11
TORSDOF 3
ENDMDL
MODEL 9
REMARK VINA RESULT:    -4.083     11.383     12.746
REMARK INTER + INTRA:          -4.934
REMARK INTER:                  -4.676
REMARK INTRA:                  -0.258
REMARK UNBOUND:                -0.255
REMARK SMILES COc1ccc(C=O)c(O)c1
REMARK SMILES IDX 3 1 11 2 9 3 6 4 5 5 4 6 2 7 1 8 10 9 7 11 8 12
REMARK H PARENT 10 10
REMARK Flexibility Score: inf
ROOT
ATOM      1  C   UNL     1      46.173   7.945  20.952  1.00  0.00     0.122 A 
ATOM      2  C   UNL     1      44.915   8.475  21.256  1.00  0.00     0.093 A 
ATOM      3  C   UNL     1      44.607   8.891  22.560  1.00  0.00     0.129 A 
ATOM      4  C   UNL     1      45.571   8.777  23.581  1.00  0.00     0.056 A 
ATOM      5  C   UNL     1      46.834   8.243  23.272  1.00  0.00     0.019 A 
ATOM      6  C   UNL     1      47.134   7.830  21.971  1.00  0.00     0.047 A 
ENDROOT
BRANCH   1   7
ATOM      7  O   UNL     1      46.425   7.544  19.631  1.00  0.00    -0.497 OA
ATOM      8  C   UNL     1      46.066   8.300  18.479  1.00  0.00     0.278 C 
ENDBRANCH   1   7
BRANCH   3   9
ATOM      9  O   UNL     1      43.346   9.418  22.839  1.00  0.00    -0.507 OA
ATOM     10  H   UNL     1      42.725   9.733  22.102  1.00  0.00     0.293 HD
ENDBRANCH   3   9
BRANCH   4  11
ATOM     11  C   UNL     1      45.257   9.212  24.958  1.00  0.00     0.263 C 
ATOM     12  O   UNL     1      44.156   8.922  25.496  1.00  0.00    -0.298 OA
ENDBRANCH   4  11
TORSDOF 3
ENDMDL
