MODEL 1
REMARK VINA RESULT:    -7.966      0.000      0.000
REMARK INTER + INTRA:          -8.900
REMARK INTER:                  -8.665
REMARK INTRA:                  -0.235
REMARK UNBOUND:                -0.235
REMARK SMILES C[C@H]1[C@@H](C)CC[C@@]2(C(=O)[O-])CC[C@]3(C)C(=CC[C@H]4[C@]5(C)CC[C@@H](O)C(C)(C)[C@@H]5CC[C@]43C)[C@@H]12
REMARK SMILES IDX 7 1 6 2 11 3 33 4 5 5 12 6 15 7 2 8 3 9 13 10 16 11 1 12
REMARK SMILES IDX 4 13 14 14 31 15 17 16 18 17 30 18 32 19 19 20 29 21 28 22
REMARK SMILES IDX 21 23 20 24 25 25 22 26 23 27 26 28 27 29 8 30 9 31 10 32
REMARK SMILES IDX 24 33
REMARK H PARENT 24 34
REMARK Flexibility Score: inf
ROOT
ATOM      1  C   UNL     1     100.602 -64.420 104.819  1.00  0.00     0.017 C 
ATOM      2  C   UNL     1     101.235 -64.330 106.247  1.00  0.00     0.014 C 
ATOM      3  C   UNL     1      99.759 -65.723 104.752  1.00  0.00     0.014 C 
ATOM      4  C   UNL     1      99.762 -63.084 104.492  1.00  0.00     0.030 C 
ATOM      5  C   UNL     1     102.179 -63.124 106.439  1.00  0.00     0.004 C 
ATOM      6  C   UNL     1      98.350 -65.551 105.309  1.00  0.00     0.013 C 
ATOM      7  C   UNL     1      98.211 -63.189 104.503  1.00  0.00    -0.063 C 
ATOM      8  C   UNL     1     100.278 -61.839 105.323  1.00  0.00    -0.003 C 
ATOM      9  C   UNL     1     101.810 -61.929 105.541  1.00  0.00    -0.011 C 
ATOM     10  C   UNL     1      97.495 -64.544 104.488  1.00  0.00    -0.006 C 
ATOM     11  C   UNL     1      97.499 -62.064 104.239  1.00  0.00    -0.027 C 
ATOM     12  C   UNL     1      99.492 -61.615 106.647  1.00  0.00     0.008 C 
ATOM     13  C   UNL     1     102.441 -60.621 106.050  1.00  0.00     0.008 C 
ATOM     14  C   UNL     1      97.489 -65.018 103.005  1.00  0.00     0.017 C 
ATOM     15  C   UNL     1      96.003 -64.431 105.090  1.00  0.00    -0.020 C 
ATOM     16  C   UNL     1      96.037 -61.895 104.549  1.00  0.00     0.032 C 
ATOM     17  C   UNL     1      95.206 -63.198 104.480  1.00  0.00     0.006 C 
ATOM     18  C   UNL     1      95.183 -65.764 104.925  1.00  0.00     0.008 C 
ATOM     19  C   UNL     1      96.099 -64.180 106.639  1.00  0.00     0.012 C 
ATOM     20  C   UNL     1      94.286 -63.373 103.161  1.00  0.00    -0.025 C 
ATOM     21  C   UNL     1      93.784 -65.595 104.321  1.00  0.00     0.005 C 
ATOM     22  C   UNL     1      93.874 -64.896 102.941  1.00  0.00     0.003 C 
ATOM     23  C   UNL     1      92.988 -62.515 103.417  1.00  0.00     0.010 C 
ATOM     24  C   UNL     1      94.995 -62.808 101.875  1.00  0.00     0.012 C 
ATOM     25  C   UNL     1      92.608 -65.145 101.994  1.00  0.00    -0.006 C 
ATOM     26  C   UNL     1      91.853 -62.731 102.422  1.00  0.00     0.033 C 
ATOM     27  C   UNL     1      91.434 -64.205 102.395  1.00  0.00     0.120 C 
ATOM     28  C   UNL     1      92.993 -64.940 100.498  1.00  0.00     0.014 C 
ATOM     29  C   UNL     1      92.103 -66.613 102.085  1.00  0.00     0.014 C 
ENDROOT
BRANCH   1  30
ATOM     30  C   UNL     1     101.747 -64.628 103.819  1.00  0.00     0.048 C 
ATOM     31  O   UNL     1     102.584 -65.555 104.004  1.00  0.00    -0.550 OA
ATOM     32  O   UNL     1     101.840 -63.879 102.649  1.00  0.00    -0.550 OA
ENDBRANCH   1  30
BRANCH  27  33
ATOM     33  O   UNL     1      90.304 -64.394 101.574  1.00  0.00    -0.393 OA
ATOM     34  H   UNL     1      89.513 -64.528 102.158  1.00  0.00     0.210 HD
ENDBRANCH  27  33
TORSDOF 2
ENDMDL
MODEL 2
REMARK VINA RESULT:    -7.466      1.538      8.161
REMARK INTER + INTRA:          -8.356
REMARK INTER:                  -8.162
REMARK INTRA:                  -0.194
REMARK UNBOUND:                -0.235
REMARK SMILES C[C@H]1[C@@H](C)CC[C@@]2(C(=O)[O-])CC[C@]3(C)C(=CC[C@H]4[C@]5(C)CC[C@@H](O)C(C)(C)[C@@H]5CC[C@]43C)[C@@H]12
REMARK SMILES IDX 7 1 6 2 11 3 33 4 5 5 12 6 15 7 2 8 3 9 13 10 16 11 1 12
REMARK SMILES IDX 4 13 14 14 31 15 17 16 18 17 30 18 32 19 19 20 29 21 28 22
REMARK SMILES IDX 21 23 20 24 25 25 22 26 23 27 26 28 27 29 8 30 9 31 10 32
REMARK SMILES IDX 24 33
REMARK H PARENT 24 34
REMARK Flexibility Score: inf
ROOT
ATOM      1  C   UNL     1      93.417 -63.769 103.143  1.00  0.00     0.017 C 
ATOM      2  C   UNL     1      92.173 -64.148 104.013  1.00  0.00     0.014 C 
ATOM      3  C   UNL     1      94.022 -62.461 103.720  1.00  0.00     0.014 C 
ATOM      4  C   UNL     1      94.457 -64.998 103.087  1.00  0.00     0.030 C 
ATOM      5  C   UNL     1      91.407 -65.388 103.506  1.00  0.00     0.004 C 
ATOM      6  C   UNL     1      94.976 -62.707 104.883  1.00  0.00     0.013 C 
ATOM      7  C   UNL     1      95.773 -64.865 103.905  1.00  0.00    -0.063 C 
ATOM      8  C   UNL     1      93.746 -66.392 103.333  1.00  0.00    -0.003 C 
ATOM      9  C   UNL     1      92.310 -66.378 102.749  1.00  0.00    -0.011 C 
ATOM     10  C   UNL     1      96.238 -63.517 104.469  1.00  0.00    -0.006 C 
ATOM     11  C   UNL     1      96.648 -65.902 103.870  1.00  0.00    -0.027 C 
ATOM     12  C   UNL     1      93.789 -66.851 104.819  1.00  0.00     0.008 C 
ATOM     13  C   UNL     1      91.668 -67.774 102.654  1.00  0.00     0.008 C 
ATOM     14  C   UNL     1      96.924 -62.766 103.292  1.00  0.00     0.017 C 
ATOM     15  C   UNL     1      97.234 -63.713 105.722  1.00  0.00    -0.020 C 
ATOM     16  C   UNL     1      97.770 -66.097 104.853  1.00  0.00     0.032 C 
ATOM     17  C   UNL     1      98.366 -64.787 105.421  1.00  0.00     0.006 C 
ATOM     18  C   UNL     1      97.865 -62.356 106.209  1.00  0.00     0.008 C 
ATOM     19  C   UNL     1      96.409 -64.261 106.944  1.00  0.00     0.012 C 
ATOM     20  C   UNL     1      99.793 -64.341 104.803  1.00  0.00    -0.025 C 
ATOM     21  C   UNL     1      99.388 -62.375 106.387  1.00  0.00     0.005 C 
ATOM     22  C   UNL     1     100.079 -62.796 105.064  1.00  0.00     0.003 C 
ATOM     23  C   UNL     1     100.881 -65.204 105.549  1.00  0.00     0.010 C 
ATOM     24  C   UNL     1      99.889 -64.661 103.266  1.00  0.00     0.012 C 
ATOM     25  C   UNL     1     101.609 -62.341 104.949  1.00  0.00    -0.006 C 
ATOM     26  C   UNL     1     102.327 -64.776 105.321  1.00  0.00     0.033 C 
ATOM     27  C   UNL     1     102.527 -63.315 105.741  1.00  0.00     0.120 C 
ATOM     28  C   UNL     1     102.046 -62.260 103.456  1.00  0.00     0.014 C 
ATOM     29  C   UNL     1     101.826 -60.908 105.513  1.00  0.00     0.014 C 
ENDROOT
BRANCH   1  30
ATOM     30  C   UNL     1      92.906 -63.397 101.745  1.00  0.00     0.048 C 
ATOM     31  O   UNL     1      92.127 -62.413 101.600  1.00  0.00    -0.550 OA
ATOM     32  O   UNL     1      93.352 -64.057 100.604  1.00  0.00    -0.550 OA
ENDBRANCH   1  30
BRANCH  27  33
ATOM     33  O   UNL     1     103.885 -62.947 105.653  1.00  0.00    -0.393 OA
ATOM     34  H   UNL     1     103.983 -62.026 106.008  1.00  0.00     0.210 HD
ENDBRANCH  27  33
TORSDOF 2
ENDMDL
MODEL 3
REMARK VINA RESULT:    -7.403      0.616      0.832
REMARK INTER + INTRA:          -8.288
REMARK INTER:                  -8.076
REMARK INTRA:                  -0.211
REMARK UNBOUND:                -0.235
REMARK SMILES C[C@H]1[C@@H](C)CC[C@@]2(C(=O)[O-])CC[C@]3(C)C(=CC[C@H]4[C@]5(C)CC[C@@H](O)C(C)(C)[C@@H]5CC[C@]43C)[C@@H]12
REMARK SMILES IDX 7 1 6 2 11 3 33 4 5 5 12 6 15 7 2 8 3 9 13 10 16 11 1 12
REMARK SMILES IDX 4 13 14 14 31 15 17 16 18 17 30 18 32 19 19 20 29 21 28 22
REMARK SMILES IDX 21 23 20 24 25 25 22 26 23 27 26 28 27 29 8 30 9 31 10 32
REMARK SMILES IDX 24 33
REMARK H PARENT 24 34
REMARK Flexibility Score: inf
ROOT
ATOM      1  C   UNL     1     101.049 -64.208 105.141  1.00  0.00     0.017 C 
ATOM      2  C   UNL     1     101.695 -64.024 106.555  1.00  0.00     0.014 C 
ATOM      3  C   UNL     1     100.184 -65.497 105.177  1.00  0.00     0.014 C 
ATOM      4  C   UNL     1     100.230 -62.885 104.723  1.00  0.00     0.030 C 
ATOM      5  C   UNL     1     102.661 -62.825 106.651  1.00  0.00     0.004 C 
ATOM      6  C   UNL     1      98.782 -65.260 105.729  1.00  0.00     0.013 C 
ATOM      7  C   UNL     1      98.677 -62.960 104.752  1.00  0.00    -0.063 C 
ATOM      8  C   UNL     1     100.774 -61.591 105.456  1.00  0.00    -0.003 C 
ATOM      9  C   UNL     1     102.306 -61.693 105.670  1.00  0.00    -0.011 C 
ATOM     10  C   UNL     1      97.938 -64.300 104.842  1.00  0.00    -0.006 C 
ATOM     11  C   UNL     1      97.983 -61.846 104.411  1.00  0.00    -0.027 C 
ATOM     12  C   UNL     1     100.003 -61.257 106.766  1.00  0.00     0.008 C 
ATOM     13  C   UNL     1     102.963 -60.362 106.077  1.00  0.00     0.008 C 
ATOM     14  C   UNL     1      97.912 -64.882 103.398  1.00  0.00     0.017 C 
ATOM     15  C   UNL     1      96.453 -64.116 105.444  1.00  0.00    -0.020 C 
ATOM     16  C   UNL     1      96.526 -61.628 104.718  1.00  0.00     0.032 C 
ATOM     17  C   UNL     1      95.673 -62.918 104.750  1.00  0.00     0.006 C 
ATOM     18  C   UNL     1      95.608 -65.443 105.383  1.00  0.00     0.008 C 
ATOM     19  C   UNL     1      96.566 -63.754 106.970  1.00  0.00     0.012 C 
ATOM     20  C   UNL     1      94.739 -63.173 103.455  1.00  0.00    -0.025 C 
ATOM     21  C   UNL     1      94.208 -65.294 104.778  1.00  0.00     0.005 C 
ATOM     22  C   UNL     1      94.299 -64.700 103.349  1.00  0.00     0.003 C 
ATOM     23  C   UNL     1      93.458 -62.275 103.656  1.00  0.00     0.010 C 
ATOM     24  C   UNL     1      95.447 -62.717 102.125  1.00  0.00     0.012 C 
ATOM     25  C   UNL     1      93.021 -64.995 102.432  1.00  0.00    -0.006 C 
ATOM     26  C   UNL     1      92.311 -62.543 102.687  1.00  0.00     0.033 C 
ATOM     27  C   UNL     1      91.867 -64.008 102.772  1.00  0.00     0.120 C 
ATOM     28  C   UNL     1      93.397 -64.908 100.923  1.00  0.00     0.014 C 
ATOM     29  C   UNL     1      92.491 -66.443 102.635  1.00  0.00     0.014 C 
ENDROOT
BRANCH   1  30
ATOM     30  C   UNL     1     102.182 -64.509 104.152  1.00  0.00     0.048 C 
ATOM     31  O   UNL     1     102.247 -63.880 103.058  1.00  0.00    -0.550 OA
ATOM     32  O   UNL     1     103.209 -65.396 104.464  1.00  0.00    -0.550 OA
ENDBRANCH   1  30
BRANCH  27  33
ATOM     33  O   UNL     1      90.727 -64.236 101.974  1.00  0.00    -0.393 OA
ATOM     34  H   UNL     1      90.801 -65.141 101.576  1.00  0.00     0.210 HD
ENDBRANCH  27  33
TORSDOF 2
ENDMDL
MODEL 4
REMARK VINA RESULT:    -7.353      1.967      3.372
REMARK INTER + INTRA:          -8.233
REMARK INTER:                  -7.999
REMARK INTRA:                  -0.234
REMARK UNBOUND:                -0.235
REMARK SMILES C[C@H]1[C@@H](C)CC[C@@]2(C(=O)[O-])CC[C@]3(C)C(=CC[C@H]4[C@]5(C)CC[C@@H](O)C(C)(C)[C@@H]5CC[C@]43C)[C@@H]12
REMARK SMILES IDX 7 1 6 2 11 3 33 4 5 5 12 6 15 7 2 8 3 9 13 10 16 11 1 12
REMARK SMILES IDX 4 13 14 14 31 15 17 16 18 17 30 18 32 19 19 20 29 21 28 22
REMARK SMILES IDX 21 23 20 24 25 25 22 26 23 27 26 28 27 29 8 30 9 31 10 32
REMARK SMILES IDX 24 33
REMARK H PARENT 24 34
REMARK Flexibility Score: inf
ROOT
ATOM      1  C   UNL     1      97.616 -64.792 105.515  1.00  0.00     0.017 C 
ATOM      2  C   UNL     1      97.489 -63.938 106.820  1.00  0.00     0.014 C 
ATOM      3  C   UNL     1      96.650 -66.002 105.642  1.00  0.00     0.014 C 
ATOM      4  C   UNL     1      97.346 -63.877 104.217  1.00  0.00     0.030 C 
ATOM      5  C   UNL     1      98.460 -62.740 106.880  1.00  0.00     0.004 C 
ATOM      6  C   UNL     1      95.221 -65.670 105.224  1.00  0.00     0.013 C 
ATOM      7  C   UNL     1      95.998 -64.071 103.466  1.00  0.00    -0.063 C 
ATOM      8  C   UNL     1      97.654 -62.348 104.492  1.00  0.00    -0.003 C 
ATOM      9  C   UNL     1      98.834 -62.204 105.487  1.00  0.00    -0.011 C 
ATOM     10  C   UNL     1      95.104 -65.290 103.720  1.00  0.00    -0.006 C 
ATOM     11  C   UNL     1      95.761 -63.295 102.379  1.00  0.00    -0.027 C 
ATOM     12  C   UNL     1      96.400 -61.534 104.922  1.00  0.00     0.008 C 
ATOM     13  C   UNL     1      99.409 -60.778 105.563  1.00  0.00     0.008 C 
ATOM     14  C   UNL     1      95.707 -66.456 102.883  1.00  0.00     0.017 C 
ATOM     15  C   UNL     1      93.570 -64.992 103.319  1.00  0.00    -0.020 C 
ATOM     16  C   UNL     1      94.404 -63.096 101.759  1.00  0.00     0.032 C 
ATOM     17  C   UNL     1      93.450 -64.307 101.890  1.00  0.00     0.006 C 
ATOM     18  C   UNL     1      92.664 -66.276 103.402  1.00  0.00     0.008 C 
ATOM     19  C   UNL     1      92.964 -63.977 104.356  1.00  0.00     0.012 C 
ATOM     20  C   UNL     1      93.261 -65.198 100.554  1.00  0.00    -0.025 C 
ATOM     21  C   UNL     1      91.799 -66.541 102.164  1.00  0.00     0.005 C 
ATOM     22  C   UNL     1      92.688 -66.643 100.898  1.00  0.00     0.003 C 
ATOM     23  C   UNL     1      92.219 -64.425  99.657  1.00  0.00     0.010 C 
ATOM     24  C   UNL     1      94.603 -65.322  99.741  1.00  0.00     0.012 C 
ATOM     25  C   UNL     1      92.011 -67.432  99.681  1.00  0.00    -0.006 C 
ATOM     26  C   UNL     1      91.683 -65.201  98.459  1.00  0.00     0.033 C 
ATOM     27  C   UNL     1      91.022 -66.507  98.915  1.00  0.00     0.120 C 
ATOM     28  C   UNL     1      93.099 -67.996  98.720  1.00  0.00     0.014 C 
ATOM     29  C   UNL     1      91.221 -68.678 100.174  1.00  0.00     0.014 C 
ENDROOT
BRANCH   1  30
ATOM     30  C   UNL     1      99.024 -65.400 105.496  1.00  0.00     0.048 C 
ATOM     31  O   UNL     1      99.447 -66.041 106.498  1.00  0.00    -0.550 OA
ATOM     32  O   UNL     1      99.826 -65.349 104.359  1.00  0.00    -0.550 OA
ENDBRANCH   1  30
BRANCH  27  33
ATOM     33  O   UNL     1      90.414 -67.170  97.831  1.00  0.00    -0.393 OA
ATOM     34  H   UNL     1      89.461 -66.896  97.793  1.00  0.00     0.210 HD
ENDBRANCH  27  33
TORSDOF 2
ENDMDL
MODEL 5
REMARK VINA RESULT:    -7.284      3.137      5.744
REMARK INTER + INTRA:          -8.158
REMARK INTER:                  -8.429
REMARK INTRA:                   0.271
REMARK UNBOUND:                -0.235
REMARK SMILES C[C@H]1[C@@H](C)CC[C@@]2(C(=O)[O-])CC[C@]3(C)C(=CC[C@H]4[C@]5(C)CC[C@@H](O)C(C)(C)[C@@H]5CC[C@]43C)[C@@H]12
REMARK SMILES IDX 7 1 6 2 11 3 33 4 5 5 12 6 15 7 2 8 3 9 13 10 16 11 1 12
REMARK SMILES IDX 4 13 14 14 31 15 17 16 18 17 30 18 32 19 19 20 29 21 28 22
REMARK SMILES IDX 21 23 20 24 25 25 22 26 23 27 26 28 27 29 8 30 9 31 10 32
REMARK SMILES IDX 24 33
REMARK H PARENT 24 34
REMARK Flexibility Score: inf
ROOT
ATOM      1  C   UNL     1      95.473 -62.725 103.410  1.00  0.00     0.017 C 
ATOM      2  C   UNL     1      97.008 -62.750 103.108  1.00  0.00     0.014 C 
ATOM      3  C   UNL     1      94.719 -62.768 102.053  1.00  0.00     0.014 C 
ATOM      4  C   UNL     1      95.079 -63.923 104.412  1.00  0.00     0.030 C 
ATOM      5  C   UNL     1      97.896 -62.622 104.364  1.00  0.00     0.004 C 
ATOM      6  C   UNL     1      94.537 -64.184 101.517  1.00  0.00     0.013 C 
ATOM      7  C   UNL     1      94.306 -65.135 103.818  1.00  0.00    -0.063 C 
ATOM      8  C   UNL     1      96.306 -64.383 105.302  1.00  0.00    -0.003 C 
ATOM      9  C   UNL     1      97.220 -63.175 105.631  1.00  0.00    -0.011 C 
ATOM     10  C   UNL     1      93.646 -65.068 102.436  1.00  0.00    -0.006 C 
ATOM     11  C   UNL     1      93.982 -66.152 104.655  1.00  0.00    -0.027 C 
ATOM     12  C   UNL     1      97.089 -65.584 104.698  1.00  0.00     0.008 C 
ATOM     13  C   UNL     1      98.245 -63.459 106.743  1.00  0.00     0.008 C 
ATOM     14  C   UNL     1      92.288 -64.334 102.636  1.00  0.00     0.017 C 
ATOM     15  C   UNL     1      93.449 -66.539 101.804  1.00  0.00    -0.020 C 
ATOM     16  C   UNL     1      93.565 -67.523 104.200  1.00  0.00     0.032 C 
ATOM     17  C   UNL     1      92.815 -67.556 102.848  1.00  0.00     0.006 C 
ATOM     18  C   UNL     1      92.616 -66.516 100.469  1.00  0.00     0.008 C 
ATOM     19  C   UNL     1      94.859 -67.117 101.416  1.00  0.00     0.012 C 
ATOM     20  C   UNL     1      91.213 -67.761 102.941  1.00  0.00    -0.025 C 
ATOM     21  C   UNL     1      91.459 -67.520 100.408  1.00  0.00     0.005 C 
ATOM     22  C   UNL     1      90.491 -67.298 101.599  1.00  0.00     0.003 C 
ATOM     23  C   UNL     1      90.982 -69.307 103.149  1.00  0.00     0.010 C 
ATOM     24  C   UNL     1      90.598 -67.008 104.178  1.00  0.00     0.012 C 
ATOM     25  C   UNL     1      89.018 -67.878 101.364  1.00  0.00    -0.006 C 
ATOM     26  C   UNL     1      89.540 -69.780 103.005  1.00  0.00     0.033 C 
ATOM     27  C   UNL     1      88.989 -69.412 101.622  1.00  0.00     0.120 C 
ATOM     28  C   UNL     1      87.989 -67.144 102.275  1.00  0.00     0.014 C 
ATOM     29  C   UNL     1      88.526 -67.624  99.910  1.00  0.00     0.014 C 
ENDROOT
BRANCH   1  30
ATOM     30  C   UNL     1      95.144 -61.352 104.012  1.00  0.00     0.048 C 
ATOM     31  O   UNL     1      94.783 -60.404 103.259  1.00  0.00    -0.550 OA
ATOM     32  O   UNL     1      95.137 -61.140 105.388  1.00  0.00    -0.550 OA
ENDBRANCH   1  30
BRANCH  27  33
ATOM     33  O   UNL     1      87.702 -69.954 101.432  1.00  0.00    -0.393 OA
ATOM     34  H   UNL     1      87.696 -70.451 100.574  1.00  0.00     0.210 HD
ENDBRANCH  27  33
TORSDOF 2
ENDMDL
MODEL 6
REMARK VINA RESULT:    -7.231      3.193      9.763
REMARK INTER + INTRA:          -8.100
REMARK INTER:                  -7.877
REMARK INTRA:                  -0.223
REMARK UNBOUND:                -0.235
REMARK SMILES C[C@H]1[C@@H](C)CC[C@@]2(C(=O)[O-])CC[C@]3(C)C(=CC[C@H]4[C@]5(C)CC[C@@H](O)C(C)(C)[C@@H]5CC[C@]43C)[C@@H]12
REMARK SMILES IDX 7 1 6 2 11 3 33 4 5 5 12 6 15 7 2 8 3 9 13 10 16 11 1 12
REMARK SMILES IDX 4 13 14 14 31 15 17 16 18 17 30 18 32 19 19 20 29 21 28 22
REMARK SMILES IDX 21 23 20 24 25 25 22 26 23 27 26 28 27 29 8 30 9 31 10 32
REMARK SMILES IDX 24 33
REMARK H PARENT 24 34
REMARK Flexibility Score: inf
ROOT
ATOM      1  C   UNL     1      89.542 -69.038 102.268  1.00  0.00     0.017 C 
ATOM      2  C   UNL     1      89.381 -70.142 101.170  1.00  0.00     0.014 C 
ATOM      3  C   UNL     1      90.747 -69.430 103.165  1.00  0.00     0.014 C 
ATOM      4  C   UNL     1      89.683 -67.585 101.586  1.00  0.00     0.030 C 
ATOM      5  C   UNL     1      88.160 -69.935 100.249  1.00  0.00     0.004 C 
ATOM      6  C   UNL     1      92.087 -68.982 102.592  1.00  0.00     0.013 C 
ATOM      7  C   UNL     1      91.088 -66.918 101.598  1.00  0.00    -0.063 C 
ATOM      8  C   UNL     1      89.015 -67.534 100.151  1.00  0.00    -0.003 C 
ATOM      9  C   UNL     1      87.769 -68.454 100.100  1.00  0.00    -0.011 C 
ATOM     10  C   UNL     1      92.217 -67.435 102.496  1.00  0.00    -0.006 C 
ATOM     11  C   UNL     1      91.214 -65.699 101.015  1.00  0.00    -0.027 C 
ATOM     12  C   UNL     1      90.019 -67.812  98.995  1.00  0.00     0.008 C 
ATOM     13  C   UNL     1      86.880 -68.224  98.864  1.00  0.00     0.008 C 
ATOM     14  C   UNL     1      91.954 -66.844 103.912  1.00  0.00     0.017 C 
ATOM     15  C   UNL     1      93.665 -67.012 101.926  1.00  0.00    -0.020 C 
ATOM     16  C   UNL     1      92.528 -65.079 100.625  1.00  0.00     0.032 C 
ATOM     17  C   UNL     1      93.722 -65.475 101.525  1.00  0.00     0.006 C 
ATOM     18  C   UNL     1      94.833 -67.375 102.917  1.00  0.00     0.008 C 
ATOM     19  C   UNL     1      93.952 -67.829 100.614  1.00  0.00     0.012 C 
ATOM     20  C   UNL     1      94.200 -64.355 102.589  1.00  0.00    -0.025 C 
ATOM     21  C   UNL     1      95.817 -66.235 103.206  1.00  0.00     0.005 C 
ATOM     22  C   UNL     1      95.063 -65.000 103.761  1.00  0.00     0.003 C 
ATOM     23  C   UNL     1      95.097 -63.339 101.781  1.00  0.00     0.010 C 
ATOM     24  C   UNL     1      92.981 -63.558 103.185  1.00  0.00     0.012 C 
ATOM     25  C   UNL     1      95.983 -63.985 104.589  1.00  0.00    -0.006 C 
ATOM     26  C   UNL     1      95.875 -62.337 102.626  1.00  0.00     0.033 C 
ATOM     27  C   UNL     1      96.784 -63.065 103.623  1.00  0.00     0.120 C 
ATOM     28  C   UNL     1      95.121 -63.139 105.571  1.00  0.00     0.014 C 
ATOM     29  C   UNL     1      97.002 -64.740 105.491  1.00  0.00     0.014 C 
ENDROOT
BRANCH   1  30
ATOM     30  C   UNL     1      88.314 -69.116 103.185  1.00  0.00     0.048 C 
ATOM     31  O   UNL     1      87.920 -70.236 103.616  1.00  0.00    -0.550 OA
ATOM     32  O   UNL     1      87.667 -67.970 103.639  1.00  0.00    -0.550 OA
ENDBRANCH   1  30
BRANCH  27  33
ATOM     33  O   UNL     1      97.600 -62.152 104.321  1.00  0.00    -0.393 OA
ATOM     34  H   UNL     1      98.344 -62.657 104.741  1.00  0.00     0.210 HD
ENDBRANCH  27  33
TORSDOF 2
ENDMDL
MODEL 7
REMARK VINA RESULT:    -7.090      2.673      4.912
REMARK INTER + INTRA:          -7.947
REMARK INTER:                  -7.847
REMARK INTRA:                  -0.100
REMARK UNBOUND:                -0.235
REMARK SMILES C[C@H]1[C@@H](C)CC[C@@]2(C(=O)[O-])CC[C@]3(C)C(=CC[C@H]4[C@]5(C)CC[C@@H](O)C(C)(C)[C@@H]5CC[C@]43C)[C@@H]12
REMARK SMILES IDX 7 1 6 2 11 3 33 4 5 5 12 6 15 7 2 8 3 9 13 10 16 11 1 12
REMARK SMILES IDX 4 13 14 14 31 15 17 16 18 17 30 18 32 19 19 20 29 21 28 22
REMARK SMILES IDX 21 23 20 24 25 25 22 26 23 27 26 28 27 29 8 30 9 31 10 32
REMARK SMILES IDX 24 33
REMARK H PARENT 24 34
REMARK Flexibility Score: inf
ROOT
ATOM      1  C   UNL     1     104.456 -61.301 103.846  1.00  0.00     0.017 C 
ATOM      2  C   UNL     1     105.766 -61.673 104.616  1.00  0.00     0.014 C 
ATOM      3  C   UNL     1     103.991 -62.558 103.062  1.00  0.00     0.014 C 
ATOM      4  C   UNL     1     103.350 -60.725 104.867  1.00  0.00     0.030 C 
ATOM      5  C   UNL     1     106.402 -60.491 105.378  1.00  0.00     0.004 C 
ATOM      6  C   UNL     1     103.160 -63.516 103.908  1.00  0.00     0.013 C 
ATOM      7  C   UNL     1     102.142 -61.641 105.212  1.00  0.00    -0.063 C 
ATOM      8  C   UNL     1     104.006 -60.097 106.164  1.00  0.00    -0.003 C 
ATOM      9  C   UNL     1     105.367 -59.440 105.818  1.00  0.00    -0.011 C 
ATOM     10  C   UNL     1     101.817 -62.891 104.386  1.00  0.00    -0.006 C 
ATOM     11  C   UNL     1     101.214 -61.165 106.080  1.00  0.00    -0.027 C 
ATOM     12  C   UNL     1     104.105 -61.098 107.350  1.00  0.00     0.008 C 
ATOM     13  C   UNL     1     105.918 -58.534 106.935  1.00  0.00     0.008 C 
ATOM     14  C   UNL     1     101.046 -62.394 103.129  1.00  0.00     0.017 C 
ATOM     15  C   UNL     1     100.958 -63.956 105.239  1.00  0.00    -0.020 C 
ATOM     16  C   UNL     1     100.199 -62.020 106.787  1.00  0.00     0.032 C 
ATOM     17  C   UNL     1      99.742 -63.269 105.998  1.00  0.00     0.006 C 
ATOM     18  C   UNL     1     100.459 -65.167 104.365  1.00  0.00     0.008 C 
ATOM     19  C   UNL     1     101.881 -64.582 106.346  1.00  0.00     0.012 C 
ATOM     20  C   UNL     1      98.282 -63.167 105.309  1.00  0.00    -0.025 C 
ATOM     21  C   UNL     1      98.967 -65.492 104.498  1.00  0.00     0.005 C 
ATOM     22  C   UNL     1      98.112 -64.247 104.151  1.00  0.00     0.003 C 
ATOM     23  C   UNL     1      97.237 -63.462 106.453  1.00  0.00     0.010 C 
ATOM     24  C   UNL     1      97.998 -61.722 104.753  1.00  0.00     0.012 C 
ATOM     25  C   UNL     1      96.605 -64.582 103.727  1.00  0.00    -0.006 C 
ATOM     26  C   UNL     1      95.801 -63.678 105.989  1.00  0.00     0.033 C 
ATOM     27  C   UNL     1      95.728 -64.836 104.986  1.00  0.00     0.120 C 
ATOM     28  C   UNL     1      96.010 -63.431 102.862  1.00  0.00     0.014 C 
ATOM     29  C   UNL     1      96.531 -65.847 102.824  1.00  0.00     0.014 C 
ENDROOT
BRANCH   1  30
ATOM     30  C   UNL     1     104.828 -60.269 102.773  1.00  0.00     0.048 C 
ATOM     31  O   UNL     1     105.500 -60.624 101.764  1.00  0.00    -0.550 OA
ATOM     32  O   UNL     1     104.363 -58.958 102.828  1.00  0.00    -0.550 OA
ENDBRANCH   1  30
BRANCH  27  33
ATOM     33  O   UNL     1      94.391 -65.126 104.648  1.00  0.00    -0.393 OA
ATOM     34  H   UNL     1      93.967 -65.585 105.418  1.00  0.00     0.210 HD
ENDBRANCH  27  33
TORSDOF 2
ENDMDL
MODEL 8
REMARK VINA RESULT:    -7.060      2.250      8.690
REMARK INTER + INTRA:          -7.915
REMARK INTER:                  -7.732
REMARK INTRA:                  -0.183
REMARK UNBOUND:                -0.235
REMARK SMILES C[C@H]1[C@@H](C)CC[C@@]2(C(=O)[O-])CC[C@]3(C)C(=CC[C@H]4[C@]5(C)CC[C@@H](O)C(C)(C)[C@@H]5CC[C@]43C)[C@@H]12
REMARK SMILES IDX 7 1 6 2 11 3 33 4 5 5 12 6 15 7 2 8 3 9 13 10 16 11 1 12
REMARK SMILES IDX 4 13 14 14 31 15 17 16 18 17 30 18 32 19 19 20 29 21 28 22
REMARK SMILES IDX 21 23 20 24 25 25 22 26 23 27 26 28 27 29 8 30 9 31 10 32
REMARK SMILES IDX 24 33
REMARK H PARENT 24 34
REMARK Flexibility Score: inf
ROOT
ATOM      1  C   UNL     1      91.525 -64.959 100.008  1.00  0.00     0.017 C 
ATOM      2  C   UNL     1      89.990 -65.126 100.267  1.00  0.00     0.014 C 
ATOM      3  C   UNL     1      91.924 -63.516 100.420  1.00  0.00     0.014 C 
ATOM      4  C   UNL     1      92.352 -66.108 100.777  1.00  0.00     0.030 C 
ATOM      5  C   UNL     1      89.424 -66.490  99.820  1.00  0.00     0.004 C 
ATOM      6  C   UNL     1      92.214 -63.381 101.911  1.00  0.00     0.013 C 
ATOM      7  C   UNL     1      93.156 -65.693 102.041  1.00  0.00    -0.063 C 
ATOM      8  C   UNL     1      91.476 -67.403 101.032  1.00  0.00    -0.003 C 
ATOM      9  C   UNL     1      90.472 -67.616  99.869  1.00  0.00    -0.011 C 
ATOM     10  C   UNL     1      93.441 -64.222 102.367  1.00  0.00    -0.006 C 
ATOM     11  C   UNL     1      93.845 -66.659 102.699  1.00  0.00    -0.027 C 
ATOM     12  C   UNL     1      90.791 -67.417 102.429  1.00  0.00     0.008 C 
ATOM     13  C   UNL     1      89.812 -69.007  99.869  1.00  0.00     0.008 C 
ATOM     14  C   UNL     1      94.658 -63.809 101.489  1.00  0.00     0.017 C 
ATOM     15  C   UNL     1      93.732 -64.011 103.939  1.00  0.00    -0.020 C 
ATOM     16  C   UNL     1      94.372 -66.519 104.101  1.00  0.00     0.032 C 
ATOM     17  C   UNL     1      94.767 -65.078 104.502  1.00  0.00     0.006 C 
ATOM     18  C   UNL     1      94.200 -62.546 104.275  1.00  0.00     0.008 C 
ATOM     19  C   UNL     1      92.393 -64.223 104.735  1.00  0.00     0.012 C 
ATOM     20  C   UNL     1      96.354 -64.767 104.521  1.00  0.00    -0.025 C 
ATOM     21  C   UNL     1      95.465 -62.451 105.136  1.00  0.00     0.005 C 
ATOM     22  C   UNL     1      96.638 -63.201 104.456  1.00  0.00     0.003 C 
ATOM     23  C   UNL     1      96.894 -65.336 105.890  1.00  0.00     0.010 C 
ATOM     24  C   UNL     1      97.109 -65.507 103.356  1.00  0.00     0.012 C 
ATOM     25  C   UNL     1      98.089 -62.735 104.945  1.00  0.00    -0.006 C 
ATOM     26  C   UNL     1      98.319 -64.931 106.252  1.00  0.00     0.033 C 
ATOM     27  C   UNL     1      98.446 -63.403 106.304  1.00  0.00     0.120 C 
ATOM     28  C   UNL     1      99.163 -63.064 103.867  1.00  0.00     0.014 C 
ATOM     29  C   UNL     1      98.162 -61.192 105.133  1.00  0.00     0.014 C 
ENDROOT
BRANCH   1  30
ATOM     30  C   UNL     1      91.746 -65.022  98.491  1.00  0.00     0.048 C 
ATOM     31  O   UNL     1      92.567 -65.851  98.007  1.00  0.00    -0.550 OA
ATOM     32  O   UNL     1      90.992 -64.251  97.610  1.00  0.00    -0.550 OA
ENDBRANCH   1  30
BRANCH  27  33
ATOM     33  O   UNL     1      99.723 -63.019 106.760  1.00  0.00    -0.393 OA
ATOM     34  H   UNL     1     100.257 -62.721 105.979  1.00  0.00     0.210 HD
ENDBRANCH  27  33
TORSDOF 2
ENDMDL
MODEL 9
REMARK VINA RESULT:    -6.698      2.340      8.711
REMARK INTER + INTRA:          -7.521
REMARK INTER:                  -7.287
REMARK INTRA:                  -0.234
REMARK UNBOUND:                -0.235
REMARK SMILES C[C@H]1[C@@H](C)CC[C@@]2(C(=O)[O-])CC[C@]3(C)C(=CC[C@H]4[C@]5(C)CC[C@@H](O)C(C)(C)[C@@H]5CC[C@]43C)[C@@H]12
REMARK SMILES IDX 7 1 6 2 11 3 33 4 5 5 12 6 15 7 2 8 3 9 13 10 16 11 1 12
REMARK SMILES IDX 4 13 14 14 31 15 17 16 18 17 30 18 32 19 19 20 29 21 28 22
REMARK SMILES IDX 21 23 20 24 25 25 22 26 23 27 26 28 27 29 8 30 9 31 10 32
REMARK SMILES IDX 24 33
REMARK H PARENT 24 34
REMARK Flexibility Score: inf
ROOT
ATOM      1  C   UNL     1      91.974 -66.812  99.931  1.00  0.00     0.017 C 
ATOM      2  C   UNL     1      90.641 -66.152  99.444  1.00  0.00     0.014 C 
ATOM      3  C   UNL     1      93.152 -65.938  99.422  1.00  0.00     0.014 C 
ATOM      4  C   UNL     1      91.951 -67.006 101.530  1.00  0.00     0.030 C 
ATOM      5  C   UNL     1      89.375 -66.961  99.800  1.00  0.00     0.004 C 
ATOM      6  C   UNL     1      93.461 -64.760 100.339  1.00  0.00     0.013 C 
ATOM      7  C   UNL     1      92.840 -66.058 102.384  1.00  0.00    -0.063 C 
ATOM      8  C   UNL     1      90.476 -67.104 102.097  1.00  0.00    -0.003 C 
ATOM      9  C   UNL     1      89.547 -67.806 101.074  1.00  0.00    -0.011 C 
ATOM     10  C   UNL     1      93.943 -65.202 101.750  1.00  0.00    -0.006 C 
ATOM     11  C   UNL     1      92.816 -66.210 103.732  1.00  0.00    -0.027 C 
ATOM     12  C   UNL     1      89.912 -65.738 102.584  1.00  0.00     0.008 C 
ATOM     13  C   UNL     1      88.189 -68.231 101.661  1.00  0.00     0.008 C 
ATOM     14  C   UNL     1      95.170 -66.141 101.564  1.00  0.00     0.017 C 
ATOM     15  C   UNL     1      94.297 -63.923 102.666  1.00  0.00    -0.020 C 
ATOM     16  C   UNL     1      93.318 -65.183 104.709  1.00  0.00     0.032 C 
ATOM     17  C   UNL     1      94.491 -64.318 104.193  1.00  0.00     0.006 C 
ATOM     18  C   UNL     1      95.544 -63.124 102.132  1.00  0.00     0.008 C 
ATOM     19  C   UNL     1      93.092 -62.914 102.614  1.00  0.00     0.012 C 
ATOM     20  C   UNL     1      95.952 -64.700 104.774  1.00  0.00    -0.025 C 
ATOM     21  C   UNL     1      96.614 -62.811 103.184  1.00  0.00     0.005 C 
ATOM     22  C   UNL     1      97.112 -64.119 103.851  1.00  0.00     0.003 C 
ATOM     23  C   UNL     1      96.041 -64.037 106.202  1.00  0.00     0.010 C 
ATOM     24  C   UNL     1      96.122 -66.255 104.949  1.00  0.00     0.012 C 
ATOM     25  C   UNL     1      98.554 -63.999 104.536  1.00  0.00    -0.006 C 
ATOM     26  C   UNL     1      97.426 -64.040 106.841  1.00  0.00     0.033 C 
ATOM     27  C   UNL     1      98.438 -63.328 105.935  1.00  0.00     0.120 C 
ATOM     28  C   UNL     1      99.225 -65.400 104.649  1.00  0.00     0.014 C 
ATOM     29  C   UNL     1      99.531 -63.150 103.673  1.00  0.00     0.014 C 
ENDROOT
BRANCH   1  30
ATOM     30  C   UNL     1      92.120 -68.152  99.200  1.00  0.00     0.048 C 
ATOM     31  O   UNL     1      92.053 -68.193  97.939  1.00  0.00    -0.550 OA
ATOM     32  O   UNL     1      92.423 -69.328  99.882  1.00  0.00    -0.550 OA
ENDBRANCH   1  30
BRANCH  27  33
ATOM     33  O   UNL     1      99.691 -63.214 106.570  1.00  0.00    -0.393 OA
ATOM     34  H   UNL     1     100.332 -63.809 106.103  1.00  0.00     0.210 HD
ENDBRANCH  27  33
TORSDOF 2
ENDMDL
