MODEL 1
REMARK VINA RESULT:    -3.840      0.000      0.000
REMARK INTER + INTRA:          -5.690
REMARK INTER:                  -5.412
REMARK INTRA:                  -0.278
REMARK UNBOUND:                -0.278
REMARK SMILES CC1=CCC(=C(C)C)CCC(C)=CCC1
REMARK SMILES IDX 5 1 6 2 7 3 8 4 9 5 10 6 11 7 12 8 13 9 4 11 3 12 2 13 1 14
REMARK SMILES IDX 15 15 14 16
REMARK H PARENT
REMARK Flexibility Score: 60.00
ROOT
ATOM      1  C   UNL     1      32.295  10.319  32.804  1.00  0.00    -0.067 C 
ATOM      2  C   UNL     1      32.044  11.141  31.736  1.00  0.00    -0.077 C 
ATOM      3  C   UNL     1      32.012  10.611  30.318  1.00  0.00     0.039 C 
ATOM      4  C   UNL     1      31.802  12.623  31.924  1.00  0.00     0.039 C 
ENDROOT
BRANCH   1   5
ATOM      5  C   UNL     1      32.171  10.812  34.246  1.00  0.00     0.035 C 
BRANCH   5   6
ATOM      6  C   UNL     1      30.777  10.599  34.865  1.00  0.00     0.035 C 
BRANCH   6   7
ATOM      7  C   UNL     1      30.857   9.997  36.256  1.00  0.00    -0.077 C 
ATOM      8  C   UNL     1      31.487  10.815  37.356  1.00  0.00     0.039 C 
ATOM      9  C   UNL     1      30.358   8.782  36.577  1.00  0.00    -0.028 CG0
ATOM     10  G   UNL     1      29.830   7.763  35.598  1.00  0.00     0.000 G0
ENDBRANCH   6   7
ENDBRANCH   5   6
ENDBRANCH   1   5
BRANCH   1  11
ATOM     11  C   UNL     1      32.564   8.830  32.625  1.00  0.00     0.058 C 
BRANCH  11  12
ATOM     12  C   UNL     1      31.380   7.918  32.349  1.00  0.00    -0.024 C 
ATOM     13  C   UNL     1      30.592   7.246  33.228  1.00  0.00    -0.077 C 
ATOM     14  C   UNL     1      29.380   6.539  32.675  1.00  0.00     0.039 C 
BRANCH  13  15
ATOM     15  C   UNL     1      30.876   7.096  34.711  1.00  0.00     0.034 C 
BRANCH  15  16
ATOM     16  C   UNL     1      29.822   7.750  35.614  1.00  0.00     0.032 CG0
ATOM     17  G   UNL     1      30.357   8.791  36.565  1.00  0.00     0.000 G0
ENDBRANCH  15  16
ENDBRANCH  13  15
ENDBRANCH  11  12
ENDBRANCH   1  11
TORSDOF 0
ENDMDL
MODEL 2
REMARK VINA RESULT:    -3.806      4.233      7.150
REMARK INTER + INTRA:          -5.641
REMARK INTER:                  -5.238
REMARK INTRA:                  -0.404
REMARK UNBOUND:                -0.278
REMARK SMILES CC1=CCC(=C(C)C)CCC(C)=CCC1
REMARK SMILES IDX 5 1 6 2 7 3 8 4 9 5 10 6 11 7 12 8 13 9 4 11 3 12 2 13 1 14
REMARK SMILES IDX 15 15 14 16
REMARK H PARENT
REMARK Flexibility Score: 60.00
ROOT
ATOM      1  C   UNL     1      31.123  10.138  30.727  1.00  0.00    -0.067 C 
ATOM      2  C   UNL     1      32.003  10.229  31.774  1.00  0.00    -0.077 C 
ATOM      3  C   UNL     1      32.673  11.539  32.134  1.00  0.00     0.039 C 
ATOM      4  C   UNL     1      32.359   9.020  32.612  1.00  0.00     0.039 C 
ENDROOT
BRANCH   1   5
ATOM      5  C   UNL     1      30.323   8.862  30.458  1.00  0.00     0.035 C 
BRANCH   5   6
ATOM      6  C   UNL     1      30.720   8.136  29.159  1.00  0.00     0.035 C 
BRANCH   6   7
ATOM      7  C   UNL     1      29.524   7.891  28.255  1.00  0.00    -0.077 C 
ATOM      8  C   UNL     1      28.484   6.891  28.697  1.00  0.00     0.039 C 
ATOM      9  C   UNL     1      29.316   8.550  27.093  1.00  0.00    -0.028 CG0
ATOM     10  G   UNL     1      30.303   9.468  26.416  1.00  0.00     0.000 G0
ENDBRANCH   6   7
ENDBRANCH   5   6
ENDBRANCH   1   5
BRANCH   1  11
ATOM     11  C   UNL     1      30.776  11.343  29.863  1.00  0.00     0.058 C 
BRANCH  11  12
ATOM     12  C   UNL     1      31.671  11.650  28.673  1.00  0.00    -0.024 C 
ATOM     13  C   UNL     1      31.386  11.581  27.346  1.00  0.00    -0.077 C 
ATOM     14  C   UNL     1      32.426  12.103  26.385  1.00  0.00     0.039 C 
BRANCH  13  15
ATOM     15  C   UNL     1      30.136  10.957  26.757  1.00  0.00     0.034 C 
BRANCH  15  16
ATOM     16  C   UNL     1      30.290   9.471  26.405  1.00  0.00     0.032 CG0
ATOM     17  G   UNL     1      29.323   8.549  27.105  1.00  0.00     0.000 G0
ENDBRANCH  15  16
ENDBRANCH  13  15
ENDBRANCH  11  12
ENDBRANCH   1  11
TORSDOF 0
ENDMDL
MODEL 3
REMARK VINA RESULT:    -3.735      2.950      6.116
REMARK INTER + INTRA:          -5.542
REMARK INTER:                  -5.296
REMARK INTRA:                  -0.246
REMARK UNBOUND:                -0.278
REMARK SMILES CC1=CCC(=C(C)C)CCC(C)=CCC1
REMARK SMILES IDX 5 1 6 2 7 3 8 4 9 5 10 6 11 7 12 8 13 9 4 11 3 12 2 13 1 14
REMARK SMILES IDX 15 15 14 16
REMARK H PARENT
REMARK Flexibility Score: 60.00
ROOT
ATOM      1  C   UNL     1      31.357   7.673  32.583  1.00  0.00    -0.067 C 
ATOM      2  C   UNL     1      30.684   7.309  33.720  1.00  0.00    -0.077 C 
ATOM      3  C   UNL     1      31.108   7.810  35.085  1.00  0.00     0.039 C 
ATOM      4  C   UNL     1      29.493   6.377  33.666  1.00  0.00     0.039 C 
ENDROOT
BRANCH   1   5
ATOM      5  C   UNL     1      30.842   7.305  31.190  1.00  0.00     0.035 C 
BRANCH   5   6
ATOM      6  C   UNL     1      29.914   8.362  30.565  1.00  0.00     0.035 C 
BRANCH   6   7
ATOM      7  C   UNL     1      30.230   8.602  29.099  1.00  0.00    -0.077 C 
ATOM      8  C   UNL     1      29.986   7.481  28.120  1.00  0.00     0.039 C 
ATOM      9  C   UNL     1      30.680   9.781  28.612  1.00  0.00    -0.028 CG0
ATOM     10  G   UNL     1      31.122  10.961  29.441  1.00  0.00     0.000 G0
ENDBRANCH   6   7
ENDBRANCH   5   6
ENDBRANCH   1   5
BRANCH   1  11
ATOM     11  C   UNL     1      32.571   8.592  32.627  1.00  0.00     0.058 C 
BRANCH  11  12
ATOM     12  C   UNL     1      32.332  10.087  32.756  1.00  0.00    -0.024 C 
ATOM     13  C   UNL     1      32.153  11.013  31.779  1.00  0.00    -0.077 C 
ATOM     14  C   UNL     1      31.772  12.410  32.207  1.00  0.00     0.039 C 
BRANCH  13  15
ATOM     15  C   UNL     1      32.372  10.769  30.298  1.00  0.00     0.034 C 
BRANCH  15  16
ATOM     16  C   UNL     1      31.116  10.975  29.442  1.00  0.00     0.032 CG0
ATOM     17  G   UNL     1      30.704   9.780  28.619  1.00  0.00     0.000 G0
ENDBRANCH  15  16
ENDBRANCH  13  15
ENDBRANCH  11  12
ENDBRANCH   1  11
TORSDOF 0
ENDMDL
MODEL 4
REMARK VINA RESULT:    -3.731      4.008      6.942
REMARK INTER + INTRA:          -5.536
REMARK INTER:                  -5.147
REMARK INTRA:                  -0.389
REMARK UNBOUND:                -0.278
REMARK SMILES CC1=CCC(=C(C)C)CCC(C)=CCC1
REMARK SMILES IDX 5 1 6 2 7 3 8 4 9 5 10 6 11 7 12 8 13 9 4 11 3 12 2 13 1 14
REMARK SMILES IDX 15 15 14 16
REMARK H PARENT
REMARK Flexibility Score: 60.00
ROOT
ATOM      1  C   UNL     1      30.110   8.265  28.662  1.00  0.00    -0.067 C 
ATOM      2  C   UNL     1      29.967   6.924  28.419  1.00  0.00    -0.077 C 
ATOM      3  C   UNL     1      29.537   5.963  29.508  1.00  0.00     0.039 C 
ATOM      4  C   UNL     1      30.245   6.337  27.052  1.00  0.00     0.039 C 
ENDROOT
BRANCH   1   5
ATOM      5  C   UNL     1      30.385   9.263  27.536  1.00  0.00     0.035 C 
BRANCH   5   6
ATOM      6  C   UNL     1      31.802   9.864  27.562  1.00  0.00     0.035 C 
BRANCH   6   7
ATOM      7  C   UNL     1      31.779  11.380  27.493  1.00  0.00    -0.077 C 
ATOM      8  C   UNL     1      31.367  12.033  26.196  1.00  0.00     0.039 C 
ATOM      9  C   UNL     1      32.067  12.184  28.542  1.00  0.00    -0.028 CG0
ATOM     10  G   UNL     1      32.637  11.731  29.863  1.00  0.00     0.000 G0
ENDBRANCH   6   7
ENDBRANCH   5   6
ENDBRANCH   1   5
BRANCH   1  11
ATOM     11  C   UNL     1      29.856   8.863  30.040  1.00  0.00     0.058 C 
BRANCH  11  12
ATOM     12  C   UNL     1      31.014   8.912  31.023  1.00  0.00    -0.024 C 
ATOM     13  C   UNL     1      31.702   9.989  31.483  1.00  0.00    -0.077 C 
ATOM     14  C   UNL     1      32.707   9.752  32.584  1.00  0.00     0.039 C 
BRANCH  13  15
ATOM     15  C   UNL     1      31.588  11.396  30.928  1.00  0.00     0.034 C 
BRANCH  15  16
ATOM     16  C   UNL     1      32.636  11.728  29.858  1.00  0.00     0.032 CG0
ATOM     17  G   UNL     1      32.072  12.183  28.535  1.00  0.00     0.000 G0
ENDBRANCH  15  16
ENDBRANCH  13  15
ENDBRANCH  11  12
ENDBRANCH   1  11
TORSDOF 0
ENDMDL
MODEL 5
REMARK VINA RESULT:    -3.704      3.271      4.935
REMARK INTER + INTRA:          -5.497
REMARK INTER:                  -5.205
REMARK INTRA:                  -0.292
REMARK UNBOUND:                -0.278
REMARK SMILES CC1=CCC(=C(C)C)CCC(C)=CCC1
REMARK SMILES IDX 5 1 6 2 7 3 8 4 9 5 10 6 11 7 12 8 13 9 4 11 3 12 2 13 1 14
REMARK SMILES IDX 15 15 14 16
REMARK H PARENT
REMARK Flexibility Score: 60.00
ROOT
ATOM      1  C   UNL     1      31.998  10.536  27.808  1.00  0.00    -0.067 C 
ATOM      2  C   UNL     1      31.566  11.550  26.993  1.00  0.00    -0.077 C 
ATOM      3  C   UNL     1      31.053  11.278  25.594  1.00  0.00     0.039 C 
ATOM      4  C   UNL     1      31.596  12.993  27.448  1.00  0.00     0.039 C 
ENDROOT
BRANCH   1   5
ATOM      5  C   UNL     1      32.364  10.781  29.273  1.00  0.00     0.035 C 
BRANCH   5   6
ATOM      6  C   UNL     1      31.225  10.478  30.264  1.00  0.00     0.035 C 
BRANCH   6   7
ATOM      7  C   UNL     1      31.689   9.601  31.413  1.00  0.00    -0.077 C 
ATOM      8  C   UNL     1      32.760  10.132  32.334  1.00  0.00     0.039 C 
ATOM      9  C   UNL     1      31.167   8.384  31.686  1.00  0.00    -0.028 CG0
ATOM     10  G   UNL     1      30.205   7.625  30.806  1.00  0.00     0.000 G0
ENDBRANCH   6   7
ENDBRANCH   5   6
ENDBRANCH   1   5
BRANCH   1  11
ATOM     11  C   UNL     1      31.995   9.082  27.352  1.00  0.00     0.058 C 
BRANCH  11  12
ATOM     12  C   UNL     1      30.665   8.347  27.317  1.00  0.00    -0.024 C 
ATOM     13  C   UNL     1      30.097   7.557  28.265  1.00  0.00    -0.077 C 
ATOM     14  C   UNL     1      28.685   7.085  28.020  1.00  0.00     0.039 C 
BRANCH  13  15
ATOM     15  C   UNL     1      30.796   7.060  29.515  1.00  0.00     0.034 C 
BRANCH  15  16
ATOM     16  C   UNL     1      30.195   7.598  30.819  1.00  0.00     0.032 CG0
ATOM     17  G   UNL     1      31.149   8.383  31.684  1.00  0.00     0.000 G0
ENDBRANCH  15  16
ENDBRANCH  13  15
ENDBRANCH  11  12
ENDBRANCH   1  11
TORSDOF 0
ENDMDL
MODEL 6
REMARK VINA RESULT:    -3.628      3.615      6.112
REMARK INTER + INTRA:          -5.391
REMARK INTER:                  -4.997
REMARK INTRA:                  -0.395
REMARK UNBOUND:                -0.278
REMARK SMILES CC1=CCC(=C(C)C)CCC(C)=CCC1
REMARK SMILES IDX 5 1 6 2 7 3 8 4 9 5 10 6 11 7 12 8 13 9 4 11 3 12 2 13 1 14
REMARK SMILES IDX 15 15 14 16
REMARK H PARENT
REMARK Flexibility Score: 60.00
ROOT
ATOM      1  C   UNL     1      30.469   7.773  28.491  1.00  0.00    -0.067 C 
ATOM      2  C   UNL     1      29.504   7.119  27.769  1.00  0.00    -0.077 C 
ATOM      3  C   UNL     1      29.479   7.168  26.255  1.00  0.00     0.039 C 
ATOM      4  C   UNL     1      28.409   6.329  28.452  1.00  0.00     0.039 C 
ENDROOT
BRANCH   1   5
ATOM      5  C   UNL     1      30.597   7.598  30.005  1.00  0.00     0.035 C 
BRANCH   5   6
ATOM      6  C   UNL     1      30.312   8.879  30.811  1.00  0.00     0.035 C 
BRANCH   6   7
ATOM      7  C   UNL     1      31.482   9.267  31.697  1.00  0.00    -0.077 C 
ATOM      8  C   UNL     1      31.829   8.371  32.860  1.00  0.00     0.039 C 
ATOM      9  C   UNL     1      32.260  10.351  31.479  1.00  0.00    -0.028 CG0
ATOM     10  G   UNL     1      31.987  11.438  30.469  1.00  0.00     0.000 G0
ENDBRANCH   6   7
ENDBRANCH   5   6
ENDBRANCH   1   5
BRANCH   1  11
ATOM     11  C   UNL     1      31.561   8.591  27.815  1.00  0.00     0.058 C 
BRANCH  11  12
ATOM     12  C   UNL     1      31.250  10.032  27.446  1.00  0.00    -0.024 C 
ATOM     13  C   UNL     1      31.801  11.178  27.924  1.00  0.00    -0.077 C 
ATOM     14  C   UNL     1      31.407  12.471  27.253  1.00  0.00     0.039 C 
BRANCH  13  15
ATOM     15  C   UNL     1      32.725  11.263  29.123  1.00  0.00     0.034 C 
BRANCH  15  16
ATOM     16  C   UNL     1      31.995  11.440  30.460  1.00  0.00     0.032 CG0
ATOM     17  G   UNL     1      32.260  10.358  31.477  1.00  0.00     0.000 G0
ENDBRANCH  15  16
ENDBRANCH  13  15
ENDBRANCH  11  12
ENDBRANCH   1  11
TORSDOF 0
ENDMDL
MODEL 7
REMARK VINA RESULT:    -3.552      4.982      7.996
REMARK INTER + INTRA:          -5.284
REMARK INTER:                  -5.012
REMARK INTRA:                  -0.272
REMARK UNBOUND:                -0.278
REMARK SMILES CC1=CCC(=C(C)C)CCC(C)=CCC1
REMARK SMILES IDX 5 1 6 2 7 3 8 4 9 5 10 6 11 7 12 8 13 9 4 11 3 12 2 13 1 14
REMARK SMILES IDX 15 15 14 16
REMARK H PARENT
REMARK Flexibility Score: 60.00
ROOT
ATOM      1  C   UNL     1      31.906  10.427  29.038  1.00  0.00    -0.067 C 
ATOM      2  C   UNL     1      32.031  10.719  30.372  1.00  0.00    -0.077 C 
ATOM      3  C   UNL     1      32.532  12.068  30.844  1.00  0.00     0.039 C 
ATOM      4  C   UNL     1      31.688   9.700  31.436  1.00  0.00     0.039 C 
ENDROOT
BRANCH   1   5
ATOM      5  C   UNL     1      31.252   9.131  28.556  1.00  0.00     0.035 C 
BRANCH   5   6
ATOM      6  C   UNL     1      29.723   9.223  28.396  1.00  0.00     0.035 C 
BRANCH   6   7
ATOM      7  C   UNL     1      29.260   8.706  27.046  1.00  0.00    -0.077 C 
ATOM      8  C   UNL     1      29.407   7.233  26.752  1.00  0.00     0.039 C 
ATOM      9  C   UNL     1      28.682   9.484  26.102  1.00  0.00    -0.028 CG0
ATOM     10  G   UNL     1      28.584  10.989  26.147  1.00  0.00     0.000 G0
ENDBRANCH   6   7
ENDBRANCH   5   6
ENDBRANCH   1   5
BRANCH   1  11
ATOM     11  C   UNL     1      32.272  11.437  27.958  1.00  0.00     0.058 C 
BRANCH  11  12
ATOM     12  C   UNL     1      31.342  12.620  27.741  1.00  0.00    -0.024 C 
ATOM     13  C   UNL     1      30.269  12.727  26.915  1.00  0.00    -0.077 C 
ATOM     14  C   UNL     1      29.429  13.976  27.026  1.00  0.00     0.039 C 
BRANCH  13  15
ATOM     15  C   UNL     1      29.892  11.721  25.845  1.00  0.00     0.034 C 
BRANCH  15  16
ATOM     16  C   UNL     1      28.576  10.982  26.123  1.00  0.00     0.032 CG0
ATOM     17  G   UNL     1      28.674   9.478  26.098  1.00  0.00     0.000 G0
ENDBRANCH  15  16
ENDBRANCH  13  15
ENDBRANCH  11  12
ENDBRANCH   1  11
TORSDOF 0
ENDMDL
MODEL 8
REMARK VINA RESULT:    -3.533      3.291      5.767
REMARK INTER + INTRA:          -5.257
REMARK INTER:                  -4.881
REMARK INTRA:                  -0.376
REMARK UNBOUND:                -0.278
REMARK SMILES CC1=CCC(=C(C)C)CCC(C)=CCC1
REMARK SMILES IDX 5 1 6 2 7 3 8 4 9 5 10 6 11 7 12 8 13 9 4 11 3 12 2 13 1 14
REMARK SMILES IDX 15 15 14 16
REMARK H PARENT
REMARK Flexibility Score: 60.00
ROOT
ATOM      1  C   UNL     1      31.851  10.311  27.581  1.00  0.00    -0.067 C 
ATOM      2  C   UNL     1      31.585  10.877  26.361  1.00  0.00    -0.077 C 
ATOM      3  C   UNL     1      32.162  12.221  25.969  1.00  0.00     0.039 C 
ATOM      4  C   UNL     1      30.689  10.191  25.353  1.00  0.00     0.039 C 
ENDROOT
BRANCH   1   5
ATOM      5  C   UNL     1      31.407   8.887  27.922  1.00  0.00     0.035 C 
BRANCH   5   6
ATOM      6  C   UNL     1      30.188   8.819  28.860  1.00  0.00     0.035 C 
BRANCH   6   7
ATOM      7  C   UNL     1      30.346   7.744  29.921  1.00  0.00    -0.077 C 
ATOM      8  C   UNL     1      30.171   6.302  29.513  1.00  0.00     0.039 C 
ATOM      9  C   UNL     1      30.677   8.002  31.207  1.00  0.00    -0.028 CG0
ATOM     10  G   UNL     1      30.748   9.371  31.836  1.00  0.00     0.000 G0
ENDBRANCH   6   7
ENDBRANCH   5   6
ENDBRANCH   1   5
BRANCH   1  11
ATOM     11  C   UNL     1      32.732  11.004  28.612  1.00  0.00     0.058 C 
BRANCH  11  12
ATOM     12  C   UNL     1      32.054  11.829  29.693  1.00  0.00    -0.024 C 
ATOM     13  C   UNL     1      31.836  11.520  30.998  1.00  0.00    -0.077 C 
ATOM     14  C   UNL     1      31.277  12.605  31.885  1.00  0.00     0.039 C 
BRANCH  13  15
ATOM     15  C   UNL     1      32.046  10.150  31.613  1.00  0.00     0.034 C 
BRANCH  15  16
ATOM     16  C   UNL     1      30.746   9.369  31.850  1.00  0.00     0.032 CG0
ATOM     17  G   UNL     1      30.698   8.005  31.208  1.00  0.00     0.000 G0
ENDBRANCH  15  16
ENDBRANCH  13  15
ENDBRANCH  11  12
ENDBRANCH   1  11
TORSDOF 0
ENDMDL
MODEL 9
REMARK VINA RESULT:    -3.528      3.951      6.704
REMARK INTER + INTRA:          -5.249
REMARK INTER:                  -4.981
REMARK INTRA:                  -0.268
REMARK UNBOUND:                -0.278
REMARK SMILES CC1=CCC(=C(C)C)CCC(C)=CCC1
REMARK SMILES IDX 5 1 6 2 7 3 8 4 9 5 10 6 11 7 12 8 13 9 4 11 3 12 2 13 1 14
REMARK SMILES IDX 15 15 14 16
REMARK H PARENT
REMARK Flexibility Score: 60.00
ROOT
ATOM      1  C   UNL     1      31.580   9.414  30.958  1.00  0.00    -0.067 C 
ATOM      2  C   UNL     1      31.939   9.140  32.252  1.00  0.00    -0.077 C 
ATOM      3  C   UNL     1      32.400  10.233  33.194  1.00  0.00     0.039 C 
ATOM      4  C   UNL     1      31.906   7.728  32.796  1.00  0.00     0.039 C 
ENDROOT
BRANCH   1   5
ATOM      5  C   UNL     1      30.962   8.347  30.051  1.00  0.00     0.035 C 
BRANCH   5   6
ATOM      6  C   UNL     1      29.512   8.648  29.627  1.00  0.00     0.035 C 
BRANCH   6   7
ATOM      7  C   UNL     1      29.392   8.880  28.132  1.00  0.00    -0.077 C 
ATOM      8  C   UNL     1      29.976   7.848  27.197  1.00  0.00     0.039 C 
ATOM      9  C   UNL     1      28.755   9.940  27.586  1.00  0.00    -0.028 CG0
ATOM     10  G   UNL     1      28.242  11.140  28.342  1.00  0.00     0.000 G0
ENDBRANCH   6   7
ENDBRANCH   5   6
ENDBRANCH   1   5
BRANCH   1  11
ATOM     11  C   UNL     1      31.632  10.827  30.392  1.00  0.00     0.058 C 
BRANCH  11  12
ATOM     12  C   UNL     1      30.587  11.825  30.863  1.00  0.00    -0.024 C 
ATOM     13  C   UNL     1      29.535  12.349  30.183  1.00  0.00    -0.077 C 
ATOM     14  C   UNL     1      28.561  13.201  30.960  1.00  0.00     0.039 C 
BRANCH  13  15
ATOM     15  C   UNL     1      29.301  12.200  28.692  1.00  0.00     0.034 C 
BRANCH  15  16
ATOM     16  C   UNL     1      28.237  11.156  28.331  1.00  0.00     0.032 CG0
ATOM     17  G   UNL     1      28.755   9.949  27.589  1.00  0.00     0.000 G0
ENDBRANCH  15  16
ENDBRANCH  13  15
ENDBRANCH  11  12
ENDBRANCH   1  11
TORSDOF 0
ENDMDL
