MODEL 1
REMARK VINA RESULT:    -4.868      0.000      0.000
REMARK INTER + INTRA:          -6.662
REMARK INTER:                  -6.860
REMARK INTRA:                   0.198
REMARK UNBOUND:                 0.198
REMARK SMILES CC1=CCC(=C(C)C)C(=O)CC(C)=CCC1
REMARK SMILES IDX 12 1 14 2 13 3 15 4 16 5 2 6 1 7 3 8 11 10 9 11 10 12 5 13
REMARK SMILES IDX 6 14 7 15 8 16 4 17
REMARK H PARENT
REMARK Flexibility Score: 60.00
ROOT
ATOM      1  C   UNL     1      13.444 -17.305 -31.666  1.00  0.00    -0.070 C 
ATOM      2  C   UNL     1      13.689 -16.485 -30.618  1.00  0.00    -0.027 C 
ATOM      3  C   UNL     1      13.588 -16.740 -33.056  1.00  0.00     0.039 C 
ENDROOT
BRANCH   2   4
ATOM      4  C   UNL     1      13.735 -16.919 -29.175  1.00  0.00     0.032 C 
BRANCH   4   5
ATOM      5  C   UNL     1      12.689 -16.146 -28.366  1.00  0.00     0.034 C 
BRANCH   5   6
ATOM      6  C   UNL     1      11.509 -17.009 -27.967  1.00  0.00    -0.077 C 
ATOM      7  C   UNL     1      11.492 -17.616 -26.586  1.00  0.00     0.039 C 
ATOM      8  C   UNL     1      10.496 -17.330 -28.810  1.00  0.00    -0.023 CG0
ATOM      9  G   UNL     1      10.262 -16.804 -30.215  1.00  0.00     0.000 G0
ENDBRANCH   5   6
ENDBRANCH   4   5
ENDBRANCH   2   4
BRANCH   1  10
ATOM     10  C   UNL     1      13.012 -18.749 -31.513  1.00  0.00     0.111 C 
BRANCH  10  11
ATOM     11  C   UNL     1      11.551 -18.864 -31.146  1.00  0.00     0.163 C 
ATOM     12  O   UNL     1      11.173 -19.952 -30.635  1.00  0.00    -0.294 OA
BRANCH  11  13
ATOM     13  C   UNL     1      10.544 -17.775 -31.375  1.00  0.00    -0.002 C 
ATOM     14  C   UNL     1      10.021 -17.563 -32.622  1.00  0.00    -0.069 C 
ATOM     15  C   UNL     1      10.205 -18.569 -33.736  1.00  0.00     0.039 C 
ATOM     16  C   UNL     1       9.188 -16.343 -32.945  1.00  0.00     0.039 C 
BRANCH  13  17
ATOM     17  C   UNL     1      10.266 -16.809 -30.228  1.00  0.00     0.066 CG0
ATOM     18  G   UNL     1      10.502 -17.340 -28.826  1.00  0.00     0.000 G0
ENDBRANCH  13  17
ENDBRANCH  11  13
ENDBRANCH  10  11
ENDBRANCH   1  10
TORSDOF 0
ENDMDL
MODEL 2
REMARK VINA RESULT:    -4.830      1.779      4.084
REMARK INTER + INTRA:          -6.609
REMARK INTER:                  -6.937
REMARK INTRA:                   0.329
REMARK UNBOUND:                 0.198
REMARK SMILES CC1=CCC(=C(C)C)C(=O)CC(C)=CCC1
REMARK SMILES IDX 12 1 14 2 13 3 15 4 16 5 2 6 1 7 3 8 11 10 9 11 10 12 5 13
REMARK SMILES IDX 6 14 7 15 8 16 4 17
REMARK H PARENT
REMARK Flexibility Score: 60.00
ROOT
ATOM      1  C   UNL     1      13.707 -16.824 -31.976  1.00  0.00    -0.070 C 
ATOM      2  C   UNL     1      12.759 -17.161 -32.880  1.00  0.00    -0.027 C 
ATOM      3  C   UNL     1      14.788 -15.867 -32.406  1.00  0.00     0.039 C 
ENDROOT
BRANCH   2   4
ATOM      4  C   UNL     1      11.532 -17.984 -32.580  1.00  0.00     0.032 C 
BRANCH   4   5
ATOM      5  C   UNL     1      10.496 -17.125 -31.848  1.00  0.00     0.034 C 
BRANCH   5   6
ATOM      6  C   UNL     1       9.929 -17.815 -30.623  1.00  0.00    -0.077 C 
ATOM      7  C   UNL     1       9.086 -19.050 -30.815  1.00  0.00     0.039 C 
ATOM      8  C   UNL     1      10.078 -17.342 -29.360  1.00  0.00    -0.023 CG0
ATOM      9  G   UNL     1      10.920 -16.162 -28.909  1.00  0.00     0.000 G0
ENDBRANCH   5   6
ENDBRANCH   4   5
ENDBRANCH   2   4
BRANCH   1  10
ATOM     10  C   UNL     1      13.747 -17.375 -30.564  1.00  0.00     0.111 C 
BRANCH  10  11
ATOM     11  C   UNL     1      13.431 -16.314 -29.537  1.00  0.00     0.163 C 
ATOM     12  O   UNL     1      14.130 -15.266 -29.562  1.00  0.00    -0.294 OA
BRANCH  11  13
ATOM     13  C   UNL     1      12.362 -16.455 -28.492  1.00  0.00    -0.002 C 
ATOM     14  C   UNL     1      12.654 -16.983 -27.264  1.00  0.00    -0.069 C 
ATOM     15  C   UNL     1      14.083 -17.177 -26.808  1.00  0.00     0.039 C 
ATOM     16  C   UNL     1      11.573 -17.355 -26.274  1.00  0.00     0.039 C 
BRANCH  13  17
ATOM     17  C   UNL     1      10.923 -16.164 -28.905  1.00  0.00     0.066 CG0
ATOM     18  G   UNL     1      10.095 -17.354 -29.355  1.00  0.00     0.000 G0
ENDBRANCH  13  17
ENDBRANCH  11  13
ENDBRANCH  10  11
ENDBRANCH   1  10
TORSDOF 0
ENDMDL
MODEL 3
REMARK VINA RESULT:    -4.824      1.826      4.861
REMARK INTER + INTRA:          -6.600
REMARK INTER:                  -7.027
REMARK INTRA:                   0.427
REMARK UNBOUND:                 0.198
REMARK SMILES CC1=CCC(=C(C)C)C(=O)CC(C)=CCC1
REMARK SMILES IDX 12 1 14 2 13 3 15 4 16 5 2 6 1 7 3 8 11 10 9 11 10 12 5 13
REMARK SMILES IDX 6 14 7 15 8 16 4 17
REMARK H PARENT
REMARK Flexibility Score: 60.00
ROOT
ATOM      1  C   UNL     1      10.879 -18.045 -28.373  1.00  0.00    -0.070 C 
ATOM      2  C   UNL     1       9.966 -17.372 -29.110  1.00  0.00    -0.027 C 
ATOM      3  C   UNL     1      10.927 -17.781 -26.890  1.00  0.00     0.039 C 
ENDROOT
BRANCH   2   4
ATOM      4  C   UNL     1       9.683 -17.619 -30.570  1.00  0.00     0.032 C 
BRANCH   4   5
ATOM      5  C   UNL     1      10.556 -16.701 -31.431  1.00  0.00     0.034 C 
BRANCH   5   6
ATOM      6  C   UNL     1      11.711 -17.439 -32.079  1.00  0.00    -0.077 C 
ATOM      7  C   UNL     1      11.422 -18.353 -33.243  1.00  0.00     0.039 C 
ATOM      8  C   UNL     1      12.988 -17.380 -31.624  1.00  0.00    -0.023 CG0
ATOM      9  G   UNL     1      13.533 -16.498 -30.516  1.00  0.00     0.000 G0
ENDBRANCH   5   6
ENDBRANCH   4   5
ENDBRANCH   2   4
BRANCH   1  10
ATOM     10  C   UNL     1      11.867 -19.031 -28.965  1.00  0.00     0.111 C 
BRANCH  10  11
ATOM     11  C   UNL     1      13.281 -18.503 -28.926  1.00  0.00     0.163 C 
ATOM     12  O   UNL     1      14.199 -19.339 -28.708  1.00  0.00    -0.294 OA
BRANCH  11  13
ATOM     13  C   UNL     1      13.638 -17.056 -29.107  1.00  0.00    -0.002 C 
ATOM     14  C   UNL     1      13.881 -16.258 -28.022  1.00  0.00    -0.069 C 
ATOM     15  C   UNL     1      14.082 -16.843 -26.642  1.00  0.00     0.039 C 
ATOM     16  C   UNL     1      14.014 -14.757 -28.145  1.00  0.00     0.039 C 
BRANCH  13  17
ATOM     17  C   UNL     1      13.541 -16.470 -30.512  1.00  0.00     0.066 CG0
ATOM     18  G   UNL     1      12.996 -17.388 -31.591  1.00  0.00     0.000 G0
ENDBRANCH  13  17
ENDBRANCH  11  13
ENDBRANCH  10  11
ENDBRANCH   1  10
TORSDOF 0
ENDMDL
MODEL 4
REMARK VINA RESULT:    -4.740      1.530      2.996
REMARK INTER + INTRA:          -6.483
REMARK INTER:                  -6.792
REMARK INTRA:                   0.310
REMARK UNBOUND:                 0.198
REMARK SMILES CC1=CCC(=C(C)C)C(=O)CC(C)=CCC1
REMARK SMILES IDX 12 1 14 2 13 3 15 4 16 5 2 6 1 7 3 8 11 10 9 11 10 12 5 13
REMARK SMILES IDX 6 14 7 15 8 16 4 17
REMARK H PARENT
REMARK Flexibility Score: 60.00
ROOT
ATOM      1  C   UNL     1      10.356 -17.015 -29.463  1.00  0.00    -0.070 C 
ATOM      2  C   UNL     1      11.112 -16.916 -28.346  1.00  0.00    -0.027 C 
ATOM      3  C   UNL     1       9.696 -15.766 -29.987  1.00  0.00     0.039 C 
ENDROOT
BRANCH   2   4
ATOM      4  C   UNL     1      11.956 -18.025 -27.772  1.00  0.00     0.032 C 
BRANCH   4   5
ATOM      5  C   UNL     1      13.408 -17.867 -28.235  1.00  0.00     0.034 C 
BRANCH   5   6
ATOM      6  C   UNL     1      13.660 -16.533 -28.910  1.00  0.00    -0.077 C 
ATOM      7  C   UNL     1      13.847 -15.310 -28.048  1.00  0.00     0.039 C 
ATOM      8  C   UNL     1      13.654 -16.362 -30.256  1.00  0.00    -0.023 CG0
ATOM      9  G   UNL     1      13.545 -17.435 -31.323  1.00  0.00     0.000 G0
ENDBRANCH   5   6
ENDBRANCH   4   5
ENDBRANCH   2   4
BRANCH   1  10
ATOM     10  C   UNL     1      10.122 -18.320 -30.199  1.00  0.00     0.111 C 
BRANCH  10  11
ATOM     11  C   UNL     1      11.320 -18.722 -31.026  1.00  0.00     0.163 C 
ATOM     12  O   UNL     1      11.646 -19.939 -31.008  1.00  0.00    -0.294 OA
BRANCH  11  13
ATOM     13  C   UNL     1      12.140 -17.757 -31.834  1.00  0.00    -0.002 C 
ATOM     14  C   UNL     1      11.700 -17.324 -33.055  1.00  0.00    -0.069 C 
ATOM     15  C   UNL     1      10.277 -17.558 -33.510  1.00  0.00     0.039 C 
ATOM     16  C   UNL     1      12.590 -16.544 -33.996  1.00  0.00     0.039 C 
BRANCH  13  17
ATOM     17  C   UNL     1      13.543 -17.426 -31.337  1.00  0.00     0.066 CG0
ATOM     18  G   UNL     1      13.645 -16.365 -30.256  1.00  0.00     0.000 G0
ENDBRANCH  13  17
ENDBRANCH  11  13
ENDBRANCH  10  11
ENDBRANCH   1  10
TORSDOF 0
ENDMDL
MODEL 5
REMARK VINA RESULT:    -4.631      1.790      4.440
REMARK INTER + INTRA:          -6.328
REMARK INTER:                  -6.764
REMARK INTRA:                   0.435
REMARK UNBOUND:                 0.198
REMARK SMILES CC1=CCC(=C(C)C)C(=O)CC(C)=CCC1
REMARK SMILES IDX 12 1 14 2 13 3 15 4 16 5 2 6 1 7 3 8 11 10 9 11 10 12 5 13
REMARK SMILES IDX 6 14 7 15 8 16 4 17
REMARK H PARENT
REMARK Flexibility Score: 60.00
ROOT
ATOM      1  C   UNL     1      13.045 -19.683 -29.654  1.00  0.00    -0.070 C 
ATOM      2  C   UNL     1      13.089 -19.928 -30.984  1.00  0.00    -0.027 C 
ATOM      3  C   UNL     1      14.347 -19.644 -28.897  1.00  0.00     0.039 C 
ENDROOT
BRANCH   2   4
ATOM      4  C   UNL     1      11.905 -19.858 -31.914  1.00  0.00     0.032 C 
BRANCH   4   5
ATOM      5  C   UNL     1      11.786 -18.448 -32.501  1.00  0.00     0.034 C 
BRANCH   5   6
ATOM      6  C   UNL     1      10.717 -17.622 -31.813  1.00  0.00    -0.077 C 
ATOM      7  C   UNL     1       9.286 -17.772 -32.263  1.00  0.00     0.039 C 
ATOM      8  C   UNL     1      10.985 -16.694 -30.859  1.00  0.00    -0.023 CG0
ATOM      9  G   UNL     1      12.323 -16.403 -30.205  1.00  0.00     0.000 G0
ENDBRANCH   5   6
ENDBRANCH   4   5
ENDBRANCH   2   4
BRANCH   1  10
ATOM     10  C   UNL     1      11.755 -19.470 -28.887  1.00  0.00     0.111 C 
BRANCH  10  11
ATOM     11  C   UNL     1      11.658 -18.070 -28.329  1.00  0.00     0.163 C 
ATOM     12  O   UNL     1      10.786 -17.866 -27.442  1.00  0.00    -0.294 OA
BRANCH  11  13
ATOM     13  C   UNL     1      12.517 -16.927 -28.785  1.00  0.00    -0.002 C 
ATOM     14  C   UNL     1      13.324 -16.266 -27.899  1.00  0.00    -0.069 C 
ATOM     15  C   UNL     1      13.602 -16.821 -26.520  1.00  0.00     0.039 C 
ATOM     16  C   UNL     1      14.022 -14.974 -28.260  1.00  0.00     0.039 C 
BRANCH  13  17
ATOM     17  C   UNL     1      12.324 -16.416 -30.209  1.00  0.00     0.066 CG0
ATOM     18  G   UNL     1      10.980 -16.701 -30.853  1.00  0.00     0.000 G0
ENDBRANCH  13  17
ENDBRANCH  11  13
ENDBRANCH  10  11
ENDBRANCH   1  10
TORSDOF 0
ENDMDL
MODEL 6
REMARK VINA RESULT:    -4.459      1.276      3.802
REMARK INTER + INTRA:          -6.086
REMARK INTER:                  -6.495
REMARK INTRA:                   0.410
REMARK UNBOUND:                 0.198
REMARK SMILES CC1=CCC(=C(C)C)C(=O)CC(C)=CCC1
REMARK SMILES IDX 12 1 14 2 13 3 15 4 16 5 2 6 1 7 3 8 11 10 9 11 10 12 5 13
REMARK SMILES IDX 6 14 7 15 8 16 4 17
REMARK H PARENT
REMARK Flexibility Score: 60.00
ROOT
ATOM      1  C   UNL     1      12.979 -17.423 -32.033  1.00  0.00    -0.070 C 
ATOM      2  C   UNL     1      12.096 -16.858 -32.888  1.00  0.00    -0.027 C 
ATOM      3  C   UNL     1      13.751 -16.516 -31.110  1.00  0.00     0.039 C 
ENDROOT
BRANCH   2   4
ATOM      4  C   UNL     1      11.141 -17.620 -33.772  1.00  0.00     0.032 C 
BRANCH   4   5
ATOM      5  C   UNL     1       9.814 -17.837 -33.037  1.00  0.00     0.034 C 
BRANCH   5   6
ATOM      6  C   UNL     1       9.625 -16.874 -31.882  1.00  0.00    -0.077 C 
ATOM      7  C   UNL     1       9.195 -15.460 -32.183  1.00  0.00     0.039 C 
ATOM      8  C   UNL     1       9.892 -17.191 -30.590  1.00  0.00    -0.023 CG0
ATOM      9  G   UNL     1      10.279 -18.549 -30.033  1.00  0.00     0.000 G0
ENDBRANCH   5   6
ENDBRANCH   4   5
ENDBRANCH   2   4
BRANCH   1  10
ATOM     10  C   UNL     1      13.244 -18.914 -31.972  1.00  0.00     0.111 C 
BRANCH  10  11
ATOM     11  C   UNL     1      12.539 -19.563 -30.804  1.00  0.00     0.163 C 
ATOM     12  O   UNL     1      12.600 -20.820 -30.726  1.00  0.00    -0.294 OA
BRANCH  11  13
ATOM     13  C   UNL     1      11.766 -18.803 -29.767  1.00  0.00    -0.002 C 
ATOM     14  C   UNL     1      12.336 -18.494 -28.562  1.00  0.00    -0.069 C 
ATOM     15  C   UNL     1      13.824 -18.644 -28.331  1.00  0.00     0.039 C 
ATOM     16  C   UNL     1      11.527 -17.940 -27.411  1.00  0.00     0.039 C 
BRANCH  13  17
ATOM     17  C   UNL     1      10.284 -18.550 -30.026  1.00  0.00     0.066 CG0
ATOM     18  G   UNL     1       9.919 -17.187 -30.585  1.00  0.00     0.000 G0
ENDBRANCH  13  17
ENDBRANCH  11  13
ENDBRANCH  10  11
ENDBRANCH   1  10
TORSDOF 0
ENDMDL
MODEL 7
REMARK VINA RESULT:    -4.212      1.662      4.717
REMARK INTER + INTRA:          -5.739
REMARK INTER:                  -6.181
REMARK INTRA:                   0.443
REMARK UNBOUND:                 0.198
REMARK SMILES CC1=CCC(=C(C)C)C(=O)CC(C)=CCC1
REMARK SMILES IDX 12 1 14 2 13 3 15 4 16 5 2 6 1 7 3 8 11 10 9 11 10 12 5 13
REMARK SMILES IDX 6 14 7 15 8 16 4 17
REMARK H PARENT
REMARK Flexibility Score: 60.00
ROOT
ATOM      1  C   UNL     1       9.662 -16.950 -30.469  1.00  0.00    -0.070 C 
ATOM      2  C   UNL     1       9.633 -17.150 -31.807  1.00  0.00    -0.027 C 
ATOM      3  C   UNL     1       9.347 -15.570 -29.952  1.00  0.00     0.039 C 
ENDROOT
BRANCH   2   4
ATOM      4  C   UNL     1       9.777 -18.489 -32.484  1.00  0.00     0.032 C 
BRANCH   4   5
ATOM      5  C   UNL     1      11.118 -18.557 -33.223  1.00  0.00     0.034 C 
BRANCH   5   6
ATOM      6  C   UNL     1      11.851 -17.231 -33.217  1.00  0.00    -0.077 C 
ATOM      7  C   UNL     1      11.495 -16.203 -34.262  1.00  0.00     0.039 C 
ATOM      8  C   UNL     1      12.868 -16.940 -32.366  1.00  0.00    -0.023 CG0
ATOM      9  G   UNL     1      13.367 -17.778 -31.204  1.00  0.00     0.000 G0
ENDBRANCH   5   6
ENDBRANCH   4   5
ENDBRANCH   2   4
BRANCH   1  10
ATOM     10  C   UNL     1      10.015 -18.034 -29.471  1.00  0.00     0.111 C 
BRANCH  10  11
ATOM     11  C   UNL     1      11.421 -18.549 -29.674  1.00  0.00     0.163 C 
ATOM     12  O   UNL     1      11.582 -19.799 -29.647  1.00  0.00    -0.294 OA
BRANCH  11  13
ATOM     13  C   UNL     1      12.614 -17.663 -29.878  1.00  0.00    -0.002 C 
ATOM     14  C   UNL     1      12.911 -16.677 -28.977  1.00  0.00    -0.069 C 
ATOM     15  C   UNL     1      12.243 -16.619 -27.621  1.00  0.00     0.039 C 
ATOM     16  C   UNL     1      13.956 -15.621 -29.259  1.00  0.00     0.039 C 
BRANCH  13  17
ATOM     17  C   UNL     1      13.367 -17.776 -31.200  1.00  0.00     0.066 CG0
ATOM     18  G   UNL     1      12.842 -16.937 -32.351  1.00  0.00     0.000 G0
ENDBRANCH  13  17
ENDBRANCH  11  13
ENDBRANCH  10  11
ENDBRANCH   1  10
TORSDOF 0
ENDMDL
MODEL 8
REMARK VINA RESULT:    -4.031      1.646      4.025
REMARK INTER + INTRA:          -5.482
REMARK INTER:                  -6.150
REMARK INTRA:                   0.667
REMARK UNBOUND:                 0.198
REMARK SMILES CC1=CCC(=C(C)C)C(=O)CC(C)=CCC1
REMARK SMILES IDX 12 1 14 2 13 3 15 4 16 5 2 6 1 7 3 8 11 10 9 11 10 12 5 13
REMARK SMILES IDX 6 14 7 15 8 16 4 17
REMARK H PARENT
REMARK Flexibility Score: 60.00
ROOT
ATOM      1  C   UNL     1      13.436 -18.122 -30.501  1.00  0.00    -0.070 C 
ATOM      2  C   UNL     1      13.329 -18.380 -31.825  1.00  0.00    -0.027 C 
ATOM      3  C   UNL     1      13.391 -19.286 -29.545  1.00  0.00     0.039 C 
ENDROOT
BRANCH   2   4
ATOM      4  C   UNL     1      13.500 -17.359 -32.920  1.00  0.00     0.032 C 
BRANCH   4   5
ATOM      5  C   UNL     1      12.140 -16.752 -33.283  1.00  0.00     0.034 C 
BRANCH   5   6
ATOM      6  C   UNL     1      10.981 -17.627 -32.851  1.00  0.00    -0.077 C 
ATOM      7  C   UNL     1      10.615 -18.816 -33.704  1.00  0.00     0.039 C 
ATOM      8  C   UNL     1      10.200 -17.359 -31.773  1.00  0.00    -0.023 CG0
ATOM      9  G   UNL     1      10.398 -16.267 -30.739  1.00  0.00     0.000 G0
ENDBRANCH   5   6
ENDBRANCH   4   5
ENDBRANCH   2   4
BRANCH   1  10
ATOM     10  C   UNL     1      13.577 -16.724 -29.932  1.00  0.00     0.111 C 
BRANCH  10  11
ATOM     11  C   UNL     1      12.396 -16.344 -29.072  1.00  0.00     0.163 C 
ATOM     12  O   UNL     1      12.635 -15.670 -28.035  1.00  0.00    -0.294 OA
BRANCH  11  13
ATOM     13  C   UNL     1      10.980 -16.742 -29.374  1.00  0.00    -0.002 C 
ATOM     14  C   UNL     1      10.315 -17.619 -28.561  1.00  0.00    -0.069 C 
ATOM     15  C   UNL     1      10.854 -17.996 -27.199  1.00  0.00     0.039 C 
ATOM     16  C   UNL     1       8.985 -18.222 -28.950  1.00  0.00     0.039 C 
BRANCH  13  17
ATOM     17  C   UNL     1      10.380 -16.286 -30.700  1.00  0.00     0.066 CG0
ATOM     18  G   UNL     1      10.210 -17.351 -31.767  1.00  0.00     0.000 G0
ENDBRANCH  13  17
ENDBRANCH  11  13
ENDBRANCH  10  11
ENDBRANCH   1  10
TORSDOF 0
ENDMDL
MODEL 9
REMARK VINA RESULT:    -4.018      1.642      2.939
REMARK INTER + INTRA:          -5.465
REMARK INTER:                  -6.676
REMARK INTRA:                   1.211
REMARK UNBOUND:                 0.198
REMARK SMILES CC1=CCC(=C(C)C)C(=O)CC(C)=CCC1
REMARK SMILES IDX 12 1 14 2 13 3 15 4 16 5 2 6 1 7 3 8 11 10 9 11 10 12 5 13
REMARK SMILES IDX 6 14 7 15 8 16 4 17
REMARK H PARENT
REMARK Flexibility Score: 60.00
ROOT
ATOM      1  C   UNL     1      11.923 -16.756 -32.209  1.00  0.00    -0.070 C 
ATOM      2  C   UNL     1      13.214 -16.536 -31.866  1.00  0.00    -0.027 C 
ATOM      3  C   UNL     1      11.571 -16.771 -33.674  1.00  0.00     0.039 C 
ENDROOT
BRANCH   2   4
ATOM      4  C   UNL     1      13.764 -16.633 -30.467  1.00  0.00     0.032 C 
BRANCH   4   5
ATOM      5  C   UNL     1      12.754 -16.056 -29.469  1.00  0.00     0.034 C 
BRANCH   5   6
ATOM      6  C   UNL     1      12.975 -16.567 -28.059  1.00  0.00    -0.077 C 
ATOM      7  C   UNL     1      13.981 -15.861 -27.184  1.00  0.00     0.039 C 
ATOM      8  C   UNL     1      12.369 -17.673 -27.559  1.00  0.00    -0.023 CG0
ATOM      9  G   UNL     1      11.288 -18.511 -28.216  1.00  0.00     0.000 G0
ENDBRANCH   5   6
ENDBRANCH   4   5
ENDBRANCH   2   4
BRANCH   1  10
ATOM     10  C   UNL     1      10.816 -16.967 -31.196  1.00  0.00     0.111 C 
BRANCH  10  11
ATOM     11  C   UNL     1      10.729 -18.407 -30.748  1.00  0.00     0.163 C 
ATOM     12  O   UNL     1       9.887 -19.139 -31.333  1.00  0.00    -0.294 OA
BRANCH  11  13
ATOM     13  C   UNL     1      11.565 -18.990 -29.646  1.00  0.00    -0.002 C 
ATOM     14  C   UNL     1      12.428 -20.022 -29.899  1.00  0.00    -0.069 C 
ATOM     15  C   UNL     1      12.788 -20.421 -31.313  1.00  0.00     0.039 C 
ATOM     16  C   UNL     1      13.110 -20.787 -28.787  1.00  0.00     0.039 C 
BRANCH  13  17
ATOM     17  C   UNL     1      11.288 -18.525 -28.220  1.00  0.00     0.066 CG0
ATOM     18  G   UNL     1      12.359 -17.671 -27.567  1.00  0.00     0.000 G0
ENDBRANCH  13  17
ENDBRANCH  11  13
ENDBRANCH  10  11
ENDBRANCH   1  10
TORSDOF 0
ENDMDL
