MODEL 1
REMARK VINA RESULT:    -4.822      0.000      0.000
REMARK INTER + INTRA:          -7.618
REMARK INTER:                  -7.359
REMARK INTRA:                  -0.258
REMARK UNBOUND:                -0.258
REMARK SMILES CC1=CCC[C@H](C)C(=O)C[C@H](C(C)C)C(=O)C1
REMARK SMILES IDX 8 1 9 2 6 3 7 4 5 5 4 6 3 7 2 8 1 9 10 11 11 12 15 13 16 14
REMARK SMILES IDX 17 15 12 17 13 18 14 19
REMARK H PARENT
REMARK Flexibility Score: 70.00
ROOT
ATOM      1  C   UNL     1      13.235 -18.216 -31.314  1.00  0.00     0.136 C 
ATOM      2  O   UNL     1      13.422 -19.275 -31.894  1.00  0.00    -0.299 OA
ENDROOT
BRANCH   1   3
ATOM      3  C   UNL     1      13.134 -16.941 -32.139  1.00  0.00     0.053 C 
ATOM      4  C   UNL     1      14.492 -16.419 -32.630  1.00  0.00     0.016 C 
BRANCH   3   5
ATOM      5  C   UNL     1      12.067 -17.041 -33.256  1.00  0.00     0.015 C 
BRANCH   5   6
ATOM      6  C   UNL     1      10.654 -17.495 -32.809  1.00  0.00     0.028 C 
BRANCH   6   7
ATOM      7  C   UNL     1       9.933 -16.375 -32.093  1.00  0.00    -0.028 C 
ATOM      8  C   UNL     1       9.597 -16.374 -30.780  1.00  0.00    -0.070 CG0
ATOM      9  C   UNL     1       8.974 -15.127 -30.208  1.00  0.00     0.039 C 
ATOM     10  G   UNL     1       9.777 -17.586 -29.879  1.00  0.00     0.000 G0
ENDBRANCH   6   7
ENDBRANCH   5   6
ENDBRANCH   3   5
ENDBRANCH   1   3
BRANCH   1  11
ATOM     11  C   UNL     1      13.180 -18.228 -29.804  1.00  0.00     0.087 C 
BRANCH  11  12
ATOM     12  C   UNL     1      12.333 -17.046 -29.250  1.00  0.00     0.066 C 
BRANCH  12  13
ATOM     13  C   UNL     1      10.930 -17.527 -28.891  1.00  0.00     0.140 C 
ATOM     14  O   UNL     1      10.732 -17.968 -27.768  1.00  0.00    -0.299 OA
BRANCH  13  15
ATOM     15  C   UNL     1       9.771 -17.585 -29.869  1.00  0.00     0.106 CG0
ATOM     16  G   UNL     1       9.598 -16.376 -30.775  1.00  0.00     0.000 G0
ENDBRANCH  13  15
ENDBRANCH  12  13
BRANCH  12  17
ATOM     17  C   UNL     1      13.038 -16.279 -28.090  1.00  0.00    -0.006 C 
ATOM     18  C   UNL     1      13.864 -17.241 -27.220  1.00  0.00     0.008 C 
ATOM     19  C   UNL     1      13.922 -15.102 -28.542  1.00  0.00     0.008 C 
ENDBRANCH  12  17
ENDBRANCH  11  12
ENDBRANCH   1  11
TORSDOF 1
ENDMDL
MODEL 2
REMARK VINA RESULT:    -4.603      1.931      2.244
REMARK INTER + INTRA:          -7.283
REMARK INTER:                  -7.242
REMARK INTRA:                  -0.041
REMARK UNBOUND:                -0.258
REMARK SMILES CC1=CCC[C@H](C)C(=O)C[C@H](C(C)C)C(=O)C1
REMARK SMILES IDX 8 1 9 2 6 3 7 4 5 5 4 6 3 7 2 8 1 9 10 11 11 12 15 13 16 14
REMARK SMILES IDX 17 15 12 17 13 18 14 19
REMARK H PARENT
REMARK Flexibility Score: 70.00
ROOT
ATOM      1  C   UNL     1      13.833 -16.710 -31.432  1.00  0.00     0.136 C 
ATOM      2  O   UNL     1      14.655 -15.931 -31.890  1.00  0.00    -0.299 OA
ENDROOT
BRANCH   1   3
ATOM      3  C   UNL     1      12.854 -17.381 -32.385  1.00  0.00     0.053 C 
ATOM      4  C   UNL     1      12.749 -16.683 -33.749  1.00  0.00     0.016 C 
BRANCH   3   5
ATOM      5  C   UNL     1      13.079 -18.909 -32.485  1.00  0.00     0.015 C 
BRANCH   5   6
ATOM      6  C   UNL     1      12.583 -19.750 -31.281  1.00  0.00     0.028 C 
BRANCH   6   7
ATOM      7  C   UNL     1      11.095 -19.570 -31.077  1.00  0.00    -0.028 C 
ATOM      8  C   UNL     1      10.525 -18.821 -30.103  1.00  0.00    -0.070 CG0
ATOM      9  C   UNL     1       9.026 -18.667 -30.112  1.00  0.00     0.039 C 
ATOM     10  G   UNL     1      11.323 -18.174 -28.982  1.00  0.00     0.000 G0
ENDBRANCH   6   7
ENDBRANCH   5   6
ENDBRANCH   3   5
ENDBRANCH   1   3
BRANCH   1  11
ATOM     11  C   UNL     1      13.795 -16.909 -29.934  1.00  0.00     0.087 C 
BRANCH  11  12
ATOM     12  C   UNL     1      12.778 -15.949 -29.253  1.00  0.00     0.066 C 
BRANCH  12  13
ATOM     13  C   UNL     1      11.465 -16.679 -28.984  1.00  0.00     0.140 C 
ATOM     14  O   UNL     1      10.478 -16.019 -28.689  1.00  0.00    -0.299 OA
BRANCH  13  15
ATOM     15  C   UNL     1      11.317 -18.189 -28.963  1.00  0.00     0.106 CG0
ATOM     16  G   UNL     1      10.538 -18.802 -30.116  1.00  0.00     0.000 G0
ENDBRANCH  13  15
ENDBRANCH  12  13
BRANCH  12  17
ATOM     17  C   UNL     1      13.358 -15.238 -27.991  1.00  0.00    -0.006 C 
ATOM     18  C   UNL     1      13.816 -16.267 -26.945  1.00  0.00     0.008 C 
ATOM     19  C   UNL     1      14.503 -14.250 -28.282  1.00  0.00     0.008 C 
ENDBRANCH  12  17
ENDBRANCH  11  12
ENDBRANCH   1  11
TORSDOF 1
ENDMDL
MODEL 3
REMARK VINA RESULT:    -4.559      1.787      3.928
REMARK INTER + INTRA:          -7.216
REMARK INTER:                  -6.762
REMARK INTRA:                  -0.454
REMARK UNBOUND:                -0.258
REMARK SMILES CC1=CCC[C@H](C)C(=O)C[C@H](C(C)C)C(=O)C1
REMARK SMILES IDX 8 1 9 2 6 3 7 4 5 5 4 6 3 7 2 8 1 9 10 11 11 12 15 13 16 14
REMARK SMILES IDX 17 15 12 17 13 18 14 19
REMARK H PARENT
REMARK Flexibility Score: 70.00
ROOT
ATOM      1  C   UNL     1      12.595 -16.371 -29.100  1.00  0.00     0.136 C 
ATOM      2  O   UNL     1      13.155 -15.553 -28.384  1.00  0.00    -0.299 OA
ENDROOT
BRANCH   1   3
ATOM      3  C   UNL     1      11.244 -16.918 -28.663  1.00  0.00     0.053 C 
ATOM      4  C   UNL     1      11.185 -17.289 -27.174  1.00  0.00     0.016 C 
BRANCH   3   5
ATOM      5  C   UNL     1      10.065 -16.031 -29.130  1.00  0.00     0.015 C 
BRANCH   5   6
ATOM      6  C   UNL     1       9.203 -16.598 -30.287  1.00  0.00     0.028 C 
BRANCH   6   7
ATOM      7  C   UNL     1       9.326 -15.734 -31.522  1.00  0.00    -0.028 C 
ATOM      8  C   UNL     1       9.896 -16.117 -32.690  1.00  0.00    -0.070 CG0
ATOM      9  C   UNL     1       9.838 -15.161 -33.854  1.00  0.00     0.039 C 
ATOM     10  G   UNL     1      10.628 -17.439 -32.860  1.00  0.00     0.000 G0
ENDBRANCH   6   7
ENDBRANCH   5   6
ENDBRANCH   3   5
ENDBRANCH   1   3
BRANCH   1  11
ATOM     11  C   UNL     1      13.312 -16.837 -30.346  1.00  0.00     0.087 C 
BRANCH  11  12
ATOM     12  C   UNL     1      12.532 -17.976 -31.064  1.00  0.00     0.066 C 
BRANCH  12  13
ATOM     13  C   UNL     1      12.075 -17.512 -32.445  1.00  0.00     0.140 C 
ATOM     14  O   UNL     1      12.913 -17.086 -33.226  1.00  0.00    -0.299 OA
BRANCH  13  15
ATOM     15  C   UNL     1      10.624 -17.453 -32.887  1.00  0.00     0.106 CG0
ATOM     16  G   UNL     1       9.916 -16.122 -32.691  1.00  0.00     0.000 G0
ENDBRANCH  13  15
ENDBRANCH  12  13
BRANCH  12  17
ATOM     17  C   UNL     1      13.313 -19.326 -31.095  1.00  0.00    -0.006 C 
ATOM     18  C   UNL     1      13.800 -19.709 -29.688  1.00  0.00     0.008 C 
ATOM     19  C   UNL     1      12.535 -20.503 -31.712  1.00  0.00     0.008 C 
ENDBRANCH  12  17
ENDBRANCH  11  12
ENDBRANCH   1  11
TORSDOF 1
ENDMDL
MODEL 4
REMARK VINA RESULT:    -4.487      2.286      4.683
REMARK INTER + INTRA:          -7.107
REMARK INTER:                  -7.304
REMARK INTRA:                   0.198
REMARK UNBOUND:                -0.258
REMARK SMILES CC1=CCC[C@H](C)C(=O)C[C@H](C(C)C)C(=O)C1
REMARK SMILES IDX 8 1 9 2 6 3 7 4 5 5 4 6 3 7 2 8 1 9 10 11 11 12 15 13 16 14
REMARK SMILES IDX 17 15 12 17 13 18 14 19
REMARK H PARENT
REMARK Flexibility Score: 70.00
ROOT
ATOM      1  C   UNL     1      13.104 -16.443 -30.413  1.00  0.00     0.136 C 
ATOM      2  O   UNL     1      14.151 -16.266 -31.019  1.00  0.00    -0.299 OA
ENDROOT
BRANCH   1   3
ATOM      3  C   UNL     1      13.107 -16.303 -28.898  1.00  0.00     0.053 C 
ATOM      4  C   UNL     1      13.956 -15.128 -28.392  1.00  0.00     0.016 C 
BRANCH   3   5
ATOM      5  C   UNL     1      11.681 -16.343 -28.296  1.00  0.00     0.015 C 
BRANCH   5   6
ATOM      6  C   UNL     1      11.192 -17.726 -27.797  1.00  0.00     0.028 C 
BRANCH   6   7
ATOM      7  C   UNL     1      12.273 -18.770 -27.966  1.00  0.00    -0.028 C 
ATOM      8  C   UNL     1      12.441 -19.552 -29.059  1.00  0.00    -0.070 CG0
ATOM      9  C   UNL     1      13.638 -20.467 -29.100  1.00  0.00     0.039 C 
ATOM     10  G   UNL     1      11.454 -19.581 -30.216  1.00  0.00     0.000 G0
ENDBRANCH   6   7
ENDBRANCH   5   6
ENDBRANCH   3   5
ENDBRANCH   1   3
BRANCH   1  11
ATOM     11  C   UNL     1      11.883 -16.855 -31.202  1.00  0.00     0.087 C 
BRANCH  11  12
ATOM     12  C   UNL     1      12.218 -17.965 -32.240  1.00  0.00     0.066 C 
BRANCH  12  13
ATOM     13  C   UNL     1      12.041 -19.344 -31.611  1.00  0.00     0.140 C 
ATOM     14  O   UNL     1      12.315 -20.331 -32.278  1.00  0.00    -0.299 OA
BRANCH  13  15
ATOM     15  C   UNL     1      11.452 -19.584 -30.233  1.00  0.00     0.106 CG0
ATOM     16  G   UNL     1      12.430 -19.542 -29.069  1.00  0.00     0.000 G0
ENDBRANCH  13  15
ENDBRANCH  12  13
BRANCH  12  17
ATOM     17  C   UNL     1      11.446 -17.797 -33.586  1.00  0.00    -0.006 C 
ATOM     18  C   UNL     1       9.932 -17.693 -33.339  1.00  0.00     0.008 C 
ATOM     19  C   UNL     1      11.913 -16.611 -34.449  1.00  0.00     0.008 C 
ENDBRANCH  12  17
ENDBRANCH  11  12
ENDBRANCH   1  11
TORSDOF 1
ENDMDL
MODEL 5
REMARK VINA RESULT:    -4.464      1.633      2.295
REMARK INTER + INTRA:          -7.071
REMARK INTER:                  -6.718
REMARK INTRA:                  -0.353
REMARK UNBOUND:                -0.258
REMARK SMILES CC1=CCC[C@H](C)C(=O)C[C@H](C(C)C)C(=O)C1
REMARK SMILES IDX 8 1 9 2 6 3 7 4 5 5 4 6 3 7 2 8 1 9 10 11 11 12 15 13 16 14
REMARK SMILES IDX 17 15 12 17 13 18 14 19
REMARK H PARENT
REMARK Flexibility Score: 70.00
ROOT
ATOM      1  C   UNL     1      13.097 -19.045 -29.601  1.00  0.00     0.136 C 
ATOM      2  O   UNL     1      14.076 -18.974 -28.873  1.00  0.00    -0.299 OA
ENDROOT
BRANCH   1   3
ATOM      3  C   UNL     1      13.252 -19.689 -30.971  1.00  0.00     0.053 C 
ATOM      4  C   UNL     1      12.607 -21.080 -31.071  1.00  0.00     0.016 C 
BRANCH   3   5
ATOM      5  C   UNL     1      12.853 -18.735 -32.123  1.00  0.00     0.015 C 
BRANCH   5   6
ATOM      6  C   UNL     1      11.475 -19.002 -32.781  1.00  0.00     0.028 C 
BRANCH   6   7
ATOM      7  C   UNL     1      10.840 -17.707 -33.238  1.00  0.00    -0.028 C 
ATOM      8  C   UNL     1      10.128 -16.865 -32.451  1.00  0.00    -0.070 CG0
ATOM      9  C   UNL     1       9.657 -15.565 -33.049  1.00  0.00     0.039 C 
ATOM     10  G   UNL     1       9.747 -17.196 -31.017  1.00  0.00     0.000 G0
ENDBRANCH   6   7
ENDBRANCH   5   6
ENDBRANCH   3   5
ENDBRANCH   1   3
BRANCH   1  11
ATOM     11  C   UNL     1      11.804 -18.427 -29.121  1.00  0.00     0.087 C 
BRANCH  11  12
ATOM     12  C   UNL     1      11.803 -16.882 -29.305  1.00  0.00     0.066 C 
BRANCH  12  13
ATOM     13  C   UNL     1      10.481 -16.426 -29.918  1.00  0.00     0.140 C 
ATOM     14  O   UNL     1       9.938 -15.430 -29.464  1.00  0.00    -0.299 OA
BRANCH  13  15
ATOM     15  C   UNL     1       9.738 -17.185 -31.002  1.00  0.00     0.106 CG0
ATOM     16  G   UNL     1      10.135 -16.867 -32.435  1.00  0.00     0.000 G0
ENDBRANCH  13  15
ENDBRANCH  12  13
BRANCH  12  17
ATOM     17  C   UNL     1      12.176 -16.111 -28.001  1.00  0.00    -0.006 C 
ATOM     18  C   UNL     1      11.985 -17.002 -26.763  1.00  0.00     0.008 C 
ATOM     19  C   UNL     1      13.595 -15.512 -27.994  1.00  0.00     0.008 C 
ENDBRANCH  12  17
ENDBRANCH  11  12
ENDBRANCH   1  11
TORSDOF 1
ENDMDL
MODEL 6
REMARK VINA RESULT:    -4.370      2.078      4.305
REMARK INTER + INTRA:          -6.927
REMARK INTER:                  -6.792
REMARK INTRA:                  -0.135
REMARK UNBOUND:                -0.258
REMARK SMILES CC1=CCC[C@H](C)C(=O)C[C@H](C(C)C)C(=O)C1
REMARK SMILES IDX 8 1 9 2 6 3 7 4 5 5 4 6 3 7 2 8 1 9 10 11 11 12 15 13 16 14
REMARK SMILES IDX 17 15 12 17 13 18 14 19
REMARK H PARENT
REMARK Flexibility Score: 70.00
ROOT
ATOM      1  C   UNL     1      12.753 -16.197 -28.995  1.00  0.00     0.136 C 
ATOM      2  O   UNL     1      13.523 -15.814 -29.864  1.00  0.00    -0.299 OA
ENDROOT
BRANCH   1   3
ATOM      3  C   UNL     1      13.307 -17.020 -27.842  1.00  0.00     0.053 C 
ATOM      4  C   UNL     1      12.270 -17.322 -26.749  1.00  0.00     0.016 C 
BRANCH   3   5
ATOM      5  C   UNL     1      14.082 -18.270 -28.324  1.00  0.00     0.015 C 
BRANCH   5   6
ATOM      6  C   UNL     1      13.219 -19.499 -28.710  1.00  0.00     0.028 C 
BRANCH   6   7
ATOM      7  C   UNL     1      13.123 -19.637 -30.213  1.00  0.00    -0.028 C 
ATOM      8  C   UNL     1      11.979 -19.555 -30.934  1.00  0.00    -0.070 CG0
ATOM      9  C   UNL     1      12.083 -19.611 -32.436  1.00  0.00     0.039 C 
ATOM     10  G   UNL     1      10.603 -19.460 -30.295  1.00  0.00     0.000 G0
ENDBRANCH   6   7
ENDBRANCH   5   6
ENDBRANCH   3   5
ENDBRANCH   1   3
BRANCH   1  11
ATOM     11  C   UNL     1      11.284 -15.883 -29.154  1.00  0.00     0.087 C 
BRANCH  11  12
ATOM     12  C   UNL     1      10.624 -16.764 -30.255  1.00  0.00     0.066 C 
BRANCH  12  13
ATOM     13  C   UNL     1      10.221 -18.117 -29.674  1.00  0.00     0.140 C 
ATOM     14  O   UNL     1       9.629 -18.142 -28.605  1.00  0.00    -0.299 OA
BRANCH  13  15
ATOM     15  C   UNL     1      10.590 -19.454 -30.291  1.00  0.00     0.106 CG0
ATOM     16  G   UNL     1      11.968 -19.541 -30.928  1.00  0.00     0.000 G0
ENDBRANCH  13  15
ENDBRANCH  12  13
BRANCH  12  17
ATOM     17  C   UNL     1       9.460 -16.041 -31.001  1.00  0.00    -0.006 C 
ATOM     18  C   UNL     1       9.129 -14.699 -30.329  1.00  0.00     0.008 C 
ATOM     19  C   UNL     1       9.701 -15.822 -32.505  1.00  0.00     0.008 C 
ENDBRANCH  12  17
ENDBRANCH  11  12
ENDBRANCH   1  11
TORSDOF 1
ENDMDL
MODEL 7
REMARK VINA RESULT:    -4.298      1.715      3.663
REMARK INTER + INTRA:          -6.818
REMARK INTER:                  -7.106
REMARK INTRA:                   0.289
REMARK UNBOUND:                -0.258
REMARK SMILES CC1=CCC[C@H](C)C(=O)C[C@H](C(C)C)C(=O)C1
REMARK SMILES IDX 8 1 9 2 6 3 7 4 5 5 4 6 3 7 2 8 1 9 10 11 11 12 15 13 16 14
REMARK SMILES IDX 17 15 12 17 13 18 14 19
REMARK H PARENT
REMARK Flexibility Score: 70.00
ROOT
ATOM      1  C   UNL     1      10.324 -17.036 -29.053  1.00  0.00     0.136 C 
ATOM      2  O   UNL     1      10.343 -17.939 -28.230  1.00  0.00    -0.299 OA
ENDROOT
BRANCH   1   3
ATOM      3  C   UNL     1       9.137 -16.937 -30.000  1.00  0.00     0.053 C 
ATOM      4  C   UNL     1       9.071 -15.607 -30.765  1.00  0.00     0.016 C 
BRANCH   3   5
ATOM      5  C   UNL     1       8.997 -18.183 -30.907  1.00  0.00     0.015 C 
BRANCH   5   6
ATOM      6  C   UNL     1      10.317 -18.753 -31.488  1.00  0.00     0.028 C 
BRANCH   6   7
ATOM      7  C   UNL     1      10.892 -17.819 -32.529  1.00  0.00    -0.028 C 
ATOM      8  C   UNL     1      12.196 -17.463 -32.623  1.00  0.00    -0.070 CG0
ATOM      9  C   UNL     1      12.613 -16.604 -33.789  1.00  0.00     0.039 C 
ATOM     10  G   UNL     1      13.237 -17.848 -31.584  1.00  0.00     0.000 G0
ENDBRANCH   6   7
ENDBRANCH   5   6
ENDBRANCH   3   5
ENDBRANCH   1   3
BRANCH   1  11
ATOM     11  C   UNL     1      11.515 -16.109 -29.124  1.00  0.00     0.087 C 
BRANCH  11  12
ATOM     12  C   UNL     1      12.857 -16.896 -29.110  1.00  0.00     0.066 C 
BRANCH  12  13
ATOM     13  C   UNL     1      13.512 -16.844 -30.488  1.00  0.00     0.140 C 
ATOM     14  O   UNL     1      14.240 -15.899 -30.755  1.00  0.00    -0.299 OA
BRANCH  13  15
ATOM     15  C   UNL     1      13.248 -17.846 -31.596  1.00  0.00     0.106 CG0
ATOM     16  G   UNL     1      12.203 -17.447 -32.626  1.00  0.00     0.000 G0
ENDBRANCH  13  15
ENDBRANCH  12  13
BRANCH  12  17
ATOM     17  C   UNL     1      13.812 -16.458 -27.957  1.00  0.00    -0.006 C 
ATOM     18  C   UNL     1      14.072 -14.943 -28.007  1.00  0.00     0.008 C 
ATOM     19  C   UNL     1      13.338 -16.855 -26.546  1.00  0.00     0.008 C 
ENDBRANCH  12  17
ENDBRANCH  11  12
ENDBRANCH   1  11
TORSDOF 1
ENDMDL
MODEL 8
REMARK VINA RESULT:    -4.295      2.147      3.507
REMARK INTER + INTRA:          -6.812
REMARK INTER:                  -7.950
REMARK INTRA:                   1.138
REMARK UNBOUND:                -0.258
REMARK SMILES CC1=CCC[C@H](C)C(=O)C[C@H](C(C)C)C(=O)C1
REMARK SMILES IDX 8 1 9 2 6 3 7 4 5 5 4 6 3 7 2 8 1 9 10 11 11 12 15 13 16 14
REMARK SMILES IDX 17 15 12 17 13 18 14 19
REMARK H PARENT
REMARK Flexibility Score: 70.00
ROOT
ATOM      1  C   UNL     1      12.258 -18.699 -28.474  1.00  0.00     0.136 C 
ATOM      2  O   UNL     1      11.447 -18.438 -27.598  1.00  0.00    -0.299 OA
ENDROOT
BRANCH   1   3
ATOM      3  C   UNL     1      11.902 -19.761 -29.504  1.00  0.00     0.053 C 
ATOM      4  C   UNL     1      10.579 -19.488 -30.234  1.00  0.00     0.016 C 
BRANCH   3   5
ATOM      5  C   UNL     1      13.081 -20.085 -30.454  1.00  0.00     0.015 C 
BRANCH   5   6
ATOM      6  C   UNL     1      12.871 -19.718 -31.946  1.00  0.00     0.028 C 
BRANCH   6   7
ATOM      7  C   UNL     1      13.735 -18.539 -32.335  1.00  0.00    -0.028 C 
ATOM      8  C   UNL     1      13.471 -17.245 -32.034  1.00  0.00    -0.070 CG0
ATOM      9  C   UNL     1      14.498 -16.207 -32.410  1.00  0.00     0.039 C 
ATOM     10  G   UNL     1      12.173 -16.793 -31.384  1.00  0.00     0.000 G0
ENDBRANCH   6   7
ENDBRANCH   5   6
ENDBRANCH   3   5
ENDBRANCH   1   3
BRANCH   1  11
ATOM     11  C   UNL     1      13.595 -17.996 -28.441  1.00  0.00     0.087 C 
BRANCH  11  12
ATOM     12  C   UNL     1      13.508 -16.568 -29.052  1.00  0.00     0.066 C 
BRANCH  12  13
ATOM     13  C   UNL     1      12.246 -16.435 -29.901  1.00  0.00     0.140 C 
ATOM     14  O   UNL     1      11.206 -16.096 -29.355  1.00  0.00    -0.299 OA
BRANCH  13  15
ATOM     15  C   UNL     1      12.169 -16.789 -31.375  1.00  0.00     0.106 CG0
ATOM     16  G   UNL     1      13.466 -17.245 -32.024  1.00  0.00     0.000 G0
ENDBRANCH  13  15
ENDBRANCH  12  13
BRANCH  12  17
ATOM     17  C   UNL     1      13.657 -15.437 -27.988  1.00  0.00    -0.006 C 
ATOM     18  C   UNL     1      14.121 -16.012 -26.640  1.00  0.00     0.008 C 
ATOM     19  C   UNL     1      14.585 -14.282 -28.406  1.00  0.00     0.008 C 
ENDBRANCH  12  17
ENDBRANCH  11  12
ENDBRANCH   1  11
TORSDOF 1
ENDMDL
MODEL 9
REMARK VINA RESULT:    -4.265      1.714      2.847
REMARK INTER + INTRA:          -6.768
REMARK INTER:                  -7.103
REMARK INTRA:                   0.335
REMARK UNBOUND:                -0.258
REMARK SMILES CC1=CCC[C@H](C)C(=O)C[C@H](C(C)C)C(=O)C1
REMARK SMILES IDX 8 1 9 2 6 3 7 4 5 5 4 6 3 7 2 8 1 9 10 11 11 12 15 13 16 14
REMARK SMILES IDX 17 15 12 17 13 18 14 19
REMARK H PARENT
REMARK Flexibility Score: 70.00
ROOT
ATOM      1  C   UNL     1      12.996 -17.370 -31.611  1.00  0.00     0.136 C 
ATOM      2  O   UNL     1      13.443 -18.388 -32.118  1.00  0.00    -0.299 OA
ENDROOT
BRANCH   1   3
ATOM      3  C   UNL     1      11.623 -16.879 -32.048  1.00  0.00     0.053 C 
ATOM      4  C   UNL     1      10.934 -17.807 -33.060  1.00  0.00     0.016 C 
BRANCH   3   5
ATOM      5  C   UNL     1      10.724 -16.489 -30.851  1.00  0.00     0.015 C 
BRANCH   5   6
ATOM      6  C   UNL     1       9.820 -17.614 -30.285  1.00  0.00     0.028 C 
BRANCH   6   7
ATOM      7  C   UNL     1       9.849 -17.616 -28.773  1.00  0.00    -0.028 C 
ATOM      8  C   UNL     1      10.816 -18.182 -28.011  1.00  0.00    -0.070 CG0
ATOM      9  C   UNL     1      10.741 -17.997 -26.517  1.00  0.00     0.039 C 
ATOM     10  G   UNL     1      11.937 -19.030 -28.591  1.00  0.00     0.000 G0
ENDBRANCH   6   7
ENDBRANCH   5   6
ENDBRANCH   3   5
ENDBRANCH   1   3
BRANCH   1  11
ATOM     11  C   UNL     1      13.864 -16.622 -30.626  1.00  0.00     0.087 C 
BRANCH  11  12
ATOM     12  C   UNL     1      13.363 -16.806 -29.164  1.00  0.00     0.066 C 
BRANCH  12  13
ATOM     13  C   UNL     1      13.258 -18.291 -28.826  1.00  0.00     0.140 C 
ATOM     14  O   UNL     1      14.278 -18.964 -28.821  1.00  0.00    -0.299 OA
BRANCH  13  15
ATOM     15  C   UNL     1      11.949 -19.020 -28.585  1.00  0.00     0.106 CG0
ATOM     16  G   UNL     1      10.815 -18.189 -28.006  1.00  0.00     0.000 G0
ENDBRANCH  13  15
ENDBRANCH  12  13
BRANCH  12  17
ATOM     17  C   UNL     1      14.197 -15.995 -28.125  1.00  0.00    -0.006 C 
ATOM     18  C   UNL     1      14.140 -14.489 -28.432  1.00  0.00     0.008 C 
ATOM     19  C   UNL     1      13.804 -16.239 -26.656  1.00  0.00     0.008 C 
ENDBRANCH  12  17
ENDBRANCH  11  12
ENDBRANCH   1  11
TORSDOF 1
ENDMDL
