MODEL 1
REMARK VINA RESULT:    -3.690      0.000      0.000
REMARK INTER + INTRA:          -4.505
REMARK INTER:                  -4.445
REMARK INTRA:                  -0.060
REMARK UNBOUND:                -0.060
REMARK SMILES CC[C@H](C)[C@@H]([NH3+])C(=O)[O-]
REMARK SMILES IDX 3 1 4 2 5 3 6 4 7 8 8 9 9 10 2 11 1 12
REMARK H PARENT 6 5 6 6 6 7
REMARK Flexibility Score: inf
ROOT
ATOM      1  C   UNL     1     109.116 133.946 122.390  1.00  0.00     0.050 C 
ATOM      2  C   UNL     1     108.340 134.175 121.080  1.00  0.00     0.014 C 
ENDROOT
BRANCH   1   3
ATOM      3  C   UNL     1     110.534 134.598 122.347  1.00  0.00     0.230 C 
BRANCH   3   4
ATOM      4  N   UNL     1     110.810 135.206 121.037  1.00  0.00    -0.350 N 
ATOM      5  H   UNL     1     109.965 135.139 120.424  1.00  0.00     0.345 HD
ATOM      6  H   UNL     1     111.029 136.222 121.149  1.00  0.00     0.345 HD
ATOM      7  H   UNL     1     111.611 134.726 120.566  1.00  0.00     0.345 HD
ENDBRANCH   3   4
BRANCH   3   8
ATOM      8  C   UNL     1     110.677 135.649 123.420  1.00  0.00     0.099 C 
ATOM      9  O   UNL     1     111.075 135.329 124.571  1.00  0.00    -0.544 OA
ATOM     10  O   UNL     1     110.369 136.976 123.145  1.00  0.00    -0.544 OA
ENDBRANCH   3   8
ENDBRANCH   1   3
BRANCH   1  11
ATOM     11  C   UNL     1     109.142 132.437 122.755  1.00  0.00     0.006 C 
ATOM     12  C   UNL     1     107.820 131.701 122.518  1.00  0.00     0.004 C 
ENDBRANCH   1  11
TORSDOF 4
ENDMDL
MODEL 2
REMARK VINA RESULT:    -3.511      2.680      3.822
REMARK INTER + INTRA:          -4.289
REMARK INTER:                  -4.285
REMARK INTRA:                  -0.004
REMARK UNBOUND:                -0.060
REMARK SMILES CC[C@H](C)[C@@H]([NH3+])C(=O)[O-]
REMARK SMILES IDX 3 1 4 2 5 3 6 4 7 8 8 9 9 10 2 11 1 12
REMARK H PARENT 6 5 6 6 6 7
REMARK Flexibility Score: inf
ROOT
ATOM      1  C   UNL     1     110.093 134.264 122.130  1.00  0.00     0.050 C 
ATOM      2  C   UNL     1     110.421 135.141 120.908  1.00  0.00     0.014 C 
ENDROOT
BRANCH   1   3
ATOM      3  C   UNL     1     108.592 133.833 122.151  1.00  0.00     0.230 C 
BRANCH   3   4
ATOM      4  N   UNL     1     107.956 134.029 120.839  1.00  0.00    -0.350 N 
ATOM      5  H   UNL     1     108.626 134.486 120.179  1.00  0.00     0.345 HD
ATOM      6  H   UNL     1     107.694 133.106 120.423  1.00  0.00     0.345 HD
ATOM      7  H   UNL     1     107.102 134.627 120.926  1.00  0.00     0.345 HD
ENDBRANCH   3   4
BRANCH   3   8
ATOM      8  C   UNL     1     108.451 132.387 122.558  1.00  0.00     0.099 C 
ATOM      9  O   UNL     1     109.289 131.866 123.341  1.00  0.00    -0.544 OA
ATOM     10  O   UNL     1     107.396 131.624 122.074  1.00  0.00    -0.544 OA
ENDBRANCH   3   8
ENDBRANCH   1   3
BRANCH   1  11
ATOM     11  C   UNL     1     110.554 134.956 123.442  1.00  0.00     0.006 C 
ATOM     12  C   UNL     1     110.449 136.483 123.426  1.00  0.00     0.004 C 
ENDBRANCH   1  11
TORSDOF 4
ENDMDL
MODEL 3
REMARK VINA RESULT:    -3.507      6.837      8.384
REMARK INTER + INTRA:          -4.284
REMARK INTER:                  -4.302
REMARK INTRA:                   0.018
REMARK UNBOUND:                -0.060
REMARK SMILES CC[C@H](C)[C@@H]([NH3+])C(=O)[O-]
REMARK SMILES IDX 3 1 4 2 5 3 6 4 7 8 8 9 9 10 2 11 1 12
REMARK H PARENT 6 5 6 6 6 7
REMARK Flexibility Score: inf
ROOT
ATOM      1  C   UNL     1     106.313 128.461 122.407  1.00  0.00     0.050 C 
ATOM      2  C   UNL     1     106.906 127.047 122.271  1.00  0.00     0.014 C 
ENDROOT
BRANCH   1   3
ATOM      3  C   UNL     1     104.782 128.482 122.100  1.00  0.00     0.230 C 
BRANCH   3   4
ATOM      4  N   UNL     1     104.472 127.779 120.846  1.00  0.00    -0.350 N 
ATOM      5  H   UNL     1     104.983 126.866 120.811  1.00  0.00     0.345 HD
ATOM      6  H   UNL     1     103.451 127.562 120.796  1.00  0.00     0.345 HD
ATOM      7  H   UNL     1     104.748 128.356 120.018  1.00  0.00     0.345 HD
ENDBRANCH   3   4
BRANCH   3   8
ATOM      8  C   UNL     1     103.997 127.855 123.226  1.00  0.00     0.099 C 
ATOM      9  O   UNL     1     102.819 127.454 123.029  1.00  0.00    -0.544 OA
ATOM     10  O   UNL     1     104.568 127.717 124.485  1.00  0.00    -0.544 OA
ENDBRANCH   3   8
ENDBRANCH   1   3
BRANCH   1  11
ATOM     11  C   UNL     1     107.125 129.480 121.562  1.00  0.00     0.006 C 
ATOM     12  C   UNL     1     107.313 130.848 122.223  1.00  0.00     0.004 C 
ENDBRANCH   1  11
TORSDOF 4
ENDMDL
MODEL 4
REMARK VINA RESULT:    -3.444      7.975      8.519
REMARK INTER + INTRA:          -4.208
REMARK INTER:                  -4.181
REMARK INTRA:                  -0.027
REMARK UNBOUND:                -0.060
REMARK SMILES CC[C@H](C)[C@@H]([NH3+])C(=O)[O-]
REMARK SMILES IDX 3 1 4 2 5 3 6 4 7 8 8 9 9 10 2 11 1 12
REMARK H PARENT 6 5 6 6 6 7
REMARK Flexibility Score: inf
ROOT
ATOM      1  C   UNL     1     106.645 126.979 123.186  1.00  0.00     0.050 C 
ATOM      2  C   UNL     1     107.134 126.024 122.082  1.00  0.00     0.014 C 
ENDROOT
BRANCH   1   3
ATOM      3  C   UNL     1     105.881 128.207 122.598  1.00  0.00     0.230 C 
BRANCH   3   4
ATOM      4  N   UNL     1     106.728 128.979 121.675  1.00  0.00    -0.350 N 
ATOM      5  H   UNL     1     107.662 129.159 122.111  1.00  0.00     0.345 HD
ATOM      6  H   UNL     1     106.897 128.435 120.799  1.00  0.00     0.345 HD
ATOM      7  H   UNL     1     106.281 129.894 121.438  1.00  0.00     0.345 HD
ENDBRANCH   3   4
BRANCH   3   8
ATOM      8  C   UNL     1     104.632 127.769 121.873  1.00  0.00     0.099 C 
ATOM      9  O   UNL     1     103.575 127.537 122.518  1.00  0.00    -0.544 OA
ATOM     10  O   UNL     1     104.640 127.620 120.492  1.00  0.00    -0.544 OA
ENDBRANCH   3   8
ENDBRANCH   1   3
BRANCH   1  11
ATOM     11  C   UNL     1     107.815 127.374 124.127  1.00  0.00     0.006 C 
ATOM     12  C   UNL     1     107.606 126.994 125.596  1.00  0.00     0.004 C 
ENDBRANCH   1  11
TORSDOF 4
ENDMDL
MODEL 5
REMARK VINA RESULT:    -3.279      7.134      8.357
REMARK INTER + INTRA:          -4.010
REMARK INTER:                  -3.875
REMARK INTRA:                  -0.135
REMARK UNBOUND:                -0.060
REMARK SMILES CC[C@H](C)[C@@H]([NH3+])C(=O)[O-]
REMARK SMILES IDX 3 1 4 2 5 3 6 4 7 8 8 9 9 10 2 11 1 12
REMARK H PARENT 6 5 6 6 6 7
REMARK Flexibility Score: inf
ROOT
ATOM      1  C   UNL     1     105.774 127.874 121.798  1.00  0.00     0.050 C 
ATOM      2  C   UNL     1     104.724 127.423 120.766  1.00  0.00     0.014 C 
ENDROOT
BRANCH   1   3
ATOM      3  C   UNL     1     105.127 128.203 123.181  1.00  0.00     0.230 C 
BRANCH   3   4
ATOM      4  N   UNL     1     103.662 128.088 123.132  1.00  0.00    -0.350 N 
ATOM      5  H   UNL     1     103.248 128.385 124.047  1.00  0.00     0.345 HD
ATOM      6  H   UNL     1     103.274 128.724 122.398  1.00  0.00     0.345 HD
ATOM      7  H   UNL     1     103.372 127.104 122.931  1.00  0.00     0.345 HD
ENDBRANCH   3   4
BRANCH   3   8
ATOM      8  C   UNL     1     105.659 127.288 124.256  1.00  0.00     0.099 C 
ATOM      9  O   UNL     1     106.637 126.531 124.017  1.00  0.00    -0.544 OA
ATOM     10  O   UNL     1     105.074 127.275 125.517  1.00  0.00    -0.544 OA
ENDBRANCH   3   8
ENDBRANCH   1   3
BRANCH   1  11
ATOM     11  C   UNL     1     106.638 129.034 121.231  1.00  0.00     0.006 C 
ATOM     12  C   UNL     1     107.171 130.005 122.288  1.00  0.00     0.004 C 
ENDBRANCH   1  11
TORSDOF 4
ENDMDL
MODEL 6
REMARK VINA RESULT:    -3.262      7.073      8.028
REMARK INTER + INTRA:          -3.989
REMARK INTER:                  -3.923
REMARK INTRA:                  -0.067
REMARK UNBOUND:                -0.060
REMARK SMILES CC[C@H](C)[C@@H]([NH3+])C(=O)[O-]
REMARK SMILES IDX 3 1 4 2 5 3 6 4 7 8 8 9 9 10 2 11 1 12
REMARK H PARENT 6 5 6 6 6 7
REMARK Flexibility Score: inf
ROOT
ATOM      1  C   UNL     1     106.529 128.066 122.890  1.00  0.00     0.050 C 
ATOM      2  C   UNL     1     107.023 129.358 122.214  1.00  0.00     0.014 C 
ENDROOT
BRANCH   1   3
ATOM      3  C   UNL     1     107.646 127.396 123.751  1.00  0.00     0.230 C 
BRANCH   3   4
ATOM      4  N   UNL     1     108.658 128.373 124.178  1.00  0.00    -0.350 N 
ATOM      5  H   UNL     1     109.578 128.159 123.726  1.00  0.00     0.345 HD
ATOM      6  H   UNL     1     108.383 129.335 123.874  1.00  0.00     0.345 HD
ATOM      7  H   UNL     1     108.777 128.356 125.217  1.00  0.00     0.345 HD
ENDBRANCH   3   4
BRANCH   3   8
ATOM      8  C   UNL     1     107.059 126.727 124.970  1.00  0.00     0.099 C 
ATOM      9  O   UNL     1     107.737 125.886 125.618  1.00  0.00    -0.544 OA
ATOM     10  O   UNL     1     105.769 127.034 125.384  1.00  0.00    -0.544 OA
ENDBRANCH   3   8
ENDBRANCH   1   3
BRANCH   1  11
ATOM     11  C   UNL     1     105.898 127.106 121.844  1.00  0.00     0.006 C 
ATOM     12  C   UNL     1     104.728 127.704 121.056  1.00  0.00     0.004 C 
ENDBRANCH   1  11
TORSDOF 4
ENDMDL
MODEL 7
REMARK VINA RESULT:    -3.254      7.916      8.674
REMARK INTER + INTRA:          -3.980
REMARK INTER:                  -3.930
REMARK INTRA:                  -0.050
REMARK UNBOUND:                -0.060
REMARK SMILES CC[C@H](C)[C@@H]([NH3+])C(=O)[O-]
REMARK SMILES IDX 3 1 4 2 5 3 6 4 7 8 8 9 9 10 2 11 1 12
REMARK H PARENT 6 5 6 6 6 7
REMARK Flexibility Score: inf
ROOT
ATOM      1  C   UNL     1     106.266 127.270 123.721  1.00  0.00     0.050 C 
ATOM      2  C   UNL     1     105.853 127.031 125.185  1.00  0.00     0.014 C 
ENDROOT
BRANCH   1   3
ATOM      3  C   UNL     1     105.025 127.427 122.785  1.00  0.00     0.230 C 
BRANCH   3   4
ATOM      4  N   UNL     1     103.973 128.240 123.414  1.00  0.00    -0.350 N 
ATOM      5  H   UNL     1     104.131 128.294 124.447  1.00  0.00     0.345 HD
ATOM      6  H   UNL     1     104.003 129.217 123.045  1.00  0.00     0.345 HD
ATOM      7  H   UNL     1     103.029 127.828 123.235  1.00  0.00     0.345 HD
ENDBRANCH   3   4
BRANCH   3   8
ATOM      8  C   UNL     1     105.417 128.056 121.470  1.00  0.00     0.099 C 
ATOM      9  O   UNL     1     104.805 127.748 120.414  1.00  0.00    -0.544 OA
ATOM     10  O   UNL     1     106.455 128.978 121.418  1.00  0.00    -0.544 OA
ENDBRANCH   3   8
ENDBRANCH   1   3
BRANCH   1  11
ATOM     11  C   UNL     1     107.261 126.177 123.246  1.00  0.00     0.006 C 
ATOM     12  C   UNL     1     108.393 125.875 124.233  1.00  0.00     0.004 C 
ENDBRANCH   1  11
TORSDOF 4
ENDMDL
MODEL 8
REMARK VINA RESULT:    -3.147      7.779      8.547
REMARK INTER + INTRA:          -3.851
REMARK INTER:                  -3.839
REMARK INTRA:                  -0.012
REMARK UNBOUND:                -0.060
REMARK SMILES CC[C@H](C)[C@@H]([NH3+])C(=O)[O-]
REMARK SMILES IDX 3 1 4 2 5 3 6 4 7 8 8 9 9 10 2 11 1 12
REMARK H PARENT 6 5 6 6 6 7
REMARK Flexibility Score: inf
ROOT
ATOM      1  C   UNL     1     106.796 127.055 123.066  1.00  0.00     0.050 C 
ATOM      2  C   UNL     1     106.862 126.328 121.711  1.00  0.00     0.014 C 
ENDROOT
BRANCH   1   3
ATOM      3  C   UNL     1     107.366 126.178 124.225  1.00  0.00     0.230 C 
BRANCH   3   4
ATOM      4  N   UNL     1     108.793 125.882 124.029  1.00  0.00    -0.350 N 
ATOM      5  H   UNL     1     109.092 126.175 123.069  1.00  0.00     0.345 HD
ATOM      6  H   UNL     1     109.372 126.424 124.710  1.00  0.00     0.345 HD
ATOM      7  H   UNL     1     108.981 124.860 124.147  1.00  0.00     0.345 HD
ENDBRANCH   3   4
BRANCH   3   8
ATOM      8  C   UNL     1     107.181 126.859 125.559  1.00  0.00     0.099 C 
ATOM      9  O   UNL     1     108.001 127.735 125.942  1.00  0.00    -0.544 OA
ATOM     10  O   UNL     1     106.105 126.525 126.372  1.00  0.00    -0.544 OA
ENDBRANCH   3   8
ENDBRANCH   1   3
BRANCH   1  11
ATOM     11  C   UNL     1     105.360 127.579 123.338  1.00  0.00     0.006 C 
ATOM     12  C   UNL     1     104.972 128.821 122.530  1.00  0.00     0.004 C 
ENDBRANCH   1  11
TORSDOF 4
ENDMDL
MODEL 9
REMARK VINA RESULT:    -3.087      6.731      7.456
REMARK INTER + INTRA:          -3.778
REMARK INTER:                  -3.655
REMARK INTRA:                  -0.124
REMARK UNBOUND:                -0.060
REMARK SMILES CC[C@H](C)[C@@H]([NH3+])C(=O)[O-]
REMARK SMILES IDX 3 1 4 2 5 3 6 4 7 8 8 9 9 10 2 11 1 12
REMARK H PARENT 6 5 6 6 6 7
REMARK Flexibility Score: inf
ROOT
ATOM      1  C   UNL     1     109.460 134.878 129.362  1.00  0.00     0.050 C 
ATOM      2  C   UNL     1     110.832 135.125 130.017  1.00  0.00     0.014 C 
ENDROOT
BRANCH   1   3
ATOM      3  C   UNL     1     109.450 133.571 128.508  1.00  0.00     0.230 C 
BRANCH   3   4
ATOM      4  N   UNL     1     110.748 132.881 128.560  1.00  0.00    -0.350 N 
ATOM      5  H   UNL     1     110.766 132.210 129.363  1.00  0.00     0.345 HD
ATOM      6  H   UNL     1     110.895 132.322 127.688  1.00  0.00     0.345 HD
ATOM      7  H   UNL     1     111.529 133.567 128.671  1.00  0.00     0.345 HD
ENDBRANCH   3   4
BRANCH   3   8
ATOM      8  C   UNL     1     108.369 132.628 128.976  1.00  0.00     0.099 C 
ATOM      9  O   UNL     1     108.432 131.403 128.694  1.00  0.00    -0.544 OA
ATOM     10  O   UNL     1     107.298 133.107 129.721  1.00  0.00    -0.544 OA
ENDBRANCH   3   8
ENDBRANCH   1   3
BRANCH   1  11
ATOM     11  C   UNL     1     108.995 136.133 128.575  1.00  0.00     0.006 C 
ATOM     12  C   UNL     1     107.512 136.477 128.745  1.00  0.00     0.004 C 
ENDBRANCH   1  11
TORSDOF 4
ENDMDL
