MODEL 1
REMARK VINA RESULT:    -5.156      0.000      0.000
REMARK INTER + INTRA:          -5.633
REMARK INTER:                  -5.608
REMARK INTRA:                  -0.025
REMARK UNBOUND:                -0.025
REMARK SMILES COc1ccccc1O
REMARK SMILES IDX 3 1 4 2 5 3 6 4 7 5 8 6 2 7 1 8 9 9
REMARK H PARENT 9 10
REMARK Flexibility Score: inf
ROOT
ATOM      1  C   UNL     1     -11.355   1.020  -9.552  1.00  0.00     0.160 A 
ATOM      2  C   UNL     1     -12.727   0.713  -9.667  1.00  0.00     0.050 A 
ATOM      3  C   UNL     1     -13.689   1.715  -9.516  1.00  0.00     0.004 A 
ATOM      4  C   UNL     1     -13.298   3.028  -9.251  1.00  0.00     0.004 A 
ATOM      5  C   UNL     1     -11.943   3.343  -9.134  1.00  0.00     0.050 A 
ATOM      6  C   UNL     1     -10.970   2.347  -9.284  1.00  0.00     0.157 A 
ENDROOT
BRANCH   1   7
ATOM      7  O   UNL     1     -10.360   0.040  -9.698  1.00  0.00    -0.493 OA
ATOM      8  C   UNL     1     -10.606  -1.310 -10.077  1.00  0.00     0.278 C 
ENDBRANCH   1   7
BRANCH   6   9
ATOM      9  O   UNL     1      -9.625   2.697  -9.162  1.00  0.00    -0.504 OA
ATOM     10  H   UNL     1      -9.332   3.640  -8.937  1.00  0.00     0.293 HD
ENDBRANCH   6   9
TORSDOF 2
ENDMDL
MODEL 2
REMARK VINA RESULT:    -4.994      2.306      3.151
REMARK INTER + INTRA:          -5.458
REMARK INTER:                  -5.432
REMARK INTRA:                  -0.026
REMARK UNBOUND:                -0.025
REMARK SMILES COc1ccccc1O
REMARK SMILES IDX 3 1 4 2 5 3 6 4 7 5 8 6 2 7 1 8 9 9
REMARK H PARENT 9 10
REMARK Flexibility Score: inf
ROOT
ATOM      1  C   UNL     1     -13.339   1.694  -9.392  1.00  0.00     0.160 A 
ATOM      2  C   UNL     1     -12.343   0.743  -9.692  1.00  0.00     0.050 A 
ATOM      3  C   UNL     1     -10.993   1.104  -9.673  1.00  0.00     0.004 A 
ATOM      4  C   UNL     1     -10.622   2.411  -9.356  1.00  0.00     0.004 A 
ATOM      5  C   UNL     1     -11.600   3.362  -9.057  1.00  0.00     0.050 A 
ATOM      6  C   UNL     1     -12.956   3.011  -9.073  1.00  0.00     0.157 A 
ENDROOT
BRANCH   1   7
ATOM      7  O   UNL     1     -14.705   1.368  -9.400  1.00  0.00    -0.493 OA
ATOM      8  C   UNL     1     -15.265   0.256 -10.092  1.00  0.00     0.278 C 
ENDBRANCH   1   7
BRANCH   6   9
ATOM      9  O   UNL     1     -13.906   3.986  -8.769  1.00  0.00    -0.504 OA
ATOM     10  H   UNL     1     -14.151   4.721  -9.422  1.00  0.00     0.293 HD
ENDBRANCH   6   9
TORSDOF 2
ENDMDL
MODEL 3
REMARK VINA RESULT:    -4.681      1.344      2.354
REMARK INTER + INTRA:          -5.117
REMARK INTER:                  -5.092
REMARK INTRA:                  -0.025
REMARK UNBOUND:                -0.025
REMARK SMILES COc1ccccc1O
REMARK SMILES IDX 3 1 4 2 5 3 6 4 7 5 8 6 2 7 1 8 9 9
REMARK H PARENT 9 10
REMARK Flexibility Score: inf
ROOT
ATOM      1  C   UNL     1     -12.604   0.899  -9.627  1.00  0.00     0.160 A 
ATOM      2  C   UNL     1     -13.374   2.080  -9.631  1.00  0.00     0.050 A 
ATOM      3  C   UNL     1     -12.753   3.328  -9.533  1.00  0.00     0.004 A 
ATOM      4  C   UNL     1     -11.364   3.413  -9.432  1.00  0.00     0.004 A 
ATOM      5  C   UNL     1     -10.591   2.250  -9.427  1.00  0.00     0.050 A 
ATOM      6  C   UNL     1     -11.203   0.994  -9.525  1.00  0.00     0.157 A 
ENDROOT
BRANCH   1   7
ATOM      7  O   UNL     1     -13.192  -0.373  -9.724  1.00  0.00    -0.493 OA
ATOM      8  C   UNL     1     -14.596  -0.614  -9.728  1.00  0.00     0.278 C 
ENDBRANCH   1   7
BRANCH   6   9
ATOM      9  O   UNL     1     -10.401  -0.147  -9.517  1.00  0.00    -0.504 OA
ATOM     10  H   UNL     1     -10.401  -0.801  -8.743  1.00  0.00     0.293 HD
ENDBRANCH   6   9
TORSDOF 2
ENDMDL
MODEL 4
REMARK VINA RESULT:    -4.540     16.625     17.266
REMARK INTER + INTRA:          -4.964
REMARK INTER:                  -4.939
REMARK INTRA:                  -0.025
REMARK UNBOUND:                -0.025
REMARK SMILES COc1ccccc1O
REMARK SMILES IDX 3 1 4 2 5 3 6 4 7 5 8 6 2 7 1 8 9 9
REMARK H PARENT 9 10
REMARK Flexibility Score: inf
ROOT
ATOM      1  C   UNL     1     -11.149   4.145   6.848  1.00  0.00     0.160 A 
ATOM      2  C   UNL     1     -10.799   5.063   7.859  1.00  0.00     0.050 A 
ATOM      3  C   UNL     1     -11.150   4.815   9.189  1.00  0.00     0.004 A 
ATOM      4  C   UNL     1     -11.849   3.656   9.525  1.00  0.00     0.004 A 
ATOM      5  C   UNL     1     -12.201   2.740   8.532  1.00  0.00     0.050 A 
ATOM      6  C   UNL     1     -11.854   2.978   7.196  1.00  0.00     0.157 A 
ENDROOT
BRANCH   1   7
ATOM      7  O   UNL     1     -10.813   4.359   5.501  1.00  0.00    -0.493 OA
ATOM      8  C   UNL     1     -10.093   5.489   5.019  1.00  0.00     0.278 C 
ENDBRANCH   1   7
BRANCH   6   9
ATOM      9  O   UNL     1     -12.222   2.042   6.229  1.00  0.00    -0.504 OA
ATOM     10  H   UNL     1     -11.946   1.069   6.289  1.00  0.00     0.293 HD
ENDBRANCH   6   9
TORSDOF 2
ENDMDL
MODEL 5
REMARK VINA RESULT:    -4.503     16.259     16.927
REMARK INTER + INTRA:          -4.923
REMARK INTER:                  -4.891
REMARK INTRA:                  -0.032
REMARK UNBOUND:                -0.025
REMARK SMILES COc1ccccc1O
REMARK SMILES IDX 3 1 4 2 5 3 6 4 7 5 8 6 2 7 1 8 9 9
REMARK H PARENT 9 10
REMARK Flexibility Score: inf
ROOT
ATOM      1  C   UNL     1     -10.595   4.864   6.630  1.00  0.00     0.160 A 
ATOM      2  C   UNL     1     -11.222   4.123   5.607  1.00  0.00     0.050 A 
ATOM      3  C   UNL     1     -12.204   3.178   5.919  1.00  0.00     0.004 A 
ATOM      4  C   UNL     1     -12.572   2.964   7.248  1.00  0.00     0.004 A 
ATOM      5  C   UNL     1     -11.958   3.691   8.269  1.00  0.00     0.050 A 
ATOM      6  C   UNL     1     -10.973   4.640   7.968  1.00  0.00     0.157 A 
ENDROOT
BRANCH   1   7
ATOM      7  O   UNL     1      -9.605   5.821   6.355  1.00  0.00    -0.493 OA
ATOM      8  C   UNL     1      -9.692   6.798   5.323  1.00  0.00     0.278 C 
ENDBRANCH   1   7
BRANCH   6   9
ATOM      9  O   UNL     1     -10.380   5.350   9.012  1.00  0.00    -0.504 OA
ATOM     10  H   UNL     1     -10.911   5.678   9.810  1.00  0.00     0.293 HD
ENDBRANCH   6   9
TORSDOF 2
ENDMDL
MODEL 6
REMARK VINA RESULT:    -4.444     15.384     16.039
REMARK INTER + INTRA:          -4.858
REMARK INTER:                  -4.819
REMARK INTRA:                  -0.040
REMARK UNBOUND:                -0.025
REMARK SMILES COc1ccccc1O
REMARK SMILES IDX 3 1 4 2 5 3 6 4 7 5 8 6 2 7 1 8 9 9
REMARK H PARENT 9 10
REMARK Flexibility Score: inf
ROOT
ATOM      1  C   UNL     1     -12.174   4.065   5.523  1.00  0.00     0.160 A 
ATOM      2  C   UNL     1     -12.045   5.247   6.283  1.00  0.00     0.050 A 
ATOM      3  C   UNL     1     -11.640   5.185   7.619  1.00  0.00     0.004 A 
ATOM      4  C   UNL     1     -11.359   3.953   8.210  1.00  0.00     0.004 A 
ATOM      5  C   UNL     1     -11.484   2.777   7.468  1.00  0.00     0.050 A 
ATOM      6  C   UNL     1     -11.889   2.827   6.128  1.00  0.00     0.157 A 
ENDROOT
BRANCH   1   7
ATOM      7  O   UNL     1     -12.578   4.087   4.178  1.00  0.00    -0.493 OA
ATOM      8  C   UNL     1     -13.841   4.563   3.722  1.00  0.00     0.278 C 
ENDBRANCH   1   7
BRANCH   6   9
ATOM      9  O   UNL     1     -12.003   1.633   5.416  1.00  0.00    -0.504 OA
ATOM     10  H   UNL     1     -11.791   0.734   5.832  1.00  0.00     0.293 HD
ENDBRANCH   6   9
TORSDOF 2
ENDMDL
MODEL 7
REMARK VINA RESULT:    -4.329     17.196     17.718
REMARK INTER + INTRA:          -4.733
REMARK INTER:                  -4.690
REMARK INTRA:                  -0.044
REMARK UNBOUND:                -0.025
REMARK SMILES COc1ccccc1O
REMARK SMILES IDX 3 1 4 2 5 3 6 4 7 5 8 6 2 7 1 8 9 9
REMARK H PARENT 9 10
REMARK Flexibility Score: inf
ROOT
ATOM      1  C   UNL     1     -11.259   3.775   7.357  1.00  0.00     0.160 A 
ATOM      2  C   UNL     1     -12.018   2.680   7.819  1.00  0.00     0.050 A 
ATOM      3  C   UNL     1     -12.341   2.566   9.174  1.00  0.00     0.004 A 
ATOM      4  C   UNL     1     -11.914   3.538  10.079  1.00  0.00     0.004 A 
ATOM      5  C   UNL     1     -11.162   4.627   9.633  1.00  0.00     0.050 A 
ATOM      6  C   UNL     1     -10.833   4.751   8.278  1.00  0.00     0.157 A 
ENDROOT
BRANCH   1   7
ATOM      7  O   UNL     1     -10.916   3.923   6.003  1.00  0.00    -0.493 OA
ATOM      8  C   UNL     1     -11.748   4.532   5.021  1.00  0.00     0.278 C 
ENDBRANCH   1   7
BRANCH   6   9
ATOM      9  O   UNL     1     -10.081   5.851   7.866  1.00  0.00    -0.504 OA
ATOM     10  H   UNL     1      -9.522   5.836   7.022  1.00  0.00     0.293 HD
ENDBRANCH   6   9
TORSDOF 2
ENDMDL
MODEL 8
REMARK VINA RESULT:    -4.317     16.251     16.920
REMARK INTER + INTRA:          -4.721
REMARK INTER:                  -4.679
REMARK INTRA:                  -0.042
REMARK UNBOUND:                -0.025
REMARK SMILES COc1ccccc1O
REMARK SMILES IDX 3 1 4 2 5 3 6 4 7 5 8 6 2 7 1 8 9 9
REMARK H PARENT 9 10
REMARK Flexibility Score: inf
ROOT
ATOM      1  C   UNL     1     -11.331   3.911   7.458  1.00  0.00     0.160 A 
ATOM      2  C   UNL     1     -10.506   4.794   6.730  1.00  0.00     0.050 A 
ATOM      3  C   UNL     1     -10.628   4.891   5.341  1.00  0.00     0.004 A 
ATOM      4  C   UNL     1     -11.569   4.114   4.665  1.00  0.00     0.004 A 
ATOM      5  C   UNL     1     -12.391   3.237   5.375  1.00  0.00     0.050 A 
ATOM      6  C   UNL     1     -12.278   3.132   6.767  1.00  0.00     0.157 A 
ENDROOT
BRANCH   1   7
ATOM      7  O   UNL     1     -11.238   3.787   8.853  1.00  0.00    -0.493 OA
ATOM      8  C   UNL     1     -11.554   4.822   9.779  1.00  0.00     0.278 C 
ENDBRANCH   1   7
BRANCH   6   9
ATOM      9  O   UNL     1     -13.115   2.245   7.444  1.00  0.00    -0.504 OA
ATOM     10  H   UNL     1     -13.890   1.780   6.988  1.00  0.00     0.293 HD
ENDBRANCH   6   9
TORSDOF 2
ENDMDL
MODEL 9
REMARK VINA RESULT:    -4.222     16.449     17.079
REMARK INTER + INTRA:          -4.618
REMARK INTER:                  -4.592
REMARK INTRA:                  -0.025
REMARK UNBOUND:                -0.025
REMARK SMILES COc1ccccc1O
REMARK SMILES IDX 3 1 4 2 5 3 6 4 7 5 8 6 2 7 1 8 9 9
REMARK H PARENT 9 10
REMARK Flexibility Score: inf
ROOT
ATOM      1  C   UNL     1     -11.149   4.583   7.683  1.00  0.00     0.160 A 
ATOM      2  C   UNL     1     -12.130   3.647   7.296  1.00  0.00     0.050 A 
ATOM      3  C   UNL     1     -12.329   3.349   5.945  1.00  0.00     0.004 A 
ATOM      4  C   UNL     1     -11.555   3.977   4.969  1.00  0.00     0.004 A 
ATOM      5  C   UNL     1     -10.582   4.906   5.339  1.00  0.00     0.050 A 
ATOM      6  C   UNL     1     -10.374   5.212   6.690  1.00  0.00     0.157 A 
ENDROOT
BRANCH   1   7
ATOM      7  O   UNL     1     -10.921   4.908   9.029  1.00  0.00    -0.493 OA
ATOM      8  C   UNL     1     -11.774   4.532  10.106  1.00  0.00     0.278 C 
ENDBRANCH   1   7
BRANCH   6   9
ATOM      9  O   UNL     1      -9.393   6.145   7.025  1.00  0.00    -0.504 OA
ATOM     10  H   UNL     1      -9.602   6.980   7.560  1.00  0.00     0.293 HD
ENDBRANCH   6   9
TORSDOF 2
ENDMDL
