MODEL 1
REMARK VINA RESULT:     1.559      0.000      0.000
REMARK INTER + INTRA:           1.604
REMARK INTER:                   1.604
REMARK INTRA:                   0.000
REMARK UNBOUND:                 0.000
REMARK SMILES C=C1[C@H]2C[C@]3(C[C@@H]1O)[C@@H](C)CC[C@H]3C2(C)C
REMARK SMILES IDX 10 1 9 2 11 3 12 4 13 5 5 6 4 7 3 8 14 9 15 10 16 11 2 12
REMARK SMILES IDX 1 13 7 14 6 15 8 16
REMARK H PARENT 8 17
REMARK Flexibility Score: inf
ROOT
ATOM      1  C   UNL     1      38.605 -31.714 -12.125  1.00  0.00     0.008 C 
ATOM      2  C   UNL     1      38.779 -32.829 -11.084  1.00  0.00    -0.008 C 
ATOM      3  C   UNL     1      38.585 -32.338  -9.617  1.00  0.00     0.004 C 
ATOM      4  C   UNL     1      38.014 -33.537  -8.814  1.00  0.00     0.005 C 
ATOM      5  C   UNL     1      38.110 -34.667  -9.823  1.00  0.00     0.002 C 
ATOM      6  C   UNL     1      37.814 -34.032 -11.177  1.00  0.00    -0.020 C 
ATOM      7  C   UNL     1      38.102 -35.229 -12.069  1.00  0.00     0.016 C 
ATOM      8  C   UNL     1      37.234 -36.303 -11.356  1.00  0.00     0.023 C 
ATOM      9  C   UNL     1      37.402 -36.036  -9.806  1.00  0.00    -0.025 C 
ATOM     10  C   UNL     1      38.317 -37.125  -9.198  1.00  0.00     0.012 C 
ATOM     11  C   UNL     1      36.096 -36.008  -8.973  1.00  0.00     0.012 C 
ATOM     12  C   UNL     1      35.810 -36.074 -11.812  1.00  0.00    -0.045 C 
ATOM     13  C   UNL     1      35.021 -37.115 -12.125  1.00  0.00     0.011 C 
ATOM     14  C   UNL     1      35.312 -34.647 -11.955  1.00  0.00     0.140 C 
ATOM     15  C   UNL     1      36.302 -33.581 -11.385  1.00  0.00     0.044 C 
ENDROOT
BRANCH  14  16
ATOM     16  O   UNL     1      34.066 -34.500 -11.318  1.00  0.00    -0.389 OA
ATOM     17  H   UNL     1      34.235 -34.435 -10.342  1.00  0.00     0.211 HD
ENDBRANCH  14  16
TORSDOF 1
ENDMDL
