MODEL 1
REMARK VINA RESULT:    -5.423      0.000      0.000
REMARK INTER + INTRA:         -10.589
REMARK INTER:                  -8.276
REMARK INTRA:                  -2.313
REMARK UNBOUND:                -2.313
REMARK SMILES CC(=O)CCC=C(C)CCC=C(C)CCC=C(C)C
REMARK SMILES IDX 10 1 11 2 12 3 13 4 14 5 15 6 16 7 18 8 17 9 19 10 9 11 7 12
REMARK SMILES IDX 6 13 8 14 5 15 4 16 2 17 3 18 1 19
REMARK H PARENT
REMARK Flexibility Score: inf
ROOT
ATOM      1  C   UNL     1      19.233 -32.142  20.906  1.00  0.00     0.032 C 
ENDROOT
BRANCH   1   2
ATOM      2  C   UNL     1      18.288 -33.040  20.144  1.00  0.00    -0.028 C 
ATOM      3  C   UNL     1      18.056 -34.342  20.432  1.00  0.00    -0.077 C 
ATOM      4  C   UNL     1      18.678 -35.021  21.628  1.00  0.00     0.039 C 
BRANCH   3   5
ATOM      5  C   UNL     1      17.118 -35.139  19.551  1.00  0.00     0.034 C 
BRANCH   5   6
ATOM      6  C   UNL     1      15.739 -35.315  20.201  1.00  0.00     0.032 C 
BRANCH   6   7
ATOM      7  C   UNL     1      14.927 -34.042  20.163  1.00  0.00    -0.028 C 
ATOM      8  C   UNL     1      15.253 -33.560  22.599  1.00  0.00     0.039 C 
ATOM      9  C   UNL     1      14.674 -33.261  21.236  1.00  0.00    -0.080 C 
ATOM     10  C   UNL     1      13.801 -32.047  21.050  1.00  0.00     0.039 C 
ENDBRANCH   6   7
ENDBRANCH   5   6
ENDBRANCH   3   5
ENDBRANCH   1   2
BRANCH   1  11
ATOM     11  C   UNL     1      18.642 -30.739  21.092  1.00  0.00     0.034 C 
BRANCH  11  12
ATOM     12  C   UNL     1      17.723 -30.671  22.293  1.00  0.00    -0.077 C 
ATOM     13  C   UNL     1      16.646 -29.853  22.257  1.00  0.00    -0.028 C 
ATOM     14  C   UNL     1      18.069 -31.483  23.520  1.00  0.00     0.039 C 
BRANCH  13  15
ATOM     15  C   UNL     1      15.659 -29.690  23.384  1.00  0.00     0.035 C 
BRANCH  15  16
ATOM     16  C   UNL     1      14.439 -28.884  22.928  1.00  0.00     0.079 C 
BRANCH  16  17
ATOM     17  C   UNL     1      13.193 -29.367  23.620  1.00  0.00     0.130 C 
ATOM     18  O   UNL     1      13.232 -30.397  24.278  1.00  0.00    -0.300 OA
ATOM     19  C   UNL     1      11.902 -28.608  23.530  1.00  0.00     0.087 C 
ENDBRANCH  16  17
ENDBRANCH  15  16
ENDBRANCH  13  15
ENDBRANCH  11  12
ENDBRANCH   1  11
TORSDOF 9
ENDMDL
MODEL 2
REMARK VINA RESULT:    -5.392      2.287      6.472
REMARK INTER + INTRA:         -10.542
REMARK INTER:                  -8.176
REMARK INTRA:                  -2.366
REMARK UNBOUND:                -2.313
REMARK SMILES CC(=O)CCC=C(C)CCC=C(C)CCC=C(C)C
REMARK SMILES IDX 10 1 11 2 12 3 13 4 14 5 15 6 16 7 18 8 17 9 19 10 9 11 7 12
REMARK SMILES IDX 6 13 8 14 5 15 4 16 2 17 3 18 1 19
REMARK H PARENT
REMARK Flexibility Score: inf
ROOT
ATOM      1  C   UNL     1      13.257 -31.339  21.485  1.00  0.00     0.032 C 
ENDROOT
BRANCH   1   2
ATOM      2  C   UNL     1      14.227 -30.191  21.635  1.00  0.00    -0.028 C 
ATOM      3  C   UNL     1      14.332 -29.405  22.732  1.00  0.00    -0.077 C 
ATOM      4  C   UNL     1      13.522 -29.658  23.980  1.00  0.00     0.039 C 
BRANCH   3   5
ATOM      5  C   UNL     1      15.317 -28.255  22.726  1.00  0.00     0.034 C 
BRANCH   5   6
ATOM      6  C   UNL     1      16.722 -28.712  22.311  1.00  0.00     0.032 C 
BRANCH   6   7
ATOM      7  C   UNL     1      17.230 -29.842  23.174  1.00  0.00    -0.028 C 
ATOM      8  C   UNL     1      17.927 -31.248  21.222  1.00  0.00     0.039 C 
ATOM      9  C   UNL     1      17.743 -30.998  22.700  1.00  0.00    -0.080 C 
ATOM     10  C   UNL     1      18.159 -32.057  23.689  1.00  0.00     0.039 C 
ENDBRANCH   6   7
ENDBRANCH   5   6
ENDBRANCH   3   5
ENDBRANCH   1   2
BRANCH   1  11
ATOM     11  C   UNL     1      13.911 -32.533  20.779  1.00  0.00     0.034 C 
BRANCH  11  12
ATOM     12  C   UNL     1      14.810 -33.315  21.713  1.00  0.00    -0.077 C 
ATOM     13  C   UNL     1      15.725 -34.165  21.193  1.00  0.00    -0.028 C 
ATOM     14  C   UNL     1      14.621 -33.159  23.204  1.00  0.00     0.039 C 
BRANCH  13  15
ATOM     15  C   UNL     1      16.675 -35.003  22.010  1.00  0.00     0.035 C 
BRANCH  15  16
ATOM     16  C   UNL     1      18.066 -35.033  21.369  1.00  0.00     0.079 C 
BRANCH  16  17
ATOM     17  C   UNL     1      18.004 -35.639  19.993  1.00  0.00     0.130 C 
ATOM     18  O   UNL     1      18.316 -34.962  19.024  1.00  0.00    -0.300 OA
ATOM     19  C   UNL     1      17.578 -37.062  19.783  1.00  0.00     0.087 C 
ENDBRANCH  16  17
ENDBRANCH  15  16
ENDBRANCH  13  15
ENDBRANCH  11  12
ENDBRANCH   1  11
TORSDOF 9
ENDMDL
MODEL 3
REMARK VINA RESULT:    -5.347      1.607      4.678
REMARK INTER + INTRA:         -10.474
REMARK INTER:                  -8.548
REMARK INTRA:                  -1.927
REMARK UNBOUND:                -2.313
REMARK SMILES CC(=O)CCC=C(C)CCC=C(C)CCC=C(C)C
REMARK SMILES IDX 10 1 11 2 12 3 13 4 14 5 15 6 16 7 18 8 17 9 19 10 9 11 7 12
REMARK SMILES IDX 6 13 8 14 5 15 4 16 2 17 3 18 1 19
REMARK H PARENT
REMARK Flexibility Score: inf
ROOT
ATOM      1  C   UNL     1      15.835 -35.349  20.117  1.00  0.00     0.032 C 
ENDROOT
BRANCH   1   2
ATOM      2  C   UNL     1      14.987 -34.103  20.016  1.00  0.00    -0.028 C 
ATOM      3  C   UNL     1      14.612 -33.335  21.065  1.00  0.00    -0.077 C 
ATOM      4  C   UNL     1      15.088 -33.610  22.471  1.00  0.00     0.039 C 
BRANCH   3   5
ATOM      5  C   UNL     1      13.716 -32.139  20.823  1.00  0.00     0.034 C 
BRANCH   5   6
ATOM      6  C   UNL     1      14.281 -30.865  21.465  1.00  0.00     0.032 C 
BRANCH   6   7
ATOM      7  C   UNL     1      13.328 -30.266  22.472  1.00  0.00    -0.028 C 
ATOM      8  C   UNL     1      14.861 -28.374  23.055  1.00  0.00     0.039 C 
ATOM      9  C   UNL     1      13.587 -29.168  23.216  1.00  0.00    -0.080 C 
ATOM     10  C   UNL     1      12.555 -28.722  24.219  1.00  0.00     0.039 C 
ENDBRANCH   6   7
ENDBRANCH   5   6
ENDBRANCH   3   5
ENDBRANCH   1   2
BRANCH   1  11
ATOM     11  C   UNL     1      17.233 -35.121  19.529  1.00  0.00     0.034 C 
BRANCH  11  12
ATOM     12  C   UNL     1      18.070 -34.210  20.403  1.00  0.00    -0.077 C 
ATOM     13  C   UNL     1      18.139 -32.892  20.109  1.00  0.00    -0.028 C 
ATOM     14  C   UNL     1      18.845 -34.815  21.551  1.00  0.00     0.039 C 
BRANCH  13  15
ATOM     15  C   UNL     1      18.937 -31.882  20.895  1.00  0.00     0.035 C 
BRANCH  15  16
ATOM     16  C   UNL     1      18.013 -30.863  21.570  1.00  0.00     0.079 C 
BRANCH  16  17
ATOM     17  C   UNL     1      18.281 -30.802  23.050  1.00  0.00     0.130 C 
ATOM     18  O   UNL     1      19.416 -30.581  23.447  1.00  0.00    -0.300 OA
ATOM     19  C   UNL     1      17.182 -30.998  24.052  1.00  0.00     0.087 C 
ENDBRANCH  16  17
ENDBRANCH  15  16
ENDBRANCH  13  15
ENDBRANCH  11  12
ENDBRANCH   1  11
TORSDOF 9
ENDMDL
MODEL 4
REMARK VINA RESULT:    -5.281      2.685      5.101
REMARK INTER + INTRA:         -10.372
REMARK INTER:                  -8.113
REMARK INTRA:                  -2.259
REMARK UNBOUND:                -2.313
REMARK SMILES CC(=O)CCC=C(C)CCC=C(C)CCC=C(C)C
REMARK SMILES IDX 10 1 11 2 12 3 13 4 14 5 15 6 16 7 18 8 17 9 19 10 9 11 7 12
REMARK SMILES IDX 6 13 8 14 5 15 4 16 2 17 3 18 1 19
REMARK H PARENT
REMARK Flexibility Score: inf
ROOT
ATOM      1  C   UNL     1      16.625 -34.264  21.707  1.00  0.00     0.032 C 
ENDROOT
BRANCH   1   2
ATOM      2  C   UNL     1      15.428 -33.807  22.505  1.00  0.00    -0.028 C 
ATOM      3  C   UNL     1      15.483 -33.286  23.754  1.00  0.00    -0.077 C 
ATOM      4  C   UNL     1      16.793 -33.029  24.458  1.00  0.00     0.039 C 
BRANCH   3   5
ATOM      5  C   UNL     1      14.194 -32.916  24.458  1.00  0.00     0.034 C 
BRANCH   5   6
ATOM      6  C   UNL     1      13.472 -31.761  23.751  1.00  0.00     0.032 C 
BRANCH   6   7
ATOM      7  C   UNL     1      14.270 -30.480  23.797  1.00  0.00    -0.028 C 
ATOM      8  C   UNL     1      14.578 -30.381  21.313  1.00  0.00     0.039 C 
ATOM      9  C   UNL     1      14.800 -29.866  22.716  1.00  0.00    -0.080 C 
ATOM     10  C   UNL     1      15.619 -28.619  22.928  1.00  0.00     0.039 C 
ENDBRANCH   6   7
ENDBRANCH   5   6
ENDBRANCH   3   5
ENDBRANCH   1   2
BRANCH   1  11
ATOM     11  C   UNL     1      17.024 -33.223  20.654  1.00  0.00     0.034 C 
BRANCH  11  12
ATOM     12  C   UNL     1      18.189 -32.373  21.115  1.00  0.00    -0.077 C 
ATOM     13  C   UNL     1      18.143 -31.033  20.935  1.00  0.00    -0.028 C 
ATOM     14  C   UNL     1      19.394 -33.058  21.717  1.00  0.00     0.039 C 
BRANCH  13  15
ATOM     15  C   UNL     1      19.234 -30.078  21.344  1.00  0.00     0.035 C 
BRANCH  15  16
ATOM     16  C   UNL     1      18.843 -28.632  21.024  1.00  0.00     0.079 C 
BRANCH  16  17
ATOM     17  C   UNL     1      20.069 -27.779  20.835  1.00  0.00     0.130 C 
ATOM     18  O   UNL     1      19.940 -26.598  20.546  1.00  0.00    -0.300 OA
ATOM     19  C   UNL     1      21.448 -28.343  21.004  1.00  0.00     0.087 C 
ENDBRANCH  16  17
ENDBRANCH  15  16
ENDBRANCH  13  15
ENDBRANCH  11  12
ENDBRANCH   1  11
TORSDOF 9
ENDMDL
MODEL 5
REMARK VINA RESULT:    -5.234      2.182      5.700
REMARK INTER + INTRA:         -10.300
REMARK INTER:                  -8.335
REMARK INTRA:                  -1.965
REMARK UNBOUND:                -2.313
REMARK SMILES CC(=O)CCC=C(C)CCC=C(C)CCC=C(C)C
REMARK SMILES IDX 10 1 11 2 12 3 13 4 14 5 15 6 16 7 18 8 17 9 19 10 9 11 7 12
REMARK SMILES IDX 6 13 8 14 5 15 4 16 2 17 3 18 1 19
REMARK H PARENT
REMARK Flexibility Score: inf
ROOT
ATOM      1  C   UNL     1      15.023 -33.824  20.122  1.00  0.00     0.032 C 
ENDROOT
BRANCH   1   2
ATOM      2  C   UNL     1      14.921 -33.303  21.536  1.00  0.00    -0.028 C 
ATOM      3  C   UNL     1      15.802 -32.452  22.112  1.00  0.00    -0.077 C 
ATOM      4  C   UNL     1      16.961 -31.860  21.349  1.00  0.00     0.039 C 
BRANCH   3   5
ATOM      5  C   UNL     1      15.603 -32.051  23.559  1.00  0.00     0.034 C 
BRANCH   5   6
ATOM      6  C   UNL     1      14.121 -32.075  23.958  1.00  0.00     0.032 C 
BRANCH   6   7
ATOM      7  C   UNL     1      13.557 -30.685  24.125  1.00  0.00    -0.028 C 
ATOM      8  C   UNL     1      12.274 -30.761  21.975  1.00  0.00     0.039 C 
ATOM      9  C   UNL     1      12.753 -30.069  23.230  1.00  0.00    -0.080 C 
ATOM     10  C   UNL     1      12.312 -28.657  23.513  1.00  0.00     0.039 C 
ENDBRANCH   6   7
ENDBRANCH   5   6
ENDBRANCH   3   5
ENDBRANCH   1   2
BRANCH   1  11
ATOM     11  C   UNL     1      15.518 -35.275  20.096  1.00  0.00     0.034 C 
BRANCH  11  12
ATOM     12  C   UNL     1      17.004 -35.367  20.370  1.00  0.00    -0.077 C 
ATOM     13  C   UNL     1      17.429 -35.884  21.546  1.00  0.00    -0.028 C 
ATOM     14  C   UNL     1      17.968 -34.829  19.339  1.00  0.00     0.039 C 
BRANCH  13  15
ATOM     15  C   UNL     1      18.876 -36.027  21.943  1.00  0.00     0.035 C 
BRANCH  15  16
ATOM     16  C   UNL     1      19.021 -36.075  23.468  1.00  0.00     0.079 C 
BRANCH  16  17
ATOM     17  C   UNL     1      18.302 -34.917  24.107  1.00  0.00     0.130 C 
ATOM     18  O   UNL     1      18.710 -33.780  23.922  1.00  0.00    -0.300 OA
ATOM     19  C   UNL     1      17.087 -35.127  24.961  1.00  0.00     0.087 C 
ENDBRANCH  16  17
ENDBRANCH  15  16
ENDBRANCH  13  15
ENDBRANCH  11  12
ENDBRANCH   1  11
TORSDOF 9
ENDMDL
MODEL 6
REMARK VINA RESULT:    -5.230      2.646      6.520
REMARK INTER + INTRA:         -10.295
REMARK INTER:                  -8.581
REMARK INTRA:                  -1.714
REMARK UNBOUND:                -2.313
REMARK SMILES CC(=O)CCC=C(C)CCC=C(C)CCC=C(C)C
REMARK SMILES IDX 10 1 11 2 12 3 13 4 14 5 15 6 16 7 18 8 17 9 19 10 9 11 7 12
REMARK SMILES IDX 6 13 8 14 5 15 4 16 2 17 3 18 1 19
REMARK H PARENT
REMARK Flexibility Score: inf
ROOT
ATOM      1  C   UNL     1      13.910 -32.415  24.238  1.00  0.00     0.032 C 
ENDROOT
BRANCH   1   2
ATOM      2  C   UNL     1      14.423 -31.044  23.865  1.00  0.00    -0.028 C 
ATOM      3  C   UNL     1      14.036 -30.343  22.773  1.00  0.00    -0.077 C 
ATOM      4  C   UNL     1      12.961 -30.844  21.840  1.00  0.00     0.039 C 
BRANCH   3   5
ATOM      5  C   UNL     1      14.673 -28.998  22.494  1.00  0.00     0.034 C 
BRANCH   5   6
ATOM      6  C   UNL     1      16.096 -28.913  23.063  1.00  0.00     0.032 C 
BRANCH   6   7
ATOM      7  C   UNL     1      17.069 -28.326  22.069  1.00  0.00    -0.028 C 
ATOM      8  C   UNL     1      18.927 -29.879  22.713  1.00  0.00     0.039 C 
ATOM      9  C   UNL     1      18.351 -28.727  21.923  1.00  0.00    -0.080 C 
ATOM     10  C   UNL     1      19.218 -28.007  20.922  1.00  0.00     0.039 C 
ENDBRANCH   6   7
ENDBRANCH   5   6
ENDBRANCH   3   5
ENDBRANCH   1   2
BRANCH   1  11
ATOM     11  C   UNL     1      15.033 -33.459  24.204  1.00  0.00     0.034 C 
BRANCH  11  12
ATOM     12  C   UNL     1      15.702 -33.522  22.848  1.00  0.00    -0.077 C 
ATOM     13  C   UNL     1      14.986 -33.930  21.775  1.00  0.00    -0.028 C 
ATOM     14  C   UNL     1      17.170 -33.175  22.745  1.00  0.00     0.039 C 
BRANCH  13  15
ATOM     15  C   UNL     1      15.534 -34.041  20.375  1.00  0.00     0.035 C 
BRANCH  15  16
ATOM     16  C   UNL     1      15.851 -35.499  20.027  1.00  0.00     0.079 C 
BRANCH  16  17
ATOM     17  C   UNL     1      17.242 -35.621  19.466  1.00  0.00     0.130 C 
ATOM     18  O   UNL     1      17.701 -36.730  19.233  1.00  0.00    -0.300 OA
ATOM     19  C   UNL     1      18.078 -34.410  19.175  1.00  0.00     0.087 C 
ENDBRANCH  16  17
ENDBRANCH  15  16
ENDBRANCH  13  15
ENDBRANCH  11  12
ENDBRANCH   1  11
TORSDOF 9
ENDMDL
MODEL 7
REMARK VINA RESULT:    -5.206      2.438      5.758
REMARK INTER + INTRA:         -10.258
REMARK INTER:                  -7.828
REMARK INTRA:                  -2.431
REMARK UNBOUND:                -2.313
REMARK SMILES CC(=O)CCC=C(C)CCC=C(C)CCC=C(C)C
REMARK SMILES IDX 10 1 11 2 12 3 13 4 14 5 15 6 16 7 18 8 17 9 19 10 9 11 7 12
REMARK SMILES IDX 6 13 8 14 5 15 4 16 2 17 3 18 1 19
REMARK H PARENT
REMARK Flexibility Score: inf
ROOT
ATOM      1  C   UNL     1      17.621 -32.166  24.452  1.00  0.00     0.032 C 
ENDROOT
BRANCH   1   2
ATOM      2  C   UNL     1      17.265 -30.798  23.920  1.00  0.00    -0.028 C 
ATOM      3  C   UNL     1      17.488 -30.378  22.653  1.00  0.00    -0.077 C 
ATOM      4  C   UNL     1      18.056 -31.291  21.594  1.00  0.00     0.039 C 
BRANCH   3   5
ATOM      5  C   UNL     1      17.125 -28.958  22.270  1.00  0.00     0.034 C 
BRANCH   5   6
ATOM      6  C   UNL     1      15.629 -28.680  22.468  1.00  0.00     0.032 C 
BRANCH   6   7
ATOM      7  C   UNL     1      14.766 -29.601  21.638  1.00  0.00    -0.028 C 
ATOM      8  C   UNL     1      13.599 -30.579  23.627  1.00  0.00     0.039 C 
ATOM      9  C   UNL     1      13.875 -30.481  22.145  1.00  0.00    -0.080 C 
ATOM     10  C   UNL     1      13.124 -31.373  21.190  1.00  0.00     0.039 C 
ENDBRANCH   6   7
ENDBRANCH   5   6
ENDBRANCH   3   5
ENDBRANCH   1   2
BRANCH   1  11
ATOM     11  C   UNL     1      16.408 -33.104  24.434  1.00  0.00     0.034 C 
BRANCH  11  12
ATOM     12  C   UNL     1      16.471 -34.084  23.282  1.00  0.00    -0.077 C 
ATOM     13  C   UNL     1      17.521 -34.932  23.192  1.00  0.00    -0.028 C 
ATOM     14  C   UNL     1      15.380 -34.048  22.237  1.00  0.00     0.039 C 
BRANCH  13  15
ATOM     15  C   UNL     1      17.705 -35.951  22.096  1.00  0.00     0.035 C 
BRANCH  15  16
ATOM     16  C   UNL     1      18.562 -35.381  20.961  1.00  0.00     0.079 C 
BRANCH  16  17
ATOM     17  C   UNL     1      17.778 -35.330  19.677  1.00  0.00     0.130 C 
ATOM     18  O   UNL     1      17.252 -36.348  19.253  1.00  0.00    -0.300 OA
ATOM     19  C   UNL     1      17.619 -34.051  18.908  1.00  0.00     0.087 C 
ENDBRANCH  16  17
ENDBRANCH  15  16
ENDBRANCH  13  15
ENDBRANCH  11  12
ENDBRANCH   1  11
TORSDOF 9
ENDMDL
MODEL 8
REMARK VINA RESULT:    -5.198      2.478      5.275
REMARK INTER + INTRA:         -10.247
REMARK INTER:                  -7.917
REMARK INTRA:                  -2.330
REMARK UNBOUND:                -2.313
REMARK SMILES CC(=O)CCC=C(C)CCC=C(C)CCC=C(C)C
REMARK SMILES IDX 10 1 11 2 12 3 13 4 14 5 15 6 16 7 18 8 17 9 19 10 9 11 7 12
REMARK SMILES IDX 6 13 8 14 5 15 4 16 2 17 3 18 1 19
REMARK H PARENT
REMARK Flexibility Score: inf
ROOT
ATOM      1  C   UNL     1      16.328 -29.952  21.585  1.00  0.00     0.032 C 
ENDROOT
BRANCH   1   2
ATOM      2  C   UNL     1      15.407 -30.546  22.624  1.00  0.00    -0.028 C 
ATOM      3  C   UNL     1      14.291 -31.262  22.350  1.00  0.00    -0.077 C 
ATOM      4  C   UNL     1      13.892 -31.615  20.938  1.00  0.00     0.039 C 
BRANCH   3   5
ATOM      5  C   UNL     1      13.431 -31.757  23.494  1.00  0.00     0.034 C 
BRANCH   5   6
ATOM      6  C   UNL     1      14.264 -32.481  24.560  1.00  0.00     0.032 C 
BRANCH   6   7
ATOM      7  C   UNL     1      15.030 -33.648  23.984  1.00  0.00    -0.028 C 
ATOM      8  C   UNL     1      17.248 -32.811  24.792  1.00  0.00     0.039 C 
ATOM      9  C   UNL     1      16.372 -33.794  24.053  1.00  0.00    -0.080 C 
ATOM     10  C   UNL     1      16.999 -34.989  23.383  1.00  0.00     0.039 C 
ENDBRANCH   6   7
ENDBRANCH   5   6
ENDBRANCH   3   5
ENDBRANCH   1   2
BRANCH   1  11
ATOM     11  C   UNL     1      17.797 -30.064  22.012  1.00  0.00     0.034 C 
BRANCH  11  12
ATOM     12  C   UNL     1      18.496 -31.217  21.323  1.00  0.00    -0.077 C 
ATOM     13  C   UNL     1      17.771 -32.287  20.924  1.00  0.00    -0.028 C 
ATOM     14  C   UNL     1      19.996 -31.158  21.150  1.00  0.00     0.039 C 
BRANCH  13  15
ATOM     15  C   UNL     1      18.344 -33.498  20.233  1.00  0.00     0.035 C 
BRANCH  15  16
ATOM     16  C   UNL     1      17.432 -33.959  19.092  1.00  0.00     0.079 C 
BRANCH  16  17
ATOM     17  C   UNL     1      16.617 -35.153  19.512  1.00  0.00     0.130 C 
ATOM     18  O   UNL     1      17.045 -36.278  19.297  1.00  0.00    -0.300 OA
ATOM     19  C   UNL     1      15.293 -34.994  20.200  1.00  0.00     0.087 C 
ENDBRANCH  16  17
ENDBRANCH  15  16
ENDBRANCH  13  15
ENDBRANCH  11  12
ENDBRANCH   1  11
TORSDOF 9
ENDMDL
MODEL 9
REMARK VINA RESULT:    -5.191      1.361      3.231
REMARK INTER + INTRA:         -10.236
REMARK INTER:                  -8.563
REMARK INTRA:                  -1.673
REMARK UNBOUND:                -2.313
REMARK SMILES CC(=O)CCC=C(C)CCC=C(C)CCC=C(C)C
REMARK SMILES IDX 10 1 11 2 12 3 13 4 14 5 15 6 16 7 18 8 17 9 19 10 9 11 7 12
REMARK SMILES IDX 6 13 8 14 5 15 4 16 2 17 3 18 1 19
REMARK H PARENT
REMARK Flexibility Score: inf
ROOT
ATOM      1  C   UNL     1      14.924 -33.886  20.006  1.00  0.00     0.032 C 
ENDROOT
BRANCH   1   2
ATOM      2  C   UNL     1      15.723 -35.164  20.099  1.00  0.00    -0.028 C 
ATOM      3  C   UNL     1      16.968 -35.337  19.596  1.00  0.00    -0.077 C 
ATOM      4  C   UNL     1      17.733 -34.211  18.946  1.00  0.00     0.039 C 
BRANCH   3   5
ATOM      5  C   UNL     1      17.633 -36.692  19.718  1.00  0.00     0.034 C 
BRANCH   5   6
ATOM      6  C   UNL     1      17.928 -37.052  21.181  1.00  0.00     0.032 C 
BRANCH   6   7
ATOM      7  C   UNL     1      18.907 -36.093  21.814  1.00  0.00    -0.028 C 
ATOM      8  C   UNL     1      17.229 -35.185  23.438  1.00  0.00     0.039 C 
ATOM      9  C   UNL     1      18.600 -35.227  22.806  1.00  0.00    -0.080 C 
ATOM     10  C   UNL     1      19.675 -34.293  23.300  1.00  0.00     0.039 C 
ENDBRANCH   6   7
ENDBRANCH   5   6
ENDBRANCH   3   5
ENDBRANCH   1   2
BRANCH   1  11
ATOM     11  C   UNL     1      14.650 -33.298  21.396  1.00  0.00     0.034 C 
BRANCH  11  12
ATOM     12  C   UNL     1      15.303 -31.943  21.572  1.00  0.00    -0.077 C 
ATOM     13  C   UNL     1      14.533 -30.831  21.557  1.00  0.00    -0.028 C 
ATOM     14  C   UNL     1      16.806 -31.873  21.708  1.00  0.00     0.039 C 
BRANCH  13  15
ATOM     15  C   UNL     1      15.058 -29.427  21.717  1.00  0.00     0.035 C 
BRANCH  15  16
ATOM     16  C   UNL     1      14.853 -28.928  23.151  1.00  0.00     0.079 C 
BRANCH  16  17
ATOM     17  C   UNL     1      13.553 -29.440  23.712  1.00  0.00     0.130 C 
ATOM     18  O   UNL     1      13.541 -30.489  24.339  1.00  0.00    -0.300 OA
ATOM     19  C   UNL     1      12.270 -28.685  23.526  1.00  0.00     0.087 C 
ENDBRANCH  16  17
ENDBRANCH  15  16
ENDBRANCH  13  15
ENDBRANCH  11  12
ENDBRANCH   1  11
TORSDOF 9
ENDMDL
