MODEL 1
REMARK VINA RESULT:    -7.830      0.000      0.000
REMARK INTER + INTRA:          -8.770
REMARK INTER:                  -8.516
REMARK INTRA:                  -0.253
REMARK UNBOUND:                -0.253
REMARK SMILES C=C(C)[C@H]1CC[C@]2(C)CC[C@]3(C)[C@H](CC[C@H]4[C@@]5(C)CC[C@H](O)C(C)(C)[C@@H]5CC[C@]43C)[C@H]12
REMARK SMILES IDX 4 1 5 2 6 3 7 4 31 5 13 6 14 7 15 8 16 9 17 10 19 11 20 12
REMARK SMILES IDX 21 13 23 14 26 15 27 16 28 17 29 18 11 19 10 20 9 21 12 22
REMARK SMILES IDX 30 23 24 24 25 25 18 26 8 27 2 28 3 29 1 30 22 31
REMARK H PARENT 22 32
REMARK Flexibility Score: inf
ROOT
ATOM      1  C   UNL     1     135.837 126.616 136.709  1.00  0.00     0.018 C 
ATOM      2  C   UNL     1     137.130 126.846 135.919  1.00  0.00     0.009 C 
ATOM      3  C   UNL     1     136.928 128.118 135.112  1.00  0.00     0.008 C 
ATOM      4  C   UNL     1     135.429 128.163 134.770  1.00  0.00    -0.029 C 
ATOM      5  C   UNL     1     134.726 127.370 135.913  1.00  0.00     0.006 C 
ATOM      6  C   UNL     1     133.750 128.249 136.765  1.00  0.00    -0.000 C 
ATOM      7  C   UNL     1     133.130 127.485 137.950  1.00  0.00     0.005 C 
ATOM      8  C   UNL     1     131.904 128.220 138.499  1.00  0.00     0.005 C 
ATOM      9  C   UNL     1     132.152 129.714 138.869  1.00  0.00     0.002 C 
ATOM     10  C   UNL     1     132.407 130.012 140.440  1.00  0.00    -0.026 C 
ATOM     11  C   UNL     1     133.029 128.814 141.234  1.00  0.00     0.010 C 
ATOM     12  C   UNL     1     133.412 129.160 142.687  1.00  0.00     0.033 C 
ATOM     13  C   UNL     1     134.340 130.385 142.783  1.00  0.00     0.120 C 
ATOM     14  C   UNL     1     133.803 131.660 142.044  1.00  0.00    -0.006 C 
ATOM     15  C   UNL     1     133.380 131.233 140.583  1.00  0.00     0.003 C 
ATOM     16  C   UNL     1     132.969 132.365 139.622  1.00  0.00     0.005 C 
ATOM     17  C   UNL     1     133.342 131.993 138.182  1.00  0.00     0.008 C 
ATOM     18  C   UNL     1     132.945 130.528 137.724  1.00  0.00    -0.024 C 
ATOM     19  C   UNL     1     134.230 129.705 137.159  1.00  0.00    -0.024 C 
ATOM     20  C   UNL     1     134.886 130.429 135.915  1.00  0.00     0.008 C 
ATOM     21  C   UNL     1     134.893 129.614 134.613  1.00  0.00     0.007 C 
ATOM     22  C   UNL     1     135.378 129.618 138.212  1.00  0.00     0.012 C 
ATOM     23  C   UNL     1     131.900 130.754 136.558  1.00  0.00     0.012 C 
ATOM     24  C   UNL     1     134.992 132.664 141.968  1.00  0.00     0.014 C 
ATOM     25  C   UNL     1     132.663 132.361 142.830  1.00  0.00     0.014 C 
ATOM     26  C   UNL     1     130.999 130.281 141.079  1.00  0.00     0.012 C 
ATOM     27  C   UNL     1     135.218 127.440 133.412  1.00  0.00     0.011 C 
ENDROOT
BRANCH   1  28
ATOM     28  C   UNL     1     135.656 125.122 137.024  1.00  0.00    -0.077 C 
ATOM     29  C   UNL     1     136.523 124.136 136.279  1.00  0.00     0.039 C 
ATOM     30  C   UNL     1     134.818 124.615 137.951  1.00  0.00     0.008 C 
ENDBRANCH   1  28
BRANCH  13  31
ATOM     31  O   UNL     1     134.674 130.656 144.124  1.00  0.00    -0.393 OA
ATOM     32  H   UNL     1     133.867 130.499 144.682  1.00  0.00     0.210 HD
ENDBRANCH  13  31
TORSDOF 2
ENDMDL
MODEL 2
REMARK VINA RESULT:    -6.064      2.373      7.258
REMARK INTER + INTRA:          -6.850
REMARK INTER:                  -6.376
REMARK INTRA:                  -0.474
REMARK UNBOUND:                -0.253
REMARK SMILES C=C(C)[C@H]1CC[C@]2(C)CC[C@]3(C)[C@H](CC[C@H]4[C@@]5(C)CC[C@H](O)C(C)(C)[C@@H]5CC[C@]43C)[C@H]12
REMARK SMILES IDX 4 1 5 2 6 3 7 4 31 5 13 6 14 7 15 8 16 9 17 10 19 11 20 12
REMARK SMILES IDX 21 13 23 14 26 15 27 16 28 17 29 18 11 19 10 20 9 21 12 22
REMARK SMILES IDX 30 23 24 24 25 25 18 26 8 27 2 28 3 29 1 30 22 31
REMARK H PARENT 22 32
REMARK Flexibility Score: inf
ROOT
ATOM      1  C   UNL     1     134.683 131.888 142.274  1.00  0.00     0.018 C 
ATOM      2  C   UNL     1     135.506 131.323 143.437  1.00  0.00     0.009 C 
ATOM      3  C   UNL     1     135.056 129.885 143.632  1.00  0.00     0.008 C 
ATOM      4  C   UNL     1     133.568 129.855 143.245  1.00  0.00    -0.029 C 
ATOM      5  C   UNL     1     133.390 131.016 142.219  1.00  0.00     0.006 C 
ATOM      6  C   UNL     1     132.956 130.523 140.798  1.00  0.00    -0.000 C 
ATOM      7  C   UNL     1     132.872 131.663 139.765  1.00  0.00     0.005 C 
ATOM      8  C   UNL     1     132.071 131.233 138.534  1.00  0.00     0.005 C 
ATOM      9  C   UNL     1     132.560 129.912 137.865  1.00  0.00     0.002 C 
ATOM     10  C   UNL     1     133.504 130.095 136.564  1.00  0.00    -0.026 C 
ATOM     11  C   UNL     1     134.327 131.426 136.542  1.00  0.00     0.010 C 
ATOM     12  C   UNL     1     135.338 131.517 135.380  1.00  0.00     0.033 C 
ATOM     13  C   UNL     1     136.295 130.312 135.327  1.00  0.00     0.120 C 
ATOM     14  C   UNL     1     135.576 128.918 135.315  1.00  0.00    -0.006 C 
ATOM     15  C   UNL     1     134.522 128.905 136.491  1.00  0.00     0.003 C 
ATOM     16  C   UNL     1     133.808 127.568 136.767  1.00  0.00     0.005 C 
ATOM     17  C   UNL     1     133.478 127.445 138.259  1.00  0.00     0.008 C 
ATOM     18  C   UNL     1     132.819 128.724 138.926  1.00  0.00    -0.024 C 
ATOM     19  C   UNL     1     133.660 129.227 140.224  1.00  0.00    -0.024 C 
ATOM     20  C   UNL     1     133.747 128.104 141.335  1.00  0.00     0.008 C 
ATOM     21  C   UNL     1     133.120 128.474 142.688  1.00  0.00     0.007 C 
ATOM     22  C   UNL     1     135.147 129.544 139.871  1.00  0.00     0.012 C 
ATOM     23  C   UNL     1     131.384 128.232 139.376  1.00  0.00     0.012 C 
ATOM     24  C   UNL     1     136.675 127.849 135.590  1.00  0.00     0.014 C 
ATOM     25  C   UNL     1     134.954 128.587 133.932  1.00  0.00     0.014 C 
ATOM     26  C   UNL     1     132.546 130.150 135.321  1.00  0.00     0.012 C 
ATOM     27  C   UNL     1     132.728 130.138 144.519  1.00  0.00     0.011 C 
ENDROOT
BRANCH   1  28
ATOM     28  C   UNL     1     134.557 133.416 142.393  1.00  0.00    -0.077 C 
ATOM     29  C   UNL     1     134.983 134.251 141.210  1.00  0.00     0.039 C 
ATOM     30  C   UNL     1     134.048 134.077 143.452  1.00  0.00     0.008 C 
ENDBRANCH   1  28
BRANCH  13  31
ATOM     31  O   UNL     1     137.205 130.443 134.260  1.00  0.00    -0.393 OA
ATOM     32  H   UNL     1     138.010 130.918 134.596  1.00  0.00     0.210 HD
ENDBRANCH  13  31
TORSDOF 2
ENDMDL
MODEL 3
REMARK VINA RESULT:    -5.017      2.294      7.297
REMARK INTER + INTRA:          -5.710
REMARK INTER:                  -5.230
REMARK INTRA:                  -0.481
REMARK UNBOUND:                -0.253
REMARK SMILES C=C(C)[C@H]1CC[C@]2(C)CC[C@]3(C)[C@H](CC[C@H]4[C@@]5(C)CC[C@H](O)C(C)(C)[C@@H]5CC[C@]43C)[C@H]12
REMARK SMILES IDX 4 1 5 2 6 3 7 4 31 5 13 6 14 7 15 8 16 9 17 10 19 11 20 12
REMARK SMILES IDX 21 13 23 14 26 15 27 16 28 17 29 18 11 19 10 20 9 21 12 22
REMARK SMILES IDX 30 23 24 24 25 25 18 26 8 27 2 28 3 29 1 30 22 31
REMARK H PARENT 22 32
REMARK Flexibility Score: inf
ROOT
ATOM      1  C   UNL     1     135.013 131.654 141.074  1.00  0.00     0.018 C 
ATOM      2  C   UNL     1     135.426 131.512 142.543  1.00  0.00     0.009 C 
ATOM      3  C   UNL     1     134.611 130.365 143.117  1.00  0.00     0.008 C 
ATOM      4  C   UNL     1     133.267 130.391 142.369  1.00  0.00    -0.029 C 
ATOM      5  C   UNL     1     133.583 131.034 140.984  1.00  0.00     0.006 C 
ATOM      6  C   UNL     1     133.332 130.063 139.782  1.00  0.00    -0.000 C 
ATOM      7  C   UNL     1     133.734 130.671 138.424  1.00  0.00     0.005 C 
ATOM      8  C   UNL     1     133.111 129.888 137.265  1.00  0.00     0.005 C 
ATOM      9  C   UNL     1     133.387 128.354 137.291  1.00  0.00     0.002 C 
ATOM     10  C   UNL     1     134.585 127.841 136.331  1.00  0.00    -0.026 C 
ATOM     11  C   UNL     1     135.695 128.910 136.054  1.00  0.00     0.010 C 
ATOM     12  C   UNL     1     136.906 128.364 135.270  1.00  0.00     0.033 C 
ATOM     13  C   UNL     1     137.533 127.122 135.931  1.00  0.00     0.120 C 
ATOM     14  C   UNL     1     136.513 125.968 136.230  1.00  0.00    -0.006 C 
ATOM     15  C   UNL     1     135.276 126.596 136.985  1.00  0.00     0.003 C 
ATOM     16  C   UNL     1     134.218 125.612 137.521  1.00  0.00     0.005 C 
ATOM     17  C   UNL     1     133.581 126.169 138.799  1.00  0.00     0.008 C 
ATOM     18  C   UNL     1     133.134 127.690 138.740  1.00  0.00    -0.024 C 
ATOM     19  C   UNL     1     133.798 128.560 139.942  1.00  0.00    -0.024 C 
ATOM     20  C   UNL     1     133.388 128.000 141.364  1.00  0.00     0.008 C 
ATOM     21  C   UNL     1     132.616 128.984 142.255  1.00  0.00     0.007 C 
ATOM     22  C   UNL     1     135.358 128.484 139.927  1.00  0.00     0.012 C 
ATOM     23  C   UNL     1     131.563 127.641 138.919  1.00  0.00     0.012 C 
ATOM     24  C   UNL     1     137.242 124.964 137.172  1.00  0.00     0.014 C 
ATOM     25  C   UNL     1     136.115 125.186 134.950  1.00  0.00     0.014 C 
ATOM     26  C   UNL     1     133.934 127.512 134.940  1.00  0.00     0.012 C 
ATOM     27  C   UNL     1     132.286 131.296 143.164  1.00  0.00     0.011 C 
ENDROOT
BRANCH   1  28
ATOM     28  C   UNL     1     135.241 133.094 140.586  1.00  0.00    -0.077 C 
ATOM     29  C   UNL     1     134.693 134.218 141.433  1.00  0.00     0.039 C 
ATOM     30  C   UNL     1     135.935 133.446 139.485  1.00  0.00     0.008 C 
ENDBRANCH   1  28
BRANCH  13  31
ATOM     31  O   UNL     1     138.640 126.666 135.189  1.00  0.00    -0.393 OA
ATOM     32  H   UNL     1     139.046 125.902 135.676  1.00  0.00     0.210 HD
ENDBRANCH  13  31
TORSDOF 2
ENDMDL
