MODEL 1
REMARK VINA RESULT:    -3.254      0.000      0.000
REMARK INTER + INTRA:         -13.724
REMARK INTER:                  -8.200
REMARK INTRA:                  -5.524
REMARK UNBOUND:                -5.524
REMARK SMILES CCCCCCCCCCCCCCCCCCCCCCCCCCCC(=O)[O-]
REMARK SMILES IDX 15 1 16 2 17 3 18 4 19 5 20 6 21 7 22 8 23 9 24 10 25 11
REMARK SMILES IDX 26 12 27 13 28 14 29 15 30 16 14 17 13 18 12 19 11 20 10 21
REMARK SMILES IDX 9 22 8 23 7 24 6 25 5 26 4 27 3 28 2 29 1 30
REMARK H PARENT
REMARK Flexibility Score: inf
ROOT
ATOM      1  C   UNL     1     165.386 157.203 179.799  1.00  0.00     0.000 C 
ENDROOT
BRANCH   1   2
ATOM      2  C   UNL     1     163.970 157.070 179.217  1.00  0.00     0.000 C 
BRANCH   2   3
ATOM      3  C   UNL     1     163.746 155.725 178.503  1.00  0.00     0.000 C 
BRANCH   3   4
ATOM      4  C   UNL     1     163.010 155.877 177.163  1.00  0.00     0.000 C 
BRANCH   4   5
ATOM      5  C   UNL     1     162.337 157.254 177.015  1.00  0.00     0.000 C 
BRANCH   5   6
ATOM      6  C   UNL     1     162.678 157.947 175.684  1.00  0.00     0.000 C 
BRANCH   6   7
ATOM      7  C   UNL     1     163.571 159.201 175.800  1.00  0.00     0.000 C 
BRANCH   7   8
ATOM      8  C   UNL     1     165.023 158.940 176.243  1.00  0.00     0.000 C 
BRANCH   8   9
ATOM      9  C   UNL     1     165.678 157.767 175.492  1.00  0.00     0.000 C 
BRANCH   9  10
ATOM     10  C   UNL     1     165.849 158.043 173.987  1.00  0.00     0.000 C 
BRANCH  10  11
ATOM     11  C   UNL     1     166.875 159.137 173.631  1.00  0.00     0.000 C 
BRANCH  11  12
ATOM     12  C   UNL     1     166.294 160.367 172.910  1.00  0.00     0.006 C 
BRANCH  12  13
ATOM     13  C   UNL     1     164.953 160.074 172.225  1.00  0.00     0.053 C 
BRANCH  13  14
ATOM     14  C   UNL     1     165.117 160.064 170.738  1.00  0.00     0.041 C 
ATOM     15  O   UNL     1     164.105 160.066 169.989  1.00  0.00    -0.550 OA
ATOM     16  O   UNL     1     166.387 160.007 170.179  1.00  0.00    -0.550 OA
ENDBRANCH  13  14
ENDBRANCH  12  13
ENDBRANCH  11  12
ENDBRANCH  10  11
ENDBRANCH   9  10
ENDBRANCH   8   9
ENDBRANCH   7   8
ENDBRANCH   6   7
ENDBRANCH   5   6
ENDBRANCH   4   5
ENDBRANCH   3   4
ENDBRANCH   2   3
ENDBRANCH   1   2
BRANCH   1  17
ATOM     17  C   UNL     1     166.463 156.616 178.873  1.00  0.00     0.000 C 
BRANCH  17  18
ATOM     18  C   UNL     1     167.416 155.647 179.596  1.00  0.00     0.000 C 
BRANCH  18  19
ATOM     19  C   UNL     1     166.726 154.521 180.387  1.00  0.00     0.000 C 
BRANCH  19  20
ATOM     20  C   UNL     1     167.588 153.255 180.504  1.00  0.00     0.000 C 
BRANCH  20  21
ATOM     21  C   UNL     1     168.828 153.289 179.596  1.00  0.00     0.000 C 
BRANCH  21  22
ATOM     22  C   UNL     1     168.951 152.058 178.673  1.00  0.00    -0.000 C 
BRANCH  22  23
ATOM     23  C   UNL     1     167.620 151.296 178.543  1.00  0.00    -0.000 C 
BRANCH  23  24
ATOM     24  C   UNL     1     166.879 151.606 177.231  1.00  0.00    -0.000 C 
BRANCH  24  25
ATOM     25  C   UNL     1     165.928 152.818 177.290  1.00  0.00    -0.000 C 
BRANCH  25  26
ATOM     26  C   UNL     1     166.332 154.014 176.407  1.00  0.00    -0.000 C 
BRANCH  26  27
ATOM     27  C   UNL     1     167.746 153.930 175.806  1.00  0.00    -0.000 C 
BRANCH  27  28
ATOM     28  C   UNL     1     168.316 155.304 175.428  1.00  0.00    -0.000 C 
BRANCH  28  29
ATOM     29  C   UNL     1     169.375 155.755 176.441  1.00  0.00    -0.003 C 
ATOM     30  C   UNL     1     169.433 157.276 176.540  1.00  0.00     0.004 C 
ENDBRANCH  28  29
ENDBRANCH  27  28
ENDBRANCH  26  27
ENDBRANCH  25  26
ENDBRANCH  24  25
ENDBRANCH  23  24
ENDBRANCH  22  23
ENDBRANCH  21  22
ENDBRANCH  20  21
ENDBRANCH  19  20
ENDBRANCH  18  19
ENDBRANCH  17  18
ENDBRANCH   1  17
TORSDOF 26
ENDMDL
MODEL 2
REMARK VINA RESULT:    -3.160      2.356      5.471
REMARK INTER + INTRA:         -13.486
REMARK INTER:                  -8.378
REMARK INTRA:                  -5.109
REMARK UNBOUND:                -5.524
REMARK SMILES CCCCCCCCCCCCCCCCCCCCCCCCCCCC(=O)[O-]
REMARK SMILES IDX 15 1 16 2 17 3 18 4 19 5 20 6 21 7 22 8 23 9 24 10 25 11
REMARK SMILES IDX 26 12 27 13 28 14 29 15 30 16 14 17 13 18 12 19 11 20 10 21
REMARK SMILES IDX 9 22 8 23 7 24 6 25 5 26 4 27 3 28 2 29 1 30
REMARK H PARENT
REMARK Flexibility Score: inf
ROOT
ATOM      1  C   UNL     1     169.901 152.347 178.777  1.00  0.00     0.000 C 
ENDROOT
BRANCH   1   2
ATOM      2  C   UNL     1     169.787 153.827 179.177  1.00  0.00     0.000 C 
BRANCH   2   3
ATOM      3  C   UNL     1     169.599 154.019 180.693  1.00  0.00     0.000 C 
BRANCH   3   4
ATOM      4  C   UNL     1     168.318 154.792 181.040  1.00  0.00     0.000 C 
BRANCH   4   5
ATOM      5  C   UNL     1     167.104 154.317 180.222  1.00  0.00     0.000 C 
BRANCH   5   6
ATOM      6  C   UNL     1     165.817 155.094 180.552  1.00  0.00     0.000 C 
BRANCH   6   7
ATOM      7  C   UNL     1     165.403 156.160 179.515  1.00  0.00     0.000 C 
BRANCH   7   8
ATOM      8  C   UNL     1     163.933 156.102 179.058  1.00  0.00     0.000 C 
BRANCH   8   9
ATOM      9  C   UNL     1     163.206 157.450 179.202  1.00  0.00     0.000 C 
BRANCH   9  10
ATOM     10  C   UNL     1     161.682 157.328 179.019  1.00  0.00     0.000 C 
BRANCH  10  11
ATOM     11  C   UNL     1     161.178 157.477 177.569  1.00  0.00     0.000 C 
BRANCH  11  12
ATOM     12  C   UNL     1     161.785 158.655 176.787  1.00  0.00     0.006 C 
BRANCH  12  13
ATOM     13  C   UNL     1     161.467 158.598 175.287  1.00  0.00     0.053 C 
BRANCH  13  14
ATOM     14  C   UNL     1     160.651 159.784 174.880  1.00  0.00     0.041 C 
ATOM     15  O   UNL     1     159.398 159.769 175.019  1.00  0.00    -0.550 OA
ATOM     16  O   UNL     1     161.266 160.889 174.305  1.00  0.00    -0.550 OA
ENDBRANCH  13  14
ENDBRANCH  12  13
ENDBRANCH  11  12
ENDBRANCH  10  11
ENDBRANCH   9  10
ENDBRANCH   8   9
ENDBRANCH   7   8
ENDBRANCH   6   7
ENDBRANCH   5   6
ENDBRANCH   4   5
ENDBRANCH   3   4
ENDBRANCH   2   3
ENDBRANCH   1   2
BRANCH   1  17
ATOM     17  C   UNL     1     169.089 151.422 179.699  1.00  0.00     0.000 C 
BRANCH  17  18
ATOM     18  C   UNL     1     167.745 150.990 179.085  1.00  0.00     0.000 C 
BRANCH  18  19
ATOM     19  C   UNL     1     167.568 151.331 177.595  1.00  0.00     0.000 C 
BRANCH  19  20
ATOM     20  C   UNL     1     166.237 152.037 177.295  1.00  0.00     0.000 C 
BRANCH  20  21
ATOM     21  C   UNL     1     166.425 153.455 176.732  1.00  0.00     0.000 C 
BRANCH  21  22
ATOM     22  C   UNL     1     167.837 153.711 176.161  1.00  0.00    -0.000 C 
BRANCH  22  23
ATOM     23  C   UNL     1     167.884 154.966 175.273  1.00  0.00    -0.000 C 
BRANCH  23  24
ATOM     24  C   UNL     1     168.734 156.096 175.878  1.00  0.00    -0.000 C 
BRANCH  24  25
ATOM     25  C   UNL     1     168.318 156.538 177.296  1.00  0.00    -0.000 C 
BRANCH  25  26
ATOM     26  C   UNL     1     167.934 158.024 177.436  1.00  0.00    -0.000 C 
BRANCH  26  27
ATOM     27  C   UNL     1     167.151 158.608 176.245  1.00  0.00    -0.000 C 
BRANCH  27  28
ATOM     28  C   UNL     1     165.650 158.296 176.310  1.00  0.00    -0.000 C 
BRANCH  28  29
ATOM     29  C   UNL     1     165.215 157.448 175.108  1.00  0.00    -0.003 C 
ATOM     30  C   UNL     1     164.420 156.225 175.553  1.00  0.00     0.004 C 
ENDBRANCH  28  29
ENDBRANCH  27  28
ENDBRANCH  26  27
ENDBRANCH  25  26
ENDBRANCH  24  25
ENDBRANCH  23  24
ENDBRANCH  22  23
ENDBRANCH  21  22
ENDBRANCH  20  21
ENDBRANCH  19  20
ENDBRANCH  18  19
ENDBRANCH  17  18
ENDBRANCH   1  17
TORSDOF 26
ENDMDL
MODEL 3
REMARK VINA RESULT:    -3.151      2.766      6.331
REMARK INTER + INTRA:         -13.465
REMARK INTER:                  -7.540
REMARK INTRA:                  -5.925
REMARK UNBOUND:                -5.524
REMARK SMILES CCCCCCCCCCCCCCCCCCCCCCCCCCCC(=O)[O-]
REMARK SMILES IDX 15 1 16 2 17 3 18 4 19 5 20 6 21 7 22 8 23 9 24 10 25 11
REMARK SMILES IDX 26 12 27 13 28 14 29 15 30 16 14 17 13 18 12 19 11 20 10 21
REMARK SMILES IDX 9 22 8 23 7 24 6 25 5 26 4 27 3 28 2 29 1 30
REMARK H PARENT
REMARK Flexibility Score: inf
ROOT
ATOM      1  C   UNL     1     167.497 151.967 179.577  1.00  0.00     0.000 C 
ENDROOT
BRANCH   1   2
ATOM      2  C   UNL     1     168.774 152.662 180.079  1.00  0.00     0.000 C 
BRANCH   2   3
ATOM      3  C   UNL     1     169.562 153.345 178.947  1.00  0.00     0.000 C 
BRANCH   3   4
ATOM      4  C   UNL     1     170.134 154.710 179.360  1.00  0.00     0.000 C 
BRANCH   4   5
ATOM      5  C   UNL     1     169.479 155.260 180.639  1.00  0.00     0.000 C 
BRANCH   5   6
ATOM      6  C   UNL     1     168.951 156.696 180.472  1.00  0.00     0.000 C 
BRANCH   6   7
ATOM      7  C   UNL     1     167.440 156.881 180.728  1.00  0.00     0.000 C 
BRANCH   7   8
ATOM      8  C   UNL     1     166.686 155.614 181.174  1.00  0.00     0.000 C 
BRANCH   8   9
ATOM      9  C   UNL     1     165.683 155.111 180.121  1.00  0.00     0.000 C 
BRANCH   9  10
ATOM     10  C   UNL     1     165.273 156.204 179.117  1.00  0.00     0.000 C 
BRANCH  10  11
ATOM     11  C   UNL     1     163.822 156.113 178.601  1.00  0.00     0.000 C 
BRANCH  11  12
ATOM     12  C   UNL     1     163.220 157.442 178.110  1.00  0.00     0.006 C 
BRANCH  12  13
ATOM     13  C   UNL     1     161.955 157.245 177.266  1.00  0.00     0.053 C 
BRANCH  13  14
ATOM     14  C   UNL     1     160.782 157.902 177.920  1.00  0.00     0.041 C 
ATOM     15  O   UNL     1     160.276 158.941 177.419  1.00  0.00    -0.550 OA
ATOM     16  O   UNL     1     160.274 157.394 179.110  1.00  0.00    -0.550 OA
ENDBRANCH  13  14
ENDBRANCH  12  13
ENDBRANCH  11  12
ENDBRANCH  10  11
ENDBRANCH   9  10
ENDBRANCH   8   9
ENDBRANCH   7   8
ENDBRANCH   6   7
ENDBRANCH   5   6
ENDBRANCH   4   5
ENDBRANCH   3   4
ENDBRANCH   2   3
ENDBRANCH   1   2
BRANCH   1  17
ATOM     17  C   UNL     1     167.769 151.005 178.409  1.00  0.00     0.000 C 
BRANCH  17  18
ATOM     18  C   UNL     1     167.182 151.500 177.074  1.00  0.00     0.000 C 
BRANCH  18  19
ATOM     19  C   UNL     1     166.035 152.518 177.203  1.00  0.00     0.000 C 
BRANCH  19  20
ATOM     20  C   UNL     1     166.400 153.905 176.650  1.00  0.00     0.000 C 
BRANCH  20  21
ATOM     21  C   UNL     1     167.638 153.880 175.739  1.00  0.00     0.000 C 
BRANCH  21  22
ATOM     22  C   UNL     1     168.368 155.237 175.651  1.00  0.00    -0.000 C 
BRANCH  22  23
ATOM     23  C   UNL     1     168.069 156.134 176.865  1.00  0.00    -0.000 C 
BRANCH  23  24
ATOM     24  C   UNL     1     168.475 157.601 176.639  1.00  0.00    -0.000 C 
BRANCH  24  25
ATOM     25  C   UNL     1     167.701 158.630 177.488  1.00  0.00    -0.000 C 
BRANCH  25  26
ATOM     26  C   UNL     1     166.276 158.950 176.995  1.00  0.00    -0.000 C 
BRANCH  26  27
ATOM     27  C   UNL     1     166.197 159.541 175.576  1.00  0.00    -0.000 C 
BRANCH  27  28
ATOM     28  C   UNL     1     165.147 158.845 174.698  1.00  0.00    -0.000 C 
BRANCH  28  29
ATOM     29  C   UNL     1     165.613 157.440 174.298  1.00  0.00    -0.003 C 
ATOM     30  C   UNL     1     164.660 156.371 174.823  1.00  0.00     0.004 C 
ENDBRANCH  28  29
ENDBRANCH  27  28
ENDBRANCH  26  27
ENDBRANCH  25  26
ENDBRANCH  24  25
ENDBRANCH  23  24
ENDBRANCH  22  23
ENDBRANCH  21  22
ENDBRANCH  20  21
ENDBRANCH  19  20
ENDBRANCH  18  19
ENDBRANCH  17  18
ENDBRANCH   1  17
TORSDOF 26
ENDMDL
MODEL 4
REMARK VINA RESULT:    -3.131      2.979      4.728
REMARK INTER + INTRA:         -13.413
REMARK INTER:                  -8.003
REMARK INTRA:                  -5.410
REMARK UNBOUND:                -5.524
REMARK SMILES CCCCCCCCCCCCCCCCCCCCCCCCCCCC(=O)[O-]
REMARK SMILES IDX 15 1 16 2 17 3 18 4 19 5 20 6 21 7 22 8 23 9 24 10 25 11
REMARK SMILES IDX 26 12 27 13 28 14 29 15 30 16 14 17 13 18 12 19 11 20 10 21
REMARK SMILES IDX 9 22 8 23 7 24 6 25 5 26 4 27 3 28 2 29 1 30
REMARK H PARENT
REMARK Flexibility Score: inf
ROOT
ATOM      1  C   UNL     1     167.718 157.482 177.344  1.00  0.00     0.000 C 
ENDROOT
BRANCH   1   2
ATOM      2  C   UNL     1     167.341 157.069 178.776  1.00  0.00     0.000 C 
BRANCH   2   3
ATOM      3  C   UNL     1     166.463 158.117 179.484  1.00  0.00     0.000 C 
BRANCH   3   4
ATOM      4  C   UNL     1     164.964 157.914 179.219  1.00  0.00     0.000 C 
BRANCH   4   5
ATOM      5  C   UNL     1     164.558 156.430 179.237  1.00  0.00     0.000 C 
BRANCH   5   6
ATOM      6  C   UNL     1     163.231 156.162 178.506  1.00  0.00     0.000 C 
BRANCH   6   7
ATOM      7  C   UNL     1     163.356 155.441 177.147  1.00  0.00     0.000 C 
BRANCH   7   8
ATOM      8  C   UNL     1     164.705 155.618 176.426  1.00  0.00     0.000 C 
BRANCH   8   9
ATOM      9  C   UNL     1     164.600 156.482 175.158  1.00  0.00     0.000 C 
BRANCH   9  10
ATOM     10  C   UNL     1     164.824 157.979 175.435  1.00  0.00     0.000 C 
BRANCH  10  11
ATOM     11  C   UNL     1     163.607 158.888 175.162  1.00  0.00     0.000 C 
BRANCH  11  12
ATOM     12  C   UNL     1     162.613 159.013 176.331  1.00  0.00     0.006 C 
BRANCH  12  13
ATOM     13  C   UNL     1     161.187 158.604 175.942  1.00  0.00     0.053 C 
BRANCH  13  14
ATOM     14  C   UNL     1     160.299 158.595 177.146  1.00  0.00     0.041 C 
ATOM     15  O   UNL     1     159.890 159.680 177.639  1.00  0.00    -0.550 OA
ATOM     16  O   UNL     1     159.959 157.392 177.751  1.00  0.00    -0.550 OA
ENDBRANCH  13  14
ENDBRANCH  12  13
ENDBRANCH  11  12
ENDBRANCH  10  11
ENDBRANCH   9  10
ENDBRANCH   8   9
ENDBRANCH   7   8
ENDBRANCH   6   7
ENDBRANCH   5   6
ENDBRANCH   4   5
ENDBRANCH   3   4
ENDBRANCH   2   3
ENDBRANCH   1   2
BRANCH   1  17
ATOM     17  C   UNL     1     168.850 156.621 176.759  1.00  0.00     0.000 C 
BRANCH  17  18
ATOM     18  C   UNL     1     168.531 156.083 175.353  1.00  0.00     0.000 C 
BRANCH  18  19
ATOM     19  C   UNL     1     167.968 154.651 175.314  1.00  0.00     0.000 C 
BRANCH  19  20
ATOM     20  C   UNL     1     168.217 153.873 176.616  1.00  0.00     0.000 C 
BRANCH  20  21
ATOM     21  C   UNL     1     167.603 152.464 176.598  1.00  0.00     0.000 C 
BRANCH  21  22
ATOM     22  C   UNL     1     166.747 152.147 177.842  1.00  0.00    -0.000 C 
BRANCH  22  23
ATOM     23  C   UNL     1     166.403 153.414 178.646  1.00  0.00    -0.000 C 
BRANCH  23  24
ATOM     24  C   UNL     1     166.766 153.294 180.136  1.00  0.00    -0.000 C 
BRANCH  24  25
ATOM     25  C   UNL     1     168.275 153.350 180.447  1.00  0.00    -0.000 C 
BRANCH  25  26
ATOM     26  C   UNL     1     168.867 152.069 181.067  1.00  0.00    -0.000 C 
BRANCH  26  27
ATOM     27  C   UNL     1     170.080 151.486 180.319  1.00  0.00    -0.000 C 
BRANCH  27  28
ATOM     28  C   UNL     1     170.353 152.194 178.984  1.00  0.00    -0.000 C 
BRANCH  28  29
ATOM     29  C   UNL     1     171.607 153.071 179.077  1.00  0.00    -0.003 C 
ATOM     30  C   UNL     1     171.409 154.396 178.347  1.00  0.00     0.004 C 
ENDBRANCH  28  29
ENDBRANCH  27  28
ENDBRANCH  26  27
ENDBRANCH  25  26
ENDBRANCH  24  25
ENDBRANCH  23  24
ENDBRANCH  22  23
ENDBRANCH  21  22
ENDBRANCH  20  21
ENDBRANCH  19  20
ENDBRANCH  18  19
ENDBRANCH  17  18
ENDBRANCH   1  17
TORSDOF 26
ENDMDL
MODEL 5
REMARK VINA RESULT:    -3.096      3.035      4.265
REMARK INTER + INTRA:         -13.325
REMARK INTER:                  -8.078
REMARK INTRA:                  -5.247
REMARK UNBOUND:                -5.524
REMARK SMILES CCCCCCCCCCCCCCCCCCCCCCCCCCCC(=O)[O-]
REMARK SMILES IDX 15 1 16 2 17 3 18 4 19 5 20 6 21 7 22 8 23 9 24 10 25 11
REMARK SMILES IDX 26 12 27 13 28 14 29 15 30 16 14 17 13 18 12 19 11 20 10 21
REMARK SMILES IDX 9 22 8 23 7 24 6 25 5 26 4 27 3 28 2 29 1 30
REMARK H PARENT
REMARK Flexibility Score: inf
ROOT
ATOM      1  C   UNL     1     165.264 157.006 179.956  1.00  0.00     0.000 C 
ENDROOT
BRANCH   1   2
ATOM      2  C   UNL     1     163.890 156.999 179.265  1.00  0.00     0.000 C 
BRANCH   2   3
ATOM      3  C   UNL     1     163.731 155.834 178.271  1.00  0.00     0.000 C 
BRANCH   3   4
ATOM      4  C   UNL     1     163.201 156.288 176.903  1.00  0.00     0.000 C 
BRANCH   4   5
ATOM      5  C   UNL     1     164.332 156.613 175.912  1.00  0.00     0.000 C 
BRANCH   5   6
ATOM      6  C   UNL     1     164.072 157.897 175.104  1.00  0.00     0.000 C 
BRANCH   6   7
ATOM      7  C   UNL     1     163.153 158.933 175.786  1.00  0.00     0.000 C 
BRANCH   7   8
ATOM      8  C   UNL     1     163.875 160.101 176.481  1.00  0.00     0.000 C 
BRANCH   8   9
ATOM      9  C   UNL     1     163.486 160.252 177.962  1.00  0.00     0.000 C 
BRANCH   9  10
ATOM     10  C   UNL     1     161.976 160.477 178.163  1.00  0.00     0.000 C 
BRANCH  10  11
ATOM     11  C   UNL     1     161.229 159.332 178.876  1.00  0.00     0.000 C 
BRANCH  11  12
ATOM     12  C   UNL     1     160.175 158.609 178.019  1.00  0.00     0.006 C 
BRANCH  12  13
ATOM     13  C   UNL     1     159.720 159.439 176.812  1.00  0.00     0.053 C 
BRANCH  13  14
ATOM     14  C   UNL     1     158.332 159.953 177.024  1.00  0.00     0.041 C 
ATOM     15  O   UNL     1     157.488 159.903 176.090  1.00  0.00    -0.550 OA
ATOM     16  O   UNL     1     157.982 160.531 178.238  1.00  0.00    -0.550 OA
ENDBRANCH  13  14
ENDBRANCH  12  13
ENDBRANCH  11  12
ENDBRANCH  10  11
ENDBRANCH   9  10
ENDBRANCH   8   9
ENDBRANCH   7   8
ENDBRANCH   6   7
ENDBRANCH   5   6
ENDBRANCH   4   5
ENDBRANCH   3   4
ENDBRANCH   2   3
ENDBRANCH   1   2
BRANCH   1  17
ATOM     17  C   UNL     1     166.405 156.610 179.004  1.00  0.00     0.000 C 
BRANCH  17  18
ATOM     18  C   UNL     1     167.313 155.509 179.580  1.00  0.00     0.000 C 
BRANCH  18  19
ATOM     19  C   UNL     1     166.578 154.374 180.315  1.00  0.00     0.000 C 
BRANCH  19  20
ATOM     20  C   UNL     1     167.449 153.124 180.514  1.00  0.00     0.000 C 
BRANCH  20  21
ATOM     21  C   UNL     1     168.811 153.225 179.807  1.00  0.00     0.000 C 
BRANCH  21  22
ATOM     22  C   UNL     1     169.032 152.138 178.735  1.00  0.00    -0.000 C 
BRANCH  22  23
ATOM     23  C   UNL     1     167.804 151.225 178.573  1.00  0.00    -0.000 C 
BRANCH  23  24
ATOM     24  C   UNL     1     167.093 151.411 177.222  1.00  0.00    -0.000 C 
BRANCH  24  25
ATOM     25  C   UNL     1     165.956 152.453 177.221  1.00  0.00    -0.000 C 
BRANCH  25  26
ATOM     26  C   UNL     1     166.296 153.797 176.546  1.00  0.00    -0.000 C 
BRANCH  26  27
ATOM     27  C   UNL     1     167.667 153.844 175.848  1.00  0.00    -0.000 C 
BRANCH  27  28
ATOM     28  C   UNL     1     168.264 155.258 175.802  1.00  0.00    -0.000 C 
BRANCH  28  29
ATOM     29  C   UNL     1     169.509 155.355 176.692  1.00  0.00    -0.003 C 
ATOM     30  C   UNL     1     169.785 156.798 177.100  1.00  0.00     0.004 C 
ENDBRANCH  28  29
ENDBRANCH  27  28
ENDBRANCH  26  27
ENDBRANCH  25  26
ENDBRANCH  24  25
ENDBRANCH  23  24
ENDBRANCH  22  23
ENDBRANCH  21  22
ENDBRANCH  20  21
ENDBRANCH  19  20
ENDBRANCH  18  19
ENDBRANCH  17  18
ENDBRANCH   1  17
TORSDOF 26
ENDMDL
MODEL 6
REMARK VINA RESULT:    -3.079      3.074      5.298
REMARK INTER + INTRA:         -13.284
REMARK INTER:                  -7.602
REMARK INTRA:                  -5.681
REMARK UNBOUND:                -5.524
REMARK SMILES CCCCCCCCCCCCCCCCCCCCCCCCCCCC(=O)[O-]
REMARK SMILES IDX 15 1 16 2 17 3 18 4 19 5 20 6 21 7 22 8 23 9 24 10 25 11
REMARK SMILES IDX 26 12 27 13 28 14 29 15 30 16 14 17 13 18 12 19 11 20 10 21
REMARK SMILES IDX 9 22 8 23 7 24 6 25 5 26 4 27 3 28 2 29 1 30
REMARK H PARENT
REMARK Flexibility Score: inf
ROOT
ATOM      1  C   UNL     1     167.747 153.784 175.950  1.00  0.00     0.000 C 
ENDROOT
BRANCH   1   2
ATOM      2  C   UNL     1     168.276 155.101 175.360  1.00  0.00     0.000 C 
BRANCH   2   3
ATOM      3  C   UNL     1     167.165 156.148 175.155  1.00  0.00     0.000 C 
BRANCH   3   4
ATOM      4  C   UNL     1     167.711 157.515 174.716  1.00  0.00     0.000 C 
BRANCH   4   5
ATOM      5  C   UNL     1     168.931 157.955 175.543  1.00  0.00     0.000 C 
BRANCH   5   6
ATOM      6  C   UNL     1     168.703 159.280 176.292  1.00  0.00     0.000 C 
BRANCH   6   7
ATOM      7  C   UNL     1     167.424 159.342 177.154  1.00  0.00     0.000 C 
BRANCH   7   8
ATOM      8  C   UNL     1     166.341 160.321 176.663  1.00  0.00     0.000 C 
BRANCH   8   9
ATOM      9  C   UNL     1     164.962 159.659 176.502  1.00  0.00     0.000 C 
BRANCH   9  10
ATOM     10  C   UNL     1     164.915 158.230 177.074  1.00  0.00     0.000 C 
BRANCH  10  11
ATOM     11  C   UNL     1     163.882 157.292 176.418  1.00  0.00     0.000 C 
BRANCH  11  12
ATOM     12  C   UNL     1     162.532 157.947 176.073  1.00  0.00     0.006 C 
BRANCH  12  13
ATOM     13  C   UNL     1     161.368 157.371 176.889  1.00  0.00     0.053 C 
BRANCH  13  14
ATOM     14  C   UNL     1     161.360 157.950 178.268  1.00  0.00     0.041 C 
ATOM     15  O   UNL     1     161.667 157.234 179.258  1.00  0.00    -0.550 OA
ATOM     16  O   UNL     1     160.969 159.268 178.468  1.00  0.00    -0.550 OA
ENDBRANCH  13  14
ENDBRANCH  12  13
ENDBRANCH  11  12
ENDBRANCH  10  11
ENDBRANCH   9  10
ENDBRANCH   8   9
ENDBRANCH   7   8
ENDBRANCH   6   7
ENDBRANCH   5   6
ENDBRANCH   4   5
ENDBRANCH   3   4
ENDBRANCH   2   3
ENDBRANCH   1   2
BRANCH   1  17
ATOM     17  C   UNL     1     166.363 153.943 176.602  1.00  0.00     0.000 C 
BRANCH  17  18
ATOM     18  C   UNL     1     166.038 152.820 177.603  1.00  0.00     0.000 C 
BRANCH  18  19
ATOM     19  C   UNL     1     166.645 151.446 177.264  1.00  0.00     0.000 C 
BRANCH  19  20
ATOM     20  C   UNL     1     167.539 150.892 178.384  1.00  0.00     0.000 C 
BRANCH  20  21
ATOM     21  C   UNL     1     167.654 151.844 179.585  1.00  0.00     0.000 C 
BRANCH  21  22
ATOM     22  C   UNL     1     169.103 152.281 179.890  1.00  0.00    -0.000 C 
BRANCH  22  23
ATOM     23  C   UNL     1     169.951 152.407 178.613  1.00  0.00    -0.000 C 
BRANCH  23  24
ATOM     24  C   UNL     1     170.473 153.835 178.380  1.00  0.00    -0.000 C 
BRANCH  24  25
ATOM     25  C   UNL     1     169.915 154.900 179.346  1.00  0.00    -0.000 C 
BRANCH  25  26
ATOM     26  C   UNL     1     169.097 156.025 178.683  1.00  0.00    -0.000 C 
BRANCH  26  27
ATOM     27  C   UNL     1     167.679 156.218 179.250  1.00  0.00    -0.000 C 
BRANCH  27  28
ATOM     28  C   UNL     1     167.434 155.406 180.530  1.00  0.00    -0.000 C 
BRANCH  28  29
ATOM     29  C   UNL     1     165.958 155.007 180.650  1.00  0.00    -0.003 C 
ATOM     30  C   UNL     1     165.100 155.754 179.634  1.00  0.00     0.004 C 
ENDBRANCH  28  29
ENDBRANCH  27  28
ENDBRANCH  26  27
ENDBRANCH  25  26
ENDBRANCH  24  25
ENDBRANCH  23  24
ENDBRANCH  22  23
ENDBRANCH  21  22
ENDBRANCH  20  21
ENDBRANCH  19  20
ENDBRANCH  18  19
ENDBRANCH  17  18
ENDBRANCH   1  17
TORSDOF 26
ENDMDL
MODEL 7
REMARK VINA RESULT:    -3.072      3.279      7.770
REMARK INTER + INTRA:         -13.265
REMARK INTER:                  -8.201
REMARK INTRA:                  -5.063
REMARK UNBOUND:                -5.524
REMARK SMILES CCCCCCCCCCCCCCCCCCCCCCCCCCCC(=O)[O-]
REMARK SMILES IDX 15 1 16 2 17 3 18 4 19 5 20 6 21 7 22 8 23 9 24 10 25 11
REMARK SMILES IDX 26 12 27 13 28 14 29 15 30 16 14 17 13 18 12 19 11 20 10 21
REMARK SMILES IDX 9 22 8 23 7 24 6 25 5 26 4 27 3 28 2 29 1 30
REMARK H PARENT
REMARK Flexibility Score: inf
ROOT
ATOM      1  C   UNL     1     166.328 154.998 175.750  1.00  0.00     0.000 C 
ENDROOT
BRANCH   1   2
ATOM      2  C   UNL     1     166.409 153.712 176.587  1.00  0.00     0.000 C 
BRANCH   2   3
ATOM      3  C   UNL     1     167.822 153.101 176.602  1.00  0.00     0.000 C 
BRANCH   3   4
ATOM      4  C   UNL     1     167.827 151.624 177.024  1.00  0.00     0.000 C 
BRANCH   4   5
ATOM      5  C   UNL     1     167.740 151.447 178.550  1.00  0.00     0.000 C 
BRANCH   5   6
ATOM      6  C   UNL     1     168.668 152.405 179.319  1.00  0.00     0.000 C 
BRANCH   6   7
ATOM      7  C   UNL     1     167.978 153.284 180.384  1.00  0.00     0.000 C 
BRANCH   7   8
ATOM      8  C   UNL     1     166.466 153.498 180.186  1.00  0.00     0.000 C 
BRANCH   8   9
ATOM      9  C   UNL     1     166.042 154.969 180.343  1.00  0.00     0.000 C 
BRANCH   9  10
ATOM     10  C   UNL     1     167.203 155.952 180.108  1.00  0.00     0.000 C 
BRANCH  10  11
ATOM     11  C   UNL     1     167.090 156.810 178.830  1.00  0.00     0.000 C 
BRANCH  11  12
ATOM     12  C   UNL     1     168.388 156.936 178.013  1.00  0.00     0.006 C 
BRANCH  12  13
ATOM     13  C   UNL     1     169.516 156.047 178.551  1.00  0.00     0.053 C 
BRANCH  13  14
ATOM     14  C   UNL     1     170.309 155.469 177.422  1.00  0.00     0.041 C 
ATOM     15  O   UNL     1     171.230 154.641 177.653  1.00  0.00    -0.550 OA
ATOM     16  O   UNL     1     170.063 155.878 176.117  1.00  0.00    -0.550 OA
ENDBRANCH  13  14
ENDBRANCH  12  13
ENDBRANCH  11  12
ENDBRANCH  10  11
ENDBRANCH   9  10
ENDBRANCH   8   9
ENDBRANCH   7   8
ENDBRANCH   6   7
ENDBRANCH   5   6
ENDBRANCH   4   5
ENDBRANCH   3   4
ENDBRANCH   2   3
ENDBRANCH   1   2
BRANCH   1  17
ATOM     17  C   UNL     1     165.002 155.751 175.950  1.00  0.00     0.000 C 
BRANCH  17  18
ATOM     18  C   UNL     1     164.129 155.145 177.063  1.00  0.00     0.000 C 
BRANCH  18  19
ATOM     19  C   UNL     1     163.361 156.167 177.921  1.00  0.00     0.000 C 
BRANCH  19  20
ATOM     20  C   UNL     1     163.656 157.623 177.526  1.00  0.00     0.000 C 
BRANCH  20  21
ATOM     21  C   UNL     1     163.833 158.548 178.741  1.00  0.00     0.000 C 
BRANCH  21  22
ATOM     22  C   UNL     1     163.130 158.034 180.016  1.00  0.00    -0.000 C 
BRANCH  22  23
ATOM     23  C   UNL     1     162.178 159.083 180.615  1.00  0.00    -0.000 C 
BRANCH  23  24
ATOM     24  C   UNL     1     160.788 159.076 179.956  1.00  0.00    -0.000 C 
BRANCH  24  25
ATOM     25  C   UNL     1     160.320 157.702 179.436  1.00  0.00    -0.000 C 
BRANCH  25  26
ATOM     26  C   UNL     1     159.979 157.648 177.933  1.00  0.00    -0.000 C 
BRANCH  26  27
ATOM     27  C   UNL     1     159.613 159.003 177.302  1.00  0.00    -0.000 C 
BRANCH  27  28
ATOM     28  C   UNL     1     160.627 159.462 176.245  1.00  0.00    -0.000 C 
BRANCH  28  29
ATOM     29  C   UNL     1     159.918 159.874 174.949  1.00  0.00    -0.003 C 
ATOM     30  C   UNL     1     160.631 161.044 174.278  1.00  0.00     0.004 C 
ENDBRANCH  28  29
ENDBRANCH  27  28
ENDBRANCH  26  27
ENDBRANCH  25  26
ENDBRANCH  24  25
ENDBRANCH  23  24
ENDBRANCH  22  23
ENDBRANCH  21  22
ENDBRANCH  20  21
ENDBRANCH  19  20
ENDBRANCH  18  19
ENDBRANCH  17  18
ENDBRANCH   1  17
TORSDOF 26
ENDMDL
MODEL 8
REMARK VINA RESULT:    -3.054      1.903      6.552
REMARK INTER + INTRA:         -13.221
REMARK INTER:                  -7.490
REMARK INTRA:                  -5.730
REMARK UNBOUND:                -5.524
REMARK SMILES CCCCCCCCCCCCCCCCCCCCCCCCCCCC(=O)[O-]
REMARK SMILES IDX 15 1 16 2 17 3 18 4 19 5 20 6 21 7 22 8 23 9 24 10 25 11
REMARK SMILES IDX 26 12 27 13 28 14 29 15 30 16 14 17 13 18 12 19 11 20 10 21
REMARK SMILES IDX 9 22 8 23 7 24 6 25 5 26 4 27 3 28 2 29 1 30
REMARK H PARENT
REMARK Flexibility Score: inf
ROOT
ATOM      1  C   UNL     1     167.385 152.750 176.639  1.00  0.00     0.000 C 
ENDROOT
BRANCH   1   2
ATOM      2  C   UNL     1     166.785 151.475 177.254  1.00  0.00     0.000 C 
BRANCH   2   3
ATOM      3  C   UNL     1     167.520 151.030 178.532  1.00  0.00     0.000 C 
BRANCH   3   4
ATOM      4  C   UNL     1     168.550 152.062 179.015  1.00  0.00     0.000 C 
BRANCH   4   5
ATOM      5  C   UNL     1     168.193 152.650 180.392  1.00  0.00     0.000 C 
BRANCH   5   6
ATOM      6  C   UNL     1     166.742 153.157 180.469  1.00  0.00     0.000 C 
BRANCH   6   7
ATOM      7  C   UNL     1     166.581 154.682 180.646  1.00  0.00     0.000 C 
BRANCH   7   8
ATOM      8  C   UNL     1     167.849 155.515 180.387  1.00  0.00     0.000 C 
BRANCH   8   9
ATOM      9  C   UNL     1     167.831 156.229 179.024  1.00  0.00     0.000 C 
BRANCH   9  10
ATOM     10  C   UNL     1     169.005 155.815 178.117  1.00  0.00     0.000 C 
BRANCH  10  11
ATOM     11  C   UNL     1     168.926 156.326 176.664  1.00  0.00     0.000 C 
BRANCH  11  12
ATOM     12  C   UNL     1     167.802 157.341 176.390  1.00  0.00     0.006 C 
BRANCH  12  13
ATOM     13  C   UNL     1     167.242 157.236 174.966  1.00  0.00     0.053 C 
BRANCH  13  14
ATOM     14  C   UNL     1     167.345 158.554 174.266  1.00  0.00     0.041 C 
ATOM     15  O   UNL     1     167.786 158.613 173.087  1.00  0.00    -0.550 OA
ATOM     16  O   UNL     1     166.997 159.723 174.929  1.00  0.00    -0.550 OA
ENDBRANCH  13  14
ENDBRANCH  12  13
ENDBRANCH  11  12
ENDBRANCH  10  11
ENDBRANCH   9  10
ENDBRANCH   8   9
ENDBRANCH   7   8
ENDBRANCH   6   7
ENDBRANCH   5   6
ENDBRANCH   4   5
ENDBRANCH   3   4
ENDBRANCH   2   3
ENDBRANCH   1   2
BRANCH   1  17
ATOM     17  C   UNL     1     166.352 153.881 176.502  1.00  0.00     0.000 C 
BRANCH  17  18
ATOM     18  C   UNL     1     165.121 153.684 177.405  1.00  0.00     0.000 C 
BRANCH  18  19
ATOM     19  C   UNL     1     164.032 154.764 177.269  1.00  0.00     0.000 C 
BRANCH  19  20
ATOM     20  C   UNL     1     164.567 156.187 177.496  1.00  0.00     0.000 C 
BRANCH  20  21
ATOM     21  C   UNL     1     164.120 156.787 178.838  1.00  0.00     0.000 C 
BRANCH  21  22
ATOM     22  C   UNL     1     164.221 158.327 178.890  1.00  0.00    -0.000 C 
BRANCH  22  23
ATOM     23  C   UNL     1     164.829 158.911 177.602  1.00  0.00    -0.000 C 
BRANCH  23  24
ATOM     24  C   UNL     1     163.807 159.692 176.759  1.00  0.00    -0.000 C 
BRANCH  24  25
ATOM     25  C   UNL     1     163.347 158.984 175.469  1.00  0.00    -0.000 C 
BRANCH  25  26
ATOM     26  C   UNL     1     161.841 158.665 175.394  1.00  0.00    -0.000 C 
BRANCH  26  27
ATOM     27  C   UNL     1     161.086 158.782 176.730  1.00  0.00    -0.000 C 
BRANCH  27  28
ATOM     28  C   UNL     1     160.829 157.420 177.391  1.00  0.00    -0.000 C 
BRANCH  28  29
ATOM     29  C   UNL     1     160.378 157.596 178.847  1.00  0.00    -0.003 C 
ATOM     30  C   UNL     1     160.024 159.049 179.143  1.00  0.00     0.004 C 
ENDBRANCH  28  29
ENDBRANCH  27  28
ENDBRANCH  26  27
ENDBRANCH  25  26
ENDBRANCH  24  25
ENDBRANCH  23  24
ENDBRANCH  22  23
ENDBRANCH  21  22
ENDBRANCH  20  21
ENDBRANCH  19  20
ENDBRANCH  18  19
ENDBRANCH  17  18
ENDBRANCH   1  17
TORSDOF 26
ENDMDL
MODEL 9
REMARK VINA RESULT:    -3.031      2.874      4.869
REMARK INTER + INTRA:         -13.161
REMARK INTER:                  -7.841
REMARK INTRA:                  -5.320
REMARK UNBOUND:                -5.524
REMARK SMILES CCCCCCCCCCCCCCCCCCCCCCCCCCCC(=O)[O-]
REMARK SMILES IDX 15 1 16 2 17 3 18 4 19 5 20 6 21 7 22 8 23 9 24 10 25 11
REMARK SMILES IDX 26 12 27 13 28 14 29 15 30 16 14 17 13 18 12 19 11 20 10 21
REMARK SMILES IDX 9 22 8 23 7 24 6 25 5 26 4 27 3 28 2 29 1 30
REMARK H PARENT
REMARK Flexibility Score: inf
ROOT
ATOM      1  C   UNL     1     167.531 152.704 180.507  1.00  0.00     0.000 C 
ENDROOT
BRANCH   1   2
ATOM      2  C   UNL     1     168.078 154.104 180.834  1.00  0.00     0.000 C 
BRANCH   2   3
ATOM      3  C   UNL     1     167.535 155.189 179.886  1.00  0.00     0.000 C 
BRANCH   3   4
ATOM      4  C   UNL     1     166.000 155.246 179.864  1.00  0.00     0.000 C 
BRANCH   4   5
ATOM      5  C   UNL     1     165.461 156.669 180.096  1.00  0.00     0.000 C 
BRANCH   5   6
ATOM      6  C   UNL     1     164.463 157.116 179.014  1.00  0.00     0.000 C 
BRANCH   6   7
ATOM      7  C   UNL     1     163.367 156.088 178.659  1.00  0.00     0.000 C 
BRANCH   7   8
ATOM      8  C   UNL     1     163.370 155.596 177.200  1.00  0.00     0.000 C 
BRANCH   8   9
ATOM      9  C   UNL     1     164.541 156.162 176.378  1.00  0.00     0.000 C 
BRANCH   9  10
ATOM     10  C   UNL     1     164.081 157.113 175.258  1.00  0.00     0.000 C 
BRANCH  10  11
ATOM     11  C   UNL     1     164.082 158.611 175.625  1.00  0.00     0.000 C 
BRANCH  11  12
ATOM     12  C   UNL     1     162.720 159.315 175.498  1.00  0.00     0.006 C 
BRANCH  12  13
ATOM     13  C   UNL     1     161.538 158.340 175.588  1.00  0.00     0.053 C 
BRANCH  13  14
ATOM     14  C   UNL     1     160.864 158.459 176.918  1.00  0.00     0.041 C 
ATOM     15  O   UNL     1     160.884 159.551 177.544  1.00  0.00    -0.550 OA
ATOM     16  O   UNL     1     160.250 157.350 177.488  1.00  0.00    -0.550 OA
ENDBRANCH  13  14
ENDBRANCH  12  13
ENDBRANCH  11  12
ENDBRANCH  10  11
ENDBRANCH   9  10
ENDBRANCH   8   9
ENDBRANCH   7   8
ENDBRANCH   6   7
ENDBRANCH   5   6
ENDBRANCH   4   5
ENDBRANCH   3   4
ENDBRANCH   2   3
ENDBRANCH   1   2
BRANCH   1  17
ATOM     17  C   UNL     1     168.370 151.977 179.443  1.00  0.00     0.000 C 
BRANCH  17  18
ATOM     18  C   UNL     1     167.585 150.876 178.708  1.00  0.00     0.000 C 
BRANCH  18  19
ATOM     19  C   UNL     1     167.153 151.229 177.274  1.00  0.00     0.000 C 
BRANCH  19  20
ATOM     20  C   UNL     1     166.017 152.263 177.227  1.00  0.00     0.000 C 
BRANCH  20  21
ATOM     21  C   UNL     1     166.432 153.579 176.550  1.00  0.00     0.000 C 
BRANCH  21  22
ATOM     22  C   UNL     1     167.902 153.594 176.079  1.00  0.00    -0.000 C 
BRANCH  22  23
ATOM     23  C   UNL     1     168.578 154.951 176.335  1.00  0.00    -0.000 C 
BRANCH  23  24
ATOM     24  C   UNL     1     168.395 155.941 175.172  1.00  0.00    -0.000 C 
BRANCH  24  25
ATOM     25  C   UNL     1     168.002 157.373 175.590  1.00  0.00    -0.000 C 
BRANCH  25  26
ATOM     26  C   UNL     1     167.601 157.540 177.069  1.00  0.00    -0.000 C 
BRANCH  26  27
ATOM     27  C   UNL     1     168.216 158.762 177.774  1.00  0.00    -0.000 C 
BRANCH  27  28
ATOM     28  C   UNL     1     169.221 158.375 178.868  1.00  0.00    -0.000 C 
BRANCH  28  29
ATOM     29  C   UNL     1     170.369 157.542 178.285  1.00  0.00    -0.003 C 
ATOM     30  C   UNL     1     170.860 156.501 179.287  1.00  0.00     0.004 C 
ENDBRANCH  28  29
ENDBRANCH  27  28
ENDBRANCH  26  27
ENDBRANCH  25  26
ENDBRANCH  24  25
ENDBRANCH  23  24
ENDBRANCH  22  23
ENDBRANCH  21  22
ENDBRANCH  20  21
ENDBRANCH  19  20
ENDBRANCH  18  19
ENDBRANCH  17  18
ENDBRANCH   1  17
TORSDOF 26
ENDMDL
