MODEL 1
REMARK VINA RESULT:    -4.547      0.000      0.000
REMARK INTER + INTRA:          -7.068
REMARK INTER:                  -6.142
REMARK INTRA:                  -0.926
REMARK UNBOUND:                -0.926
REMARK SMILES C=C[C@@](C)(CCC=C(C)C)OC(C)=O
REMARK SMILES IDX 3 1 4 2 5 3 6 4 7 5 9 6 8 7 10 8 2 9 1 10 11 11 12 12 14 13
REMARK SMILES IDX 13 14
REMARK H PARENT
REMARK Flexibility Score: inf
ROOT
ATOM      1  C   UNL     1       9.318 -29.144  31.325  1.00  0.00     0.127 C 
ATOM      2  C   UNL     1       9.700 -29.855  32.637  1.00  0.00     0.061 C 
ENDROOT
BRANCH   1   3
ATOM      3  C   UNL     1      10.591 -28.856  30.473  1.00  0.00     0.057 C 
BRANCH   3   4
ATOM      4  C   UNL     1      10.473 -29.193  28.968  1.00  0.00     0.032 C 
BRANCH   4   5
ATOM      5  C   UNL     1      10.557 -27.961  28.098  1.00  0.00    -0.028 C 
ATOM      6  C   UNL     1       9.760 -26.227  26.549  1.00  0.00     0.039 C 
ATOM      7  C   UNL     1       9.535 -27.482  27.354  1.00  0.00    -0.080 C 
ATOM      8  C   UNL     1       8.196 -28.179  27.286  1.00  0.00     0.039 C 
ENDBRANCH   4   5
ENDBRANCH   3   4
ENDBRANCH   1   3
BRANCH   1   9
ATOM      9  C   UNL     1       8.326 -30.003  30.554  1.00  0.00     0.013 C 
ATOM     10  C   UNL     1       7.181 -30.431  31.096  1.00  0.00     0.008 C 
ENDBRANCH   1   9
BRANCH   1  11
ATOM     11  O   UNL     1       8.707 -27.897  31.688  1.00  0.00    -0.455 OA
BRANCH  11  12
ATOM     12  C   UNL     1       9.362 -26.658  31.763  1.00  0.00     0.303 C 
ATOM     13  O   UNL     1      10.124 -26.379  32.728  1.00  0.00    -0.253 OA
ATOM     14  C   UNL     1       9.203 -25.683  30.647  1.00  0.00     0.139 C 
ENDBRANCH  11  12
ENDBRANCH   1  11
TORSDOF 6
ENDMDL
MODEL 2
REMARK VINA RESULT:    -4.469      1.848      3.924
REMARK INTER + INTRA:          -6.963
REMARK INTER:                  -6.713
REMARK INTRA:                  -0.250
REMARK UNBOUND:                -0.926
REMARK SMILES C=C[C@@](C)(CCC=C(C)C)OC(C)=O
REMARK SMILES IDX 3 1 4 2 5 3 6 4 7 5 9 6 8 7 10 8 2 9 1 10 11 11 12 12 14 13
REMARK SMILES IDX 13 14
REMARK H PARENT
REMARK Flexibility Score: inf
ROOT
ATOM      1  C   UNL     1       9.375 -28.704  29.973  1.00  0.00     0.127 C 
ATOM      2  C   UNL     1      10.774 -29.279  30.262  1.00  0.00     0.061 C 
ENDROOT
BRANCH   1   3
ATOM      3  C   UNL     1       9.486 -27.242  29.446  1.00  0.00     0.057 C 
BRANCH   3   4
ATOM      4  C   UNL     1       9.454 -26.140  30.531  1.00  0.00     0.032 C 
BRANCH   4   5
ATOM      5  C   UNL     1       9.189 -24.771  29.949  1.00  0.00    -0.028 C 
ATOM      6  C   UNL     1       9.267 -22.319  29.807  1.00  0.00     0.039 C 
ATOM      7  C   UNL     1       9.586 -23.611  30.516  1.00  0.00    -0.080 C 
ATOM      8  C   UNL     1      10.310 -23.573  31.842  1.00  0.00     0.039 C 
ENDBRANCH   4   5
ENDBRANCH   3   4
ENDBRANCH   1   3
BRANCH   1   9
ATOM      9  C   UNL     1       8.659 -29.595  28.968  1.00  0.00     0.013 C 
ATOM     10  C   UNL     1       9.189 -29.896  27.777  1.00  0.00     0.008 C 
ENDBRANCH   1   9
BRANCH   1  11
ATOM     11  O   UNL     1       8.660 -28.698  31.218  1.00  0.00    -0.455 OA
BRANCH  11  12
ATOM     12  C   UNL     1       8.319 -29.833  31.969  1.00  0.00     0.303 C 
ATOM     13  O   UNL     1       9.137 -30.352  32.777  1.00  0.00    -0.253 OA
ATOM     14  C   UNL     1       6.943 -30.394  31.855  1.00  0.00     0.139 C 
ENDBRANCH  11  12
ENDBRANCH   1  11
TORSDOF 6
ENDMDL
MODEL 3
REMARK VINA RESULT:    -4.315      1.717      2.259
REMARK INTER + INTRA:          -6.754
REMARK INTER:                  -6.125
REMARK INTRA:                  -0.629
REMARK UNBOUND:                -0.926
REMARK SMILES C=C[C@@](C)(CCC=C(C)C)OC(C)=O
REMARK SMILES IDX 3 1 4 2 5 3 6 4 7 5 9 6 8 7 10 8 2 9 1 10 11 11 12 12 14 13
REMARK SMILES IDX 13 14
REMARK H PARENT
REMARK Flexibility Score: inf
ROOT
ATOM      1  C   UNL     1       9.527 -28.963  31.636  1.00  0.00     0.127 C 
ATOM      2  C   UNL     1      10.259 -29.916  32.599  1.00  0.00     0.061 C 
ENDROOT
BRANCH   1   3
ATOM      3  C   UNL     1      10.100 -29.103  30.193  1.00  0.00     0.057 C 
BRANCH   3   4
ATOM      4  C   UNL     1       9.095 -28.829  29.049  1.00  0.00     0.032 C 
BRANCH   4   5
ATOM      5  C   UNL     1       9.193 -29.854  27.944  1.00  0.00    -0.028 C 
ATOM      6  C   UNL     1       8.442 -31.674  26.473  1.00  0.00     0.039 C 
ATOM      7  C   UNL     1       8.208 -30.719  27.616  1.00  0.00    -0.080 C 
ATOM      8  C   UNL     1       6.903 -30.773  28.376  1.00  0.00     0.039 C 
ENDBRANCH   4   5
ENDBRANCH   3   4
ENDBRANCH   1   3
BRANCH   1   9
ATOM      9  C   UNL     1       8.035 -29.263  31.663  1.00  0.00     0.013 C 
ATOM     10  C   UNL     1       7.551 -30.436  32.086  1.00  0.00     0.008 C 
ENDBRANCH   1   9
BRANCH   1  11
ATOM     11  O   UNL     1       9.767 -27.628  32.105  1.00  0.00    -0.455 OA
BRANCH  11  12
ATOM     12  C   UNL     1       9.055 -26.484  31.713  1.00  0.00     0.303 C 
ATOM     13  O   UNL     1       7.939 -26.201  32.229  1.00  0.00    -0.253 OA
ATOM     14  C   UNL     1       9.660 -25.555  30.718  1.00  0.00     0.139 C 
ENDBRANCH  11  12
ENDBRANCH   1  11
TORSDOF 6
ENDMDL
MODEL 4
REMARK VINA RESULT:    -4.314      1.452      2.665
REMARK INTER + INTRA:          -6.753
REMARK INTER:                  -5.954
REMARK INTRA:                  -0.799
REMARK UNBOUND:                -0.926
REMARK SMILES C=C[C@@](C)(CCC=C(C)C)OC(C)=O
REMARK SMILES IDX 3 1 4 2 5 3 6 4 7 5 9 6 8 7 10 8 2 9 1 10 11 11 12 12 14 13
REMARK SMILES IDX 13 14
REMARK H PARENT
REMARK Flexibility Score: inf
ROOT
ATOM      1  C   UNL     1       9.324 -28.589  29.313  1.00  0.00     0.127 C 
ATOM      2  C   UNL     1      10.819 -28.953  29.383  1.00  0.00     0.061 C 
ENDROOT
BRANCH   1   3
ATOM      3  C   UNL     1       9.145 -27.113  28.846  1.00  0.00     0.057 C 
BRANCH   3   4
ATOM      4  C   UNL     1       8.596 -26.931  27.411  1.00  0.00     0.032 C 
BRANCH   4   5
ATOM      5  C   UNL     1       9.573 -26.212  26.512  1.00  0.00    -0.028 C 
ATOM      6  C   UNL     1      11.285 -25.971  24.766  1.00  0.00     0.039 C 
ATOM      7  C   UNL     1      10.373 -26.823  25.610  1.00  0.00    -0.080 C 
ATOM      8  C   UNL     1      10.396 -28.325  25.448  1.00  0.00     0.039 C 
ENDBRANCH   4   5
ENDBRANCH   3   4
ENDBRANCH   1   3
BRANCH   1   9
ATOM      9  C   UNL     1       8.613 -29.551  28.371  1.00  0.00     0.013 C 
ATOM     10  C   UNL     1       7.631 -30.359  28.785  1.00  0.00     0.008 C 
ENDBRANCH   1   9
BRANCH   1  11
ATOM     11  O   UNL     1       8.798 -28.726  30.641  1.00  0.00    -0.455 OA
BRANCH  11  12
ATOM     12  C   UNL     1       9.535 -28.597  31.829  1.00  0.00     0.303 C 
ATOM     13  O   UNL     1       9.876 -27.464  32.265  1.00  0.00    -0.253 OA
ATOM     14  C   UNL     1       9.861 -29.817  32.619  1.00  0.00     0.139 C 
ENDBRANCH  11  12
ENDBRANCH   1  11
TORSDOF 6
ENDMDL
MODEL 5
REMARK VINA RESULT:    -4.259      4.884      7.846
REMARK INTER + INTRA:          -6.678
REMARK INTER:                  -6.230
REMARK INTRA:                  -0.449
REMARK UNBOUND:                -0.926
REMARK SMILES C=C[C@@](C)(CCC=C(C)C)OC(C)=O
REMARK SMILES IDX 3 1 4 2 5 3 6 4 7 5 9 6 8 7 10 8 2 9 1 10 11 11 12 12 14 13
REMARK SMILES IDX 13 14
REMARK H PARENT
REMARK Flexibility Score: inf
ROOT
ATOM      1  C   UNL     1      10.162 -22.974  31.296  1.00  0.00     0.127 C 
ATOM      2  C   UNL     1      11.688 -22.968  31.506  1.00  0.00     0.061 C 
ENDROOT
BRANCH   1   3
ATOM      3  C   UNL     1       9.490 -21.864  32.159  1.00  0.00     0.057 C 
BRANCH   3   4
ATOM      4  C   UNL     1       9.857 -21.876  33.662  1.00  0.00     0.032 C 
BRANCH   4   5
ATOM      5  C   UNL     1      10.518 -20.590  34.099  1.00  0.00    -0.028 C 
ATOM      6  C   UNL     1      10.662 -18.334  35.064  1.00  0.00     0.039 C 
ATOM      7  C   UNL     1       9.864 -19.548  34.658  1.00  0.00    -0.080 C 
ATOM      8  C   UNL     1       8.366 -19.555  34.858  1.00  0.00     0.039 C 
ENDBRANCH   4   5
ENDBRANCH   3   4
ENDBRANCH   1   3
BRANCH   1   9
ATOM      9  C   UNL     1       9.853 -22.781  29.818  1.00  0.00     0.013 C 
ATOM     10  C   UNL     1       9.130 -21.749  29.370  1.00  0.00     0.008 C 
ENDBRANCH   1   9
BRANCH   1  11
ATOM     11  O   UNL     1       9.685 -24.256  31.732  1.00  0.00    -0.455 OA
BRANCH  11  12
ATOM     12  C   UNL     1       8.875 -25.124  30.985  1.00  0.00     0.303 C 
ATOM     13  O   UNL     1       7.666 -24.849  30.751  1.00  0.00    -0.253 OA
ATOM     14  C   UNL     1       9.473 -26.358  30.403  1.00  0.00     0.139 C 
ENDBRANCH  11  12
ENDBRANCH   1  11
TORSDOF 6
ENDMDL
MODEL 6
REMARK VINA RESULT:    -4.175      2.672      5.384
REMARK INTER + INTRA:          -6.565
REMARK INTER:                  -6.104
REMARK INTRA:                  -0.460
REMARK UNBOUND:                -0.926
REMARK SMILES C=C[C@@](C)(CCC=C(C)C)OC(C)=O
REMARK SMILES IDX 3 1 4 2 5 3 6 4 7 5 9 6 8 7 10 8 2 9 1 10 11 11 12 12 14 13
REMARK SMILES IDX 13 14
REMARK H PARENT
REMARK Flexibility Score: inf
ROOT
ATOM      1  C   UNL     1       8.917 -23.685  30.918  1.00  0.00     0.127 C 
ATOM      2  C   UNL     1       7.695 -22.775  31.144  1.00  0.00     0.061 C 
ENDROOT
BRANCH   1   3
ATOM      3  C   UNL     1       8.461 -25.118  30.512  1.00  0.00     0.057 C 
BRANCH   3   4
ATOM      4  C   UNL     1       9.593 -26.166  30.385  1.00  0.00     0.032 C 
BRANCH   4   5
ATOM      5  C   UNL     1       9.450 -27.286  31.389  1.00  0.00    -0.028 C 
ATOM      6  C   UNL     1       9.733 -29.545  32.313  1.00  0.00     0.039 C 
ATOM      7  C   UNL     1       9.934 -28.535  31.211  1.00  0.00    -0.080 C 
ATOM      8  C   UNL     1      10.637 -28.950  29.940  1.00  0.00     0.039 C 
ENDBRANCH   4   5
ENDBRANCH   3   4
ENDBRANCH   1   3
BRANCH   1   9
ATOM      9  C   UNL     1       9.814 -23.073  29.850  1.00  0.00     0.013 C 
ATOM     10  C   UNL     1       9.446 -22.001  29.139  1.00  0.00     0.008 C 
ENDBRANCH   1   9
BRANCH   1  11
ATOM     11  O   UNL     1       9.622 -23.756  32.167  1.00  0.00    -0.455 OA
BRANCH  11  12
ATOM     12  C   UNL     1      10.688 -22.929  32.552  1.00  0.00     0.303 C 
ATOM     13  O   UNL     1      11.885 -23.286  32.384  1.00  0.00    -0.253 OA
ATOM     14  C   UNL     1      10.395 -21.577  33.108  1.00  0.00     0.139 C 
ENDBRANCH  11  12
ENDBRANCH   1  11
TORSDOF 6
ENDMDL
MODEL 7
REMARK VINA RESULT:    -4.144      2.060      3.692
REMARK INTER + INTRA:          -6.523
REMARK INTER:                  -5.594
REMARK INTRA:                  -0.929
REMARK UNBOUND:                -0.926
REMARK SMILES C=C[C@@](C)(CCC=C(C)C)OC(C)=O
REMARK SMILES IDX 3 1 4 2 5 3 6 4 7 5 9 6 8 7 10 8 2 9 1 10 11 11 12 12 14 13
REMARK SMILES IDX 13 14
REMARK H PARENT
REMARK Flexibility Score: inf
ROOT
ATOM      1  C   UNL     1       9.433 -28.457  29.493  1.00  0.00     0.127 C 
ATOM      2  C   UNL     1       9.096 -27.233  28.621  1.00  0.00     0.061 C 
ENDROOT
BRANCH   1   3
ATOM      3  C   UNL     1       8.449 -29.627  29.192  1.00  0.00     0.057 C 
BRANCH   3   4
ATOM      4  C   UNL     1       7.950 -29.718  27.731  1.00  0.00     0.032 C 
BRANCH   4   5
ATOM      5  C   UNL     1       8.609 -30.844  26.970  1.00  0.00    -0.028 C 
ATOM      6  C   UNL     1      10.068 -31.890  25.291  1.00  0.00     0.039 C 
ATOM      7  C   UNL     1       9.472 -30.668  25.944  1.00  0.00    -0.080 C 
ATOM      8  C   UNL     1       9.828 -29.296  25.421  1.00  0.00     0.039 C 
ENDBRANCH   4   5
ENDBRANCH   3   4
ENDBRANCH   1   3
BRANCH   1   9
ATOM      9  C   UNL     1      10.875 -28.876  29.242  1.00  0.00     0.013 C 
ATOM     10  C   UNL     1      11.682 -28.197  28.420  1.00  0.00     0.008 C 
ENDBRANCH   1   9
BRANCH   1  11
ATOM     11  O   UNL     1       9.272 -28.053  30.862  1.00  0.00    -0.455 OA
BRANCH  11  12
ATOM     12  C   UNL     1       8.823 -28.873  31.908  1.00  0.00     0.303 C 
ATOM     13  O   UNL     1       7.610 -28.886  32.252  1.00  0.00    -0.253 OA
ATOM     14  C   UNL     1       9.787 -29.791  32.578  1.00  0.00     0.139 C 
ENDBRANCH  11  12
ENDBRANCH   1  11
TORSDOF 6
ENDMDL
MODEL 8
REMARK VINA RESULT:    -4.112      2.834      5.195
REMARK INTER + INTRA:          -6.480
REMARK INTER:                  -5.700
REMARK INTRA:                  -0.780
REMARK UNBOUND:                -0.926
REMARK SMILES C=C[C@@](C)(CCC=C(C)C)OC(C)=O
REMARK SMILES IDX 3 1 4 2 5 3 6 4 7 5 9 6 8 7 10 8 2 9 1 10 11 11 12 12 14 13
REMARK SMILES IDX 13 14
REMARK H PARENT
REMARK Flexibility Score: inf
ROOT
ATOM      1  C   UNL     1       9.125 -28.054  27.243  1.00  0.00     0.127 C 
ATOM      2  C   UNL     1       8.735 -26.860  28.135  1.00  0.00     0.061 C 
ENDROOT
BRANCH   1   3
ATOM      3  C   UNL     1      10.216 -28.920  27.941  1.00  0.00     0.057 C 
BRANCH   3   4
ATOM      4  C   UNL     1      10.771 -28.349  29.268  1.00  0.00     0.032 C 
BRANCH   4   5
ATOM      5  C   UNL     1      10.518 -29.270  30.437  1.00  0.00    -0.028 C 
ATOM      6  C   UNL     1       9.726 -29.928  32.669  1.00  0.00     0.039 C 
ATOM      7  C   UNL     1       9.932 -28.890  31.595  1.00  0.00    -0.080 C 
ATOM      8  C   UNL     1       9.509 -27.462  31.848  1.00  0.00     0.039 C 
ENDBRANCH   4   5
ENDBRANCH   3   4
ENDBRANCH   1   3
BRANCH   1   9
ATOM      9  C   UNL     1       7.885 -28.881  26.934  1.00  0.00     0.013 C 
ATOM     10  C   UNL     1       7.723 -30.125  27.399  1.00  0.00     0.008 C 
ENDBRANCH   1   9
BRANCH   1  11
ATOM     11  O   UNL     1       9.666 -27.510  26.030  1.00  0.00    -0.455 OA
BRANCH  11  12
ATOM     12  C   UNL     1      10.725 -28.059  25.290  1.00  0.00     0.303 C 
ATOM     13  O   UNL     1      10.568 -29.102  24.599  1.00  0.00    -0.253 OA
ATOM     14  C   UNL     1      12.040 -27.357  25.272  1.00  0.00     0.139 C 
ENDBRANCH  11  12
ENDBRANCH   1  11
TORSDOF 6
ENDMDL
MODEL 9
REMARK VINA RESULT:    -4.067      4.827      7.783
REMARK INTER + INTRA:          -6.420
REMARK INTER:                  -5.486
REMARK INTRA:                  -0.933
REMARK UNBOUND:                -0.926
REMARK SMILES C=C[C@@](C)(CCC=C(C)C)OC(C)=O
REMARK SMILES IDX 3 1 4 2 5 3 6 4 7 5 9 6 8 7 10 8 2 9 1 10 11 11 12 12 14 13
REMARK SMILES IDX 13 14
REMARK H PARENT
REMARK Flexibility Score: inf
ROOT
ATOM      1  C   UNL     1       9.445 -24.762  24.641  1.00  0.00     0.127 C 
ATOM      2  C   UNL     1      10.885 -24.804  24.098  1.00  0.00     0.061 C 
ENDROOT
BRANCH   1   3
ATOM      3  C   UNL     1       8.885 -23.309  24.585  1.00  0.00     0.057 C 
BRANCH   3   4
ATOM      4  C   UNL     1       9.457 -22.419  23.456  1.00  0.00     0.032 C 
BRANCH   4   5
ATOM      5  C   UNL     1       8.745 -22.633  22.142  1.00  0.00    -0.028 C 
ATOM      6  C   UNL     1       8.516 -23.160  19.752  1.00  0.00     0.039 C 
ATOM      7  C   UNL     1       9.362 -22.957  20.984  1.00  0.00    -0.080 C 
ATOM      8  C   UNL     1      10.864 -23.092  20.886  1.00  0.00     0.039 C 
ENDBRANCH   4   5
ENDBRANCH   3   4
ENDBRANCH   1   3
BRANCH   1   9
ATOM      9  C   UNL     1       8.572 -25.716  23.838  1.00  0.00     0.013 C 
ATOM     10  C   UNL     1       9.002 -26.301  22.714  1.00  0.00     0.008 C 
ENDBRANCH   1   9
BRANCH   1  11
ATOM     11  O   UNL     1       9.502 -25.187  26.012  1.00  0.00    -0.455 OA
BRANCH  11  12
ATOM     12  C   UNL     1       9.496 -26.518  26.454  1.00  0.00     0.303 C 
ATOM     13  O   UNL     1      10.521 -27.246  26.347  1.00  0.00    -0.253 OA
ATOM     14  C   UNL     1       8.278 -27.058  27.122  1.00  0.00     0.139 C 
ENDBRANCH  11  12
ENDBRANCH   1  11
TORSDOF 6
ENDMDL
