MODEL 1
REMARK VINA RESULT:   140.776      0.000      0.000
REMARK INTER + INTRA:         153.201
REMARK INTER:                 153.121
REMARK INTRA:                   0.080
REMARK UNBOUND:                 0.080
REMARK SMILES C=C(C)[C@@H]1CC[C@@]2(C)CC[C@@]3(C)[C@@H](CC[C@H]4[C@@]5(C)CC[C@@H](O)C(C)(C)[C@@H]5CC[C@]43C)[C@H]12
REMARK SMILES IDX 4 1 5 2 6 3 7 4 31 5 13 6 14 7 15 8 16 9 17 10 19 11 20 12
REMARK SMILES IDX 21 13 23 14 26 15 27 16 28 17 29 18 11 19 10 20 9 21 12 22
REMARK SMILES IDX 30 23 24 24 25 25 18 26 8 27 2 28 3 29 1 30 22 31
REMARK H PARENT 22 32
REMARK Flexibility Score: inf
ROOT
ATOM      1  C   UNL     1     -36.644  30.099 -19.840  1.00  0.00     0.018 C 
ATOM      2  C   UNL     1     -37.232  31.527 -19.881  1.00  0.00     0.009 C 
ATOM      3  C   UNL     1     -38.389  31.502 -20.898  1.00  0.00     0.008 C 
ATOM      4  C   UNL     1     -38.895  30.055 -20.873  1.00  0.00    -0.029 C 
ATOM      5  C   UNL     1     -37.573  29.276 -20.773  1.00  0.00     0.006 C 
ATOM      6  C   UNL     1     -37.777  27.738 -20.682  1.00  0.00    -0.000 C 
ATOM      7  C   UNL     1     -36.462  26.979 -20.543  1.00  0.00     0.005 C 
ATOM      8  C   UNL     1     -36.743  25.525 -20.199  1.00  0.00     0.005 C 
ATOM      9  C   UNL     1     -37.671  24.755 -21.199  1.00  0.00     0.002 C 
ATOM     10  C   UNL     1     -37.972  23.254 -20.690  1.00  0.00    -0.026 C 
ATOM     11  C   UNL     1     -36.692  22.594 -20.058  1.00  0.00     0.010 C 
ATOM     12  C   UNL     1     -36.945  21.234 -19.384  1.00  0.00     0.033 C 
ATOM     13  C   UNL     1     -38.012  21.338 -18.286  1.00  0.00     0.120 C 
ATOM     14  C   UNL     1     -39.359  21.933 -18.808  1.00  0.00    -0.006 C 
ATOM     15  C   UNL     1     -39.081  23.297 -19.570  1.00  0.00     0.003 C 
ATOM     16  C   UNL     1     -40.355  24.020 -20.054  1.00  0.00     0.005 C 
ATOM     17  C   UNL     1     -40.065  25.458 -20.510  1.00  0.00     0.008 C 
ATOM     18  C   UNL     1     -38.975  25.600 -21.626  1.00  0.00    -0.024 C 
ATOM     19  C   UNL     1     -38.606  27.162 -21.906  1.00  0.00    -0.024 C 
ATOM     20  C   UNL     1     -39.887  28.070 -22.124  1.00  0.00     0.008 C 
ATOM     21  C   UNL     1     -39.609  29.595 -22.162  1.00  0.00     0.007 C 
ATOM     22  C   UNL     1     -37.783  27.258 -23.244  1.00  0.00     0.012 C 
ATOM     23  C   UNL     1     -39.591  25.013 -22.942  1.00  0.00     0.012 C 
ATOM     24  C   UNL     1     -40.265  22.190 -17.569  1.00  0.00     0.014 C 
ATOM     25  C   UNL     1     -40.096  20.875 -19.671  1.00  0.00     0.014 C 
ATOM     26  C   UNL     1     -38.367  22.371 -21.925  1.00  0.00     0.012 C 
ATOM     27  C   UNL     1     -39.868  29.912 -19.664  1.00  0.00     0.011 C 
ENDROOT
BRANCH   1  28
ATOM     28  C   UNL     1     -36.350  29.621 -18.414  1.00  0.00    -0.077 C 
ATOM     29  C   UNL     1     -35.281  30.335 -17.623  1.00  0.00     0.039 C 
ATOM     30  C   UNL     1     -37.011  28.627 -17.798  1.00  0.00     0.008 C 
ENDBRANCH   1  28
BRANCH  13  31
ATOM     31  O   UNL     1     -37.504  22.133 -17.239  1.00  0.00    -0.393 OA
ATOM     32  H   UNL     1     -38.219  22.776 -16.981  1.00  0.00     0.210 HD
ENDBRANCH  13  31
TORSDOF 2
ENDMDL
MODEL 2
REMARK VINA RESULT:   141.258      7.637     11.786
REMARK INTER + INTRA:         153.725
REMARK INTER:                 152.461
REMARK INTRA:                   1.264
REMARK UNBOUND:                 0.080
REMARK SMILES C=C(C)[C@@H]1CC[C@@]2(C)CC[C@@]3(C)[C@@H](CC[C@H]4[C@@]5(C)CC[C@@H](O)C(C)(C)[C@@H]5CC[C@]43C)[C@H]12
REMARK SMILES IDX 4 1 5 2 6 3 7 4 31 5 13 6 14 7 15 8 16 9 17 10 19 11 20 12
REMARK SMILES IDX 21 13 23 14 26 15 27 16 28 17 29 18 11 19 10 20 9 21 12 22
REMARK SMILES IDX 30 23 24 24 25 25 18 26 8 27 2 28 3 29 1 30 22 31
REMARK H PARENT 22 32
REMARK Flexibility Score: inf
ROOT
ATOM      1  C   UNL     1     -27.923  22.330 -15.247  1.00  0.00     0.018 C 
ATOM      2  C   UNL     1     -28.390  20.968 -14.686  1.00  0.00     0.009 C 
ATOM      3  C   UNL     1     -29.509  21.266 -13.671  1.00  0.00     0.008 C 
ATOM      4  C   UNL     1     -30.133  22.579 -14.157  1.00  0.00    -0.029 C 
ATOM      5  C   UNL     1     -28.884  23.361 -14.597  1.00  0.00     0.006 C 
ATOM      6  C   UNL     1     -29.216  24.757 -15.194  1.00  0.00    -0.000 C 
ATOM      7  C   UNL     1     -27.973  25.505 -15.662  1.00  0.00     0.005 C 
ATOM      8  C   UNL     1     -28.384  26.731 -16.463  1.00  0.00     0.005 C 
ATOM      9  C   UNL     1     -29.337  27.736 -15.732  1.00  0.00     0.002 C 
ATOM     10  C   UNL     1     -29.777  28.946 -16.703  1.00  0.00    -0.026 C 
ATOM     11  C   UNL     1     -28.578  29.430 -17.597  1.00  0.00     0.010 C 
ATOM     12  C   UNL     1     -28.964  30.455 -18.678  1.00  0.00     0.033 C 
ATOM     13  C   UNL     1     -30.055  29.910 -19.609  1.00  0.00     0.120 C 
ATOM     14  C   UNL     1     -31.331  29.445 -18.836  1.00  0.00    -0.006 C 
ATOM     15  C   UNL     1     -30.917  28.448 -17.672  1.00  0.00     0.003 C 
ATOM     16  C   UNL     1     -32.110  27.854 -16.895  1.00  0.00     0.005 C 
ATOM     17  C   UNL     1     -31.687  26.684 -15.995  1.00  0.00     0.008 C 
ATOM     18  C   UNL     1     -30.552  27.006 -14.964  1.00  0.00    -0.024 C 
ATOM     19  C   UNL     1     -30.047  25.664 -14.192  1.00  0.00    -0.024 C 
ATOM     20  C   UNL     1     -31.241  24.805 -13.601  1.00  0.00     0.008 C 
ATOM     21  C   UNL     1     -30.838  23.407 -13.062  1.00  0.00     0.007 C 
ATOM     22  C   UNL     1     -29.173  26.088 -12.953  1.00  0.00     0.012 C 
ATOM     23  C   UNL     1     -31.169  27.969 -13.893  1.00  0.00     0.012 C 
ATOM     24  C   UNL     1     -32.254  28.718 -19.856  1.00  0.00     0.014 C 
ATOM     25  C   UNL     1     -32.122  30.684 -18.342  1.00  0.00     0.014 C 
ATOM     26  C   UNL     1     -30.201  30.172 -15.822  1.00  0.00     0.012 C 
ATOM     27  C   UNL     1     -31.155  22.233 -15.282  1.00  0.00     0.011 C 
ENDROOT
BRANCH   1  28
ATOM     28  C   UNL     1     -27.717  22.305 -16.766  1.00  0.00    -0.077 C 
ATOM     29  C   UNL     1     -27.830  23.604 -17.526  1.00  0.00     0.039 C 
ATOM     30  C   UNL     1     -27.401  21.206 -17.469  1.00  0.00     0.008 C 
ENDBRANCH   1  28
BRANCH  13  31
ATOM     31  O   UNL     1     -29.520  28.838 -20.350  1.00  0.00    -0.393 OA
ATOM     32  H   UNL     1     -29.374  28.083 -19.719  1.00  0.00     0.210 HD
ENDBRANCH  13  31
TORSDOF 2
ENDMDL
MODEL 3
REMARK VINA RESULT:   142.416      7.303      9.620
REMARK INTER + INTRA:         154.984
REMARK INTER:                 154.626
REMARK INTRA:                   0.359
REMARK UNBOUND:                 0.080
REMARK SMILES C=C(C)[C@@H]1CC[C@@]2(C)CC[C@@]3(C)[C@@H](CC[C@H]4[C@@]5(C)CC[C@@H](O)C(C)(C)[C@@H]5CC[C@]43C)[C@H]12
REMARK SMILES IDX 4 1 5 2 6 3 7 4 31 5 13 6 14 7 15 8 16 9 17 10 19 11 20 12
REMARK SMILES IDX 21 13 23 14 26 15 27 16 28 17 29 18 11 19 10 20 9 21 12 22
REMARK SMILES IDX 30 23 24 24 25 25 18 26 8 27 2 28 3 29 1 30 22 31
REMARK H PARENT 22 32
REMARK Flexibility Score: inf
ROOT
ATOM      1  C   UNL     1     -31.069  28.763 -22.921  1.00  0.00     0.018 C 
ATOM      2  C   UNL     1     -30.755  29.847 -23.976  1.00  0.00     0.009 C 
ATOM      3  C   UNL     1     -30.810  31.204 -23.249  1.00  0.00     0.008 C 
ATOM      4  C   UNL     1     -30.444  30.879 -21.795  1.00  0.00    -0.029 C 
ATOM      5  C   UNL     1     -31.188  29.549 -21.588  1.00  0.00     0.006 C 
ATOM      6  C   UNL     1     -30.961  28.936 -20.178  1.00  0.00    -0.000 C 
ATOM      7  C   UNL     1     -31.671  27.600 -19.998  1.00  0.00     0.005 C 
ATOM      8  C   UNL     1     -31.201  26.938 -18.712  1.00  0.00     0.005 C 
ATOM      9  C   UNL     1     -31.374  27.785 -17.407  1.00  0.00     0.002 C 
ATOM     10  C   UNL     1     -30.762  27.023 -16.123  1.00  0.00    -0.026 C 
ATOM     11  C   UNL     1     -31.070  25.482 -16.168  1.00  0.00     0.010 C 
ATOM     12  C   UNL     1     -30.363  24.661 -15.075  1.00  0.00     0.033 C 
ATOM     13  C   UNL     1     -28.840  24.838 -15.132  1.00  0.00     0.120 C 
ATOM     14  C   UNL     1     -28.403  26.335 -15.039  1.00  0.00    -0.006 C 
ATOM     15  C   UNL     1     -29.194  27.190 -16.117  1.00  0.00     0.003 C 
ATOM     16  C   UNL     1     -28.775  28.674 -16.176  1.00  0.00     0.005 C 
ATOM     17  C   UNL     1     -29.339  29.385 -17.416  1.00  0.00     0.008 C 
ATOM     18  C   UNL     1     -30.895  29.314 -17.580  1.00  0.00    -0.024 C 
ATOM     19  C   UNL     1     -31.374  29.928 -19.011  1.00  0.00    -0.024 C 
ATOM     20  C   UNL     1     -30.749  31.354 -19.311  1.00  0.00     0.008 C 
ATOM     21  C   UNL     1     -30.982  31.880 -20.751  1.00  0.00     0.007 C 
ATOM     22  C   UNL     1     -32.932  30.145 -18.975  1.00  0.00     0.012 C 
ATOM     23  C   UNL     1     -31.514  30.204 -16.448  1.00  0.00     0.012 C 
ATOM     24  C   UNL     1     -26.875  26.392 -15.331  1.00  0.00     0.014 C 
ATOM     25  C   UNL     1     -28.585  26.842 -13.585  1.00  0.00     0.014 C 
ATOM     26  C   UNL     1     -31.451  27.580 -14.829  1.00  0.00     0.012 C 
ATOM     27  C   UNL     1     -28.890  30.816 -21.699  1.00  0.00     0.011 C 
ENDROOT
BRANCH   1  28
ATOM     28  C   UNL     1     -30.142  27.546 -23.028  1.00  0.00    -0.077 C 
ATOM     29  C   UNL     1     -29.966  26.895 -24.378  1.00  0.00     0.039 C 
ATOM     30  C   UNL     1     -29.437  27.040 -22.004  1.00  0.00     0.008 C 
ENDBRANCH   1  28
BRANCH  13  31
ATOM     31  O   UNL     1     -28.365  24.267 -16.330  1.00  0.00    -0.393 OA
ATOM     32  H   UNL     1     -27.388  24.452 -16.381  1.00  0.00     0.210 HD
ENDBRANCH  13  31
TORSDOF 2
ENDMDL
MODEL 4
REMARK VINA RESULT:   143.216      2.218      7.341
REMARK INTER + INTRA:         155.855
REMARK INTER:                 155.689
REMARK INTRA:                   0.166
REMARK UNBOUND:                 0.080
REMARK SMILES C=C(C)[C@@H]1CC[C@@]2(C)CC[C@@]3(C)[C@@H](CC[C@H]4[C@@]5(C)CC[C@@H](O)C(C)(C)[C@@H]5CC[C@]43C)[C@H]12
REMARK SMILES IDX 4 1 5 2 6 3 7 4 31 5 13 6 14 7 15 8 16 9 17 10 19 11 20 12
REMARK SMILES IDX 21 13 23 14 26 15 27 16 28 17 29 18 11 19 10 20 9 21 12 22
REMARK SMILES IDX 30 23 24 24 25 25 18 26 8 27 2 28 3 29 1 30 22 31
REMARK H PARENT 22 32
REMARK Flexibility Score: inf
ROOT
ATOM      1  C   UNL     1     -40.688  22.225 -19.027  1.00  0.00     0.018 C 
ATOM      2  C   UNL     1     -40.225  21.039 -18.152  1.00  0.00     0.009 C 
ATOM      3  C   UNL     1     -38.712  20.875 -18.391  1.00  0.00     0.008 C 
ATOM      4  C   UNL     1     -38.225  22.280 -18.768  1.00  0.00    -0.029 C 
ATOM      5  C   UNL     1     -39.379  22.768 -19.660  1.00  0.00     0.006 C 
ATOM      6  C   UNL     1     -39.182  24.223 -20.170  1.00  0.00    -0.000 C 
ATOM      7  C   UNL     1     -40.350  24.710 -21.019  1.00  0.00     0.005 C 
ATOM      8  C   UNL     1     -40.219  26.205 -21.263  1.00  0.00     0.005 C 
ATOM      9  C   UNL     1     -38.879  26.673 -21.925  1.00  0.00     0.002 C 
ATOM     10  C   UNL     1     -38.813  28.280 -22.053  1.00  0.00    -0.026 C 
ATOM     11  C   UNL     1     -40.205  28.881 -22.467  1.00  0.00     0.010 C 
ATOM     12  C   UNL     1     -40.270  30.418 -22.430  1.00  0.00     0.033 C 
ATOM     13  C   UNL     1     -39.916  30.965 -21.041  1.00  0.00     0.120 C 
ATOM     14  C   UNL     1     -38.518  30.479 -20.540  1.00  0.00    -0.006 C 
ATOM     15  C   UNL     1     -38.430  28.899 -20.654  1.00  0.00     0.003 C 
ATOM     16  C   UNL     1     -37.120  28.298 -20.102  1.00  0.00     0.005 C 
ATOM     17  C   UNL     1     -37.201  26.771 -19.956  1.00  0.00     0.008 C 
ATOM     18  C   UNL     1     -37.578  25.992 -21.262  1.00  0.00    -0.024 C 
ATOM     19  C   UNL     1     -37.821  24.409 -20.964  1.00  0.00    -0.024 C 
ATOM     20  C   UNL     1     -36.649  23.751 -20.125  1.00  0.00     0.008 C 
ATOM     21  C   UNL     1     -36.936  22.314 -19.615  1.00  0.00     0.007 C 
ATOM     22  C   UNL     1     -37.853  23.633 -22.333  1.00  0.00     0.012 C 
ATOM     23  C   UNL     1     -36.353  26.111 -22.232  1.00  0.00     0.012 C 
ATOM     24  C   UNL     1     -38.381  30.914 -19.052  1.00  0.00     0.014 C 
ATOM     25  C   UNL     1     -37.400  31.224 -21.314  1.00  0.00     0.014 C 
ATOM     26  C   UNL     1     -37.806  28.655 -23.196  1.00  0.00     0.012 C 
ATOM     27  C   UNL     1     -37.997  23.075 -17.446  1.00  0.00     0.011 C 
ENDROOT
BRANCH   1  28
ATOM     28  C   UNL     1     -41.646  23.167 -18.287  1.00  0.00    -0.077 C 
ATOM     29  C   UNL     1     -41.862  22.956 -16.809  1.00  0.00     0.039 C 
ATOM     30  C   UNL     1     -42.280  24.203 -18.860  1.00  0.00     0.008 C 
ENDBRANCH   1  28
BRANCH  13  31
ATOM     31  O   UNL     1     -40.920  30.573 -20.133  1.00  0.00    -0.393 OA
ATOM     32  H   UNL     1     -41.115  31.355 -19.549  1.00  0.00     0.210 HD
ENDBRANCH  13  31
TORSDOF 2
ENDMDL
