MODEL 1
REMARK VINA RESULT:    -2.631      0.000      0.000
REMARK INTER + INTRA:          -2.862
REMARK INTER:                  -2.862
REMARK INTRA:                   0.000
REMARK UNBOUND:                 0.000
REMARK SMILES Oc1cccc(O)c1O
REMARK SMILES IDX 4 1 5 2 6 3 8 4 2 5 3 6 7 7 1 9 9 11
REMARK H PARENT 7 8 1 10 9 12
REMARK Flexibility Score: inf
ROOT
ATOM      1  C   UNL     1      30.727  23.725  29.125  1.00  0.00     0.008 A 
ATOM      2  C   UNL     1      32.116  23.876  29.130  1.00  0.00     0.050 A 
ATOM      3  C   UNL     1      32.922  23.005  28.383  1.00  0.00     0.161 A 
ATOM      4  C   UNL     1      32.329  21.978  27.626  1.00  0.00     0.200 A 
ATOM      5  C   UNL     1      30.934  21.831  27.625  1.00  0.00     0.161 A 
ATOM      6  C   UNL     1      30.136  22.706  28.374  1.00  0.00     0.050 A 
ENDROOT
BRANCH   3   7
ATOM      7  O   UNL     1      34.309  23.157  28.389  1.00  0.00    -0.504 OA
ATOM      8  H   UNL     1      34.752  23.963  28.815  1.00  0.00     0.293 HD
ENDBRANCH   3   7
BRANCH   5   9
ATOM      9  O   UNL     1      30.348  20.812  26.875  1.00  0.00    -0.504 OA
ATOM     10  H   UNL     1      29.763  20.106  27.305  1.00  0.00     0.293 HD
ENDBRANCH   5   9
BRANCH   4  11
ATOM     11  O   UNL     1      33.108  21.098  26.875  1.00  0.00    -0.502 OA
ATOM     12  H   UNL     1      32.708  20.497  26.164  1.00  0.00     0.293 HD
ENDBRANCH   4  11
TORSDOF 3
ENDMDL
MODEL 2
REMARK VINA RESULT:    -2.601      1.478      2.659
REMARK INTER + INTRA:          -2.829
REMARK INTER:                  -2.829
REMARK INTRA:                   0.000
REMARK UNBOUND:                 0.000
REMARK SMILES Oc1cccc(O)c1O
REMARK SMILES IDX 4 1 5 2 6 3 8 4 2 5 3 6 7 7 1 9 9 11
REMARK H PARENT 7 8 1 10 9 12
REMARK Flexibility Score: inf
ROOT
ATOM      1  C   UNL     1      30.376  21.877  27.560  1.00  0.00     0.008 A 
ATOM      2  C   UNL     1      30.329  22.630  28.736  1.00  0.00     0.050 A 
ATOM      3  C   UNL     1      31.510  23.135  29.298  1.00  0.00     0.161 A 
ATOM      4  C   UNL     1      32.745  22.884  28.673  1.00  0.00     0.200 A 
ATOM      5  C   UNL     1      32.788  22.128  27.492  1.00  0.00     0.161 A 
ATOM      6  C   UNL     1      31.602  21.627  26.937  1.00  0.00     0.050 A 
ENDROOT
BRANCH   3   7
ATOM      7  O   UNL     1      31.461  23.886  30.472  1.00  0.00    -0.504 OA
ATOM      8  H   UNL     1      32.163  24.586  30.684  1.00  0.00     0.293 HD
ENDBRANCH   3   7
BRANCH   5   9
ATOM      9  O   UNL     1      34.013  21.880  26.875  1.00  0.00    -0.504 OA
ATOM     10  H   UNL     1      34.644  22.633  26.627  1.00  0.00     0.293 HD
ENDBRANCH   5   9
BRANCH   4  11
ATOM     11  O   UNL     1      33.935  23.374  29.211  1.00  0.00    -0.502 OA
ATOM     12  H   UNL     1      33.982  23.769  30.144  1.00  0.00     0.293 HD
ENDBRANCH   4  11
TORSDOF 3
ENDMDL
MODEL 3
REMARK VINA RESULT:    -2.260      1.723      3.752
REMARK INTER + INTRA:          -2.458
REMARK INTER:                  -2.458
REMARK INTRA:                   0.000
REMARK UNBOUND:                 0.000
REMARK SMILES Oc1cccc(O)c1O
REMARK SMILES IDX 4 1 5 2 6 3 8 4 2 5 3 6 7 7 1 9 9 11
REMARK H PARENT 7 8 1 10 9 12
REMARK Flexibility Score: inf
ROOT
ATOM      1  C   UNL     1      33.035  21.729  26.876  1.00  0.00     0.008 A 
ATOM      2  C   UNL     1      31.656  21.505  26.900  1.00  0.00     0.050 A 
ATOM      3  C   UNL     1      30.866  22.084  27.903  1.00  0.00     0.161 A 
ATOM      4  C   UNL     1      31.464  22.894  28.885  1.00  0.00     0.200 A 
ATOM      5  C   UNL     1      32.849  23.116  28.857  1.00  0.00     0.161 A 
ATOM      6  C   UNL     1      33.632  22.533  27.850  1.00  0.00     0.050 A 
ENDROOT
BRANCH   3   7
ATOM      7  O   UNL     1      29.489  21.859  27.925  1.00  0.00    -0.504 OA
ATOM      8  H   UNL     1      29.029  21.316  27.204  1.00  0.00     0.293 HD
ENDBRANCH   3   7
BRANCH   5   9
ATOM      9  O   UNL     1      33.440  23.918  29.831  1.00  0.00    -0.504 OA
ATOM     10  H   UNL     1      32.888  24.534  30.417  1.00  0.00     0.293 HD
ENDBRANCH   5   9
BRANCH   4  11
ATOM     11  O   UNL     1      30.700  23.481  29.894  1.00  0.00    -0.502 OA
ATOM     12  H   UNL     1      29.735  23.753  29.749  1.00  0.00     0.293 HD
ENDBRANCH   4  11
TORSDOF 3
ENDMDL
MODEL 4
REMARK VINA RESULT:    -2.153      0.068      2.799
REMARK INTER + INTRA:          -2.342
REMARK INTER:                  -2.342
REMARK INTRA:                   0.000
REMARK UNBOUND:                 0.000
REMARK SMILES Oc1cccc(O)c1O
REMARK SMILES IDX 4 1 5 2 6 3 8 4 2 5 3 6 7 7 1 9 9 11
REMARK H PARENT 7 8 1 10 9 12
REMARK Flexibility Score: inf
ROOT
ATOM      1  C   UNL     1      30.658  23.670  29.123  1.00  0.00     0.008 A 
ATOM      2  C   UNL     1      30.083  22.639  28.376  1.00  0.00     0.050 A 
ATOM      3  C   UNL     1      30.894  21.780  27.621  1.00  0.00     0.161 A 
ATOM      4  C   UNL     1      32.289  21.957  27.618  1.00  0.00     0.200 A 
ATOM      5  C   UNL     1      32.862  22.994  28.370  1.00  0.00     0.161 A 
ATOM      6  C   UNL     1      32.043  23.848  29.122  1.00  0.00     0.050 A 
ENDROOT
BRANCH   3   7
ATOM      7  O   UNL     1      30.319  20.751  26.875  1.00  0.00    -0.504 OA
ATOM      8  H   UNL     1      29.866  19.961  27.322  1.00  0.00     0.293 HD
ENDBRANCH   3   7
BRANCH   5   9
ATOM      9  O   UNL     1      34.245  23.168  28.365  1.00  0.00    -0.504 OA
ATOM     10  H   UNL     1      34.878  22.386  28.482  1.00  0.00     0.293 HD
ENDBRANCH   5   9
BRANCH   4  11
ATOM     11  O   UNL     1      33.118  21.116  26.875  1.00  0.00    -0.502 OA
ATOM     12  H   UNL     1      32.989  20.111  26.857  1.00  0.00     0.293 HD
ENDBRANCH   4  11
TORSDOF 3
ENDMDL
MODEL 5
REMARK VINA RESULT:    -2.082     20.350     21.261
REMARK INTER + INTRA:          -2.265
REMARK INTER:                  -2.265
REMARK INTRA:                   0.000
REMARK UNBOUND:                 0.000
REMARK SMILES Oc1cccc(O)c1O
REMARK SMILES IDX 4 1 5 2 6 3 8 4 2 5 3 6 7 7 1 9 9 11
REMARK H PARENT 7 8 1 10 9 12
REMARK Flexibility Score: inf
ROOT
ATOM      1  C   UNL     1      20.854  21.189  47.124  1.00  0.00     0.008 A 
ATOM      2  C   UNL     1      21.799  21.609  46.184  1.00  0.00     0.050 A 
ATOM      3  C   UNL     1      21.466  22.588  45.238  1.00  0.00     0.161 A 
ATOM      4  C   UNL     1      20.176  23.149  45.237  1.00  0.00     0.200 A 
ATOM      5  C   UNL     1      19.230  22.724  46.182  1.00  0.00     0.161 A 
ATOM      6  C   UNL     1      19.572  21.744  47.125  1.00  0.00     0.050 A 
ENDROOT
BRANCH   3   7
ATOM      7  O   UNL     1      22.410  23.007  44.301  1.00  0.00    -0.504 OA
ATOM      8  H   UNL     1      22.971  22.342  43.781  1.00  0.00     0.293 HD
ENDBRANCH   3   7
BRANCH   5   9
ATOM      9  O   UNL     1      17.952  23.281  46.179  1.00  0.00    -0.504 OA
ATOM     10  H   UNL     1      17.591  23.785  46.980  1.00  0.00     0.293 HD
ENDBRANCH   5   9
BRANCH   4  11
ATOM     11  O   UNL     1      19.818  24.125  44.306  1.00  0.00    -0.502 OA
ATOM     12  H   UNL     1      19.629  25.083  44.577  1.00  0.00     0.293 HD
ENDBRANCH   4  11
TORSDOF 3
ENDMDL
MODEL 6
REMARK VINA RESULT:    -1.256      1.289      2.775
REMARK INTER + INTRA:          -1.366
REMARK INTER:                  -1.366
REMARK INTRA:                   0.000
REMARK UNBOUND:                 0.000
REMARK SMILES Oc1cccc(O)c1O
REMARK SMILES IDX 4 1 5 2 6 3 8 4 2 5 3 6 7 7 1 9 9 11
REMARK H PARENT 7 8 1 10 9 12
REMARK Flexibility Score: inf
ROOT
ATOM      1  C   UNL     1      32.559  23.958  29.458  1.00  0.00     0.008 A 
ATOM      2  C   UNL     1      31.172  24.125  29.491  1.00  0.00     0.050 A 
ATOM      3  C   UNL     1      30.343  23.297  28.720  1.00  0.00     0.161 A 
ATOM      4  C   UNL     1      30.912  22.295  27.913  1.00  0.00     0.200 A 
ATOM      5  C   UNL     1      32.305  22.131  27.883  1.00  0.00     0.161 A 
ATOM      6  C   UNL     1      33.126  22.964  28.657  1.00  0.00     0.050 A 
ENDROOT
BRANCH   3   7
ATOM      7  O   UNL     1      28.959  23.465  28.755  1.00  0.00    -0.504 OA
ATOM      8  H   UNL     1      28.342  22.900  28.183  1.00  0.00     0.293 HD
ENDBRANCH   3   7
BRANCH   5   9
ATOM      9  O   UNL     1      32.866  21.138  27.082  1.00  0.00    -0.504 OA
ATOM     10  H   UNL     1      33.134  21.320  26.121  1.00  0.00     0.293 HD
ENDBRANCH   5   9
BRANCH   4  11
ATOM     11  O   UNL     1      30.111  21.459  27.136  1.00  0.00    -0.502 OA
ATOM     12  H   UNL     1      29.206  21.131  27.455  1.00  0.00     0.293 HD
ENDBRANCH   4  11
TORSDOF 3
ENDMDL
MODEL 7
REMARK VINA RESULT:    -1.213     20.727     21.692
REMARK INTER + INTRA:          -1.320
REMARK INTER:                  -1.320
REMARK INTRA:                   0.000
REMARK UNBOUND:                 0.000
REMARK SMILES Oc1cccc(O)c1O
REMARK SMILES IDX 4 1 5 2 6 3 8 4 2 5 3 6 7 7 1 9 9 11
REMARK H PARENT 7 8 1 10 9 12
REMARK Flexibility Score: inf
ROOT
ATOM      1  C   UNL     1      18.055  24.124  43.505  1.00  0.00     0.008 A 
ATOM      2  C   UNL     1      19.410  23.781  43.539  1.00  0.00     0.050 A 
ATOM      3  C   UNL     1      20.003  23.371  44.742  1.00  0.00     0.161 A 
ATOM      4  C   UNL     1      19.231  23.304  45.916  1.00  0.00     0.200 A 
ATOM      5  C   UNL     1      17.872  23.650  45.877  1.00  0.00     0.161 A 
ATOM      6  C   UNL     1      17.287  24.058  44.670  1.00  0.00     0.050 A 
ENDROOT
BRANCH   3   7
ATOM      7  O   UNL     1      21.355  23.029  44.774  1.00  0.00    -0.504 OA
ATOM      8  H   UNL     1      21.664  22.074  44.633  1.00  0.00     0.293 HD
ENDBRANCH   3   7
BRANCH   5   9
ATOM      9  O   UNL     1      17.109  23.583  47.041  1.00  0.00    -0.504 OA
ATOM     10  H   UNL     1      16.701  24.412  47.457  1.00  0.00     0.293 HD
ENDBRANCH   5   9
BRANCH   4  11
ATOM     11  O   UNL     1      19.797  22.900  47.125  1.00  0.00    -0.502 OA
ATOM     12  H   UNL     1      20.176  23.564  47.791  1.00  0.00     0.293 HD
ENDBRANCH   4  11
TORSDOF 3
ENDMDL
MODEL 8
REMARK VINA RESULT:    -1.095      1.559      2.542
REMARK INTER + INTRA:          -1.191
REMARK INTER:                  -1.191
REMARK INTRA:                   0.000
REMARK UNBOUND:                 0.000
REMARK SMILES Oc1cccc(O)c1O
REMARK SMILES IDX 4 1 5 2 6 3 8 4 2 5 3 6 7 7 1 9 9 11
REMARK H PARENT 7 8 1 10 9 12
REMARK Flexibility Score: inf
ROOT
ATOM      1  C   UNL     1      33.906  23.974  29.143  1.00  0.00     0.008 A 
ATOM      2  C   UNL     1      34.255  22.955  28.252  1.00  0.00     0.050 A 
ATOM      3  C   UNL     1      33.274  22.079  27.764  1.00  0.00     0.161 A 
ATOM      4  C   UNL     1      31.936  22.229  28.173  1.00  0.00     0.200 A 
ATOM      5  C   UNL     1      31.591  23.254  29.067  1.00  0.00     0.161 A 
ATOM      6  C   UNL     1      32.578  24.125  29.549  1.00  0.00     0.050 A 
ENDROOT
BRANCH   3   7
ATOM      7  O   UNL     1      33.624  21.063  26.875  1.00  0.00    -0.504 OA
ATOM      8  H   UNL     1      34.282  20.337  27.133  1.00  0.00     0.293 HD
ENDBRANCH   3   7
BRANCH   5   9
ATOM      9  O   UNL     1      30.265  23.399  29.470  1.00  0.00    -0.504 OA
ATOM     10  H   UNL     1      29.555  23.753  28.840  1.00  0.00     0.293 HD
ENDBRANCH   5   9
BRANCH   4  11
ATOM     11  O   UNL     1      30.942  21.371  27.703  1.00  0.00    -0.502 OA
ATOM     12  H   UNL     1      30.703  21.311  26.719  1.00  0.00     0.293 HD
ENDBRANCH   4  11
TORSDOF 3
ENDMDL
