MODEL 1
REMARK VINA RESULT:    -5.472      0.000      0.000
REMARK INTER + INTRA:          -7.525
REMARK INTER:                  -6.751
REMARK INTRA:                  -0.774
REMARK UNBOUND:                -0.774
REMARK SMILES CC(C)=CCC[C@@H](C)c1ccc(C)cc1
REMARK SMILES IDX 6 1 7 2 8 3 9 4 13 5 12 6 11 7 14 8 10 9 15 10 5 11 4 12
REMARK SMILES IDX 2 13 1 14 3 15
REMARK H PARENT
REMARK Flexibility Score: inf
ROOT
ATOM      1  C   UNL     1       9.992  47.531  71.486  1.00  0.00     0.012 C 
ENDROOT
BRANCH   1   2
ATOM      2  C   UNL     1       9.242  47.801  72.808  1.00  0.00     0.016 C 
ATOM      3  C   UNL     1       7.818  48.302  72.535  1.00  0.00     0.013 C 
BRANCH   2   4
ATOM      4  C   UNL     1       9.215  46.577  73.708  1.00  0.00    -0.045 A 
ATOM      5  C   UNL     1       9.070  43.126  76.302  1.00  0.00     0.044 C 
ATOM      6  C   UNL     1       9.133  44.306  75.378  1.00  0.00    -0.051 A 
ATOM      7  C   UNL     1      10.258  45.145  75.380  1.00  0.00     0.004 A 
ATOM      8  C   UNL     1       8.040  44.622  74.559  1.00  0.00     0.004 A 
ATOM      9  C   UNL     1      10.301  46.267  74.548  1.00  0.00     0.004 A 
ATOM     10  C   UNL     1       8.083  45.743  73.726  1.00  0.00     0.004 A 
ENDBRANCH   2   4
ENDBRANCH   1   2
BRANCH   1  11
ATOM     11  C   UNL     1       9.068  46.950  70.405  1.00  0.00     0.028 C 
BRANCH  11  12
ATOM     12  C   UNL     1       9.810  45.956  69.546  1.00  0.00    -0.028 C 
ATOM     13  C   UNL     1       9.343  44.728  69.225  1.00  0.00    -0.080 C 
ATOM     14  C   UNL     1      10.183  43.803  68.383  1.00  0.00     0.039 C 
ATOM     15  C   UNL     1       7.974  44.255  69.649  1.00  0.00     0.039 C 
ENDBRANCH  11  12
ENDBRANCH   1  11
TORSDOF 4
ENDMDL
MODEL 2
REMARK VINA RESULT:    -5.467      3.147      5.605
REMARK INTER + INTRA:          -7.520
REMARK INTER:                  -6.286
REMARK INTRA:                  -1.234
REMARK UNBOUND:                -0.774
REMARK SMILES CC(C)=CCC[C@@H](C)c1ccc(C)cc1
REMARK SMILES IDX 6 1 7 2 8 3 9 4 13 5 12 6 11 7 14 8 10 9 15 10 5 11 4 12
REMARK SMILES IDX 2 13 1 14 3 15
REMARK H PARENT
REMARK Flexibility Score: inf
ROOT
ATOM      1  C   UNL     1       9.396  48.984  74.512  1.00  0.00     0.012 C 
ENDROOT
BRANCH   1   2
ATOM      2  C   UNL     1      10.215  47.794  73.966  1.00  0.00     0.016 C 
ATOM      3  C   UNL     1      11.693  47.923  74.359  1.00  0.00     0.013 C 
BRANCH   2   4
ATOM      4  C   UNL     1       9.655  46.459  74.426  1.00  0.00    -0.045 A 
ATOM      5  C   UNL     1       8.122  42.624  75.691  1.00  0.00     0.044 C 
ATOM      6  C   UNL     1       8.644  43.968  75.279  1.00  0.00    -0.051 A 
ATOM      7  C   UNL     1       7.837  44.841  74.534  1.00  0.00     0.004 A 
ATOM      8  C   UNL     1       9.965  44.334  75.573  1.00  0.00     0.004 A 
ATOM      9  C   UNL     1       8.335  46.078  74.115  1.00  0.00     0.004 A 
ATOM     10  C   UNL     1      10.464  45.571  75.156  1.00  0.00     0.004 A 
ENDBRANCH   2   4
ENDBRANCH   1   2
BRANCH   1  11
ATOM     11  C   UNL     1       9.898  49.448  75.888  1.00  0.00     0.028 C 
BRANCH  11  12
ATOM     12  C   UNL     1       8.757  49.526  76.873  1.00  0.00    -0.028 C 
ATOM     13  C   UNL     1       8.473  48.569  77.786  1.00  0.00    -0.080 C 
ATOM     14  C   UNL     1       7.288  48.736  78.703  1.00  0.00     0.039 C 
ATOM     15  C   UNL     1       9.332  47.340  77.953  1.00  0.00     0.039 C 
ENDBRANCH  11  12
ENDBRANCH   1  11
TORSDOF 4
ENDMDL
MODEL 3
REMARK VINA RESULT:    -5.300      3.646      5.635
REMARK INTER + INTRA:          -7.314
REMARK INTER:                  -6.576
REMARK INTRA:                  -0.738
REMARK UNBOUND:                -0.774
REMARK SMILES CC(C)=CCC[C@@H](C)c1ccc(C)cc1
REMARK SMILES IDX 6 1 7 2 8 3 9 4 13 5 12 6 11 7 14 8 10 9 15 10 5 11 4 12
REMARK SMILES IDX 2 13 1 14 3 15
REMARK H PARENT
REMARK Flexibility Score: inf
ROOT
ATOM      1  C   UNL     1       8.905  45.745  74.760  1.00  0.00     0.012 C 
ENDROOT
BRANCH   1   2
ATOM      2  C   UNL     1       9.928  46.082  75.866  1.00  0.00     0.016 C 
ATOM      3  C   UNL     1      11.180  46.737  75.270  1.00  0.00     0.013 C 
BRANCH   2   4
ATOM      4  C   UNL     1       9.327  46.965  76.947  1.00  0.00    -0.045 A 
ATOM      5  C   UNL     1       7.583  49.408  80.054  1.00  0.00     0.044 C 
ATOM      6  C   UNL     1       8.214  48.579  78.974  1.00  0.00    -0.051 A 
ATOM      7  C   UNL     1       7.922  48.835  77.626  1.00  0.00     0.004 A 
ATOM      8  C   UNL     1       9.043  47.498  79.306  1.00  0.00     0.004 A 
ATOM      9  C   UNL     1       8.477  48.039  76.621  1.00  0.00     0.004 A 
ATOM     10  C   UNL     1       9.600  46.702  78.301  1.00  0.00     0.004 A 
ENDBRANCH   2   4
ENDBRANCH   1   2
BRANCH   1  11
ATOM     11  C   UNL     1       8.223  44.389  74.997  1.00  0.00     0.028 C 
BRANCH  11  12
ATOM     12  C   UNL     1       9.227  43.360  75.456  1.00  0.00    -0.028 C 
ATOM     13  C   UNL     1       8.904  42.116  75.879  1.00  0.00    -0.080 C 
ATOM     14  C   UNL     1       9.987  41.178  76.346  1.00  0.00     0.039 C 
ATOM     15  C   UNL     1       7.483  41.608  75.865  1.00  0.00     0.039 C 
ENDBRANCH  11  12
ENDBRANCH   1  11
TORSDOF 4
ENDMDL
MODEL 4
REMARK VINA RESULT:    -5.265      3.481      5.435
REMARK INTER + INTRA:          -7.270
REMARK INTER:                  -6.096
REMARK INTRA:                  -1.174
REMARK UNBOUND:                -0.774
REMARK SMILES CC(C)=CCC[C@@H](C)c1ccc(C)cc1
REMARK SMILES IDX 6 1 7 2 8 3 9 4 13 5 12 6 11 7 14 8 10 9 15 10 5 11 4 12
REMARK SMILES IDX 2 13 1 14 3 15
REMARK H PARENT
REMARK Flexibility Score: inf
ROOT
ATOM      1  C   UNL     1       9.228  45.544  75.299  1.00  0.00     0.012 C 
ENDROOT
BRANCH   1   2
ATOM      2  C   UNL     1      10.192  46.575  75.923  1.00  0.00     0.016 C 
ATOM      3  C   UNL     1      10.773  47.500  74.845  1.00  0.00     0.013 C 
BRANCH   2   4
ATOM      4  C   UNL     1       9.525  47.387  77.020  1.00  0.00    -0.045 A 
ATOM      5  C   UNL     1       7.686  49.754  80.130  1.00  0.00     0.044 C 
ATOM      6  C   UNL     1       8.296  48.921  79.043  1.00  0.00    -0.051 A 
ATOM      7  C   UNL     1       8.781  47.635  79.326  1.00  0.00     0.004 A 
ATOM      8  C   UNL     1       8.452  49.446  77.752  1.00  0.00     0.004 A 
ATOM      9  C   UNL     1       9.385  46.872  78.323  1.00  0.00     0.004 A 
ATOM     10  C   UNL     1       9.055  48.684  76.748  1.00  0.00     0.004 A 
ENDBRANCH   2   4
ENDBRANCH   1   2
BRANCH   1  11
ATOM     11  C   UNL     1       8.541  46.084  74.036  1.00  0.00     0.028 C 
BRANCH  11  12
ATOM     12  C   UNL     1       7.238  46.762  74.385  1.00  0.00    -0.028 C 
ATOM     13  C   UNL     1       6.897  48.009  73.987  1.00  0.00    -0.080 C 
ATOM     14  C   UNL     1       5.581  48.601  74.421  1.00  0.00     0.039 C 
ATOM     15  C   UNL     1       7.780  48.829  73.078  1.00  0.00     0.039 C 
ENDBRANCH  11  12
ENDBRANCH   1  11
TORSDOF 4
ENDMDL
MODEL 5
REMARK VINA RESULT:    -5.149     10.774     13.414
REMARK INTER + INTRA:          -7.128
REMARK INTER:                  -6.596
REMARK INTRA:                  -0.532
REMARK UNBOUND:                -0.774
REMARK SMILES CC(C)=CCC[C@@H](C)c1ccc(C)cc1
REMARK SMILES IDX 6 1 7 2 8 3 9 4 13 5 12 6 11 7 14 8 10 9 15 10 5 11 4 12
REMARK SMILES IDX 2 13 1 14 3 15
REMARK H PARENT
REMARK Flexibility Score: inf
ROOT
ATOM      1  C   UNL     1       0.366  38.179  69.022  1.00  0.00     0.012 C 
ENDROOT
BRANCH   1   2
ATOM      2  C   UNL     1      -0.599  38.331  67.826  1.00  0.00     0.016 C 
ATOM      3  C   UNL     1      -0.940  36.962  67.224  1.00  0.00     0.013 C 
BRANCH   2   4
ATOM      4  C   UNL     1      -1.866  39.077  68.209  1.00  0.00    -0.045 A 
ATOM      5  C   UNL     1      -5.499  41.183  69.220  1.00  0.00     0.044 C 
ATOM      6  C   UNL     1      -4.235  40.443  68.899  1.00  0.00    -0.051 A 
ATOM      7  C   UNL     1      -2.998  41.102  68.951  1.00  0.00     0.004 A 
ATOM      8  C   UNL     1      -4.286  39.107  68.476  1.00  0.00     0.004 A 
ATOM      9  C   UNL     1      -1.823  40.424  68.614  1.00  0.00     0.004 A 
ATOM     10  C   UNL     1      -3.111  38.428  68.140  1.00  0.00     0.004 A 
ENDBRANCH   2   4
ENDBRANCH   1   2
BRANCH   1  11
ATOM     11  C   UNL     1       1.374  37.039  68.811  1.00  0.00     0.028 C 
BRANCH  11  12
ATOM     12  C   UNL     1       2.692  37.577  68.311  1.00  0.00    -0.028 C 
ATOM     13  C   UNL     1       3.729  37.915  69.111  1.00  0.00    -0.080 C 
ATOM     14  C   UNL     1       4.991  38.474  68.505  1.00  0.00     0.039 C 
ATOM     15  C   UNL     1       3.687  37.716  70.606  1.00  0.00     0.039 C 
ENDBRANCH  11  12
ENDBRANCH   1  11
TORSDOF 4
ENDMDL
MODEL 6
REMARK VINA RESULT:    -5.149      1.611      2.850
REMARK INTER + INTRA:          -7.128
REMARK INTER:                  -5.749
REMARK INTRA:                  -1.378
REMARK UNBOUND:                -0.774
REMARK SMILES CC(C)=CCC[C@@H](C)c1ccc(C)cc1
REMARK SMILES IDX 6 1 7 2 8 3 9 4 13 5 12 6 11 7 14 8 10 9 15 10 5 11 4 12
REMARK SMILES IDX 2 13 1 14 3 15
REMARK H PARENT
REMARK Flexibility Score: inf
ROOT
ATOM      1  C   UNL     1       6.635  48.846  73.323  1.00  0.00     0.012 C 
ENDROOT
BRANCH   1   2
ATOM      2  C   UNL     1       7.196  48.703  74.754  1.00  0.00     0.016 C 
ATOM      3  C   UNL     1       6.104  48.969  75.798  1.00  0.00     0.013 C 
BRANCH   2   4
ATOM      4  C   UNL     1       7.834  47.344  74.982  1.00  0.00    -0.045 A 
ATOM      5  C   UNL     1       9.575  43.448  75.658  1.00  0.00     0.044 C 
ATOM      6  C   UNL     1       8.990  44.805  75.399  1.00  0.00    -0.051 A 
ATOM      7  C   UNL     1       9.500  45.931  76.062  1.00  0.00     0.004 A 
ATOM      8  C   UNL     1       7.885  44.948  74.548  1.00  0.00     0.004 A 
ATOM      9  C   UNL     1       8.931  47.191  75.852  1.00  0.00     0.004 A 
ATOM     10  C   UNL     1       7.317  46.207  74.337  1.00  0.00     0.004 A 
ENDBRANCH   2   4
ENDBRANCH   1   2
BRANCH   1  11
ATOM     11  C   UNL     1       7.701  49.331  72.329  1.00  0.00     0.028 C 
BRANCH  11  12
ATOM     12  C   UNL     1       8.000  48.264  71.305  1.00  0.00    -0.028 C 
ATOM     13  C   UNL     1       9.134  47.527  71.281  1.00  0.00    -0.080 C 
ATOM     14  C   UNL     1       9.342  46.507  70.191  1.00  0.00     0.039 C 
ATOM     15  C   UNL     1      10.198  47.659  72.342  1.00  0.00     0.039 C 
ENDBRANCH  11  12
ENDBRANCH   1  11
TORSDOF 4
ENDMDL
MODEL 7
REMARK VINA RESULT:    -5.134     12.906     15.209
REMARK INTER + INTRA:          -7.108
REMARK INTER:                  -6.229
REMARK INTRA:                  -0.879
REMARK UNBOUND:                -0.774
REMARK SMILES CC(C)=CCC[C@@H](C)c1ccc(C)cc1
REMARK SMILES IDX 6 1 7 2 8 3 9 4 13 5 12 6 11 7 14 8 10 9 15 10 5 11 4 12
REMARK SMILES IDX 2 13 1 14 3 15
REMARK H PARENT
REMARK Flexibility Score: inf
ROOT
ATOM      1  C   UNL     1      -2.103  40.366  67.409  1.00  0.00     0.012 C 
ENDROOT
BRANCH   1   2
ATOM      2  C   UNL     1      -2.767  40.263  68.799  1.00  0.00     0.016 C 
ATOM      3  C   UNL     1      -2.836  41.640  69.473  1.00  0.00     0.013 C 
BRANCH   2   4
ATOM      4  C   UNL     1      -4.149  39.635  68.725  1.00  0.00    -0.045 A 
ATOM      5  C   UNL     1      -8.094  37.881  68.590  1.00  0.00     0.044 C 
ATOM      6  C   UNL     1      -6.725  38.493  68.606  1.00  0.00    -0.051 A 
ATOM      7  C   UNL     1      -5.586  37.680  68.510  1.00  0.00     0.004 A 
ATOM      8  C   UNL     1      -6.571  39.875  68.788  1.00  0.00     0.004 A 
ATOM      9  C   UNL     1      -4.309  38.246  68.563  1.00  0.00     0.004 A 
ATOM     10  C   UNL     1      -5.295  40.442  68.840  1.00  0.00     0.004 A 
ENDBRANCH   2   4
ENDBRANCH   1   2
BRANCH   1  11
ATOM     11  C   UNL     1      -1.358  39.078  67.028  1.00  0.00     0.028 C 
BRANCH  11  12
ATOM     12  C   UNL     1      -0.213  38.823  67.977  1.00  0.00    -0.028 C 
ATOM     13  C   UNL     1      -0.067  37.697  68.711  1.00  0.00    -0.080 C 
ATOM     14  C   UNL     1       1.102  37.561  69.653  1.00  0.00     0.039 C 
ATOM     15  C   UNL     1      -1.023  36.535  68.594  1.00  0.00     0.039 C 
ENDBRANCH  11  12
ENDBRANCH   1  11
TORSDOF 4
ENDMDL
MODEL 8
REMARK VINA RESULT:    -5.102      2.132      5.525
REMARK INTER + INTRA:          -7.069
REMARK INTER:                  -5.628
REMARK INTRA:                  -1.441
REMARK UNBOUND:                -0.774
REMARK SMILES CC(C)=CCC[C@@H](C)c1ccc(C)cc1
REMARK SMILES IDX 6 1 7 2 8 3 9 4 13 5 12 6 11 7 14 8 10 9 15 10 5 11 4 12
REMARK SMILES IDX 2 13 1 14 3 15
REMARK H PARENT
REMARK Flexibility Score: inf
ROOT
ATOM      1  C   UNL     1       8.125  47.348  74.478  1.00  0.00     0.012 C 
ENDROOT
BRANCH   1   2
ATOM      2  C   UNL     1       9.631  47.414  74.148  1.00  0.00     0.016 C 
ATOM      3  C   UNL     1      10.371  46.204  74.734  1.00  0.00     0.013 C 
BRANCH   2   4
ATOM      4  C   UNL     1       9.883  47.520  72.654  1.00  0.00    -0.045 A 
ATOM      5  C   UNL     1      10.583  47.905  68.408  1.00  0.00     0.044 C 
ATOM      6  C   UNL     1      10.361  47.748  69.883  1.00  0.00    -0.051 A 
ATOM      7  C   UNL     1       9.348  46.902  70.359  1.00  0.00     0.004 A 
ATOM      8  C   UNL     1      11.115  48.499  70.796  1.00  0.00     0.004 A 
ATOM      9  C   UNL     1       9.114  46.784  71.732  1.00  0.00     0.004 A 
ATOM     10  C   UNL     1      10.883  48.381  72.169  1.00  0.00     0.004 A 
ENDBRANCH   2   4
ENDBRANCH   1   2
BRANCH   1  11
ATOM     11  C   UNL     1       7.453  48.726  74.390  1.00  0.00     0.028 C 
BRANCH  11  12
ATOM     12  C   UNL     1       6.510  48.786  73.213  1.00  0.00    -0.028 C 
ATOM     13  C   UNL     1       6.669  49.606  72.149  1.00  0.00    -0.080 C 
ATOM     14  C   UNL     1       5.647  49.605  71.042  1.00  0.00     0.039 C 
ATOM     15  C   UNL     1       7.870  50.508  72.006  1.00  0.00     0.039 C 
ENDBRANCH  11  12
ENDBRANCH   1  11
TORSDOF 4
ENDMDL
MODEL 9
REMARK VINA RESULT:    -5.067      3.246      4.697
REMARK INTER + INTRA:          -7.026
REMARK INTER:                  -6.281
REMARK INTRA:                  -0.746
REMARK UNBOUND:                -0.774
REMARK SMILES CC(C)=CCC[C@@H](C)c1ccc(C)cc1
REMARK SMILES IDX 6 1 7 2 8 3 9 4 13 5 12 6 11 7 14 8 10 9 15 10 5 11 4 12
REMARK SMILES IDX 2 13 1 14 3 15
REMARK H PARENT
REMARK Flexibility Score: inf
ROOT
ATOM      1  C   UNL     1      11.170  46.919  75.121  1.00  0.00     0.012 C 
ENDROOT
BRANCH   1   2
ATOM      2  C   UNL     1       9.801  46.366  75.573  1.00  0.00     0.016 C 
ATOM      3  C   UNL     1       9.907  44.878  75.934  1.00  0.00     0.013 C 
BRANCH   2   4
ATOM      4  C   UNL     1       9.222  47.157  76.732  1.00  0.00    -0.045 A 
ATOM      5  C   UNL     1       7.542  49.338  80.062  1.00  0.00     0.044 C 
ATOM      6  C   UNL     1       8.149  48.601  78.905  1.00  0.00    -0.051 A 
ATOM      7  C   UNL     1       7.789  48.931  77.590  1.00  0.00     0.004 A 
ATOM      8  C   UNL     1       9.027  47.532  79.131  1.00  0.00     0.004 A 
ATOM      9  C   UNL     1       8.324  48.219  76.512  1.00  0.00     0.004 A 
ATOM     10  C   UNL     1       9.563  46.820  78.054  1.00  0.00     0.004 A 
ENDBRANCH   2   4
ENDBRANCH   1   2
BRANCH   1  11
ATOM     11  C   UNL     1      11.046  47.839  73.897  1.00  0.00     0.028 C 
BRANCH  11  12
ATOM     12  C   UNL     1       9.942  47.367  72.983  1.00  0.00    -0.028 C 
ATOM     13  C   UNL     1       9.878  47.639  71.660  1.00  0.00    -0.080 C 
ATOM     14  C   UNL     1       8.711  47.141  70.848  1.00  0.00     0.039 C 
ATOM     15  C   UNL     1      10.968  48.400  70.945  1.00  0.00     0.039 C 
ENDBRANCH  11  12
ENDBRANCH   1  11
TORSDOF 4
ENDMDL
