MODEL 1
REMARK VINA RESULT:    -3.207      0.000      0.000
REMARK INTER + INTRA:          -7.972
REMARK INTER:                  -5.832
REMARK INTRA:                  -2.140
REMARK UNBOUND:                -2.140
REMARK SMILES CCCCCCCCCCCCCC[C@@H](C)C(=O)[O-]
REMARK SMILES IDX 9 1 10 2 11 3 12 4 13 5 14 6 15 7 16 8 17 9 18 10 19 11 8 12
REMARK SMILES IDX 7 13 6 14 5 15 4 16 3 17 2 18 1 19
REMARK H PARENT
REMARK Flexibility Score: inf
ROOT
ATOM      1  C   UNL     1     -98.287 -46.876 -69.625  1.00  0.00     0.000 C 
ENDROOT
BRANCH   1   2
ATOM      2  C   UNL     1     -97.969 -46.823 -71.129  1.00  0.00     0.000 C 
BRANCH   2   3
ATOM      3  C   UNL     1     -98.502 -48.040 -71.900  1.00  0.00     0.000 C 
BRANCH   3   4
ATOM      4  C   UNL     1     -99.356 -47.600 -73.098  1.00  0.00     0.000 C 
BRANCH   4   5
ATOM      5  C   UNL     1    -100.864 -47.621 -72.793  1.00  0.00     0.001 C 
BRANCH   5   6
ATOM      6  C   UNL     1    -101.431 -46.218 -72.515  1.00  0.00     0.009 C 
BRANCH   6   7
ATOM      7  C   UNL     1    -101.737 -45.985 -71.019  1.00  0.00     0.032 C 
ATOM      8  C   UNL     1    -101.100 -44.694 -70.486  1.00  0.00     0.014 C 
BRANCH   7   9
ATOM      9  C   UNL     1    -103.226 -45.931 -70.808  1.00  0.00     0.044 C 
ATOM     10  O   UNL     1    -104.009 -46.093 -71.781  1.00  0.00    -0.550 OA
ATOM     11  O   UNL     1    -103.747 -45.711 -69.538  1.00  0.00    -0.550 OA
ENDBRANCH   7   9
ENDBRANCH   6   7
ENDBRANCH   5   6
ENDBRANCH   4   5
ENDBRANCH   3   4
ENDBRANCH   2   3
ENDBRANCH   1   2
BRANCH   1  12
ATOM     12  C   UNL     1     -97.643 -45.760 -68.781  1.00  0.00     0.000 C 
BRANCH  12  13
ATOM     13  C   UNL     1     -96.811 -44.779 -69.620  1.00  0.00    -0.000 C 
BRANCH  13  14
ATOM     14  C   UNL     1     -95.365 -44.708 -69.111  1.00  0.00    -0.000 C 
BRANCH  14  15
ATOM     15  C   UNL     1     -94.981 -45.915 -68.236  1.00  0.00    -0.000 C 
BRANCH  15  16
ATOM     16  C   UNL     1     -94.088 -46.943 -68.965  1.00  0.00    -0.000 C 
BRANCH  16  17
ATOM     17  C   UNL     1     -94.068 -46.759 -70.499  1.00  0.00    -0.000 C 
BRANCH  17  18
ATOM     18  C   UNL     1     -94.458 -48.028 -71.273  1.00  0.00    -0.003 C 
ATOM     19  C   UNL     1     -94.670 -47.775 -72.764  1.00  0.00     0.004 C 
ENDBRANCH  17  18
ENDBRANCH  16  17
ENDBRANCH  15  16
ENDBRANCH  14  15
ENDBRANCH  13  14
ENDBRANCH  12  13
ENDBRANCH   1  12
TORSDOF 14
ENDMDL
MODEL 2
REMARK VINA RESULT:    -3.024      1.117      2.040
REMARK INTER + INTRA:          -7.639
REMARK INTER:                  -6.085
REMARK INTRA:                  -1.554
REMARK UNBOUND:                -2.140
REMARK SMILES CCCCCCCCCCCCCC[C@@H](C)C(=O)[O-]
REMARK SMILES IDX 9 1 10 2 11 3 12 4 13 5 14 6 15 7 16 8 17 9 18 10 19 11 8 12
REMARK SMILES IDX 7 13 6 14 5 15 4 16 3 17 2 18 1 19
REMARK H PARENT
REMARK Flexibility Score: inf
ROOT
ATOM      1  C   UNL     1     -97.320 -46.082 -69.137  1.00  0.00     0.000 C 
ENDROOT
BRANCH   1   2
ATOM      2  C   UNL     1     -97.638 -46.353 -70.618  1.00  0.00     0.000 C 
BRANCH   2   3
ATOM      3  C   UNL     1     -98.851 -47.276 -70.813  1.00  0.00     0.000 C 
BRANCH   3   4
ATOM      4  C   UNL     1     -98.806 -47.958 -72.188  1.00  0.00     0.000 C 
BRANCH   4   5
ATOM      5  C   UNL     1    -100.190 -48.047 -72.853  1.00  0.00     0.001 C 
BRANCH   5   6
ATOM      6  C   UNL     1    -100.997 -46.744 -72.715  1.00  0.00     0.009 C 
BRANCH   6   7
ATOM      7  C   UNL     1    -102.522 -46.990 -72.673  1.00  0.00     0.032 C 
ATOM      8  C   UNL     1    -102.885 -48.456 -72.944  1.00  0.00     0.014 C 
BRANCH   7   9
ATOM      9  C   UNL     1    -103.066 -46.582 -71.331  1.00  0.00     0.044 C 
ATOM     10  O   UNL     1    -102.931 -47.342 -70.336  1.00  0.00    -0.550 OA
ATOM     11  O   UNL     1    -103.712 -45.360 -71.178  1.00  0.00    -0.550 OA
ENDBRANCH   7   9
ENDBRANCH   6   7
ENDBRANCH   5   6
ENDBRANCH   4   5
ENDBRANCH   3   4
ENDBRANCH   2   3
ENDBRANCH   1   2
BRANCH   1  12
ATOM     12  C   UNL     1     -95.997 -45.336 -68.880  1.00  0.00     0.000 C 
BRANCH  12  13
ATOM     13  C   UNL     1     -95.053 -46.100 -67.939  1.00  0.00    -0.000 C 
BRANCH  13  14
ATOM     14  C   UNL     1     -93.984 -46.862 -68.733  1.00  0.00    -0.000 C 
BRANCH  14  15
ATOM     15  C   UNL     1     -93.364 -46.019 -69.861  1.00  0.00    -0.000 C 
BRANCH  15  16
ATOM     16  C   UNL     1     -93.447 -46.692 -71.249  1.00  0.00    -0.000 C 
BRANCH  16  17
ATOM     17  C   UNL     1     -94.297 -47.982 -71.254  1.00  0.00    -0.000 C 
BRANCH  17  18
ATOM     18  C   UNL     1     -95.036 -48.224 -72.580  1.00  0.00    -0.003 C 
ATOM     19  C   UNL     1     -95.067 -49.696 -72.984  1.00  0.00     0.004 C 
ENDBRANCH  17  18
ENDBRANCH  16  17
ENDBRANCH  15  16
ENDBRANCH  14  15
ENDBRANCH  13  14
ENDBRANCH  12  13
ENDBRANCH   1  12
TORSDOF 14
ENDMDL
MODEL 3
REMARK VINA RESULT:    -3.013      1.249      3.179
REMARK INTER + INTRA:          -7.619
REMARK INTER:                  -5.120
REMARK INTRA:                  -2.499
REMARK UNBOUND:                -2.140
REMARK SMILES CCCCCCCCCCCCCC[C@@H](C)C(=O)[O-]
REMARK SMILES IDX 9 1 10 2 11 3 12 4 13 5 14 6 15 7 16 8 17 9 18 10 19 11 8 12
REMARK SMILES IDX 7 13 6 14 5 15 4 16 3 17 2 18 1 19
REMARK H PARENT
REMARK Flexibility Score: inf
ROOT
ATOM      1  C   UNL     1     -93.882 -47.231 -71.212  1.00  0.00     0.000 C 
ENDROOT
BRANCH   1   2
ATOM      2  C   UNL     1     -94.788 -48.035 -72.161  1.00  0.00     0.000 C 
BRANCH   2   3
ATOM      3  C   UNL     1     -95.951 -47.207 -72.727  1.00  0.00     0.000 C 
BRANCH   3   4
ATOM      4  C   UNL     1     -97.270 -47.990 -72.653  1.00  0.00     0.000 C 
BRANCH   4   5
ATOM      5  C   UNL     1     -98.506 -47.090 -72.823  1.00  0.00     0.001 C 
BRANCH   5   6
ATOM      6  C   UNL     1     -99.742 -47.639 -72.089  1.00  0.00     0.009 C 
BRANCH   6   7
ATOM      7  C   UNL     1    -100.612 -46.523 -71.469  1.00  0.00     0.032 C 
ATOM      8  C   UNL     1    -100.419 -45.173 -72.173  1.00  0.00     0.014 C 
BRANCH   7   9
ATOM      9  C   UNL     1    -102.063 -46.916 -71.532  1.00  0.00     0.044 C 
ATOM     10  O   UNL     1    -102.478 -47.657 -72.463  1.00  0.00    -0.550 OA
ATOM     11  O   UNL     1    -102.953 -46.472 -70.561  1.00  0.00    -0.550 OA
ENDBRANCH   7   9
ENDBRANCH   6   7
ENDBRANCH   5   6
ENDBRANCH   4   5
ENDBRANCH   3   4
ENDBRANCH   2   3
ENDBRANCH   1   2
BRANCH   1  12
ATOM     12  C   UNL     1     -94.048 -47.558 -69.716  1.00  0.00     0.000 C 
BRANCH  12  13
ATOM     13  C   UNL     1     -93.903 -46.323 -68.813  1.00  0.00    -0.000 C 
BRANCH  13  14
ATOM     14  C   UNL     1     -93.785 -45.042 -69.648  1.00  0.00    -0.000 C 
BRANCH  14  15
ATOM     15  C   UNL     1     -94.983 -44.095 -69.461  1.00  0.00    -0.000 C 
BRANCH  15  16
ATOM     16  C   UNL     1     -96.055 -44.233 -70.564  1.00  0.00    -0.000 C 
BRANCH  16  17
ATOM     17  C   UNL     1     -97.438 -44.660 -70.024  1.00  0.00    -0.000 C 
BRANCH  17  18
ATOM     18  C   UNL     1     -97.462 -46.094 -69.468  1.00  0.00    -0.003 C 
ATOM     19  C   UNL     1     -98.115 -46.188 -68.092  1.00  0.00     0.004 C 
ENDBRANCH  17  18
ENDBRANCH  16  17
ENDBRANCH  15  16
ENDBRANCH  14  15
ENDBRANCH  13  14
ENDBRANCH  12  13
ENDBRANCH   1  12
TORSDOF 14
ENDMDL
MODEL 4
REMARK VINA RESULT:    -2.999     12.845     15.700
REMARK INTER + INTRA:          -7.593
REMARK INTER:                  -5.584
REMARK INTRA:                  -2.008
REMARK UNBOUND:                -2.140
REMARK SMILES CCCCCCCCCCCCCC[C@@H](C)C(=O)[O-]
REMARK SMILES IDX 9 1 10 2 11 3 12 4 13 5 14 6 15 7 16 8 17 9 18 10 19 11 8 12
REMARK SMILES IDX 7 13 6 14 5 15 4 16 3 17 2 18 1 19
REMARK H PARENT
REMARK Flexibility Score: inf
ROOT
ATOM      1  C   UNL     1    -110.258 -46.387 -57.605  1.00  0.00     0.000 C 
ENDROOT
BRANCH   1   2
ATOM      2  C   UNL     1    -109.715 -46.245 -59.038  1.00  0.00     0.000 C 
BRANCH   2   3
ATOM      3  C   UNL     1    -109.727 -47.567 -59.819  1.00  0.00     0.000 C 
BRANCH   3   4
ATOM      4  C   UNL     1    -108.323 -47.909 -60.341  1.00  0.00     0.000 C 
BRANCH   4   5
ATOM      5  C   UNL     1    -108.274 -48.041 -61.873  1.00  0.00     0.001 C 
BRANCH   5   6
ATOM      6  C   UNL     1    -107.888 -49.458 -62.333  1.00  0.00     0.009 C 
BRANCH   6   7
ATOM      7  C   UNL     1    -108.278 -49.735 -63.801  1.00  0.00     0.032 C 
ATOM      8  C   UNL     1    -108.755 -48.470 -64.528  1.00  0.00     0.014 C 
BRANCH   7   9
ATOM      9  C   UNL     1    -107.102 -50.319 -64.537  1.00  0.00     0.044 C 
ATOM     10  O   UNL     1    -106.426 -51.244 -64.015  1.00  0.00    -0.550 OA
ATOM     11  O   UNL     1    -106.762 -49.849 -65.801  1.00  0.00    -0.550 OA
ENDBRANCH   7   9
ENDBRANCH   6   7
ENDBRANCH   5   6
ENDBRANCH   4   5
ENDBRANCH   3   4
ENDBRANCH   2   3
ENDBRANCH   1   2
BRANCH   1  12
ATOM     12  C   UNL     1    -109.380 -45.759 -56.508  1.00  0.00     0.000 C 
BRANCH  12  13
ATOM     13  C   UNL     1    -108.587 -46.801 -55.705  1.00  0.00    -0.000 C 
BRANCH  13  14
ATOM     14  C   UNL     1    -107.369 -47.295 -56.496  1.00  0.00    -0.000 C 
BRANCH  14  15
ATOM     15  C   UNL     1    -107.458 -48.788 -56.859  1.00  0.00    -0.000 C 
BRANCH  15  16
ATOM     16  C   UNL     1    -108.673 -49.503 -56.227  1.00  0.00    -0.000 C 
BRANCH  16  17
ATOM     17  C   UNL     1    -109.629 -50.122 -57.271  1.00  0.00    -0.000 C 
BRANCH  17  18
ATOM     18  C   UNL     1    -109.017 -51.307 -58.035  1.00  0.00    -0.003 C 
ATOM     19  C   UNL     1    -109.409 -51.332 -59.511  1.00  0.00     0.004 C 
ENDBRANCH  17  18
ENDBRANCH  16  17
ENDBRANCH  15  16
ENDBRANCH  14  15
ENDBRANCH  13  14
ENDBRANCH  12  13
ENDBRANCH   1  12
TORSDOF 14
ENDMDL
MODEL 5
REMARK VINA RESULT:    -2.989     12.639     15.759
REMARK INTER + INTRA:          -7.574
REMARK INTER:                  -4.901
REMARK INTRA:                  -2.674
REMARK UNBOUND:                -2.140
REMARK SMILES CCCCCCCCCCCCCC[C@@H](C)C(=O)[O-]
REMARK SMILES IDX 9 1 10 2 11 3 12 4 13 5 14 6 15 7 16 8 17 9 18 10 19 11 8 12
REMARK SMILES IDX 7 13 6 14 5 15 4 16 3 17 2 18 1 19
REMARK H PARENT
REMARK Flexibility Score: inf
ROOT
ATOM      1  C   UNL     1    -110.708 -45.310 -59.334  1.00  0.00     0.000 C 
ENDROOT
BRANCH   1   2
ATOM      2  C   UNL     1    -109.709 -44.813 -60.394  1.00  0.00     0.000 C 
BRANCH   2   3
ATOM      3  C   UNL     1    -109.469 -45.832 -61.518  1.00  0.00     0.000 C 
BRANCH   3   4
ATOM      4  C   UNL     1    -110.496 -46.972 -61.455  1.00  0.00     0.000 C 
BRANCH   4   5
ATOM      5  C   UNL     1    -110.000 -48.258 -62.137  1.00  0.00     0.001 C 
BRANCH   5   6
ATOM      6  C   UNL     1    -108.483 -48.243 -62.395  1.00  0.00     0.009 C 
BRANCH   6   7
ATOM      7  C   UNL     1    -107.855 -49.653 -62.334  1.00  0.00     0.032 C 
ATOM      8  C   UNL     1    -108.813 -50.694 -61.739  1.00  0.00     0.014 C 
BRANCH   7   9
ATOM      9  C   UNL     1    -107.442 -50.086 -63.715  1.00  0.00     0.044 C 
ATOM     10  O   UNL     1    -106.760 -51.133 -63.871  1.00  0.00    -0.550 OA
ATOM     11  O   UNL     1    -107.819 -49.339 -64.826  1.00  0.00    -0.550 OA
ENDBRANCH   7   9
ENDBRANCH   6   7
ENDBRANCH   5   6
ENDBRANCH   4   5
ENDBRANCH   3   4
ENDBRANCH   2   3
ENDBRANCH   1   2
BRANCH   1  12
ATOM     12  C   UNL     1    -110.457 -44.792 -57.906  1.00  0.00     0.000 C 
BRANCH  12  13
ATOM     13  C   UNL     1    -110.430 -45.915 -56.858  1.00  0.00    -0.000 C 
BRANCH  13  14
ATOM     14  C   UNL     1    -109.088 -45.941 -56.114  1.00  0.00    -0.000 C 
BRANCH  14  15
ATOM     15  C   UNL     1    -108.294 -47.236 -56.362  1.00  0.00    -0.000 C 
BRANCH  15  16
ATOM     16  C   UNL     1    -107.617 -47.286 -57.750  1.00  0.00    -0.000 C 
BRANCH  16  17
ATOM     17  C   UNL     1    -108.350 -48.201 -58.756  1.00  0.00    -0.000 C 
BRANCH  17  18
ATOM     18  C   UNL     1    -109.258 -49.245 -58.085  1.00  0.00    -0.003 C 
ATOM     19  C   UNL     1    -110.714 -49.143 -58.533  1.00  0.00     0.004 C 
ENDBRANCH  17  18
ENDBRANCH  16  17
ENDBRANCH  15  16
ENDBRANCH  14  15
ENDBRANCH  13  14
ENDBRANCH  12  13
ENDBRANCH   1  12
TORSDOF 14
ENDMDL
MODEL 6
REMARK VINA RESULT:    -2.931     13.032     15.997
REMARK INTER + INTRA:          -7.470
REMARK INTER:                  -5.485
REMARK INTRA:                  -1.985
REMARK UNBOUND:                -2.140
REMARK SMILES CCCCCCCCCCCCCC[C@@H](C)C(=O)[O-]
REMARK SMILES IDX 9 1 10 2 11 3 12 4 13 5 14 6 15 7 16 8 17 9 18 10 19 11 8 12
REMARK SMILES IDX 7 13 6 14 5 15 4 16 3 17 2 18 1 19
REMARK H PARENT
REMARK Flexibility Score: inf
ROOT
ATOM      1  C   UNL     1    -107.912 -47.921 -58.218  1.00  0.00     0.000 C 
ENDROOT
BRANCH   1   2
ATOM      2  C   UNL     1    -109.050 -48.904 -58.546  1.00  0.00     0.000 C 
BRANCH   2   3
ATOM      3  C   UNL     1    -109.325 -49.024 -60.052  1.00  0.00     0.000 C 
BRANCH   3   4
ATOM      4  C   UNL     1    -108.438 -48.058 -60.851  1.00  0.00     0.000 C 
BRANCH   4   5
ATOM      5  C   UNL     1    -107.791 -48.722 -62.078  1.00  0.00     0.001 C 
BRANCH   5   6
ATOM      6  C   UNL     1    -108.171 -50.207 -62.216  1.00  0.00     0.009 C 
BRANCH   6   7
ATOM      7  C   UNL     1    -108.417 -50.625 -63.683  1.00  0.00     0.032 C 
ATOM      8  C   UNL     1    -109.500 -49.774 -64.360  1.00  0.00     0.014 C 
BRANCH   7   9
ATOM      9  C   UNL     1    -107.136 -50.515 -64.464  1.00  0.00     0.044 C 
ATOM     10  O   UNL     1    -107.049 -49.707 -65.426  1.00  0.00    -0.550 OA
ATOM     11  O   UNL     1    -106.038 -51.297 -64.125  1.00  0.00    -0.550 OA
ENDBRANCH   7   9
ENDBRANCH   6   7
ENDBRANCH   5   6
ENDBRANCH   4   5
ENDBRANCH   3   4
ENDBRANCH   2   3
ENDBRANCH   1   2
BRANCH   1  12
ATOM     12  C   UNL     1    -107.091 -48.266 -56.961  1.00  0.00     0.000 C 
BRANCH  12  13
ATOM     13  C   UNL     1    -107.846 -47.979 -55.655  1.00  0.00    -0.000 C 
BRANCH  13  14
ATOM     14  C   UNL     1    -107.775 -46.489 -55.295  1.00  0.00    -0.000 C 
BRANCH  14  15
ATOM     15  C   UNL     1    -109.163 -45.839 -55.167  1.00  0.00    -0.000 C 
BRANCH  15  16
ATOM     16  C   UNL     1    -110.313 -46.736 -55.677  1.00  0.00    -0.000 C 
BRANCH  16  17
ATOM     17  C   UNL     1    -110.998 -46.188 -56.948  1.00  0.00    -0.000 C 
BRANCH  17  18
ATOM     18  C   UNL     1    -110.292 -44.959 -57.544  1.00  0.00    -0.003 C 
ATOM     19  C   UNL     1    -109.991 -45.109 -59.033  1.00  0.00     0.004 C 
ENDBRANCH  17  18
ENDBRANCH  16  17
ENDBRANCH  15  16
ENDBRANCH  14  15
ENDBRANCH  13  14
ENDBRANCH  12  13
ENDBRANCH   1  12
TORSDOF 14
ENDMDL
MODEL 7
REMARK VINA RESULT:    -2.927     13.611     16.347
REMARK INTER + INTRA:          -7.463
REMARK INTER:                  -5.091
REMARK INTRA:                  -2.372
REMARK UNBOUND:                -2.140
REMARK SMILES CCCCCCCCCCCCCC[C@@H](C)C(=O)[O-]
REMARK SMILES IDX 9 1 10 2 11 3 12 4 13 5 14 6 15 7 16 8 17 9 18 10 19 11 8 12
REMARK SMILES IDX 7 13 6 14 5 15 4 16 3 17 2 18 1 19
REMARK H PARENT
REMARK Flexibility Score: inf
ROOT
ATOM      1  C   UNL     1    -107.866 -47.610 -58.397  1.00  0.00     0.000 C 
ENDROOT
BRANCH   1   2
ATOM      2  C   UNL     1    -109.285 -47.024 -58.297  1.00  0.00     0.000 C 
BRANCH   2   3
ATOM      3  C   UNL     1    -109.493 -45.795 -59.195  1.00  0.00     0.000 C 
BRANCH   3   4
ATOM      4  C   UNL     1    -110.292 -46.164 -60.453  1.00  0.00     0.000 C 
BRANCH   4   5
ATOM      5  C   UNL     1    -109.396 -46.380 -61.684  1.00  0.00     0.001 C 
BRANCH   5   6
ATOM      6  C   UNL     1    -109.583 -47.772 -62.314  1.00  0.00     0.009 C 
BRANCH   6   7
ATOM      7  C   UNL     1    -108.509 -48.783 -61.853  1.00  0.00     0.032 C 
ATOM      8  C   UNL     1    -109.090 -49.882 -60.953  1.00  0.00     0.014 C 
BRANCH   7   9
ATOM      9  C   UNL     1    -107.857 -49.414 -63.054  1.00  0.00     0.044 C 
ATOM     10  O   UNL     1    -107.126 -50.430 -62.914  1.00  0.00    -0.550 OA
ATOM     11  O   UNL     1    -108.063 -48.886 -64.323  1.00  0.00    -0.550 OA
ENDBRANCH   7   9
ENDBRANCH   6   7
ENDBRANCH   5   6
ENDBRANCH   4   5
ENDBRANCH   3   4
ENDBRANCH   2   3
ENDBRANCH   1   2
BRANCH   1  12
ATOM     12  C   UNL     1    -107.083 -47.655 -57.072  1.00  0.00     0.000 C 
BRANCH  12  13
ATOM     13  C   UNL     1    -107.824 -46.969 -55.914  1.00  0.00    -0.000 C 
BRANCH  13  14
ATOM     14  C   UNL     1    -108.139 -47.969 -54.794  1.00  0.00    -0.000 C 
BRANCH  14  15
ATOM     15  C   UNL     1    -109.551 -48.571 -54.911  1.00  0.00    -0.000 C 
BRANCH  15  16
ATOM     16  C   UNL     1    -109.552 -50.082 -55.230  1.00  0.00    -0.000 C 
BRANCH  16  17
ATOM     17  C   UNL     1    -109.708 -50.389 -56.736  1.00  0.00    -0.000 C 
BRANCH  17  18
ATOM     18  C   UNL     1    -108.595 -51.290 -57.295  1.00  0.00    -0.003 C 
ATOM     19  C   UNL     1    -107.349 -51.314 -56.413  1.00  0.00     0.004 C 
ENDBRANCH  17  18
ENDBRANCH  16  17
ENDBRANCH  15  16
ENDBRANCH  14  15
ENDBRANCH  13  14
ENDBRANCH  12  13
ENDBRANCH   1  12
TORSDOF 14
ENDMDL
MODEL 8
REMARK VINA RESULT:    -2.915      2.239      5.870
REMARK INTER + INTRA:          -7.440
REMARK INTER:                  -5.296
REMARK INTRA:                  -2.144
REMARK UNBOUND:                -2.140
REMARK SMILES CCCCCCCCCCCCCC[C@@H](C)C(=O)[O-]
REMARK SMILES IDX 9 1 10 2 11 3 12 4 13 5 14 6 15 7 16 8 17 9 18 10 19 11 8 12
REMARK SMILES IDX 7 13 6 14 5 15 4 16 3 17 2 18 1 19
REMARK H PARENT
REMARK Flexibility Score: inf
ROOT
ATOM      1  C   UNL     1     -94.400 -48.362 -71.870  1.00  0.00     0.000 C 
ENDROOT
BRANCH   1   2
ATOM      2  C   UNL     1     -93.415 -47.183 -71.955  1.00  0.00     0.000 C 
BRANCH   2   3
ATOM      3  C   UNL     1     -93.217 -46.468 -70.610  1.00  0.00     0.000 C 
BRANCH   3   4
ATOM      4  C   UNL     1     -93.999 -47.174 -69.493  1.00  0.00     0.000 C 
BRANCH   4   5
ATOM      5  C   UNL     1     -94.856 -46.204 -68.662  1.00  0.00     0.001 C 
BRANCH   5   6
ATOM      6  C   UNL     1     -96.300 -46.095 -69.184  1.00  0.00     0.009 C 
BRANCH   6   7
ATOM      7  C   UNL     1     -96.705 -44.642 -69.516  1.00  0.00     0.032 C 
ATOM      8  C   UNL     1     -96.135 -44.169 -70.860  1.00  0.00     0.014 C 
BRANCH   7   9
ATOM      9  C   UNL     1     -98.206 -44.527 -69.542  1.00  0.00     0.044 C 
ATOM     10  O   UNL     1     -98.808 -44.361 -70.636  1.00  0.00    -0.550 OA
ATOM     11  O   UNL     1     -98.936 -44.612 -68.363  1.00  0.00    -0.550 OA
ENDBRANCH   7   9
ENDBRANCH   6   7
ENDBRANCH   5   6
ENDBRANCH   4   5
ENDBRANCH   3   4
ENDBRANCH   2   3
ENDBRANCH   1   2
BRANCH   1  12
ATOM     12  C   UNL     1     -95.480 -48.392 -72.969  1.00  0.00     0.000 C 
BRANCH  12  13
ATOM     13  C   UNL     1     -95.946 -46.990 -73.388  1.00  0.00    -0.000 C 
BRANCH  13  14
ATOM     14  C   UNL     1     -97.458 -46.829 -73.183  1.00  0.00    -0.000 C 
BRANCH  14  15
ATOM     15  C   UNL     1     -97.975 -47.580 -71.944  1.00  0.00    -0.000 C 
BRANCH  15  16
ATOM     16  C   UNL     1     -99.516 -47.666 -71.875  1.00  0.00    -0.000 C 
BRANCH  16  17
ATOM     17  C   UNL     1    -100.193 -47.634 -73.263  1.00  0.00    -0.000 C 
BRANCH  17  18
ATOM     18  C   UNL     1    -101.710 -47.884 -73.210  1.00  0.00    -0.003 C 
ATOM     19  C   UNL     1    -102.524 -46.593 -73.169  1.00  0.00     0.004 C 
ENDBRANCH  17  18
ENDBRANCH  16  17
ENDBRANCH  15  16
ENDBRANCH  14  15
ENDBRANCH  13  14
ENDBRANCH  12  13
ENDBRANCH   1  12
TORSDOF 14
ENDMDL
MODEL 9
REMARK VINA RESULT:    -2.850      1.170      2.898
REMARK INTER + INTRA:          -7.322
REMARK INTER:                  -5.110
REMARK INTRA:                  -2.212
REMARK UNBOUND:                -2.140
REMARK SMILES CCCCCCCCCCCCCC[C@@H](C)C(=O)[O-]
REMARK SMILES IDX 9 1 10 2 11 3 12 4 13 5 14 6 15 7 16 8 17 9 18 10 19 11 8 12
REMARK SMILES IDX 7 13 6 14 5 15 4 16 3 17 2 18 1 19
REMARK H PARENT
REMARK Flexibility Score: inf
ROOT
ATOM      1  C   UNL     1     -96.079 -47.552 -72.185  1.00  0.00     0.000 C 
ENDROOT
BRANCH   1   2
ATOM      2  C   UNL     1     -96.655 -46.393 -73.016  1.00  0.00     0.000 C 
BRANCH   2   3
ATOM      3  C   UNL     1     -98.187 -46.433 -73.124  1.00  0.00     0.000 C 
BRANCH   3   4
ATOM      4  C   UNL     1     -98.745 -47.728 -72.517  1.00  0.00     0.000 C 
BRANCH   4   5
ATOM      5  C   UNL     1    -100.274 -47.836 -72.649  1.00  0.00     0.001 C 
BRANCH   5   6
ATOM      6  C   UNL     1    -100.984 -46.491 -72.413  1.00  0.00     0.009 C 
BRANCH   6   7
ATOM      7  C   UNL     1    -101.661 -46.409 -71.027  1.00  0.00     0.032 C 
ATOM      8  C   UNL     1    -101.846 -44.962 -70.551  1.00  0.00     0.014 C 
BRANCH   7   9
ATOM      9  C   UNL     1    -103.000 -47.095 -71.074  1.00  0.00     0.044 C 
ATOM     10  O   UNL     1    -103.483 -47.611 -70.032  1.00  0.00    -0.550 OA
ATOM     11  O   UNL     1    -103.715 -47.155 -72.264  1.00  0.00    -0.550 OA
ENDBRANCH   7   9
ENDBRANCH   6   7
ENDBRANCH   5   6
ENDBRANCH   4   5
ENDBRANCH   3   4
ENDBRANCH   2   3
ENDBRANCH   1   2
BRANCH   1  12
ATOM     12  C   UNL     1     -94.550 -47.530 -72.005  1.00  0.00     0.000 C 
BRANCH  12  13
ATOM     13  C   UNL     1     -94.112 -47.806 -70.559  1.00  0.00    -0.000 C 
BRANCH  13  14
ATOM     14  C   UNL     1     -93.758 -46.501 -69.833  1.00  0.00    -0.000 C 
BRANCH  14  15
ATOM     15  C   UNL     1     -94.613 -46.267 -68.575  1.00  0.00    -0.000 C 
BRANCH  15  16
ATOM     16  C   UNL     1     -95.839 -45.360 -68.824  1.00  0.00    -0.000 C 
BRANCH  16  17
ATOM     17  C   UNL     1     -97.181 -46.124 -68.786  1.00  0.00    -0.000 C 
BRANCH  17  18
ATOM     18  C   UNL     1     -98.275 -45.481 -69.655  1.00  0.00    -0.003 C 
ATOM     19  C   UNL     1     -97.853 -44.137 -70.246  1.00  0.00     0.004 C 
ENDBRANCH  17  18
ENDBRANCH  16  17
ENDBRANCH  15  16
ENDBRANCH  14  15
ENDBRANCH  13  14
ENDBRANCH  12  13
ENDBRANCH   1  12
TORSDOF 14
ENDMDL
