MODEL 1
REMARK VINA RESULT:    -3.348      0.000      0.000
REMARK INTER + INTRA:          -4.085
REMARK INTER:                  -4.032
REMARK INTRA:                  -0.052
REMARK UNBOUND:                -0.052
REMARK SMILES CC[C@H](C)[C@@H]([NH3+])C(=O)[O-]
REMARK SMILES IDX 3 1 4 2 5 3 6 4 7 8 8 9 9 10 2 11 1 12
REMARK H PARENT 6 5 6 6 6 7
REMARK Flexibility Score: inf
ROOT
ATOM      1  C   UNL     1      39.635  16.550 -17.965  1.00  0.00     0.050 C 
ATOM      2  C   UNL     1      40.678  17.206 -18.892  1.00  0.00     0.014 C 
ENDROOT
BRANCH   1   3
ATOM      3  C   UNL     1      38.539  15.728 -18.716  1.00  0.00     0.230 C 
BRANCH   3   4
ATOM      4  N   UNL     1      38.067  14.556 -17.962  1.00  0.00    -0.350 N 
ATOM      5  H   UNL     1      37.601  14.869 -17.080  1.00  0.00     0.345 HD
ATOM      6  H   UNL     1      38.855  13.918 -17.715  1.00  0.00     0.345 HD
ATOM      7  H   UNL     1      37.348  14.042 -18.518  1.00  0.00     0.345 HD
ENDBRANCH   3   4
BRANCH   3   8
ATOM      8  C   UNL     1      37.382  16.607 -19.126  1.00  0.00     0.099 C 
ATOM      9  O   UNL     1      37.465  17.350 -20.140  1.00  0.00    -0.544 OA
ATOM     10  O   UNL     1      36.193  16.561 -18.408  1.00  0.00    -0.544 OA
ENDBRANCH   3   8
ENDBRANCH   1   3
BRANCH   1  11
ATOM     11  C   UNL     1      39.047  17.537 -16.917  1.00  0.00     0.006 C 
ATOM     12  C   UNL     1      40.076  18.259 -16.036  1.00  0.00     0.004 C 
ENDBRANCH   1  11
TORSDOF 4
ENDMDL
MODEL 2
REMARK VINA RESULT:    -3.308     13.578     14.262
REMARK INTER + INTRA:          -4.037
REMARK INTER:                  -3.983
REMARK INTRA:                  -0.054
REMARK UNBOUND:                -0.052
REMARK SMILES CC[C@H](C)[C@@H]([NH3+])C(=O)[O-]
REMARK SMILES IDX 3 1 4 2 5 3 6 4 7 8 8 9 9 10 2 11 1 12
REMARK H PARENT 6 5 6 6 6 7
REMARK Flexibility Score: inf
ROOT
ATOM      1  C   UNL     1      27.197  25.203 -18.825  1.00  0.00     0.050 C 
ATOM      2  C   UNL     1      28.119  26.372 -18.426  1.00  0.00     0.014 C 
ENDROOT
BRANCH   1   3
ATOM      3  C   UNL     1      27.074  24.086 -17.739  1.00  0.00     0.230 C 
BRANCH   3   4
ATOM      4  N   UNL     1      28.361  23.721 -17.127  1.00  0.00    -0.350 N 
ATOM      5  H   UNL     1      28.394  24.067 -16.141  1.00  0.00     0.345 HD
ATOM      6  H   UNL     1      29.165  24.133 -17.652  1.00  0.00     0.345 HD
ATOM      7  H   UNL     1      28.454  22.682 -17.087  1.00  0.00     0.345 HD
ENDBRANCH   3   4
BRANCH   3   8
ATOM      8  C   UNL     1      26.063  24.461 -16.683  1.00  0.00     0.099 C 
ATOM      9  O   UNL     1      24.902  23.970 -16.700  1.00  0.00    -0.544 OA
ATOM     10  O   UNL     1      26.427  25.317 -15.651  1.00  0.00    -0.544 OA
ENDBRANCH   3   8
ENDBRANCH   1   3
BRANCH   1  11
ATOM     11  C   UNL     1      27.503  24.645 -20.244  1.00  0.00     0.006 C 
ATOM     12  C   UNL     1      28.883  24.999 -20.812  1.00  0.00     0.004 C 
ENDBRANCH   1  11
TORSDOF 4
ENDMDL
MODEL 3
REMARK VINA RESULT:    -3.251     13.274     14.162
REMARK INTER + INTRA:          -3.968
REMARK INTER:                  -3.832
REMARK INTRA:                  -0.136
REMARK UNBOUND:                -0.052
REMARK SMILES CC[C@H](C)[C@@H]([NH3+])C(=O)[O-]
REMARK SMILES IDX 3 1 4 2 5 3 6 4 7 8 8 9 9 10 2 11 1 12
REMARK H PARENT 6 5 6 6 6 7
REMARK Flexibility Score: inf
ROOT
ATOM      1  C   UNL     1      26.445  25.119 -17.424  1.00  0.00     0.050 C 
ATOM      2  C   UNL     1      25.801  24.084 -16.480  1.00  0.00     0.014 C 
ENDROOT
BRANCH   1   3
ATOM      3  C   UNL     1      27.884  24.741 -17.901  1.00  0.00     0.230 C 
BRANCH   3   4
ATOM      4  N   UNL     1      28.464  23.606 -17.169  1.00  0.00    -0.350 N 
ATOM      5  H   UNL     1      29.489  23.546 -17.366  1.00  0.00     0.345 HD
ATOM      6  H   UNL     1      28.018  22.703 -17.446  1.00  0.00     0.345 HD
ATOM      7  H   UNL     1      28.361  23.756 -16.141  1.00  0.00     0.345 HD
ENDBRANCH   3   4
BRANCH   3   8
ATOM      8  C   UNL     1      27.917  24.496 -19.390  1.00  0.00     0.099 C 
ATOM      9  O   UNL     1      26.865  24.209 -20.020  1.00  0.00    -0.544 OA
ATOM     10  O   UNL     1      29.112  24.639 -20.086  1.00  0.00    -0.544 OA
ENDBRANCH   3   8
ENDBRANCH   1   3
BRANCH   1  11
ATOM     11  C   UNL     1      26.341  26.576 -16.889  1.00  0.00     0.006 C 
ATOM     12  C   UNL     1      27.617  27.419 -17.010  1.00  0.00     0.004 C 
ENDBRANCH   1  11
TORSDOF 4
ENDMDL
MODEL 4
REMARK VINA RESULT:    -3.219     13.277     14.168
REMARK INTER + INTRA:          -3.929
REMARK INTER:                  -3.794
REMARK INTRA:                  -0.135
REMARK UNBOUND:                -0.052
REMARK SMILES CC[C@H](C)[C@@H]([NH3+])C(=O)[O-]
REMARK SMILES IDX 3 1 4 2 5 3 6 4 7 8 8 9 9 10 2 11 1 12
REMARK H PARENT 6 5 6 6 6 7
REMARK Flexibility Score: inf
ROOT
ATOM      1  C   UNL     1      27.179  24.771 -19.191  1.00  0.00     0.050 C 
ATOM      2  C   UNL     1      26.349  26.030 -19.511  1.00  0.00     0.014 C 
ENDROOT
BRANCH   1   3
ATOM      3  C   UNL     1      27.432  24.543 -17.666  1.00  0.00     0.230 C 
BRANCH   3   4
ATOM      4  N   UNL     1      28.496  23.566 -17.390  1.00  0.00    -0.350 N 
ATOM      5  H   UNL     1      28.975  23.810 -16.492  1.00  0.00     0.345 HD
ATOM      6  H   UNL     1      29.209  23.550 -18.153  1.00  0.00     0.345 HD
ATOM      7  H   UNL     1      28.083  22.615 -17.264  1.00  0.00     0.345 HD
ENDBRANCH   3   4
BRANCH   3   8
ATOM      8  C   UNL     1      27.701  25.848 -16.957  1.00  0.00     0.099 C 
ATOM      9  O   UNL     1      26.880  26.306 -16.118  1.00  0.00    -0.544 OA
ATOM     10  O   UNL     1      28.890  26.528 -17.191  1.00  0.00    -0.544 OA
ENDBRANCH   3   8
ENDBRANCH   1   3
BRANCH   1  11
ATOM     11  C   UNL     1      28.471  24.661 -20.049  1.00  0.00     0.006 C 
ATOM     12  C   UNL     1      28.959  25.970 -20.683  1.00  0.00     0.004 C 
ENDBRANCH   1  11
TORSDOF 4
ENDMDL
MODEL 5
REMARK VINA RESULT:    -3.207      2.269      3.077
REMARK INTER + INTRA:          -3.916
REMARK INTER:                  -3.788
REMARK INTRA:                  -0.128
REMARK UNBOUND:                -0.052
REMARK SMILES CC[C@H](C)[C@@H]([NH3+])C(=O)[O-]
REMARK SMILES IDX 3 1 4 2 5 3 6 4 7 8 8 9 9 10 2 11 1 12
REMARK H PARENT 6 5 6 6 6 7
REMARK Flexibility Score: inf
ROOT
ATOM      1  C   UNL     1      39.383  17.191 -20.059  1.00  0.00     0.050 C 
ATOM      2  C   UNL     1      40.344  15.986 -20.092  1.00  0.00     0.014 C 
ENDROOT
BRANCH   1   3
ATOM      3  C   UNL     1      37.871  16.801 -19.989  1.00  0.00     0.230 C 
BRANCH   3   4
ATOM      4  N   UNL     1      37.581  15.479 -20.565  1.00  0.00    -0.350 N 
ATOM      5  H   UNL     1      36.546  15.351 -20.652  1.00  0.00     0.345 HD
ATOM      6  H   UNL     1      37.963  14.710 -19.970  1.00  0.00     0.345 HD
ATOM      7  H   UNL     1      37.976  15.417 -21.529  1.00  0.00     0.345 HD
ENDBRANCH   3   4
BRANCH   3   8
ATOM      8  C   UNL     1      37.346  16.901 -18.578  1.00  0.00     0.099 C 
ATOM      9  O   UNL     1      36.135  16.666 -18.322  1.00  0.00    -0.544 OA
ATOM     10  O   UNL     1      38.217  17.207 -17.538  1.00  0.00    -0.544 OA
ENDBRANCH   3   8
ENDBRANCH   1   3
BRANCH   1  11
ATOM     11  C   UNL     1      39.692  18.246 -21.158  1.00  0.00     0.006 C 
ATOM     12  C   UNL     1      38.469  18.924 -21.789  1.00  0.00     0.004 C 
ENDBRANCH   1  11
TORSDOF 4
ENDMDL
MODEL 6
REMARK VINA RESULT:    -3.200      0.748      1.863
REMARK INTER + INTRA:          -3.907
REMARK INTER:                  -3.809
REMARK INTRA:                  -0.098
REMARK UNBOUND:                -0.052
REMARK SMILES CC[C@H](C)[C@@H]([NH3+])C(=O)[O-]
REMARK SMILES IDX 3 1 4 2 5 3 6 4 7 8 8 9 9 10 2 11 1 12
REMARK H PARENT 6 5 6 6 6 7
REMARK Flexibility Score: inf
ROOT
ATOM      1  C   UNL     1      39.625  17.446 -17.783  1.00  0.00     0.050 C 
ATOM      2  C   UNL     1      39.322  17.566 -16.276  1.00  0.00     0.014 C 
ENDROOT
BRANCH   1   3
ATOM      3  C   UNL     1      38.829  16.314 -18.507  1.00  0.00     0.230 C 
BRANCH   3   4
ATOM      4  N   UNL     1      38.576  15.141 -17.657  1.00  0.00    -0.350 N 
ATOM      5  H   UNL     1      39.289  15.099 -16.893  1.00  0.00     0.345 HD
ATOM      6  H   UNL     1      38.622  14.253 -18.205  1.00  0.00     0.345 HD
ATOM      7  H   UNL     1      37.643  15.230 -17.196  1.00  0.00     0.345 HD
ENDBRANCH   3   4
BRANCH   3   8
ATOM      8  C   UNL     1      37.543  16.841 -19.095  1.00  0.00     0.099 C 
ATOM      9  O   UNL     1      37.534  17.413 -20.218  1.00  0.00    -0.544 OA
ATOM     10  O   UNL     1      36.345  16.650 -18.417  1.00  0.00    -0.544 OA
ENDBRANCH   3   8
ENDBRANCH   1   3
BRANCH   1  11
ATOM     11  C   UNL     1      41.148  17.421 -18.097  1.00  0.00     0.006 C 
ATOM     12  C   UNL     1      41.538  17.824 -19.525  1.00  0.00     0.004 C 
ENDBRANCH   1  11
TORSDOF 4
ENDMDL
MODEL 7
REMARK VINA RESULT:    -3.064      2.196      2.891
REMARK INTER + INTRA:          -3.743
REMARK INTER:                  -3.684
REMARK INTRA:                  -0.060
REMARK UNBOUND:                -0.052
REMARK SMILES CC[C@H](C)[C@@H]([NH3+])C(=O)[O-]
REMARK SMILES IDX 3 1 4 2 5 3 6 4 7 8 8 9 9 10 2 11 1 12
REMARK H PARENT 6 5 6 6 6 7
REMARK Flexibility Score: inf
ROOT
ATOM      1  C   UNL     1      38.152  17.277 -19.130  1.00  0.00     0.050 C 
ATOM      2  C   UNL     1      36.890  16.559 -18.612  1.00  0.00     0.014 C 
ENDROOT
BRANCH   1   3
ATOM      3  C   UNL     1      38.490  16.977 -20.626  1.00  0.00     0.230 C 
BRANCH   3   4
ATOM      4  N   UNL     1      37.754  15.826 -21.172  1.00  0.00    -0.350 N 
ATOM      5  H   UNL     1      37.457  15.196 -20.393  1.00  0.00     0.345 HD
ATOM      6  H   UNL     1      38.342  15.278 -21.839  1.00  0.00     0.345 HD
ATOM      7  H   UNL     1      36.884  16.153 -21.647  1.00  0.00     0.345 HD
ENDBRANCH   3   4
BRANCH   3   8
ATOM      8  C   UNL     1      38.291  18.202 -21.486  1.00  0.00     0.099 C 
ATOM      9  O   UNL     1      39.210  19.053 -21.618  1.00  0.00    -0.544 OA
ATOM     10  O   UNL     1      37.100  18.370 -22.182  1.00  0.00    -0.544 OA
ENDBRANCH   3   8
ENDBRANCH   1   3
BRANCH   1  11
ATOM     11  C   UNL     1      39.375  17.116 -18.183  1.00  0.00     0.006 C 
ATOM     12  C   UNL     1      39.160  17.581 -16.737  1.00  0.00     0.004 C 
ENDBRANCH   1  11
TORSDOF 4
ENDMDL
MODEL 8
REMARK VINA RESULT:    -3.064      1.889      2.120
REMARK INTER + INTRA:          -3.742
REMARK INTER:                  -3.633
REMARK INTRA:                  -0.109
REMARK UNBOUND:                -0.052
REMARK SMILES CC[C@H](C)[C@@H]([NH3+])C(=O)[O-]
REMARK SMILES IDX 3 1 4 2 5 3 6 4 7 8 8 9 9 10 2 11 1 12
REMARK H PARENT 6 5 6 6 6 7
REMARK Flexibility Score: inf
ROOT
ATOM      1  C   UNL     1      39.454  16.953 -19.389  1.00  0.00     0.050 C 
ATOM      2  C   UNL     1      40.391  17.685 -20.371  1.00  0.00     0.014 C 
ENDROOT
BRANCH   1   3
ATOM      3  C   UNL     1      37.937  17.080 -19.739  1.00  0.00     0.230 C 
BRANCH   3   4
ATOM      4  N   UNL     1      37.626  16.727 -21.132  1.00  0.00    -0.350 N 
ATOM      5  H   UNL     1      37.333  15.724 -21.185  1.00  0.00     0.345 HD
ATOM      6  H   UNL     1      38.452  16.865 -21.756  1.00  0.00     0.345 HD
ATOM      7  H   UNL     1      36.820  17.296 -21.472  1.00  0.00     0.345 HD
ENDBRANCH   3   4
BRANCH   3   8
ATOM      8  C   UNL     1      37.087  16.284 -18.778  1.00  0.00     0.099 C 
ATOM      9  O   UNL     1      36.082  16.803 -18.224  1.00  0.00    -0.544 OA
ATOM     10  O   UNL     1      37.385  14.948 -18.539  1.00  0.00    -0.544 OA
ENDBRANCH   3   8
ENDBRANCH   1   3
BRANCH   1  11
ATOM     11  C   UNL     1      39.767  17.271 -17.899  1.00  0.00     0.006 C 
ATOM     12  C   UNL     1      40.474  16.155 -17.118  1.00  0.00     0.004 C 
ENDBRANCH   1  11
TORSDOF 4
ENDMDL
MODEL 9
REMARK VINA RESULT:    -2.991     10.126     10.989
REMARK INTER + INTRA:          -3.655
REMARK INTER:                  -3.559
REMARK INTRA:                  -0.096
REMARK UNBOUND:                -0.052
REMARK SMILES CC[C@H](C)[C@@H]([NH3+])C(=O)[O-]
REMARK SMILES IDX 3 1 4 2 5 3 6 4 7 8 8 9 9 10 2 11 1 12
REMARK H PARENT 6 5 6 6 6 7
REMARK Flexibility Score: inf
ROOT
ATOM      1  C   UNL     1      35.421  21.038  -8.055  1.00  0.00     0.050 C 
ATOM      2  C   UNL     1      35.663  21.264  -6.549  1.00  0.00     0.014 C 
ENDROOT
BRANCH   1   3
ATOM      3  C   UNL     1      36.221  19.839  -8.658  1.00  0.00     0.230 C 
BRANCH   3   4
ATOM      4  N   UNL     1      37.374  19.435  -7.840  1.00  0.00    -0.350 N 
ATOM      5  H   UNL     1      37.294  18.421  -7.594  1.00  0.00     0.345 HD
ATOM      6  H   UNL     1      37.429  19.988  -6.956  1.00  0.00     0.345 HD
ATOM      7  H   UNL     1      38.255  19.545  -8.388  1.00  0.00     0.345 HD
ENDBRANCH   3   4
BRANCH   3   8
ATOM      8  C   UNL     1      35.316  18.663  -8.933  1.00  0.00     0.099 C 
ATOM      9  O   UNL     1      34.862  18.455 -10.090  1.00  0.00    -0.544 OA
ATOM     10  O   UNL     1      35.018  17.768  -7.912  1.00  0.00    -0.544 OA
ENDBRANCH   3   8
ENDBRANCH   1   3
BRANCH   1  11
ATOM     11  C   UNL     1      35.548  22.342  -8.894  1.00  0.00     0.006 C 
ATOM     12  C   UNL     1      36.948  22.642  -9.444  1.00  0.00     0.004 C 
ENDBRANCH   1  11
TORSDOF 4
ENDMDL
