MODEL 1
REMARK VINA RESULT:    -4.839      0.000      0.000
REMARK INTER + INTRA:          -6.595
REMARK INTER:                  -6.820
REMARK INTRA:                   0.225
REMARK UNBOUND:                 0.225
REMARK SMILES CC1=CCC(=C(C)C)C(=O)CC(C)=CCC1
REMARK SMILES IDX 12 1 14 2 13 3 15 4 16 5 2 6 1 7 3 8 11 10 9 11 10 12 5 13
REMARK SMILES IDX 6 14 7 15 8 16 4 17
REMARK H PARENT
REMARK Flexibility Score: 60.00
ROOT
ATOM      1  C   UNL     1     119.114 178.951 125.573  1.00  0.00    -0.070 C 
ATOM      2  C   UNL     1     120.212 179.625 125.142  1.00  0.00    -0.027 C 
ATOM      3  C   UNL     1     117.929 178.832 124.647  1.00  0.00     0.039 C 
ENDROOT
BRANCH   2   4
ATOM      4  C   UNL     1     121.516 179.764 125.890  1.00  0.00     0.032 C 
BRANCH   4   5
ATOM      5  C   UNL     1     122.275 178.439 126.040  1.00  0.00     0.034 C 
BRANCH   5   6
ATOM      6  C   UNL     1     122.775 178.278 127.463  1.00  0.00    -0.077 C 
ATOM      7  C   UNL     1     123.735 179.306 128.002  1.00  0.00     0.039 C 
ATOM      8  C   UNL     1     122.467 177.218 128.247  1.00  0.00    -0.023 CG0
ATOM      9  G   UNL     1     121.516 176.102 127.887  1.00  0.00     0.000 G0
ENDBRANCH   5   6
ENDBRANCH   4   5
ENDBRANCH   2   4
BRANCH   1  10
ATOM     10  C   UNL     1     118.932 178.422 126.990  1.00  0.00     0.111 C 
BRANCH  10  11
ATOM     11  C   UNL     1     119.203 176.945 127.132  1.00  0.00     0.163 C 
ATOM     12  O   UNL     1     118.618 176.164 126.332  1.00  0.00    -0.294 OA
BRANCH  11  13
ATOM     13  C   UNL     1     120.083 176.381 128.208  1.00  0.00    -0.002 C 
ATOM     14  C   UNL     1     119.576 176.092 129.447  1.00  0.00    -0.069 C 
ATOM     15  C   UNL     1     118.161 176.462 129.834  1.00  0.00     0.039 C 
ATOM     16  C   UNL     1     120.419 175.432 130.517  1.00  0.00     0.039 C 
BRANCH  13  17
ATOM     17  C   UNL     1     121.545 176.080 127.877  1.00  0.00     0.066 CG0
ATOM     18  G   UNL     1     122.461 177.222 128.248  1.00  0.00     0.000 G0
ENDBRANCH  13  17
ENDBRANCH  11  13
ENDBRANCH  10  11
ENDBRANCH   1  10
TORSDOF 0
ENDMDL
MODEL 2
REMARK VINA RESULT:    -4.663      1.776      2.886
REMARK INTER + INTRA:          -6.346
REMARK INTER:                  -6.561
REMARK INTRA:                   0.215
REMARK UNBOUND:                 0.225
REMARK SMILES CC1=CCC(=C(C)C)C(=O)CC(C)=CCC1
REMARK SMILES IDX 12 1 14 2 13 3 15 4 16 5 2 6 1 7 3 8 11 10 9 11 10 12 5 13
REMARK SMILES IDX 6 14 7 15 8 16 4 17
REMARK H PARENT
REMARK Flexibility Score: 60.00
ROOT
ATOM      1  C   UNL     1     123.011 178.044 125.705  1.00  0.00    -0.070 C 
ATOM      2  C   UNL     1     123.830 178.776 126.504  1.00  0.00    -0.027 C 
ATOM      3  C   UNL     1     123.522 177.602 124.356  1.00  0.00     0.039 C 
ENDROOT
BRANCH   2   4
ATOM      4  C   UNL     1     123.525 179.221 127.913  1.00  0.00     0.032 C 
BRANCH   4   5
ATOM      5  C   UNL     1     123.846 178.157 128.971  1.00  0.00     0.034 C 
BRANCH   5   6
ATOM      6  C   UNL     1     122.788 178.160 130.057  1.00  0.00    -0.077 C 
ATOM      7  C   UNL     1     122.835 179.249 131.097  1.00  0.00     0.039 C 
ATOM      8  C   UNL     1     121.850 177.192 130.188  1.00  0.00    -0.023 CG0
ATOM      9  G   UNL     1     121.638 176.035 129.241  1.00  0.00     0.000 G0
ENDBRANCH   5   6
ENDBRANCH   4   5
ENDBRANCH   2   4
BRANCH   1  10
ATOM     10  C   UNL     1     121.547 177.754 126.011  1.00  0.00     0.111 C 
BRANCH  10  11
ATOM     11  C   UNL     1     121.317 176.433 126.703  1.00  0.00     0.163 C 
ATOM     12  O   UNL     1     121.603 175.382 126.065  1.00  0.00    -0.294 OA
BRANCH  11  13
ATOM     13  C   UNL     1     120.716 176.329 128.073  1.00  0.00    -0.002 C 
ATOM     14  C   UNL     1     119.365 176.466 128.258  1.00  0.00    -0.069 C 
ATOM     15  C   UNL     1     118.445 176.874 127.129  1.00  0.00     0.039 C 
ATOM     16  C   UNL     1     118.724 176.268 129.615  1.00  0.00     0.039 C 
BRANCH  13  17
ATOM     17  C   UNL     1     121.632 176.007 129.253  1.00  0.00     0.066 CG0
ATOM     18  G   UNL     1     121.836 177.198 130.159  1.00  0.00     0.000 G0
ENDBRANCH  13  17
ENDBRANCH  11  13
ENDBRANCH  10  11
ENDBRANCH   1  10
TORSDOF 0
ENDMDL
MODEL 3
REMARK VINA RESULT:    -4.512      1.825      3.060
REMARK INTER + INTRA:          -6.134
REMARK INTER:                  -6.619
REMARK INTRA:                   0.486
REMARK UNBOUND:                 0.225
REMARK SMILES CC1=CCC(=C(C)C)C(=O)CC(C)=CCC1
REMARK SMILES IDX 12 1 14 2 13 3 15 4 16 5 2 6 1 7 3 8 11 10 9 11 10 12 5 13
REMARK SMILES IDX 6 14 7 15 8 16 4 17
REMARK H PARENT
REMARK Flexibility Score: 60.00
ROOT
ATOM      1  C   UNL     1     122.140 178.792 128.547  1.00  0.00    -0.070 C 
ATOM      2  C   UNL     1     123.285 178.780 127.816  1.00  0.00    -0.027 C 
ATOM      3  C   UNL     1     122.240 178.666 130.047  1.00  0.00     0.039 C 
ENDROOT
BRANCH   2   4
ATOM      4  C   UNL     1     123.383 178.988 126.323  1.00  0.00     0.032 C 
BRANCH   4   5
ATOM      5  C   UNL     1     124.090 177.838 125.595  1.00  0.00     0.034 C 
BRANCH   5   6
ATOM      6  C   UNL     1     123.087 177.027 124.796  1.00  0.00    -0.077 C 
ATOM      7  C   UNL     1     122.953 177.310 123.322  1.00  0.00     0.039 C 
ATOM      8  C   UNL     1     122.251 176.118 125.351  1.00  0.00    -0.023 CG0
ATOM      9  G   UNL     1     122.246 175.693 126.800  1.00  0.00     0.000 G0
ENDBRANCH   5   6
ENDBRANCH   4   5
ENDBRANCH   2   4
BRANCH   1  10
ATOM     10  C   UNL     1     120.739 178.779 127.951  1.00  0.00     0.111 C 
BRANCH  10  11
ATOM     11  C   UNL     1     120.405 177.513 127.201  1.00  0.00     0.163 C 
ATOM     12  O   UNL     1     119.563 177.594 126.264  1.00  0.00    -0.294 OA
BRANCH  11  13
ATOM     13  C   UNL     1     120.986 176.178 127.563  1.00  0.00    -0.002 C 
ATOM     14  C   UNL     1     120.385 175.385 128.504  1.00  0.00    -0.069 C 
ATOM     15  C   UNL     1     119.209 175.872 129.322  1.00  0.00     0.039 C 
ATOM     16  C   UNL     1     120.896 173.995 128.816  1.00  0.00     0.039 C 
BRANCH  13  17
ATOM     17  C   UNL     1     122.230 175.694 126.819  1.00  0.00     0.066 CG0
ATOM     18  G   UNL     1     122.231 176.123 125.371  1.00  0.00     0.000 G0
ENDBRANCH  13  17
ENDBRANCH  11  13
ENDBRANCH  10  11
ENDBRANCH   1  10
TORSDOF 0
ENDMDL
MODEL 4
REMARK VINA RESULT:    -4.317      2.215      3.450
REMARK INTER + INTRA:          -5.859
REMARK INTER:                  -6.542
REMARK INTRA:                   0.683
REMARK UNBOUND:                 0.225
REMARK SMILES CC1=CCC(=C(C)C)C(=O)CC(C)=CCC1
REMARK SMILES IDX 12 1 14 2 13 3 15 4 16 5 2 6 1 7 3 8 11 10 9 11 10 12 5 13
REMARK SMILES IDX 6 14 7 15 8 16 4 17
REMARK H PARENT
REMARK Flexibility Score: 60.00
ROOT
ATOM      1  C   UNL     1     121.729 174.091 126.559  1.00  0.00    -0.070 C 
ATOM      2  C   UNL     1     121.896 175.067 125.629  1.00  0.00    -0.027 C 
ATOM      3  C   UNL     1     120.778 172.959 126.256  1.00  0.00     0.039 C 
ENDROOT
BRANCH   2   4
ATOM      4  C   UNL     1     122.869 176.217 125.720  1.00  0.00     0.032 C 
BRANCH   4   5
ATOM      5  C   UNL     1     122.204 177.590 125.550  1.00  0.00     0.034 C 
BRANCH   5   6
ATOM      6  C   UNL     1     122.275 178.371 126.849  1.00  0.00    -0.077 C 
ATOM      7  C   UNL     1     123.375 179.387 127.013  1.00  0.00     0.039 C 
ATOM      8  C   UNL     1     121.450 178.148 127.900  1.00  0.00    -0.023 CG0
ATOM      9  G   UNL     1     120.286 177.185 127.918  1.00  0.00     0.000 G0
ENDBRANCH   5   6
ENDBRANCH   4   5
ENDBRANCH   2   4
BRANCH   1  10
ATOM     10  C   UNL     1     122.325 174.127 127.960  1.00  0.00     0.111 C 
BRANCH  10  11
ATOM     11  C   UNL     1     121.952 175.355 128.752  1.00  0.00     0.163 C 
ATOM     12  O   UNL     1     122.846 175.880 129.472  1.00  0.00    -0.294 OA
BRANCH  11  13
ATOM     13  C   UNL     1     120.565 175.927 128.757  1.00  0.00    -0.002 C 
ATOM     14  C   UNL     1     119.585 175.380 129.542  1.00  0.00    -0.069 C 
ATOM     15  C   UNL     1     119.807 174.100 130.317  1.00  0.00     0.039 C 
ATOM     16  C   UNL     1     118.207 175.998 129.639  1.00  0.00     0.039 C 
BRANCH  13  17
ATOM     17  C   UNL     1     120.281 177.169 127.914  1.00  0.00     0.066 CG0
ATOM     18  G   UNL     1     121.449 178.127 127.898  1.00  0.00     0.000 G0
ENDBRANCH  13  17
ENDBRANCH  11  13
ENDBRANCH  10  11
ENDBRANCH   1  10
TORSDOF 0
ENDMDL
MODEL 5
REMARK VINA RESULT:    -4.316      2.141      4.422
REMARK INTER + INTRA:          -5.857
REMARK INTER:                  -6.286
REMARK INTRA:                   0.429
REMARK UNBOUND:                 0.225
REMARK SMILES CC1=CCC(=C(C)C)C(=O)CC(C)=CCC1
REMARK SMILES IDX 12 1 14 2 13 3 15 4 16 5 2 6 1 7 3 8 11 10 9 11 10 12 5 13
REMARK SMILES IDX 6 14 7 15 8 16 4 17
REMARK H PARENT
REMARK Flexibility Score: 60.00
ROOT
ATOM      1  C   UNL     1     121.017 176.254 126.978  1.00  0.00    -0.070 C 
ATOM      2  C   UNL     1     121.319 176.157 128.299  1.00  0.00    -0.027 C 
ATOM      3  C   UNL     1     121.375 175.105 126.068  1.00  0.00     0.039 C 
ENDROOT
BRANCH   2   4
ATOM      4  C   UNL     1     120.954 177.160 129.366  1.00  0.00     0.032 C 
BRANCH   4   5
ATOM      5  C   UNL     1     121.757 178.464 129.275  1.00  0.00     0.034 C 
BRANCH   5   6
ATOM      6  C   UNL     1     123.226 178.161 129.049  1.00  0.00    -0.077 C 
ATOM      7  C   UNL     1     123.982 177.441 130.136  1.00  0.00     0.039 C 
ATOM      8  C   UNL     1     123.914 178.572 127.958  1.00  0.00    -0.023 CG0
ATOM      9  G   UNL     1     123.328 179.289 126.765  1.00  0.00     0.000 G0
ENDBRANCH   5   6
ENDBRANCH   4   5
ENDBRANCH   2   4
BRANCH   1  10
ATOM     10  C   UNL     1     120.468 177.510 126.312  1.00  0.00     0.111 C 
BRANCH  10  11
ATOM     11  C   UNL     1     121.432 178.165 125.355  1.00  0.00     0.163 C 
ATOM     12  O   UNL     1     120.976 178.561 124.246  1.00  0.00    -0.294 OA
BRANCH  11  13
ATOM     13  C   UNL     1     122.896 178.307 125.648  1.00  0.00    -0.002 C 
ATOM     14  C   UNL     1     123.827 177.620 124.914  1.00  0.00    -0.069 C 
ATOM     15  C   UNL     1     123.425 176.585 123.888  1.00  0.00     0.039 C 
ATOM     16  C   UNL     1     125.312 177.821 125.125  1.00  0.00     0.039 C 
BRANCH  13  17
ATOM     17  C   UNL     1     123.334 179.279 126.743  1.00  0.00     0.066 CG0
ATOM     18  G   UNL     1     123.911 178.565 127.942  1.00  0.00     0.000 G0
ENDBRANCH  13  17
ENDBRANCH  11  13
ENDBRANCH  10  11
ENDBRANCH   1  10
TORSDOF 0
ENDMDL
MODEL 6
REMARK VINA RESULT:    -4.295      1.838      3.998
REMARK INTER + INTRA:          -5.827
REMARK INTER:                  -6.222
REMARK INTRA:                   0.394
REMARK UNBOUND:                 0.225
REMARK SMILES CC1=CCC(=C(C)C)C(=O)CC(C)=CCC1
REMARK SMILES IDX 12 1 14 2 13 3 15 4 16 5 2 6 1 7 3 8 11 10 9 11 10 12 5 13
REMARK SMILES IDX 6 14 7 15 8 16 4 17
REMARK H PARENT
REMARK Flexibility Score: 60.00
ROOT
ATOM      1  C   UNL     1     119.776 175.965 128.423  1.00  0.00    -0.070 C 
ATOM      2  C   UNL     1     118.774 176.718 127.901  1.00  0.00    -0.027 C 
ATOM      3  C   UNL     1     119.678 175.529 129.864  1.00  0.00     0.039 C 
ENDROOT
BRANCH   2   4
ATOM      4  C   UNL     1     118.657 177.163 126.463  1.00  0.00     0.032 C 
BRANCH   4   5
ATOM      5  C   UNL     1     118.664 178.688 126.296  1.00  0.00     0.034 C 
BRANCH   5   6
ATOM      6  C   UNL     1     119.993 179.148 125.728  1.00  0.00    -0.077 C 
ATOM      7  C   UNL     1     120.114 179.310 124.235  1.00  0.00     0.039 C 
ATOM      8  C   UNL     1     121.099 179.345 126.484  1.00  0.00    -0.023 CG0
ATOM      9  G   UNL     1     121.168 179.246 127.989  1.00  0.00     0.000 G0
ENDBRANCH   5   6
ENDBRANCH   4   5
ENDBRANCH   2   4
BRANCH   1  10
ATOM     10  C   UNL     1     121.076 175.643 127.697  1.00  0.00     0.111 C 
BRANCH  10  11
ATOM     11  C   UNL     1     122.014 176.818 127.572  1.00  0.00     0.163 C 
ATOM     12  O   UNL     1     122.923 176.750 126.699  1.00  0.00    -0.294 OA
BRANCH  11  13
ATOM     13  C   UNL     1     121.940 178.015 128.474  1.00  0.00    -0.002 C 
ATOM     14  C   UNL     1     122.584 178.022 129.682  1.00  0.00    -0.069 C 
ATOM     15  C   UNL     1     123.268 176.788 130.227  1.00  0.00     0.039 C 
ATOM     16  C   UNL     1     122.606 179.252 130.564  1.00  0.00     0.039 C 
BRANCH  13  17
ATOM     17  C   UNL     1     121.179 179.249 127.992  1.00  0.00     0.066 CG0
ATOM     18  G   UNL     1     121.106 179.322 126.485  1.00  0.00     0.000 G0
ENDBRANCH  13  17
ENDBRANCH  11  13
ENDBRANCH  10  11
ENDBRANCH   1  10
TORSDOF 0
ENDMDL
MODEL 7
REMARK VINA RESULT:    -4.244      2.356      3.459
REMARK INTER + INTRA:          -5.756
REMARK INTER:                  -5.975
REMARK INTRA:                   0.219
REMARK UNBOUND:                 0.225
REMARK SMILES CC1=CCC(=C(C)C)C(=O)CC(C)=CCC1
REMARK SMILES IDX 12 1 14 2 13 3 15 4 16 5 2 6 1 7 3 8 11 10 9 11 10 12 5 13
REMARK SMILES IDX 6 14 7 15 8 16 4 17
REMARK H PARENT
REMARK Flexibility Score: 60.00
ROOT
ATOM      1  C   UNL     1     121.405 174.539 126.588  1.00  0.00    -0.070 C 
ATOM      2  C   UNL     1     121.736 174.919 125.326  1.00  0.00    -0.027 C 
ATOM      3  C   UNL     1     120.406 173.423 126.768  1.00  0.00     0.039 C 
ENDROOT
BRANCH   2   4
ATOM      4  C   UNL     1     122.779 175.945 124.956  1.00  0.00     0.032 C 
BRANCH   4   5
ATOM      5  C   UNL     1     122.316 177.391 125.179  1.00  0.00     0.034 C 
BRANCH   5   6
ATOM      6  C   UNL     1     123.363 178.162 125.961  1.00  0.00    -0.077 C 
ATOM      7  C   UNL     1     124.774 178.187 125.433  1.00  0.00     0.039 C 
ATOM      8  C   UNL     1     123.114 178.764 127.148  1.00  0.00    -0.023 CG0
ATOM      9  G   UNL     1     121.767 178.857 127.825  1.00  0.00     0.000 G0
ENDBRANCH   5   6
ENDBRANCH   4   5
ENDBRANCH   2   4
BRANCH   1  10
ATOM     10  C   UNL     1     121.863 175.259 127.850  1.00  0.00     0.111 C 
BRANCH  10  11
ATOM     11  C   UNL     1     120.977 176.410 128.253  1.00  0.00     0.163 C 
ATOM     12  O   UNL     1     119.734 176.284 128.070  1.00  0.00    -0.294 OA
BRANCH  11  13
ATOM     13  C   UNL     1     121.518 177.699 128.799  1.00  0.00    -0.002 C 
ATOM     14  C   UNL     1     121.829 177.821 130.127  1.00  0.00    -0.069 C 
ATOM     15  C   UNL     1     121.504 176.730 131.124  1.00  0.00     0.039 C 
ATOM     16  C   UNL     1     122.468 179.075 130.683  1.00  0.00     0.039 C 
BRANCH  13  17
ATOM     17  C   UNL     1     121.774 178.855 127.832  1.00  0.00     0.066 CG0
ATOM     18  G   UNL     1     123.129 178.757 127.172  1.00  0.00     0.000 G0
ENDBRANCH  13  17
ENDBRANCH  11  13
ENDBRANCH  10  11
ENDBRANCH   1  10
TORSDOF 0
ENDMDL
MODEL 8
REMARK VINA RESULT:    -4.236      2.347      3.919
REMARK INTER + INTRA:          -5.745
REMARK INTER:                  -6.128
REMARK INTRA:                   0.383
REMARK UNBOUND:                 0.225
REMARK SMILES CC1=CCC(=C(C)C)C(=O)CC(C)=CCC1
REMARK SMILES IDX 12 1 14 2 13 3 15 4 16 5 2 6 1 7 3 8 11 10 9 11 10 12 5 13
REMARK SMILES IDX 6 14 7 15 8 16 4 17
REMARK H PARENT
REMARK Flexibility Score: 60.00
ROOT
ATOM      1  C   UNL     1     122.485 177.111 124.964  1.00  0.00    -0.070 C 
ATOM      2  C   UNL     1     122.460 175.769 124.755  1.00  0.00    -0.027 C 
ATOM      3  C   UNL     1     122.099 178.026 123.828  1.00  0.00     0.039 C 
ENDROOT
BRANCH   2   4
ATOM      4  C   UNL     1     122.722 174.707 125.796  1.00  0.00     0.032 C 
BRANCH   4   5
ATOM      5  C   UNL     1     121.440 174.127 126.409  1.00  0.00     0.034 C 
BRANCH   5   6
ATOM      6  C   UNL     1     121.576 174.033 127.917  1.00  0.00    -0.077 C 
ATOM      7  C   UNL     1     122.131 172.763 128.506  1.00  0.00     0.039 C 
ATOM      8  C   UNL     1     121.151 174.999 128.766  1.00  0.00    -0.023 CG0
ATOM      9  G   UNL     1     120.583 176.339 128.364  1.00  0.00     0.000 G0
ENDBRANCH   5   6
ENDBRANCH   4   5
ENDBRANCH   2   4
BRANCH   1  10
ATOM     10  C   UNL     1     123.017 177.775 126.228  1.00  0.00     0.111 C 
BRANCH  10  11
ATOM     11  C   UNL     1     121.939 178.225 127.182  1.00  0.00     0.163 C 
ATOM     12  O   UNL     1     121.339 179.304 126.920  1.00  0.00    -0.294 OA
BRANCH  11  13
ATOM     13  C   UNL     1     121.605 177.477 128.439  1.00  0.00    -0.002 C 
ATOM     14  C   UNL     1     122.171 177.829 129.636  1.00  0.00    -0.069 C 
ATOM     15  C   UNL     1     123.259 178.877 129.723  1.00  0.00     0.039 C 
ATOM     16  C   UNL     1     121.776 177.156 130.932  1.00  0.00     0.039 C 
BRANCH  13  17
ATOM     17  C   UNL     1     120.574 176.350 128.370  1.00  0.00     0.066 CG0
ATOM     18  G   UNL     1     121.160 175.016 128.769  1.00  0.00     0.000 G0
ENDBRANCH  13  17
ENDBRANCH  11  13
ENDBRANCH  10  11
ENDBRANCH   1  10
TORSDOF 0
ENDMDL
MODEL 9
REMARK VINA RESULT:    -4.124      2.506      5.209
REMARK INTER + INTRA:          -5.587
REMARK INTER:                  -6.013
REMARK INTRA:                   0.426
REMARK UNBOUND:                 0.225
REMARK SMILES CC1=CCC(=C(C)C)C(=O)CC(C)=CCC1
REMARK SMILES IDX 12 1 14 2 13 3 15 4 16 5 2 6 1 7 3 8 11 10 9 11 10 12 5 13
REMARK SMILES IDX 6 14 7 15 8 16 4 17
REMARK H PARENT
REMARK Flexibility Score: 60.00
ROOT
ATOM      1  C   UNL     1     119.283 175.188 130.030  1.00  0.00    -0.070 C 
ATOM      2  C   UNL     1     118.854 173.974 129.596  1.00  0.00    -0.027 C 
ATOM      3  C   UNL     1     118.445 176.403 129.719  1.00  0.00     0.039 C 
ENDROOT
BRANCH   2   4
ATOM      4  C   UNL     1     119.510 172.647 129.892  1.00  0.00     0.032 C 
BRANCH   4   5
ATOM      5  C   UNL     1     120.884 172.485 129.229  1.00  0.00     0.034 C 
BRANCH   5   6
ATOM      6  C   UNL     1     120.815 172.901 127.772  1.00  0.00    -0.077 C 
ATOM      7  C   UNL     1     119.919 172.118 126.847  1.00  0.00     0.039 C 
ATOM      8  C   UNL     1     121.574 173.889 127.241  1.00  0.00    -0.023 CG0
ATOM      9  G   UNL     1     122.515 174.787 128.008  1.00  0.00     0.000 G0
ENDBRANCH   5   6
ENDBRANCH   4   5
ENDBRANCH   2   4
BRANCH   1  10
ATOM     10  C   UNL     1     120.634 175.437 130.688  1.00  0.00     0.111 C 
BRANCH  10  11
ATOM     11  C   UNL     1     121.552 176.323 129.885  1.00  0.00     0.163 C 
ATOM     12  O   UNL     1     122.069 177.314 130.471  1.00  0.00    -0.294 OA
BRANCH  11  13
ATOM     13  C   UNL     1     121.819 176.104 128.425  1.00  0.00    -0.002 C 
ATOM     14  C   UNL     1     121.499 177.064 127.502  1.00  0.00    -0.069 C 
ATOM     15  C   UNL     1     120.734 178.312 127.884  1.00  0.00     0.039 C 
ATOM     16  C   UNL     1     121.848 176.907 126.037  1.00  0.00     0.039 C 
BRANCH  13  17
ATOM     17  C   UNL     1     122.510 174.811 127.992  1.00  0.00     0.066 CG0
ATOM     18  G   UNL     1     121.578 173.889 127.243  1.00  0.00     0.000 G0
ENDBRANCH  13  17
ENDBRANCH  11  13
ENDBRANCH  10  11
ENDBRANCH   1  10
TORSDOF 0
ENDMDL
