MODEL 1
REMARK VINA RESULT:    -3.913      0.000      0.000
REMARK INTER + INTRA:          -8.352
REMARK INTER:                  -6.886
REMARK INTRA:                  -1.466
REMARK UNBOUND:                -1.466
REMARK SMILES CCCCCCC=CCCCCCCCC(=O)[O-]
REMARK SMILES IDX 10 1 11 2 12 3 13 4 14 5 15 6 16 7 17 8 18 9 9 10 8 11 7 12
REMARK SMILES IDX 6 13 5 14 4 15 3 16 2 17 1 18
REMARK H PARENT
REMARK Flexibility Score: inf
ROOT
ATOM      1  C   UNL     1     -43.097 -28.376  -0.496  1.00  0.00     0.004 C 
ENDROOT
BRANCH   1   2
ATOM      2  C   UNL     1     -43.945 -29.626  -0.202  1.00  0.00     0.000 C 
BRANCH   2   3
ATOM      3  C   UNL     1     -44.717 -30.125  -1.432  1.00  0.00     0.000 C 
BRANCH   3   4
ATOM      4  C   UNL     1     -46.208 -29.764  -1.327  1.00  0.00     0.000 C 
BRANCH   4   5
ATOM      5  C   UNL     1     -46.641 -28.726  -2.374  1.00  0.00     0.006 C 
BRANCH   5   6
ATOM      6  C   UNL     1     -45.952 -28.931  -3.729  1.00  0.00     0.053 C 
BRANCH   6   7
ATOM      7  C   UNL     1     -45.474 -27.623  -4.275  1.00  0.00     0.041 C 
ATOM      8  O   UNL     1     -45.642 -27.345  -5.492  1.00  0.00    -0.550 OA
ATOM      9  O   UNL     1     -44.798 -26.732  -3.451  1.00  0.00    -0.550 OA
ENDBRANCH   6   7
ENDBRANCH   5   6
ENDBRANCH   4   5
ENDBRANCH   3   4
ENDBRANCH   2   3
ENDBRANCH   1   2
BRANCH   1  10
ATOM     10  C   UNL     1     -43.768 -27.050  -0.098  1.00  0.00     0.027 C 
BRANCH  10  11
ATOM     11  C   UNL     1     -44.833 -27.230   0.950  1.00  0.00    -0.031 C 
ATOM     12  C   UNL     1     -45.492 -26.184   1.469  1.00  0.00    -0.031 C 
BRANCH  12  13
ATOM     13  C   UNL     1     -46.556 -26.364   2.520  1.00  0.00     0.027 C 
BRANCH  13  14
ATOM     14  C   UNL     1     -46.685 -27.824   2.977  1.00  0.00     0.004 C 
BRANCH  14  15
ATOM     15  C   UNL     1     -46.577 -27.966   4.503  1.00  0.00     0.000 C 
BRANCH  15  16
ATOM     16  C   UNL     1     -46.322 -26.607   5.165  1.00  0.00    -0.000 C 
BRANCH  16  17
ATOM     17  C   UNL     1     -45.599 -26.776   6.506  1.00  0.00    -0.003 C 
ATOM     18  C   UNL     1     -45.235 -28.237   6.755  1.00  0.00     0.004 C 
ENDBRANCH  16  17
ENDBRANCH  15  16
ENDBRANCH  14  15
ENDBRANCH  13  14
ENDBRANCH  12  13
ENDBRANCH  10  11
ENDBRANCH   1  10
TORSDOF 13
ENDMDL
MODEL 2
REMARK VINA RESULT:    -3.709      1.139      1.608
REMARK INTER + INTRA:          -7.994
REMARK INTER:                  -7.097
REMARK INTRA:                  -0.898
REMARK UNBOUND:                -1.466
REMARK SMILES CCCCCCC=CCCCCCCCC(=O)[O-]
REMARK SMILES IDX 10 1 11 2 12 3 13 4 14 5 15 6 16 7 17 8 18 9 9 10 8 11 7 12
REMARK SMILES IDX 6 13 5 14 4 15 3 16 2 17 1 18
REMARK H PARENT
REMARK Flexibility Score: inf
ROOT
ATOM      1  C   UNL     1     -43.458 -28.486  -0.613  1.00  0.00     0.004 C 
ENDROOT
BRANCH   1   2
ATOM      2  C   UNL     1     -44.595 -29.521  -0.545  1.00  0.00     0.000 C 
BRANCH   2   3
ATOM      3  C   UNL     1     -45.141 -29.899  -1.929  1.00  0.00     0.000 C 
BRANCH   3   4
ATOM      4  C   UNL     1     -45.753 -28.675  -2.630  1.00  0.00     0.000 C 
BRANCH   4   5
ATOM      5  C   UNL     1     -45.720 -28.791  -4.162  1.00  0.00     0.006 C 
BRANCH   5   6
ATOM      6  C   UNL     1     -45.437 -27.450  -4.850  1.00  0.00     0.053 C 
BRANCH   6   7
ATOM      7  C   UNL     1     -45.231 -27.650  -6.318  1.00  0.00     0.041 C 
ATOM      8  O   UNL     1     -44.253 -28.327  -6.733  1.00  0.00    -0.550 OA
ATOM      9  O   UNL     1     -46.090 -27.049  -7.229  1.00  0.00    -0.550 OA
ENDBRANCH   6   7
ENDBRANCH   5   6
ENDBRANCH   4   5
ENDBRANCH   3   4
ENDBRANCH   2   3
ENDBRANCH   1   2
BRANCH   1  10
ATOM     10  C   UNL     1     -43.784 -27.144   0.064  1.00  0.00     0.027 C 
BRANCH  10  11
ATOM     11  C   UNL     1     -45.091 -27.173   0.810  1.00  0.00    -0.031 C 
ATOM     12  C   UNL     1     -45.463 -26.167   1.615  1.00  0.00    -0.031 C 
BRANCH  12  13
ATOM     13  C   UNL     1     -46.768 -26.197   2.365  1.00  0.00     0.027 C 
BRANCH  13  14
ATOM     14  C   UNL     1     -46.905 -27.445   3.250  1.00  0.00     0.004 C 
BRANCH  14  15
ATOM     15  C   UNL     1     -46.298 -27.236   4.645  1.00  0.00     0.000 C 
BRANCH  15  16
ATOM     16  C   UNL     1     -45.750 -28.553   5.209  1.00  0.00    -0.000 C 
BRANCH  16  17
ATOM     17  C   UNL     1     -45.280 -28.377   6.657  1.00  0.00    -0.003 C 
ATOM     18  C   UNL     1     -45.322 -26.910   7.076  1.00  0.00     0.004 C 
ENDBRANCH  16  17
ENDBRANCH  15  16
ENDBRANCH  14  15
ENDBRANCH  13  14
ENDBRANCH  12  13
ENDBRANCH  10  11
ENDBRANCH   1  10
TORSDOF 13
ENDMDL
MODEL 3
REMARK VINA RESULT:    -3.677      1.468      1.975
REMARK INTER + INTRA:          -7.937
REMARK INTER:                  -6.993
REMARK INTRA:                  -0.943
REMARK UNBOUND:                -1.466
REMARK SMILES CCCCCCC=CCCCCCCCC(=O)[O-]
REMARK SMILES IDX 10 1 11 2 12 3 13 4 14 5 15 6 16 7 17 8 18 9 9 10 8 11 7 12
REMARK SMILES IDX 6 13 5 14 4 15 3 16 2 17 1 18
REMARK H PARENT
REMARK Flexibility Score: inf
ROOT
ATOM      1  C   UNL     1     -44.236 -27.594  -1.592  1.00  0.00     0.004 C 
ENDROOT
BRANCH   1   2
ATOM      2  C   UNL     1     -45.603 -28.301  -1.629  1.00  0.00     0.000 C 
BRANCH   2   3
ATOM      3  C   UNL     1     -45.897 -28.959  -2.986  1.00  0.00     0.000 C 
BRANCH   3   4
ATOM      4  C   UNL     1     -47.075 -28.264  -3.688  1.00  0.00     0.000 C 
BRANCH   4   5
ATOM      5  C   UNL     1     -46.754 -27.877  -5.140  1.00  0.00     0.006 C 
BRANCH   5   6
ATOM      6  C   UNL     1     -45.297 -27.435  -5.325  1.00  0.00     0.053 C 
BRANCH   6   7
ATOM      7  C   UNL     1     -44.918 -27.479  -6.772  1.00  0.00     0.041 C 
ATOM      8  O   UNL     1     -43.727 -27.716  -7.108  1.00  0.00    -0.550 OA
ATOM      9  O   UNL     1     -45.869 -27.212  -7.748  1.00  0.00    -0.550 OA
ENDBRANCH   6   7
ENDBRANCH   5   6
ENDBRANCH   4   5
ENDBRANCH   3   4
ENDBRANCH   2   3
ENDBRANCH   1   2
BRANCH   1  10
ATOM     10  C   UNL     1     -43.805 -27.127  -0.191  1.00  0.00     0.027 C 
BRANCH  10  11
ATOM     11  C   UNL     1     -44.905 -27.257   0.828  1.00  0.00    -0.031 C 
ATOM     12  C   UNL     1     -45.358 -26.197   1.512  1.00  0.00    -0.031 C 
BRANCH  12  13
ATOM     13  C   UNL     1     -46.456 -26.327   2.535  1.00  0.00     0.027 C 
BRANCH  13  14
ATOM     14  C   UNL     1     -46.696 -27.786   2.951  1.00  0.00     0.004 C 
BRANCH  14  15
ATOM     15  C   UNL     1     -46.252 -28.056   4.397  1.00  0.00     0.000 C 
BRANCH  15  16
ATOM     16  C   UNL     1     -46.047 -26.745   5.164  1.00  0.00    -0.000 C 
BRANCH  16  17
ATOM     17  C   UNL     1     -45.610 -27.016   6.608  1.00  0.00    -0.003 C 
ATOM     18  C   UNL     1     -45.141 -28.458   6.780  1.00  0.00     0.004 C 
ENDBRANCH  16  17
ENDBRANCH  15  16
ENDBRANCH  14  15
ENDBRANCH  13  14
ENDBRANCH  12  13
ENDBRANCH  10  11
ENDBRANCH   1  10
TORSDOF 13
ENDMDL
MODEL 4
REMARK VINA RESULT:    -3.607      3.764      6.314
REMARK INTER + INTRA:          -7.814
REMARK INTER:                  -6.733
REMARK INTRA:                  -1.081
REMARK UNBOUND:                -1.466
REMARK SMILES CCCCCCC=CCCCCCCCC(=O)[O-]
REMARK SMILES IDX 10 1 11 2 12 3 13 4 14 5 15 6 16 7 17 8 18 9 9 10 8 11 7 12
REMARK SMILES IDX 6 13 5 14 4 15 3 16 2 17 1 18
REMARK H PARENT
REMARK Flexibility Score: inf
ROOT
ATOM      1  C   UNL     1     -45.301 -27.571  -5.501  1.00  0.00     0.004 C 
ENDROOT
BRANCH   1   2
ATOM      2  C   UNL     1     -45.227 -27.102  -6.966  1.00  0.00     0.000 C 
BRANCH   2   3
ATOM      3  C   UNL     1     -46.203 -27.854  -7.882  1.00  0.00     0.000 C 
BRANCH   3   4
ATOM      4  C   UNL     1     -45.627 -27.993  -9.300  1.00  0.00     0.000 C 
BRANCH   4   5
ATOM      5  C   UNL     1     -44.094 -27.889  -9.330  1.00  0.00     0.006 C 
BRANCH   5   6
ATOM      6  C   UNL     1     -43.410 -29.261  -9.394  1.00  0.00     0.053 C 
BRANCH   6   7
ATOM      7  C   UNL     1     -42.138 -29.246  -8.607  1.00  0.00     0.041 C 
ATOM      8  O   UNL     1     -41.190 -30.015  -8.921  1.00  0.00    -0.550 OA
ATOM      9  O   UNL     1     -42.016 -28.419  -7.498  1.00  0.00    -0.550 OA
ENDBRANCH   6   7
ENDBRANCH   5   6
ENDBRANCH   4   5
ENDBRANCH   3   4
ENDBRANCH   2   3
ENDBRANCH   1   2
BRANCH   1  10
ATOM     10  C   UNL     1     -45.595 -29.072  -5.333  1.00  0.00     0.027 C 
BRANCH  10  11
ATOM     11  C   UNL     1     -46.030 -29.425  -3.936  1.00  0.00    -0.031 C 
ATOM     12  C   UNL     1     -46.334 -28.480  -3.035  1.00  0.00    -0.031 C 
BRANCH  12  13
ATOM     13  C   UNL     1     -46.766 -28.832  -1.636  1.00  0.00     0.027 C 
BRANCH  13  14
ATOM     14  C   UNL     1     -45.953 -28.086  -0.568  1.00  0.00     0.004 C 
BRANCH  14  15
ATOM     15  C   UNL     1     -44.642 -27.517  -1.131  1.00  0.00     0.000 C 
BRANCH  15  16
ATOM     16  C   UNL     1     -43.523 -27.572  -0.083  1.00  0.00    -0.000 C 
BRANCH  16  17
ATOM     17  C   UNL     1     -42.585 -28.755  -0.342  1.00  0.00    -0.003 C 
ATOM     18  C   UNL     1     -41.123 -28.345  -0.184  1.00  0.00     0.004 C 
ENDBRANCH  16  17
ENDBRANCH  15  16
ENDBRANCH  14  15
ENDBRANCH  13  14
ENDBRANCH  12  13
ENDBRANCH  10  11
ENDBRANCH   1  10
TORSDOF 13
ENDMDL
MODEL 5
REMARK VINA RESULT:    -3.590      4.023      8.678
REMARK INTER + INTRA:          -7.784
REMARK INTER:                  -6.863
REMARK INTRA:                  -0.920
REMARK UNBOUND:                -1.466
REMARK SMILES CCCCCCC=CCCCCCCCC(=O)[O-]
REMARK SMILES IDX 10 1 11 2 12 3 13 4 14 5 15 6 16 7 17 8 18 9 9 10 8 11 7 12
REMARK SMILES IDX 6 13 5 14 4 15 3 16 2 17 1 18
REMARK H PARENT
REMARK Flexibility Score: inf
ROOT
ATOM      1  C   UNL     1     -44.822 -26.609   1.062  1.00  0.00     0.004 C 
ENDROOT
BRANCH   1   2
ATOM      2  C   UNL     1     -46.341 -26.375   1.144  1.00  0.00     0.000 C 
BRANCH   2   3
ATOM      3  C   UNL     1     -46.926 -26.733   2.518  1.00  0.00     0.000 C 
BRANCH   3   4
ATOM      4  C   UNL     1     -46.349 -28.062   3.031  1.00  0.00     0.000 C 
BRANCH   4   5
ATOM      5  C   UNL     1     -46.260 -28.117   4.564  1.00  0.00     0.006 C 
BRANCH   5   6
ATOM      6  C   UNL     1     -46.097 -26.729   5.197  1.00  0.00     0.053 C 
BRANCH   6   7
ATOM      7  C   UNL     1     -45.629 -26.852   6.612  1.00  0.00     0.041 C 
ATOM      8  O   UNL     1     -45.806 -25.905   7.423  1.00  0.00    -0.550 OA
ATOM      9  O   UNL     1     -44.953 -27.994   7.023  1.00  0.00    -0.550 OA
ENDBRANCH   6   7
ENDBRANCH   5   6
ENDBRANCH   4   5
ENDBRANCH   3   4
ENDBRANCH   2   3
ENDBRANCH   1   2
BRANCH   1  10
ATOM     10  C   UNL     1     -44.379 -27.481  -0.125  1.00  0.00     0.027 C 
BRANCH  10  11
ATOM     11  C   UNL     1     -45.543 -28.033  -0.905  1.00  0.00    -0.031 C 
ATOM     12  C   UNL     1     -45.502 -28.149  -2.240  1.00  0.00    -0.031 C 
BRANCH  12  13
ATOM     13  C   UNL     1     -46.667 -28.698  -3.021  1.00  0.00     0.027 C 
BRANCH  13  14
ATOM     14  C   UNL     1     -46.562 -28.389  -4.522  1.00  0.00     0.004 C 
BRANCH  14  15
ATOM     15  C   UNL     1     -45.348 -27.506  -4.848  1.00  0.00     0.000 C 
BRANCH  15  16
ATOM     16  C   UNL     1     -45.192 -27.322  -6.362  1.00  0.00    -0.000 C 
BRANCH  16  17
ATOM     17  C   UNL     1     -44.389 -28.474  -6.975  1.00  0.00    -0.003 C 
ATOM     18  C   UNL     1     -43.246 -27.950  -7.841  1.00  0.00     0.004 C 
ENDBRANCH  16  17
ENDBRANCH  15  16
ENDBRANCH  14  15
ENDBRANCH  13  14
ENDBRANCH  12  13
ENDBRANCH  10  11
ENDBRANCH   1  10
TORSDOF 13
ENDMDL
MODEL 6
REMARK VINA RESULT:    -3.161      2.805      8.026
REMARK INTER + INTRA:          -7.029
REMARK INTER:                  -5.798
REMARK INTRA:                  -1.231
REMARK UNBOUND:                -1.466
REMARK SMILES CCCCCCC=CCCCCCCCC(=O)[O-]
REMARK SMILES IDX 10 1 11 2 12 3 13 4 14 5 15 6 16 7 17 8 18 9 9 10 8 11 7 12
REMARK SMILES IDX 6 13 5 14 4 15 3 16 2 17 1 18
REMARK H PARENT
REMARK Flexibility Score: inf
ROOT
ATOM      1  C   UNL     1     -44.257 -27.865  -1.007  1.00  0.00     0.004 C 
ENDROOT
BRANCH   1   2
ATOM      2  C   UNL     1     -44.046 -28.861   0.148  1.00  0.00     0.000 C 
BRANCH   2   3
ATOM      3  C   UNL     1     -45.287 -29.719   0.429  1.00  0.00     0.000 C 
BRANCH   3   4
ATOM      4  C   UNL     1     -45.866 -29.407   1.818  1.00  0.00     0.000 C 
BRANCH   4   5
ATOM      5  C   UNL     1     -46.894 -28.265   1.789  1.00  0.00     0.006 C 
BRANCH   5   6
ATOM      6  C   UNL     1     -46.400 -27.007   2.514  1.00  0.00     0.053 C 
BRANCH   6   7
ATOM      7  C   UNL     1     -46.181 -25.895   1.538  1.00  0.00     0.041 C 
ATOM      8  O   UNL     1     -47.125 -25.503   0.802  1.00  0.00    -0.550 OA
ATOM      9  O   UNL     1     -44.922 -25.324   1.406  1.00  0.00    -0.550 OA
ENDBRANCH   6   7
ENDBRANCH   5   6
ENDBRANCH   4   5
ENDBRANCH   3   4
ENDBRANCH   2   3
ENDBRANCH   1   2
BRANCH   1  10
ATOM     10  C   UNL     1     -45.662 -27.913  -1.633  1.00  0.00     0.027 C 
BRANCH  10  11
ATOM     11  C   UNL     1     -45.627 -28.136  -3.121  1.00  0.00    -0.031 C 
ATOM     12  C   UNL     1     -46.675 -28.653  -3.779  1.00  0.00    -0.031 C 
BRANCH  12  13
ATOM     13  C   UNL     1     -46.639 -28.879  -5.268  1.00  0.00     0.027 C 
BRANCH  13  14
ATOM     14  C   UNL     1     -45.232 -28.690  -5.854  1.00  0.00     0.004 C 
BRANCH  14  15
ATOM     15  C   UNL     1     -45.113 -27.394  -6.669  1.00  0.00     0.000 C 
BRANCH  15  16
ATOM     16  C   UNL     1     -44.819 -27.696  -8.143  1.00  0.00    -0.000 C 
BRANCH  16  17
ATOM     17  C   UNL     1     -44.005 -28.987  -8.289  1.00  0.00    -0.003 C 
ATOM     18  C   UNL     1     -42.507 -28.700  -8.244  1.00  0.00     0.004 C 
ENDBRANCH  16  17
ENDBRANCH  15  16
ENDBRANCH  14  15
ENDBRANCH  13  14
ENDBRANCH  12  13
ENDBRANCH  10  11
ENDBRANCH   1  10
TORSDOF 13
ENDMDL
MODEL 7
REMARK VINA RESULT:    -3.126      3.654      8.714
REMARK INTER + INTRA:          -6.968
REMARK INTER:                  -6.147
REMARK INTRA:                  -0.821
REMARK UNBOUND:                -1.466
REMARK SMILES CCCCCCC=CCCCCCCCC(=O)[O-]
REMARK SMILES IDX 10 1 11 2 12 3 13 4 14 5 15 6 16 7 17 8 18 9 9 10 8 11 7 12
REMARK SMILES IDX 6 13 5 14 4 15 3 16 2 17 1 18
REMARK H PARENT
REMARK Flexibility Score: inf
ROOT
ATOM      1  C   UNL     1     -43.705 -28.563  -0.367  1.00  0.00     0.004 C 
ENDROOT
BRANCH   1   2
ATOM      2  C   UNL     1     -44.005 -27.145   0.152  1.00  0.00     0.000 C 
BRANCH   2   3
ATOM      3  C   UNL     1     -45.456 -26.980   0.628  1.00  0.00     0.000 C 
BRANCH   3   4
ATOM      4  C   UNL     1     -45.515 -26.175   1.936  1.00  0.00     0.000 C 
BRANCH   4   5
ATOM      5  C   UNL     1     -46.672 -26.612   2.849  1.00  0.00     0.006 C 
BRANCH   5   6
ATOM      6  C   UNL     1     -46.379 -27.925   3.586  1.00  0.00     0.053 C 
BRANCH   6   7
ATOM      7  C   UNL     1     -45.998 -27.651   5.007  1.00  0.00     0.041 C 
ATOM      8  O   UNL     1     -45.909 -26.465   5.421  1.00  0.00    -0.550 OA
ATOM      9  O   UNL     1     -45.694 -28.704   5.860  1.00  0.00    -0.550 OA
ENDBRANCH   6   7
ENDBRANCH   5   6
ENDBRANCH   4   5
ENDBRANCH   3   4
ENDBRANCH   2   3
ENDBRANCH   1   2
BRANCH   1  10
ATOM     10  C   UNL     1     -44.957 -29.386  -0.716  1.00  0.00     0.027 C 
BRANCH  10  11
ATOM     11  C   UNL     1     -45.229 -29.429  -2.195  1.00  0.00    -0.031 C 
ATOM     12  C   UNL     1     -45.778 -28.389  -2.840  1.00  0.00    -0.031 C 
BRANCH  12  13
ATOM     13  C   UNL     1     -46.054 -28.432  -4.319  1.00  0.00     0.027 C 
BRANCH  13  14
ATOM     14  C   UNL     1     -45.254 -27.374  -5.094  1.00  0.00     0.004 C 
BRANCH  14  15
ATOM     15  C   UNL     1     -44.867 -27.856  -6.500  1.00  0.00     0.000 C 
BRANCH  15  16
ATOM     16  C   UNL     1     -46.110 -28.233  -7.315  1.00  0.00    -0.000 C 
BRANCH  16  17
ATOM     17  C   UNL     1     -45.960 -27.803  -8.778  1.00  0.00    -0.003 C 
ATOM     18  C   UNL     1     -44.496 -27.811  -9.208  1.00  0.00     0.004 C 
ENDBRANCH  16  17
ENDBRANCH  15  16
ENDBRANCH  14  15
ENDBRANCH  13  14
ENDBRANCH  12  13
ENDBRANCH  10  11
ENDBRANCH   1  10
TORSDOF 13
ENDMDL
MODEL 8
REMARK VINA RESULT:    -3.007      3.419      9.049
REMARK INTER + INTRA:          -6.757
REMARK INTER:                  -5.531
REMARK INTRA:                  -1.226
REMARK UNBOUND:                -1.466
REMARK SMILES CCCCCCC=CCCCCCCCC(=O)[O-]
REMARK SMILES IDX 10 1 11 2 12 3 13 4 14 5 15 6 16 7 17 8 18 9 9 10 8 11 7 12
REMARK SMILES IDX 6 13 5 14 4 15 3 16 2 17 1 18
REMARK H PARENT
REMARK Flexibility Score: inf
ROOT
ATOM      1  C   UNL     1     -46.076 -28.959  -3.849  1.00  0.00     0.004 C 
ENDROOT
BRANCH   1   2
ATOM      2  C   UNL     1     -46.427 -28.297  -2.504  1.00  0.00     0.000 C 
BRANCH   2   3
ATOM      3  C   UNL     1     -46.353 -29.274  -1.322  1.00  0.00     0.000 C 
BRANCH   3   4
ATOM      4  C   UNL     1     -46.541 -28.536   0.013  1.00  0.00     0.000 C 
BRANCH   4   5
ATOM      5  C   UNL     1     -45.229 -28.391   0.800  1.00  0.00     0.006 C 
BRANCH   5   6
ATOM      6  C   UNL     1     -44.511 -27.067   0.513  1.00  0.00     0.053 C 
BRANCH   6   7
ATOM      7  C   UNL     1     -43.418 -27.272  -0.487  1.00  0.00     0.041 C 
ATOM      8  O   UNL     1     -42.479 -28.077  -0.244  1.00  0.00    -0.550 OA
ATOM      9  O   UNL     1     -43.408 -26.540  -1.668  1.00  0.00    -0.550 OA
ENDBRANCH   6   7
ENDBRANCH   5   6
ENDBRANCH   4   5
ENDBRANCH   3   4
ENDBRANCH   2   3
ENDBRANCH   1   2
BRANCH   1  10
ATOM     10  C   UNL     1     -45.622 -27.972  -4.939  1.00  0.00     0.027 C 
BRANCH  10  11
ATOM     11  C   UNL     1     -46.096 -28.366  -6.312  1.00  0.00    -0.031 C 
ATOM     12  C   UNL     1     -46.012 -27.525  -7.353  1.00  0.00    -0.031 C 
BRANCH  12  13
ATOM     13  C   UNL     1     -46.489 -27.917  -8.726  1.00  0.00     0.027 C 
BRANCH  13  14
ATOM     14  C   UNL     1     -45.327 -28.166  -9.699  1.00  0.00     0.004 C 
BRANCH  14  15
ATOM     15  C   UNL     1     -44.866 -29.631  -9.688  1.00  0.00     0.000 C 
BRANCH  15  16
ATOM     16  C   UNL     1     -43.349 -29.729  -9.487  1.00  0.00    -0.000 C 
BRANCH  16  17
ATOM     17  C   UNL     1     -42.988 -29.687  -7.998  1.00  0.00    -0.003 C 
ATOM     18  C   UNL     1     -42.353 -28.351  -7.622  1.00  0.00     0.004 C 
ENDBRANCH  16  17
ENDBRANCH  15  16
ENDBRANCH  14  15
ENDBRANCH  13  14
ENDBRANCH  12  13
ENDBRANCH  10  11
ENDBRANCH   1  10
TORSDOF 13
ENDMDL
MODEL 9
REMARK VINA RESULT:    -2.960      3.209      7.508
REMARK INTER + INTRA:          -6.676
REMARK INTER:                  -5.014
REMARK INTRA:                  -1.662
REMARK UNBOUND:                -1.466
REMARK SMILES CCCCCCC=CCCCCCCCC(=O)[O-]
REMARK SMILES IDX 10 1 11 2 12 3 13 4 14 5 15 6 16 7 17 8 18 9 9 10 8 11 7 12
REMARK SMILES IDX 6 13 5 14 4 15 3 16 2 17 1 18
REMARK H PARENT
REMARK Flexibility Score: inf
ROOT
ATOM      1  C   UNL     1     -42.940 -28.330  -0.053  1.00  0.00     0.004 C 
ENDROOT
BRANCH   1   2
ATOM      2  C   UNL     1     -43.852 -27.126  -0.354  1.00  0.00     0.000 C 
BRANCH   2   3
ATOM      3  C   UNL     1     -44.768 -26.764   0.824  1.00  0.00     0.000 C 
BRANCH   3   4
ATOM      4  C   UNL     1     -46.243 -27.002   0.464  1.00  0.00     0.000 C 
BRANCH   4   5
ATOM      5  C   UNL     1     -46.960 -27.912   1.474  1.00  0.00     0.006 C 
BRANCH   5   6
ATOM      6  C   UNL     1     -46.008 -28.493   2.526  1.00  0.00     0.053 C 
BRANCH   6   7
ATOM      7  C   UNL     1     -46.368 -27.992   3.889  1.00  0.00     0.041 C 
ATOM      8  O   UNL     1     -46.637 -26.773   4.065  1.00  0.00    -0.550 OA
ATOM      9  O   UNL     1     -46.359 -28.859   4.974  1.00  0.00    -0.550 OA
ENDBRANCH   6   7
ENDBRANCH   5   6
ENDBRANCH   4   5
ENDBRANCH   3   4
ENDBRANCH   2   3
ENDBRANCH   1   2
BRANCH   1  10
ATOM     10  C   UNL     1     -43.581 -29.697  -0.346  1.00  0.00     0.027 C 
BRANCH  10  11
ATOM     11  C   UNL     1     -44.536 -29.653  -1.509  1.00  0.00    -0.031 C 
ATOM     12  C   UNL     1     -45.787 -30.124  -1.410  1.00  0.00    -0.031 C 
BRANCH  12  13
ATOM     13  C   UNL     1     -46.741 -30.083  -2.575  1.00  0.00     0.027 C 
BRANCH  13  14
ATOM     14  C   UNL     1     -46.060 -29.625  -3.872  1.00  0.00     0.004 C 
BRANCH  14  15
ATOM     15  C   UNL     1     -46.562 -28.249  -4.336  1.00  0.00     0.000 C 
BRANCH  15  16
ATOM     16  C   UNL     1     -45.491 -27.519  -5.155  1.00  0.00    -0.000 C 
BRANCH  16  17
ATOM     17  C   UNL     1     -45.205 -28.257  -6.467  1.00  0.00    -0.003 C 
ATOM     18  C   UNL     1     -44.074 -27.585  -7.242  1.00  0.00     0.004 C 
ENDBRANCH  16  17
ENDBRANCH  15  16
ENDBRANCH  14  15
ENDBRANCH  13  14
ENDBRANCH  12  13
ENDBRANCH  10  11
ENDBRANCH   1  10
TORSDOF 13
ENDMDL
