MODEL 1
REMARK VINA RESULT:    -4.229      0.000      0.000
REMARK INTER + INTRA:         -10.828
REMARK INTER:                  -8.184
REMARK INTRA:                  -2.644
REMARK UNBOUND:                -2.644
REMARK SMILES CCCCCCCCCCCCCCCCCC(=O)[O-]
REMARK SMILES IDX 10 1 11 2 12 3 13 4 14 5 15 6 16 7 17 8 18 9 19 10 20 11
REMARK SMILES IDX 9 12 8 13 7 14 6 15 5 16 4 17 3 18 2 19 1 20
REMARK H PARENT
REMARK Flexibility Score: inf
ROOT
ATOM      1  C   UNL     1       9.988  40.339   1.599  1.00  0.00     0.000 C 
ENDROOT
BRANCH   1   2
ATOM      2  C   UNL     1       8.917  39.766   2.542  1.00  0.00     0.000 C 
BRANCH   2   3
ATOM      3  C   UNL     1       8.745  38.247   2.382  1.00  0.00     0.000 C 
BRANCH   3   4
ATOM      4  C   UNL     1       7.317  37.851   1.965  1.00  0.00     0.000 C 
BRANCH   4   5
ATOM      5  C   UNL     1       7.306  36.815   0.822  1.00  0.00     0.000 C 
BRANCH   5   6
ATOM      6  C   UNL     1       6.990  37.418  -0.559  1.00  0.00     0.000 C 
BRANCH   6   7
ATOM      7  C   UNL     1       7.424  36.556  -1.761  1.00  0.00     0.006 C 
BRANCH   7   8
ATOM      8  C   UNL     1       6.260  36.036  -2.620  1.00  0.00     0.053 C 
BRANCH   8   9
ATOM      9  C   UNL     1       5.779  34.696  -2.160  1.00  0.00     0.041 C 
ATOM     10  O   UNL     1       6.244  33.645  -2.674  1.00  0.00    -0.550 OA
ATOM     11  O   UNL     1       4.787  34.607  -1.190  1.00  0.00    -0.550 OA
ENDBRANCH   8   9
ENDBRANCH   7   8
ENDBRANCH   6   7
ENDBRANCH   5   6
ENDBRANCH   4   5
ENDBRANCH   3   4
ENDBRANCH   2   3
ENDBRANCH   1   2
BRANCH   1  12
ATOM     12  C   UNL     1       9.607  40.194   0.116  1.00  0.00     0.000 C 
BRANCH  12  13
ATOM     13  C   UNL     1      10.753  39.637  -0.740  1.00  0.00    -0.000 C 
BRANCH  13  14
ATOM     14  C   UNL     1      10.566  38.134  -0.995  1.00  0.00    -0.000 C 
BRANCH  14  15
ATOM     15  C   UNL     1      11.477  37.260  -0.115  1.00  0.00    -0.000 C 
BRANCH  15  16
ATOM     16  C   UNL     1      10.824  35.971   0.425  1.00  0.00    -0.000 C 
BRANCH  16  17
ATOM     17  C   UNL     1      10.511  34.900  -0.635  1.00  0.00    -0.000 C 
BRANCH  17  18
ATOM     18  C   UNL     1       9.437  33.900  -0.174  1.00  0.00    -0.000 C 
BRANCH  18  19
ATOM     19  C   UNL     1       9.294  32.706  -1.131  1.00  0.00    -0.003 C 
ATOM     20  C   UNL     1      10.081  31.479  -0.671  1.00  0.00     0.004 C 
ENDBRANCH  18  19
ENDBRANCH  17  18
ENDBRANCH  16  17
ENDBRANCH  15  16
ENDBRANCH  14  15
ENDBRANCH  13  14
ENDBRANCH  12  13
ENDBRANCH   1  12
TORSDOF 16
ENDMDL
MODEL 2
REMARK VINA RESULT:    -4.219      2.532      5.572
REMARK INTER + INTRA:         -10.810
REMARK INTER:                  -8.044
REMARK INTRA:                  -2.767
REMARK UNBOUND:                -2.644
REMARK SMILES CCCCCCCCCCCCCCCCCC(=O)[O-]
REMARK SMILES IDX 10 1 11 2 12 3 13 4 14 5 15 6 16 7 17 8 18 9 19 10 20 11
REMARK SMILES IDX 9 12 8 13 7 14 6 15 5 16 4 17 3 18 2 19 1 20
REMARK H PARENT
REMARK Flexibility Score: inf
ROOT
ATOM      1  C   UNL     1       3.900  35.598  -0.446  1.00  0.00     0.000 C 
ENDROOT
BRANCH   1   2
ATOM      2  C   UNL     1       4.313  36.320  -1.740  1.00  0.00     0.000 C 
BRANCH   2   3
ATOM      3  C   UNL     1       5.493  35.632  -2.445  1.00  0.00     0.000 C 
BRANCH   3   4
ATOM      4  C   UNL     1       5.683  34.172  -1.997  1.00  0.00     0.000 C 
BRANCH   4   5
ATOM      5  C   UNL     1       6.545  33.362  -2.988  1.00  0.00     0.000 C 
BRANCH   5   6
ATOM      6  C   UNL     1       8.009  33.190  -2.542  1.00  0.00     0.000 C 
BRANCH   6   7
ATOM      7  C   UNL     1       8.249  33.340  -1.027  1.00  0.00     0.006 C 
BRANCH   7   8
ATOM      8  C   UNL     1       9.698  33.076  -0.587  1.00  0.00     0.053 C 
BRANCH   8   9
ATOM      9  C   UNL     1      10.016  31.614  -0.555  1.00  0.00     0.041 C 
ATOM     10  O   UNL     1      10.499  31.048  -1.571  1.00  0.00    -0.550 OA
ATOM     11  O   UNL     1       9.744  30.866   0.584  1.00  0.00    -0.550 OA
ENDBRANCH   8   9
ENDBRANCH   7   8
ENDBRANCH   6   7
ENDBRANCH   5   6
ENDBRANCH   4   5
ENDBRANCH   3   4
ENDBRANCH   2   3
ENDBRANCH   1   2
BRANCH   1  12
ATOM     12  C   UNL     1       3.639  36.573   0.715  1.00  0.00     0.000 C 
BRANCH  12  13
ATOM     13  C   UNL     1       4.753  36.548   1.772  1.00  0.00    -0.000 C 
BRANCH  13  14
ATOM     14  C   UNL     1       5.772  35.440   1.468  1.00  0.00    -0.000 C 
BRANCH  14  15
ATOM     15  C   UNL     1       7.163  35.990   1.106  1.00  0.00    -0.000 C 
BRANCH  15  16
ATOM     16  C   UNL     1       7.212  37.503   0.808  1.00  0.00    -0.000 C 
BRANCH  16  17
ATOM     17  C   UNL     1       7.792  37.884  -0.566  1.00  0.00    -0.000 C 
BRANCH  17  18
ATOM     18  C   UNL     1       8.803  36.852  -1.093  1.00  0.00    -0.000 C 
BRANCH  18  19
ATOM     19  C   UNL     1      10.260  37.275  -0.846  1.00  0.00    -0.003 C 
ATOM     20  C   UNL     1      10.925  36.483   0.280  1.00  0.00     0.004 C 
ENDBRANCH  18  19
ENDBRANCH  17  18
ENDBRANCH  16  17
ENDBRANCH  15  16
ENDBRANCH  14  15
ENDBRANCH  13  14
ENDBRANCH  12  13
ENDBRANCH   1  12
TORSDOF 16
ENDMDL
MODEL 3
REMARK VINA RESULT:    -4.127      2.858      5.900
REMARK INTER + INTRA:         -10.632
REMARK INTER:                  -8.121
REMARK INTRA:                  -2.511
REMARK UNBOUND:                -2.644
REMARK SMILES CCCCCCCCCCCCCCCCCC(=O)[O-]
REMARK SMILES IDX 10 1 11 2 12 3 13 4 14 5 15 6 16 7 17 8 18 9 19 10 20 11
REMARK SMILES IDX 9 12 8 13 7 14 6 15 5 16 4 17 3 18 2 19 1 20
REMARK H PARENT
REMARK Flexibility Score: inf
ROOT
ATOM      1  C   UNL     1       3.061  35.731  -1.394  1.00  0.00     0.000 C 
ENDROOT
BRANCH   1   2
ATOM      2  C   UNL     1       3.259  34.246  -1.745  1.00  0.00     0.000 C 
BRANCH   2   3
ATOM      3  C   UNL     1       4.690  33.939  -2.212  1.00  0.00     0.000 C 
BRANCH   3   4
ATOM      4  C   UNL     1       5.519  35.211  -2.465  1.00  0.00     0.000 C 
BRANCH   4   5
ATOM      5  C   UNL     1       6.993  34.896  -2.796  1.00  0.00     0.000 C 
BRANCH   5   6
ATOM      6  C   UNL     1       7.338  33.396  -2.719  1.00  0.00     0.000 C 
BRANCH   6   7
ATOM      7  C   UNL     1       8.263  33.001  -1.551  1.00  0.00     0.006 C 
BRANCH   7   8
ATOM      8  C   UNL     1       9.743  32.854  -1.939  1.00  0.00     0.053 C 
BRANCH   8   9
ATOM      9  C   UNL     1      10.329  31.572  -1.436  1.00  0.00     0.041 C 
ATOM     10  O   UNL     1      10.032  31.146  -0.288  1.00  0.00    -0.550 OA
ATOM     11  O   UNL     1      11.236  30.866  -2.218  1.00  0.00    -0.550 OA
ENDBRANCH   8   9
ENDBRANCH   7   8
ENDBRANCH   6   7
ENDBRANCH   5   6
ENDBRANCH   4   5
ENDBRANCH   3   4
ENDBRANCH   2   3
ENDBRANCH   1   2
BRANCH   1  12
ATOM     12  C   UNL     1       2.888  35.961   0.117  1.00  0.00     0.000 C 
BRANCH  12  13
ATOM     13  C   UNL     1       3.744  37.123   0.641  1.00  0.00    -0.000 C 
BRANCH  13  14
ATOM     14  C   UNL     1       5.239  36.787   0.551  1.00  0.00    -0.000 C 
BRANCH  14  15
ATOM     15  C   UNL     1       5.627  35.552   1.382  1.00  0.00    -0.000 C 
BRANCH  15  16
ATOM     16  C   UNL     1       7.058  35.026   1.147  1.00  0.00    -0.000 C 
BRANCH  16  17
ATOM     17  C   UNL     1       8.140  36.111   0.999  1.00  0.00    -0.000 C 
BRANCH  17  18
ATOM     18  C   UNL     1       9.562  35.567   1.211  1.00  0.00    -0.000 C 
BRANCH  18  19
ATOM     19  C   UNL     1      10.531  36.002   0.100  1.00  0.00    -0.003 C 
ATOM     20  C   UNL     1       9.821  36.664  -1.081  1.00  0.00     0.004 C 
ENDBRANCH  18  19
ENDBRANCH  17  18
ENDBRANCH  16  17
ENDBRANCH  15  16
ENDBRANCH  14  15
ENDBRANCH  13  14
ENDBRANCH  12  13
ENDBRANCH   1  12
TORSDOF 16
ENDMDL
MODEL 4
REMARK VINA RESULT:    -4.066      1.952      4.752
REMARK INTER + INTRA:         -10.512
REMARK INTER:                  -7.899
REMARK INTRA:                  -2.613
REMARK UNBOUND:                -2.644
REMARK SMILES CCCCCCCCCCCCCCCCCC(=O)[O-]
REMARK SMILES IDX 10 1 11 2 12 3 13 4 14 5 15 6 16 7 17 8 18 9 19 10 20 11
REMARK SMILES IDX 9 12 8 13 7 14 6 15 5 16 4 17 3 18 2 19 1 20
REMARK H PARENT
REMARK Flexibility Score: inf
ROOT
ATOM      1  C   UNL     1       6.721  38.550  -1.184  1.00  0.00     0.000 C 
ENDROOT
BRANCH   1   2
ATOM      2  C   UNL     1       5.282  38.160  -1.565  1.00  0.00     0.000 C 
BRANCH   2   3
ATOM      3  C   UNL     1       5.229  36.908  -2.455  1.00  0.00     0.000 C 
BRANCH   3   4
ATOM      4  C   UNL     1       4.772  35.654  -1.688  1.00  0.00     0.000 C 
BRANCH   4   5
ATOM      5  C   UNL     1       5.855  34.555  -1.663  1.00  0.00     0.000 C 
BRANCH   5   6
ATOM      6  C   UNL     1       7.001  34.837  -0.672  1.00  0.00     0.000 C 
BRANCH   6   7
ATOM      7  C   UNL     1       8.408  34.472  -1.186  1.00  0.00     0.006 C 
BRANCH   7   8
ATOM      8  C   UNL     1       9.138  33.420  -0.335  1.00  0.00     0.053 C 
BRANCH   8   9
ATOM      9  C   UNL     1       9.728  32.332  -1.176  1.00  0.00     0.041 C 
ATOM     10  O   UNL     1       9.994  32.541  -2.389  1.00  0.00    -0.550 OA
ATOM     11  O   UNL     1       9.949  31.072  -0.630  1.00  0.00    -0.550 OA
ENDBRANCH   8   9
ENDBRANCH   7   8
ENDBRANCH   6   7
ENDBRANCH   5   6
ENDBRANCH   4   5
ENDBRANCH   3   4
ENDBRANCH   2   3
ENDBRANCH   1   2
BRANCH   1  12
ATOM     12  C   UNL     1       6.834  39.036   0.270  1.00  0.00     0.000 C 
BRANCH  12  13
ATOM     13  C   UNL     1       6.658  37.902   1.290  1.00  0.00    -0.000 C 
BRANCH  13  14
ATOM     14  C   UNL     1       7.600  38.090   2.488  1.00  0.00    -0.000 C 
BRANCH  14  15
ATOM     15  C   UNL     1       9.083  38.141   2.081  1.00  0.00    -0.000 C 
BRANCH  15  16
ATOM     16  C   UNL     1       9.663  36.813   1.551  1.00  0.00    -0.000 C 
BRANCH  16  17
ATOM     17  C   UNL     1      10.731  36.955   0.452  1.00  0.00    -0.000 C 
BRANCH  17  18
ATOM     18  C   UNL     1      10.247  37.790  -0.746  1.00  0.00    -0.000 C 
BRANCH  18  19
ATOM     19  C   UNL     1      11.096  39.052  -0.965  1.00  0.00    -0.003 C 
ATOM     20  C   UNL     1      10.370  40.334  -0.556  1.00  0.00     0.004 C 
ENDBRANCH  18  19
ENDBRANCH  17  18
ENDBRANCH  16  17
ENDBRANCH  15  16
ENDBRANCH  14  15
ENDBRANCH  13  14
ENDBRANCH  12  13
ENDBRANCH   1  12
TORSDOF 16
ENDMDL
MODEL 5
REMARK VINA RESULT:    -4.055      2.298      5.574
REMARK INTER + INTRA:         -10.492
REMARK INTER:                  -7.976
REMARK INTRA:                  -2.515
REMARK UNBOUND:                -2.644
REMARK SMILES CCCCCCCCCCCCCCCCCC(=O)[O-]
REMARK SMILES IDX 10 1 11 2 12 3 13 4 14 5 15 6 16 7 17 8 18 9 19 10 20 11
REMARK SMILES IDX 9 12 8 13 7 14 6 15 5 16 4 17 3 18 2 19 1 20
REMARK H PARENT
REMARK Flexibility Score: inf
ROOT
ATOM      1  C   UNL     1       4.643  36.654  -0.058  1.00  0.00     0.000 C 
ENDROOT
BRANCH   1   2
ATOM      2  C   UNL     1       4.515  36.051  -1.468  1.00  0.00     0.000 C 
BRANCH   2   3
ATOM      3  C   UNL     1       5.484  36.695  -2.472  1.00  0.00     0.000 C 
BRANCH   3   4
ATOM      4  C   UNL     1       6.680  35.787  -2.808  1.00  0.00     0.000 C 
BRANCH   4   5
ATOM      5  C   UNL     1       6.381  34.298  -2.537  1.00  0.00     0.000 C 
BRANCH   5   6
ATOM      6  C   UNL     1       7.620  33.387  -2.637  1.00  0.00     0.000 C 
BRANCH   6   7
ATOM      7  C   UNL     1       8.357  33.144  -1.305  1.00  0.00     0.006 C 
BRANCH   7   8
ATOM      8  C   UNL     1       9.886  33.051  -1.437  1.00  0.00     0.053 C 
BRANCH   8   9
ATOM      9  C   UNL     1      10.378  31.648  -1.273  1.00  0.00     0.041 C 
ATOM     10  O   UNL     1      10.239  31.051  -0.173  1.00  0.00    -0.550 OA
ATOM     11  O   UNL     1      11.029  31.011  -2.323  1.00  0.00    -0.550 OA
ENDBRANCH   8   9
ENDBRANCH   7   8
ENDBRANCH   6   7
ENDBRANCH   5   6
ENDBRANCH   4   5
ENDBRANCH   3   4
ENDBRANCH   2   3
ENDBRANCH   1   2
BRANCH   1  12
ATOM     12  C   UNL     1       5.021  35.604   0.999  1.00  0.00     0.000 C 
BRANCH  12  13
ATOM     13  C   UNL     1       6.519  35.269   0.992  1.00  0.00    -0.000 C 
BRANCH  13  14
ATOM     14  C   UNL     1       7.365  36.541   0.835  1.00  0.00    -0.000 C 
BRANCH  14  15
ATOM     15  C   UNL     1       8.840  36.243   0.516  1.00  0.00    -0.000 C 
BRANCH  15  16
ATOM     16  C   UNL     1       9.437  37.063  -0.648  1.00  0.00    -0.000 C 
BRANCH  16  17
ATOM     17  C   UNL     1      10.441  38.153  -0.236  1.00  0.00    -0.000 C 
BRANCH  17  18
ATOM     18  C   UNL     1      10.755  38.138   1.270  1.00  0.00    -0.000 C 
BRANCH  18  19
ATOM     19  C   UNL     1      10.334  39.438   1.973  1.00  0.00    -0.003 C 
ATOM     20  C   UNL     1       8.964  39.333   2.645  1.00  0.00     0.004 C 
ENDBRANCH  18  19
ENDBRANCH  17  18
ENDBRANCH  16  17
ENDBRANCH  15  16
ENDBRANCH  14  15
ENDBRANCH  13  14
ENDBRANCH  12  13
ENDBRANCH   1  12
TORSDOF 16
ENDMDL
MODEL 6
REMARK VINA RESULT:    -4.040      2.771      5.324
REMARK INTER + INTRA:         -10.463
REMARK INTER:                  -7.802
REMARK INTRA:                  -2.661
REMARK UNBOUND:                -2.644
REMARK SMILES CCCCCCCCCCCCCCCCCC(=O)[O-]
REMARK SMILES IDX 10 1 11 2 12 3 13 4 14 5 15 6 16 7 17 8 18 9 19 10 20 11
REMARK SMILES IDX 9 12 8 13 7 14 6 15 5 16 4 17 3 18 2 19 1 20
REMARK H PARENT
REMARK Flexibility Score: inf
ROOT
ATOM      1  C   UNL     1       3.919  35.965  -2.544  1.00  0.00     0.000 C 
ENDROOT
BRANCH   1   2
ATOM      2  C   UNL     1       2.987  36.255  -1.354  1.00  0.00     0.000 C 
BRANCH   2   3
ATOM      3  C   UNL     1       3.392  35.481  -0.089  1.00  0.00     0.000 C 
BRANCH   3   4
ATOM      4  C   UNL     1       3.592  36.398   1.130  1.00  0.00     0.000 C 
BRANCH   4   5
ATOM      5  C   UNL     1       5.084  36.630   1.451  1.00  0.00     0.000 C 
BRANCH   5   6
ATOM      6  C   UNL     1       5.985  35.426   1.118  1.00  0.00     0.000 C 
BRANCH   6   7
ATOM      7  C   UNL     1       7.494  35.736   1.072  1.00  0.00     0.006 C 
BRANCH   7   8
ATOM      8  C   UNL     1       7.827  37.224   0.882  1.00  0.00     0.053 C 
BRANCH   8   9
ATOM      9  C   UNL     1       8.544  37.793   2.065  1.00  0.00     0.041 C 
ATOM     10  O   UNL     1       9.789  37.645   2.184  1.00  0.00    -0.550 OA
ATOM     11  O   UNL     1       7.832  38.455   3.059  1.00  0.00    -0.550 OA
ENDBRANCH   8   9
ENDBRANCH   7   8
ENDBRANCH   6   7
ENDBRANCH   5   6
ENDBRANCH   4   5
ENDBRANCH   3   4
ENDBRANCH   2   3
ENDBRANCH   1   2
BRANCH   1  12
ATOM     12  C   UNL     1       5.240  36.748  -2.461  1.00  0.00     0.000 C 
BRANCH  12  13
ATOM     13  C   UNL     1       6.474  35.838  -2.538  1.00  0.00    -0.000 C 
BRANCH  13  14
ATOM     14  C   UNL     1       6.072  34.360  -2.440  1.00  0.00    -0.000 C 
BRANCH  14  15
ATOM     15  C   UNL     1       7.268  33.403  -2.586  1.00  0.00    -0.000 C 
BRANCH  15  16
ATOM     16  C   UNL     1       8.212  33.344  -1.367  1.00  0.00    -0.000 C 
BRANCH  16  17
ATOM     17  C   UNL     1       9.588  32.708  -1.632  1.00  0.00    -0.000 C 
BRANCH  17  18
ATOM     18  C   UNL     1      10.754  33.673  -1.360  1.00  0.00    -0.000 C 
BRANCH  18  19
ATOM     19  C   UNL     1      10.306  35.143  -1.329  1.00  0.00    -0.003 C 
ATOM     20  C   UNL     1      11.230  36.027  -0.489  1.00  0.00     0.004 C 
ENDBRANCH  18  19
ENDBRANCH  17  18
ENDBRANCH  16  17
ENDBRANCH  15  16
ENDBRANCH  14  15
ENDBRANCH  13  14
ENDBRANCH  12  13
ENDBRANCH   1  12
TORSDOF 16
ENDMDL
MODEL 7
REMARK VINA RESULT:    -4.000      2.884      6.089
REMARK INTER + INTRA:         -10.386
REMARK INTER:                  -7.685
REMARK INTRA:                  -2.701
REMARK UNBOUND:                -2.644
REMARK SMILES CCCCCCCCCCCCCCCCCC(=O)[O-]
REMARK SMILES IDX 10 1 11 2 12 3 13 4 14 5 15 6 16 7 17 8 18 9 19 10 20 11
REMARK SMILES IDX 9 12 8 13 7 14 6 15 5 16 4 17 3 18 2 19 1 20
REMARK H PARENT
REMARK Flexibility Score: inf
ROOT
ATOM      1  C   UNL     1       3.600  35.813  -2.410  1.00  0.00     0.000 C 
ENDROOT
BRANCH   1   2
ATOM      2  C   UNL     1       3.906  34.441  -1.785  1.00  0.00     0.000 C 
BRANCH   2   3
ATOM      3  C   UNL     1       5.055  33.713  -2.501  1.00  0.00     0.000 C 
BRANCH   3   4
ATOM      4  C   UNL     1       6.439  34.102  -1.949  1.00  0.00     0.000 C 
BRANCH   4   5
ATOM      5  C   UNL     1       7.577  33.276  -2.585  1.00  0.00     0.000 C 
BRANCH   5   6
ATOM      6  C   UNL     1       8.716  32.933  -1.607  1.00  0.00     0.000 C 
BRANCH   6   7
ATOM      7  C   UNL     1       8.917  33.945  -0.462  1.00  0.00     0.006 C 
BRANCH   7   8
ATOM      8  C   UNL     1      10.275  34.666  -0.488  1.00  0.00     0.053 C 
BRANCH   8   9
ATOM      9  C   UNL     1      10.258  35.921   0.328  1.00  0.00     0.041 C 
ATOM     10  O   UNL     1      10.160  37.042  -0.236  1.00  0.00    -0.550 OA
ATOM     11  O   UNL     1      10.392  35.855   1.710  1.00  0.00    -0.550 OA
ENDBRANCH   8   9
ENDBRANCH   7   8
ENDBRANCH   6   7
ENDBRANCH   5   6
ENDBRANCH   4   5
ENDBRANCH   3   4
ENDBRANCH   2   3
ENDBRANCH   1   2
BRANCH   1  12
ATOM     12  C   UNL     1       3.289  36.885  -1.352  1.00  0.00     0.000 C 
BRANCH  12  13
ATOM     13  C   UNL     1       4.258  38.075  -1.412  1.00  0.00    -0.000 C 
BRANCH  13  14
ATOM     14  C   UNL     1       5.572  37.678  -2.101  1.00  0.00    -0.000 C 
BRANCH  14  15
ATOM     15  C   UNL     1       6.758  37.593  -1.124  1.00  0.00    -0.000 C 
BRANCH  15  16
ATOM     16  C   UNL     1       6.418  37.908   0.348  1.00  0.00    -0.000 C 
BRANCH  16  17
ATOM     17  C   UNL     1       6.774  36.800   1.356  1.00  0.00    -0.000 C 
BRANCH  17  18
ATOM     18  C   UNL     1       5.906  35.542   1.190  1.00  0.00    -0.000 C 
BRANCH  18  19
ATOM     19  C   UNL     1       4.493  35.721   1.766  1.00  0.00    -0.003 C 
ATOM     20  C   UNL     1       4.491  36.399   3.136  1.00  0.00     0.004 C 
ENDBRANCH  18  19
ENDBRANCH  17  18
ENDBRANCH  16  17
ENDBRANCH  15  16
ENDBRANCH  14  15
ENDBRANCH  13  14
ENDBRANCH  12  13
ENDBRANCH   1  12
TORSDOF 16
ENDMDL
MODEL 8
REMARK VINA RESULT:    -4.000      1.807      5.335
REMARK INTER + INTRA:         -10.385
REMARK INTER:                  -7.929
REMARK INTRA:                  -2.456
REMARK UNBOUND:                -2.644
REMARK SMILES CCCCCCCCCCCCCCCCCC(=O)[O-]
REMARK SMILES IDX 10 1 11 2 12 3 13 4 14 5 15 6 16 7 17 8 18 9 19 10 20 11
REMARK SMILES IDX 9 12 8 13 7 14 6 15 5 16 4 17 3 18 2 19 1 20
REMARK H PARENT
REMARK Flexibility Score: inf
ROOT
ATOM      1  C   UNL     1       6.860  33.856  -2.773  1.00  0.00     0.000 C 
ENDROOT
BRANCH   1   2
ATOM      2  C   UNL     1       5.347  33.869  -2.495  1.00  0.00     0.000 C 
BRANCH   2   3
ATOM      3  C   UNL     1       4.912  35.092  -1.671  1.00  0.00     0.000 C 
BRANCH   3   4
ATOM      4  C   UNL     1       4.541  36.299  -2.551  1.00  0.00     0.000 C 
BRANCH   4   5
ATOM      5  C   UNL     1       5.278  37.586  -2.122  1.00  0.00     0.000 C 
BRANCH   5   6
ATOM      6  C   UNL     1       6.679  37.331  -1.532  1.00  0.00     0.000 C 
BRANCH   6   7
ATOM      7  C   UNL     1       6.890  37.871  -0.104  1.00  0.00     0.006 C 
BRANCH   7   8
ATOM      8  C   UNL     1       7.003  36.781   0.973  1.00  0.00     0.053 C 
BRANCH   8   9
ATOM      9  C   UNL     1       5.664  36.383   1.511  1.00  0.00     0.041 C 
ATOM     10  O   UNL     1       5.508  35.258   2.054  1.00  0.00    -0.550 OA
ATOM     11  O   UNL     1       4.577  37.238   1.376  1.00  0.00    -0.550 OA
ENDBRANCH   8   9
ENDBRANCH   7   8
ENDBRANCH   6   7
ENDBRANCH   5   6
ENDBRANCH   4   5
ENDBRANCH   3   4
ENDBRANCH   2   3
ENDBRANCH   1   2
BRANCH   1  12
ATOM     12  C   UNL     1       7.696  33.804  -1.484  1.00  0.00     0.000 C 
BRANCH  12  13
ATOM     13  C   UNL     1       8.958  32.942  -1.629  1.00  0.00    -0.000 C 
BRANCH  13  14
ATOM     14  C   UNL     1      10.067  33.430  -0.686  1.00  0.00    -0.000 C 
BRANCH  14  15
ATOM     15  C   UNL     1      10.726  34.736  -1.162  1.00  0.00    -0.000 C 
BRANCH  15  16
ATOM     16  C   UNL     1      10.473  35.963  -0.261  1.00  0.00    -0.000 C 
BRANCH  16  17
ATOM     17  C   UNL     1      10.381  37.311  -0.999  1.00  0.00    -0.000 C 
BRANCH  17  18
ATOM     18  C   UNL     1      10.806  38.501  -0.122  1.00  0.00    -0.000 C 
BRANCH  18  19
ATOM     19  C   UNL     1      10.602  38.231   1.377  1.00  0.00    -0.003 C 
ATOM     20  C   UNL     1       9.989  39.420   2.116  1.00  0.00     0.004 C 
ENDBRANCH  18  19
ENDBRANCH  17  18
ENDBRANCH  16  17
ENDBRANCH  15  16
ENDBRANCH  14  15
ENDBRANCH  13  14
ENDBRANCH  12  13
ENDBRANCH   1  12
TORSDOF 16
ENDMDL
MODEL 9
REMARK VINA RESULT:    -3.988      2.187      4.281
REMARK INTER + INTRA:         -10.363
REMARK INTER:                  -7.661
REMARK INTRA:                  -2.701
REMARK UNBOUND:                -2.644
REMARK SMILES CCCCCCCCCCCCCCCCCC(=O)[O-]
REMARK SMILES IDX 10 1 11 2 12 3 13 4 14 5 15 6 16 7 17 8 18 9 19 10 20 11
REMARK SMILES IDX 9 12 8 13 7 14 6 15 5 16 4 17 3 18 2 19 1 20
REMARK H PARENT
REMARK Flexibility Score: inf
ROOT
ATOM      1  C   UNL     1       7.368  38.247  -0.538  1.00  0.00     0.000 C 
ENDROOT
BRANCH   1   2
ATOM      2  C   UNL     1       6.319  37.824  -1.582  1.00  0.00     0.000 C 
BRANCH   2   3
ATOM      3  C   UNL     1       6.621  36.447  -2.193  1.00  0.00     0.000 C 
BRANCH   3   4
ATOM      4  C   UNL     1       5.484  35.435  -1.966  1.00  0.00     0.000 C 
BRANCH   4   5
ATOM      5  C   UNL     1       5.902  33.993  -2.324  1.00  0.00     0.000 C 
BRANCH   5   6
ATOM      6  C   UNL     1       7.389  33.855  -2.705  1.00  0.00     0.000 C 
BRANCH   6   7
ATOM      7  C   UNL     1       8.228  32.990  -1.744  1.00  0.00     0.006 C 
BRANCH   7   8
ATOM      8  C   UNL     1       9.632  32.646  -2.267  1.00  0.00     0.053 C 
BRANCH   8   9
ATOM      9  C   UNL     1      10.350  31.695  -1.362  1.00  0.00     0.041 C 
ATOM     10  O   UNL     1      11.441  31.179  -1.721  1.00  0.00    -0.550 OA
ATOM     11  O   UNL     1       9.795  31.347  -0.136  1.00  0.00    -0.550 OA
ENDBRANCH   8   9
ENDBRANCH   7   8
ENDBRANCH   6   7
ENDBRANCH   5   6
ENDBRANCH   4   5
ENDBRANCH   3   4
ENDBRANCH   2   3
ENDBRANCH   1   2
BRANCH   1  12
ATOM     12  C   UNL     1       6.745  38.540   0.837  1.00  0.00     0.000 C 
BRANCH  12  13
ATOM     13  C   UNL     1       7.772  38.485   1.977  1.00  0.00    -0.000 C 
BRANCH  13  14
ATOM     14  C   UNL     1       8.872  39.537   1.775  1.00  0.00    -0.000 C 
BRANCH  14  15
ATOM     15  C   UNL     1      10.290  38.950   1.889  1.00  0.00    -0.000 C 
BRANCH  15  16
ATOM     16  C   UNL     1      10.364  37.409   1.876  1.00  0.00    -0.000 C 
BRANCH  16  17
ATOM     17  C   UNL     1      10.769  36.782   0.530  1.00  0.00    -0.000 C 
BRANCH  17  18
ATOM     18  C   UNL     1       9.803  35.678   0.071  1.00  0.00    -0.000 C 
BRANCH  18  19
ATOM     19  C   UNL     1       9.141  34.946   1.249  1.00  0.00    -0.003 C 
ATOM     20  C   UNL     1       7.614  34.958   1.175  1.00  0.00     0.004 C 
ENDBRANCH  18  19
ENDBRANCH  17  18
ENDBRANCH  16  17
ENDBRANCH  15  16
ENDBRANCH  14  15
ENDBRANCH  13  14
ENDBRANCH  12  13
ENDBRANCH   1  12
TORSDOF 16
ENDMDL
