MODEL 1
REMARK VINA RESULT:    -2.760      0.000      0.000
REMARK INTER + INTRA:          -3.500
REMARK INTER:                  -3.405
REMARK INTRA:                  -0.095
REMARK UNBOUND:                -0.095
REMARK SMILES CCCCCC(=O)[O-]
REMARK SMILES IDX 4 1 5 2 6 3 7 4 8 5 3 6 2 7 1 8
REMARK H PARENT
REMARK Flexibility Score: inf
ROOT
ATOM      1  C   UNL     1      31.035  16.773  51.378  1.00  0.00     0.006 C 
ENDROOT
BRANCH   1   2
ATOM      2  C   UNL     1      29.763  16.764  50.514  1.00  0.00     0.053 C 
BRANCH   2   3
ATOM      3  C   UNL     1      28.560  17.216  51.283  1.00  0.00     0.041 C 
ATOM      4  O   UNL     1      28.690  17.998  52.261  1.00  0.00    -0.550 OA
ATOM      5  O   UNL     1      27.297  16.748  50.939  1.00  0.00    -0.550 OA
ENDBRANCH   2   3
ENDBRANCH   1   2
BRANCH   1   6
ATOM      6  C   UNL     1      32.346  16.822  50.573  1.00  0.00     0.000 C 
BRANCH   6   7
ATOM      7  C   UNL     1      33.112  15.491  50.601  1.00  0.00    -0.003 C 
ATOM      8  C   UNL     1      33.093  14.875  51.997  1.00  0.00     0.004 C 
ENDBRANCH   6   7
ENDBRANCH   1   6
TORSDOF 4
ENDMDL
MODEL 2
REMARK VINA RESULT:    -2.719     17.365     18.325
REMARK INTER + INTRA:          -3.450
REMARK INTER:                  -3.361
REMARK INTRA:                  -0.089
REMARK UNBOUND:                -0.095
REMARK SMILES CCCCCC(=O)[O-]
REMARK SMILES IDX 4 1 5 2 6 3 7 4 8 5 3 6 2 7 1 8
REMARK H PARENT
REMARK Flexibility Score: inf
ROOT
ATOM      1  C   UNL     1      19.090  29.413  54.871  1.00  0.00     0.006 C 
ENDROOT
BRANCH   1   2
ATOM      2  C   UNL     1      20.480  29.996  55.179  1.00  0.00     0.053 C 
BRANCH   2   3
ATOM      3  C   UNL     1      20.867  29.796  56.612  1.00  0.00     0.041 C 
ATOM      4  O   UNL     1      21.945  30.276  57.050  1.00  0.00    -0.550 OA
ATOM      5  O   UNL     1      20.053  29.050  57.456  1.00  0.00    -0.550 OA
ENDBRANCH   2   3
ENDBRANCH   1   2
BRANCH   1   6
ATOM      6  C   UNL     1      18.266  30.239  53.867  1.00  0.00     0.000 C 
BRANCH   6   7
ATOM      7  C   UNL     1      16.781  29.845  53.849  1.00  0.00    -0.003 C 
ATOM      8  C   UNL     1      16.300  29.454  55.244  1.00  0.00     0.004 C 
ENDBRANCH   6   7
ENDBRANCH   1   6
TORSDOF 4
ENDMDL
MODEL 3
REMARK VINA RESULT:    -2.717      0.780      1.132
REMARK INTER + INTRA:          -3.447
REMARK INTER:                  -3.357
REMARK INTRA:                  -0.090
REMARK UNBOUND:                -0.095
REMARK SMILES CCCCCC(=O)[O-]
REMARK SMILES IDX 4 1 5 2 6 3 7 4 8 5 3 6 2 7 1 8
REMARK H PARENT
REMARK Flexibility Score: inf
ROOT
ATOM      1  C   UNL     1      30.004  17.319  50.501  1.00  0.00     0.006 C 
ENDROOT
BRANCH   1   2
ATOM      2  C   UNL     1      28.783  16.433  50.802  1.00  0.00     0.053 C 
BRANCH   2   3
ATOM      3  C   UNL     1      27.609  17.237  51.271  1.00  0.00     0.041 C 
ATOM      4  O   UNL     1      27.711  17.973  52.286  1.00  0.00    -0.550 OA
ATOM      5  O   UNL     1      26.393  17.147  50.604  1.00  0.00    -0.550 OA
ENDBRANCH   2   3
ENDBRANCH   1   2
BRANCH   1   6
ATOM      6  C   UNL     1      31.268  16.944  51.297  1.00  0.00     0.000 C 
BRANCH   6   7
ATOM      7  C   UNL     1      32.389  16.389  50.405  1.00  0.00    -0.003 C 
ATOM      8  C   UNL     1      33.125  15.245  51.097  1.00  0.00     0.004 C 
ENDBRANCH   6   7
ENDBRANCH   1   6
TORSDOF 4
ENDMDL
MODEL 4
REMARK VINA RESULT:    -2.650     13.361     14.303
REMARK INTER + INTRA:          -3.364
REMARK INTER:                  -3.208
REMARK INTRA:                  -0.156
REMARK UNBOUND:                -0.095
REMARK SMILES CCCCCC(=O)[O-]
REMARK SMILES IDX 4 1 5 2 6 3 7 4 8 5 3 6 2 7 1 8
REMARK H PARENT
REMARK Flexibility Score: inf
ROOT
ATOM      1  C   UNL     1      17.345  18.460  49.582  1.00  0.00     0.006 C 
ENDROOT
BRANCH   1   2
ATOM      2  C   UNL     1      17.508  18.125  48.089  1.00  0.00     0.053 C 
BRANCH   2   3
ATOM      3  C   UNL     1      16.205  18.189  47.354  1.00  0.00     0.041 C 
ATOM      4  O   UNL     1      15.120  18.231  47.991  1.00  0.00    -0.550 OA
ATOM      5  O   UNL     1      16.188  18.167  45.965  1.00  0.00    -0.550 OA
ENDBRANCH   2   3
ENDBRANCH   1   2
BRANCH   1   6
ATOM      6  C   UNL     1      18.100  17.510  50.529  1.00  0.00     0.000 C 
BRANCH   6   7
ATOM      7  C   UNL     1      17.287  17.152  51.783  1.00  0.00    -0.003 C 
ATOM      8  C   UNL     1      15.794  17.357  51.548  1.00  0.00     0.004 C 
ENDBRANCH   6   7
ENDBRANCH   1   6
TORSDOF 4
ENDMDL
MODEL 5
REMARK VINA RESULT:    -2.646     13.549     14.883
REMARK INTER + INTRA:          -3.359
REMARK INTER:                  -3.313
REMARK INTRA:                  -0.046
REMARK UNBOUND:                -0.095
REMARK SMILES CCCCCC(=O)[O-]
REMARK SMILES IDX 4 1 5 2 6 3 7 4 8 5 3 6 2 7 1 8
REMARK H PARENT
REMARK Flexibility Score: inf
ROOT
ATOM      1  C   UNL     1      16.430  18.535  48.045  1.00  0.00     0.006 C 
ENDROOT
BRANCH   1   2
ATOM      2  C   UNL     1      16.251  17.899  46.656  1.00  0.00     0.053 C 
BRANCH   2   3
ATOM      3  C   UNL     1      14.826  17.521  46.392  1.00  0.00     0.041 C 
ATOM      4  O   UNL     1      13.893  18.296  46.725  1.00  0.00    -0.550 OA
ATOM      5  O   UNL     1      14.528  16.297  45.806  1.00  0.00    -0.550 OA
ENDBRANCH   2   3
ENDBRANCH   1   2
BRANCH   1   6
ATOM      6  C   UNL     1      17.653  18.018  48.825  1.00  0.00     0.000 C 
BRANCH   6   7
ATOM      7  C   UNL     1      17.526  18.234  50.341  1.00  0.00    -0.003 C 
ATOM      8  C   UNL     1      18.373  17.226  51.112  1.00  0.00     0.004 C 
ENDBRANCH   6   7
ENDBRANCH   1   6
TORSDOF 4
ENDMDL
MODEL 6
REMARK VINA RESULT:    -2.635      2.360      4.186
REMARK INTER + INTRA:          -3.346
REMARK INTER:                  -3.215
REMARK INTRA:                  -0.131
REMARK UNBOUND:                -0.095
REMARK SMILES CCCCCC(=O)[O-]
REMARK SMILES IDX 4 1 5 2 6 3 7 4 8 5 3 6 2 7 1 8
REMARK H PARENT
REMARK Flexibility Score: inf
ROOT
ATOM      1  C   UNL     1      30.836  17.969  50.868  1.00  0.00     0.006 C 
ENDROOT
BRANCH   1   2
ATOM      2  C   UNL     1      31.581  16.628  50.757  1.00  0.00     0.053 C 
BRANCH   2   3
ATOM      3  C   UNL     1      32.026  16.121  52.095  1.00  0.00     0.041 C 
ATOM      4  O   UNL     1      32.758  15.101  52.174  1.00  0.00    -0.550 OA
ATOM      5  O   UNL     1      31.604  16.758  53.256  1.00  0.00    -0.550 OA
ENDBRANCH   2   3
ENDBRANCH   1   2
BRANCH   1   6
ATOM      6  C   UNL     1      29.383  17.929  50.359  1.00  0.00     0.000 C 
BRANCH   6   7
ATOM      7  C   UNL     1      28.610  16.702  50.864  1.00  0.00    -0.003 C 
ATOM      8  C   UNL     1      27.171  17.067  51.219  1.00  0.00     0.004 C 
ENDBRANCH   6   7
ENDBRANCH   1   6
TORSDOF 4
ENDMDL
MODEL 7
REMARK VINA RESULT:    -2.596     12.856     14.053
REMARK INTER + INTRA:          -3.298
REMARK INTER:                  -3.110
REMARK INTRA:                  -0.187
REMARK UNBOUND:                -0.095
REMARK SMILES CCCCCC(=O)[O-]
REMARK SMILES IDX 4 1 5 2 6 3 7 4 8 5 3 6 2 7 1 8
REMARK H PARENT
REMARK Flexibility Score: inf
ROOT
ATOM      1  C   UNL     1      17.770  18.427  49.968  1.00  0.00     0.006 C 
ENDROOT
BRANCH   1   2
ATOM      2  C   UNL     1      18.084  17.356  51.027  1.00  0.00     0.053 C 
BRANCH   2   3
ATOM      3  C   UNL     1      16.982  17.223  52.033  1.00  0.00     0.041 C 
ATOM      4  O   UNL     1      15.838  16.841  51.673  1.00  0.00    -0.550 OA
ATOM      5  O   UNL     1      17.212  17.551  53.363  1.00  0.00    -0.550 OA
ENDBRANCH   2   3
ENDBRANCH   1   2
BRANCH   1   6
ATOM      6  C   UNL     1      17.730  17.896  48.524  1.00  0.00     0.000 C 
BRANCH   6   7
ATOM      7  C   UNL     1      16.469  18.334  47.763  1.00  0.00    -0.003 C 
ATOM      8  C   UNL     1      15.337  18.674  48.728  1.00  0.00     0.004 C 
ENDBRANCH   6   7
ENDBRANCH   1   6
TORSDOF 4
ENDMDL
MODEL 8
REMARK VINA RESULT:    -2.579     17.650     18.192
REMARK INTER + INTRA:          -3.277
REMARK INTER:                  -3.184
REMARK INTRA:                  -0.093
REMARK UNBOUND:                -0.095
REMARK SMILES CCCCCC(=O)[O-]
REMARK SMILES IDX 4 1 5 2 6 3 7 4 8 5 3 6 2 7 1 8
REMARK H PARENT
REMARK Flexibility Score: inf
ROOT
ATOM      1  C   UNL     1      19.494  29.416  54.428  1.00  0.00     0.006 C 
ENDROOT
BRANCH   1   2
ATOM      2  C   UNL     1      18.034  29.332  54.906  1.00  0.00     0.053 C 
BRANCH   2   3
ATOM      3  C   UNL     1      17.081  29.890  53.894  1.00  0.00     0.041 C 
ATOM      4  O   UNL     1      15.913  29.430  53.804  1.00  0.00    -0.550 OA
ATOM      5  O   UNL     1      17.493  30.896  53.029  1.00  0.00    -0.550 OA
ENDBRANCH   2   3
ENDBRANCH   1   2
BRANCH   1   6
ATOM      6  C   UNL     1      20.421  30.214  55.364  1.00  0.00     0.000 C 
BRANCH   6   7
ATOM      7  C   UNL     1      20.815  29.426  56.623  1.00  0.00    -0.003 C 
ATOM      8  C   UNL     1      21.419  30.346  57.680  1.00  0.00     0.004 C 
ENDBRANCH   6   7
ENDBRANCH   1   6
TORSDOF 4
ENDMDL
MODEL 9
REMARK VINA RESULT:    -2.486     12.926     13.991
REMARK INTER + INTRA:          -3.162
REMARK INTER:                  -3.044
REMARK INTRA:                  -0.119
REMARK UNBOUND:                -0.095
REMARK SMILES CCCCCC(=O)[O-]
REMARK SMILES IDX 4 1 5 2 6 3 7 4 8 5 3 6 2 7 1 8
REMARK H PARENT
REMARK Flexibility Score: inf
ROOT
ATOM      1  C   UNL     1      17.746  17.125  51.599  1.00  0.00     0.006 C 
ENDROOT
BRANCH   1   2
ATOM      2  C   UNL     1      16.280  17.357  52.002  1.00  0.00     0.053 C 
BRANCH   2   3
ATOM      3  C   UNL     1      16.165  18.092  53.302  1.00  0.00     0.041 C 
ATOM      4  O   UNL     1      16.990  17.877  54.227  1.00  0.00    -0.550 OA
ATOM      5  O   UNL     1      15.125  18.992  53.502  1.00  0.00    -0.550 OA
ENDBRANCH   2   3
ENDBRANCH   1   2
BRANCH   1   6
ATOM      6  C   UNL     1      18.174  17.863  50.318  1.00  0.00     0.000 C 
BRANCH   6   7
ATOM      7  C   UNL     1      16.982  18.250  49.429  1.00  0.00    -0.003 C 
ATOM      8  C   UNL     1      17.373  18.246  47.953  1.00  0.00     0.004 C 
ENDBRANCH   6   7
ENDBRANCH   1   6
TORSDOF 4
ENDMDL
