MODEL 1
REMARK VINA RESULT:    -5.185      0.000      0.000
REMARK INTER + INTRA:         -10.957
REMARK INTER:                 -10.035
REMARK INTRA:                  -0.922
REMARK UNBOUND:                -0.922
REMARK SMILES CCCCCCCCCCCCCCCCCC(=O)[O-]
REMARK SMILES IDX 10 1 11 2 12 3 13 4 14 5 15 6 16 7 17 8 18 9 19 10 20 11
REMARK SMILES IDX 9 12 8 13 7 14 6 15 5 16 4 17 3 18 2 19 1 20
REMARK H PARENT
REMARK Flexibility Score: inf
ROOT
ATOM      1  C   UNL     1     -15.078   0.097  -8.875  1.00  0.00     0.000 C 
ENDROOT
BRANCH   1   2
ATOM      2  C   UNL     1     -15.124  -0.828 -10.108  1.00  0.00     0.000 C 
BRANCH   2   3
ATOM      3  C   UNL     1     -15.124  -2.338  -9.798  1.00  0.00     0.000 C 
BRANCH   3   4
ATOM      4  C   UNL     1     -14.268  -3.202 -10.744  1.00  0.00     0.000 C 
BRANCH   4   5
ATOM      5  C   UNL     1     -12.875  -2.605 -11.002  1.00  0.00     0.000 C 
BRANCH   5   6
ATOM      6  C   UNL     1     -11.821  -3.082  -9.985  1.00  0.00     0.000 C 
BRANCH   6   7
ATOM      7  C   UNL     1     -10.584  -2.176  -9.848  1.00  0.00     0.006 C 
BRANCH   7   8
ATOM      8  C   UNL     1      -9.844  -2.368  -8.518  1.00  0.00     0.053 C 
BRANCH   8   9
ATOM      9  C   UNL     1      -9.292  -3.755  -8.423  1.00  0.00     0.041 C 
ATOM     10  O   UNL     1      -9.424  -4.418  -7.361  1.00  0.00    -0.550 OA
ATOM     11  O   UNL     1      -8.677  -4.336  -9.525  1.00  0.00    -0.550 OA
ENDBRANCH   8   9
ENDBRANCH   7   8
ENDBRANCH   6   7
ENDBRANCH   5   6
ENDBRANCH   4   5
ENDBRANCH   3   4
ENDBRANCH   2   3
ENDBRANCH   1   2
BRANCH   1  12
ATOM     12  C   UNL     1     -14.950   1.598  -9.190  1.00  0.00     0.000 C 
BRANCH  12  13
ATOM     13  C   UNL     1     -13.882   1.893 -10.259  1.00  0.00    -0.000 C 
BRANCH  13  14
ATOM     14  C   UNL     1     -12.779   0.821 -10.300  1.00  0.00    -0.000 C 
BRANCH  14  15
ATOM     15  C   UNL     1     -11.387   1.396  -9.985  1.00  0.00    -0.000 C 
BRANCH  15  16
ATOM     16  C   UNL     1     -11.315   2.036  -8.589  1.00  0.00    -0.000 C 
BRANCH  16  17
ATOM     17  C   UNL     1     -10.849   3.500  -8.631  1.00  0.00    -0.000 C 
BRANCH  17  18
ATOM     18  C   UNL     1     -11.790   4.350  -9.499  1.00  0.00    -0.000 C 
BRANCH  18  19
ATOM     19  C   UNL     1     -12.981   4.909  -8.706  1.00  0.00    -0.003 C 
ATOM     20  C   UNL     1     -12.986   4.457  -7.247  1.00  0.00     0.004 C 
ENDBRANCH  18  19
ENDBRANCH  17  18
ENDBRANCH  16  17
ENDBRANCH  15  16
ENDBRANCH  14  15
ENDBRANCH  13  14
ENDBRANCH  12  13
ENDBRANCH   1  12
TORSDOF 16
ENDMDL
MODEL 2
REMARK VINA RESULT:    -5.058     15.756     18.220
REMARK INTER + INTRA:         -10.711
REMARK INTER:                  -8.852
REMARK INTRA:                  -1.858
REMARK UNBOUND:                -0.922
REMARK SMILES CCCCCCCCCCCCCCCCCC(=O)[O-]
REMARK SMILES IDX 10 1 11 2 12 3 13 4 14 5 15 6 16 7 17 8 18 9 19 10 20 11
REMARK SMILES IDX 9 12 8 13 7 14 6 15 5 16 4 17 3 18 2 19 1 20
REMARK H PARENT
REMARK Flexibility Score: inf
ROOT
ATOM      1  C   UNL     1     -11.245   4.709   8.113  1.00  0.00     0.000 C 
ENDROOT
BRANCH   1   2
ATOM      2  C   UNL     1     -10.120   5.758   8.013  1.00  0.00     0.000 C 
BRANCH   2   3
ATOM      3  C   UNL     1      -9.283   5.702   6.719  1.00  0.00     0.000 C 
BRANCH   3   4
ATOM      4  C   UNL     1      -9.398   6.940   5.810  1.00  0.00     0.000 C 
BRANCH   4   5
ATOM      5  C   UNL     1      -8.346   8.016   6.128  1.00  0.00     0.000 C 
BRANCH   5   6
ATOM      6  C   UNL     1      -8.217   9.075   5.017  1.00  0.00     0.000 C 
BRANCH   6   7
ATOM      7  C   UNL     1      -7.959  10.511   5.508  1.00  0.00     0.006 C 
BRANCH   7   8
ATOM      8  C   UNL     1      -6.495  10.943   5.358  1.00  0.00     0.053 C 
BRANCH   8   9
ATOM      9  C   UNL     1      -5.764  10.766   6.651  1.00  0.00     0.041 C 
ATOM     10  O   UNL     1      -4.517  10.590   6.657  1.00  0.00    -0.550 OA
ATOM     11  O   UNL     1      -6.452  10.848   7.856  1.00  0.00    -0.550 OA
ENDBRANCH   8   9
ENDBRANCH   7   8
ENDBRANCH   6   7
ENDBRANCH   5   6
ENDBRANCH   4   5
ENDBRANCH   3   4
ENDBRANCH   2   3
ENDBRANCH   1   2
BRANCH   1  12
ATOM     12  C   UNL     1     -11.783   4.199   6.764  1.00  0.00     0.000 C 
BRANCH  12  13
ATOM     13  C   UNL     1     -12.927   5.068   6.212  1.00  0.00    -0.000 C 
BRANCH  13  14
ATOM     14  C   UNL     1     -12.668   5.539   4.771  1.00  0.00    -0.000 C 
BRANCH  14  15
ATOM     15  C   UNL     1     -13.967   5.717   3.966  1.00  0.00    -0.000 C 
BRANCH  15  16
ATOM     16  C   UNL     1     -14.774   6.947   4.413  1.00  0.00    -0.000 C 
BRANCH  16  17
ATOM     17  C   UNL     1     -14.055   8.271   4.109  1.00  0.00    -0.000 C 
BRANCH  17  18
ATOM     18  C   UNL     1     -13.904   9.117   5.383  1.00  0.00    -0.000 C 
BRANCH  18  19
ATOM     19  C   UNL     1     -12.517   8.970   6.028  1.00  0.00    -0.003 C 
ATOM     20  C   UNL     1     -11.684  10.248   5.939  1.00  0.00     0.004 C 
ENDBRANCH  18  19
ENDBRANCH  17  18
ENDBRANCH  16  17
ENDBRANCH  15  16
ENDBRANCH  14  15
ENDBRANCH  13  14
ENDBRANCH  12  13
ENDBRANCH   1  12
TORSDOF 16
ENDMDL
MODEL 3
REMARK VINA RESULT:    -4.960      3.240      6.414
REMARK INTER + INTRA:         -10.522
REMARK INTER:                  -9.409
REMARK INTRA:                  -1.113
REMARK UNBOUND:                -0.922
REMARK SMILES CCCCCCCCCCCCCCCCCC(=O)[O-]
REMARK SMILES IDX 10 1 11 2 12 3 13 4 14 5 15 6 16 7 17 8 18 9 19 10 20 11
REMARK SMILES IDX 9 12 8 13 7 14 6 15 5 16 4 17 3 18 2 19 1 20
REMARK H PARENT
REMARK Flexibility Score: inf
ROOT
ATOM      1  C   UNL     1     -15.125  -0.464  -9.223  1.00  0.00     0.000 C 
ENDROOT
BRANCH   1   2
ATOM      2  C   UNL     1     -14.992   1.066  -9.085  1.00  0.00     0.000 C 
BRANCH   2   3
ATOM      3  C   UNL     1     -14.366   1.783 -10.298  1.00  0.00     0.000 C 
BRANCH   3   4
ATOM      4  C   UNL     1     -12.825   1.802 -10.325  1.00  0.00     0.000 C 
BRANCH   4   5
ATOM      5  C   UNL     1     -12.202   1.688  -8.924  1.00  0.00     0.000 C 
BRANCH   5   6
ATOM      6  C   UNL     1     -10.778   2.271  -8.853  1.00  0.00     0.000 C 
BRANCH   6   7
ATOM      7  C   UNL     1     -10.689   3.727  -8.361  1.00  0.00     0.006 C 
BRANCH   7   8
ATOM      8  C   UNL     1     -11.948   4.545  -8.678  1.00  0.00     0.053 C 
BRANCH   8   9
ATOM      9  C   UNL     1     -12.908   4.490  -7.533  1.00  0.00     0.041 C 
ATOM     10  O   UNL     1     -14.129   4.265  -7.739  1.00  0.00    -0.550 OA
ATOM     11  O   UNL     1     -12.446   4.636  -6.230  1.00  0.00    -0.550 OA
ENDBRANCH   8   9
ENDBRANCH   7   8
ENDBRANCH   6   7
ENDBRANCH   5   6
ENDBRANCH   4   5
ENDBRANCH   3   4
ENDBRANCH   2   3
ENDBRANCH   1   2
BRANCH   1  12
ATOM     12  C   UNL     1     -14.696  -1.035 -10.587  1.00  0.00     0.000 C 
BRANCH  12  13
ATOM     13  C   UNL     1     -14.208  -2.492 -10.495  1.00  0.00    -0.000 C 
BRANCH  13  14
ATOM     14  C   UNL     1     -12.682  -2.613 -10.656  1.00  0.00    -0.000 C 
BRANCH  14  15
ATOM     15  C   UNL     1     -11.990  -1.244 -10.769  1.00  0.00    -0.000 C 
BRANCH  15  16
ATOM     16  C   UNL     1     -10.512  -1.293 -10.350  1.00  0.00    -0.000 C 
BRANCH  16  17
ATOM     17  C   UNL     1     -10.265  -2.224  -9.152  1.00  0.00    -0.000 C 
BRANCH  17  18
ATOM     18  C   UNL     1      -9.245  -3.316  -9.508  1.00  0.00    -0.000 C 
BRANCH  18  19
ATOM     19  C   UNL     1      -9.052  -4.336  -8.375  1.00  0.00    -0.003 C 
ATOM     20  C   UNL     1      -9.883  -4.008  -7.135  1.00  0.00     0.004 C 
ENDBRANCH  18  19
ENDBRANCH  17  18
ENDBRANCH  16  17
ENDBRANCH  15  16
ENDBRANCH  14  15
ENDBRANCH  13  14
ENDBRANCH  12  13
ENDBRANCH   1  12
TORSDOF 16
ENDMDL
MODEL 4
REMARK VINA RESULT:    -4.850     15.118     17.827
REMARK INTER + INTRA:         -10.308
REMARK INTER:                  -8.933
REMARK INTRA:                  -1.375
REMARK UNBOUND:                -0.922
REMARK SMILES CCCCCCCCCCCCCCCCCC(=O)[O-]
REMARK SMILES IDX 10 1 11 2 12 3 13 4 14 5 15 6 16 7 17 8 18 9 19 10 20 11
REMARK SMILES IDX 9 12 8 13 7 14 6 15 5 16 4 17 3 18 2 19 1 20
REMARK H PARENT
REMARK Flexibility Score: inf
ROOT
ATOM      1  C   UNL     1     -10.621   4.349   8.231  1.00  0.00     0.000 C 
ENDROOT
BRANCH   1   2
ATOM      2  C   UNL     1     -11.458   3.931   7.005  1.00  0.00     0.000 C 
BRANCH   2   3
ATOM      3  C   UNL     1     -12.872   4.540   6.935  1.00  0.00     0.000 C 
BRANCH   3   4
ATOM      4  C   UNL     1     -13.004   5.790   6.044  1.00  0.00     0.000 C 
BRANCH   4   5
ATOM      5  C   UNL     1     -12.496   5.560   4.611  1.00  0.00     0.000 C 
BRANCH   5   6
ATOM      6  C   UNL     1     -13.617   5.632   3.559  1.00  0.00     0.000 C 
BRANCH   6   7
ATOM      7  C   UNL     1     -14.528   6.869   3.655  1.00  0.00     0.006 C 
BRANCH   7   8
ATOM      8  C   UNL     1     -13.880   8.138   3.084  1.00  0.00     0.053 C 
BRANCH   8   9
ATOM      9  C   UNL     1     -14.004   9.269   4.055  1.00  0.00     0.041 C 
ATOM     10  O   UNL     1     -13.673  10.435   3.715  1.00  0.00    -0.550 OA
ATOM     11  O   UNL     1     -14.535   9.046   5.320  1.00  0.00    -0.550 OA
ENDBRANCH   8   9
ENDBRANCH   7   8
ENDBRANCH   6   7
ENDBRANCH   5   6
ENDBRANCH   4   5
ENDBRANCH   3   4
ENDBRANCH   2   3
ENDBRANCH   1   2
BRANCH   1  12
ATOM     12  C   UNL     1      -9.884   5.693   8.088  1.00  0.00     0.000 C 
BRANCH  12  13
ATOM     13  C   UNL     1      -9.260   5.885   6.695  1.00  0.00    -0.000 C 
BRANCH  13  14
ATOM     14  C   UNL     1      -9.566   7.268   6.096  1.00  0.00    -0.000 C 
BRANCH  14  15
ATOM     15  C   UNL     1      -8.369   7.858   5.331  1.00  0.00    -0.000 C 
BRANCH  15  16
ATOM     16  C   UNL     1      -8.358   9.395   5.346  1.00  0.00    -0.000 C 
BRANCH  16  17
ATOM     17  C   UNL     1      -7.346   9.973   6.349  1.00  0.00    -0.000 C 
BRANCH  17  18
ATOM     18  C   UNL     1      -6.131  10.568   5.621  1.00  0.00    -0.000 C 
BRANCH  18  19
ATOM     19  C   UNL     1      -4.917  10.745   6.546  1.00  0.00    -0.003 C 
ATOM     20  C   UNL     1      -3.707  11.340   5.827  1.00  0.00     0.004 C 
ENDBRANCH  18  19
ENDBRANCH  17  18
ENDBRANCH  16  17
ENDBRANCH  15  16
ENDBRANCH  14  15
ENDBRANCH  13  14
ENDBRANCH  12  13
ENDBRANCH   1  12
TORSDOF 16
ENDMDL
MODEL 5
REMARK VINA RESULT:    -4.840     15.661     17.936
REMARK INTER + INTRA:         -10.290
REMARK INTER:                  -8.315
REMARK INTRA:                  -1.975
REMARK UNBOUND:                -0.922
REMARK SMILES CCCCCCCCCCCCCCCCCC(=O)[O-]
REMARK SMILES IDX 10 1 11 2 12 3 13 4 14 5 15 6 16 7 17 8 18 9 19 10 20 11
REMARK SMILES IDX 9 12 8 13 7 14 6 15 5 16 4 17 3 18 2 19 1 20
REMARK H PARENT
REMARK Flexibility Score: inf
ROOT
ATOM      1  C   UNL     1     -12.020   4.006   6.859  1.00  0.00     0.000 C 
ENDROOT
BRANCH   1   2
ATOM      2  C   UNL     1     -11.620   4.282   8.322  1.00  0.00     0.000 C 
BRANCH   2   3
ATOM      3  C   UNL     1     -10.178   4.788   8.526  1.00  0.00     0.000 C 
BRANCH   3   4
ATOM      4  C   UNL     1      -9.839   6.108   7.808  1.00  0.00     0.000 C 
BRANCH   4   5
ATOM      5  C   UNL     1      -9.083   5.892   6.486  1.00  0.00     0.000 C 
BRANCH   5   6
ATOM      6  C   UNL     1      -9.102   7.134   5.576  1.00  0.00     0.000 C 
BRANCH   6   7
ATOM      7  C   UNL     1      -8.346   8.359   6.122  1.00  0.00     0.006 C 
BRANCH   7   8
ATOM      8  C   UNL     1      -8.042   9.407   5.044  1.00  0.00     0.053 C 
BRANCH   8   9
ATOM      9  C   UNL     1      -7.304  10.566   5.635  1.00  0.00     0.041 C 
ATOM     10  O   UNL     1      -7.601  10.986   6.784  1.00  0.00    -0.550 OA
ATOM     11  O   UNL     1      -6.254  11.151   4.938  1.00  0.00    -0.550 OA
ENDBRANCH   8   9
ENDBRANCH   7   8
ENDBRANCH   6   7
ENDBRANCH   5   6
ENDBRANCH   4   5
ENDBRANCH   3   4
ENDBRANCH   2   3
ENDBRANCH   1   2
BRANCH   1  12
ATOM     12  C   UNL     1     -12.981   5.038   6.240  1.00  0.00     0.000 C 
BRANCH  12  13
ATOM     13  C   UNL     1     -12.461   5.612   4.911  1.00  0.00    -0.000 C 
BRANCH  13  14
ATOM     14  C   UNL     1     -13.599   5.988   3.946  1.00  0.00    -0.000 C 
BRANCH  14  15
ATOM     15  C   UNL     1     -14.523   7.076   4.519  1.00  0.00    -0.000 C 
BRANCH  15  16
ATOM     16  C   UNL     1     -13.994   8.496   4.262  1.00  0.00    -0.000 C 
BRANCH  16  17
ATOM     17  C   UNL     1     -13.786   9.296   5.557  1.00  0.00    -0.000 C 
BRANCH  17  18
ATOM     18  C   UNL     1     -12.299   9.339   5.941  1.00  0.00    -0.000 C 
BRANCH  18  19
ATOM     19  C   UNL     1     -11.575  10.566   5.365  1.00  0.00    -0.003 C 
ATOM     20  C   UNL     1     -11.092  11.531   6.447  1.00  0.00     0.004 C 
ENDBRANCH  18  19
ENDBRANCH  17  18
ENDBRANCH  16  17
ENDBRANCH  15  16
ENDBRANCH  14  15
ENDBRANCH  13  14
ENDBRANCH  12  13
ENDBRANCH   1  12
TORSDOF 16
ENDMDL
MODEL 6
REMARK VINA RESULT:    -4.813     16.460     18.120
REMARK INTER + INTRA:         -10.238
REMARK INTER:                  -8.311
REMARK INTRA:                  -1.927
REMARK UNBOUND:                -0.922
REMARK SMILES CCCCCCCCCCCCCCCCCC(=O)[O-]
REMARK SMILES IDX 10 1 11 2 12 3 13 4 14 5 15 6 16 7 17 8 18 9 19 10 20 11
REMARK SMILES IDX 9 12 8 13 7 14 6 15 5 16 4 17 3 18 2 19 1 20
REMARK H PARENT
REMARK Flexibility Score: inf
ROOT
ATOM      1  C   UNL     1     -11.731   3.942   6.662  1.00  0.00     0.000 C 
ENDROOT
BRANCH   1   2
ATOM      2  C   UNL     1     -10.659   4.271   7.721  1.00  0.00     0.000 C 
BRANCH   2   3
ATOM      3  C   UNL     1     -10.034   5.676   7.609  1.00  0.00     0.000 C 
BRANCH   3   4
ATOM      4  C   UNL     1      -8.962   5.831   6.514  1.00  0.00     0.000 C 
BRANCH   4   5
ATOM      5  C   UNL     1      -9.187   7.068   5.627  1.00  0.00     0.000 C 
BRANCH   5   6
ATOM      6  C   UNL     1      -8.421   8.308   6.124  1.00  0.00     0.000 C 
BRANCH   6   7
ATOM      7  C   UNL     1      -7.859   9.218   5.016  1.00  0.00     0.006 C 
BRANCH   7   8
ATOM      8  C   UNL     1      -7.513  10.627   5.516  1.00  0.00     0.053 C 
BRANCH   8   9
ATOM      9  C   UNL     1      -6.481  10.559   6.596  1.00  0.00     0.041 C 
ATOM     10  O   UNL     1      -5.291  10.256   6.318  1.00  0.00    -0.550 OA
ATOM     11  O   UNL     1      -6.822  10.879   7.905  1.00  0.00    -0.550 OA
ENDBRANCH   8   9
ENDBRANCH   7   8
ENDBRANCH   6   7
ENDBRANCH   5   6
ENDBRANCH   4   5
ENDBRANCH   3   4
ENDBRANCH   2   3
ENDBRANCH   1   2
BRANCH   1  12
ATOM     12  C   UNL     1     -12.841   4.997   6.510  1.00  0.00     0.000 C 
BRANCH  12  13
ATOM     13  C   UNL     1     -12.716   5.810   5.209  1.00  0.00    -0.000 C 
BRANCH  13  14
ATOM     14  C   UNL     1     -13.281   7.234   5.346  1.00  0.00    -0.000 C 
BRANCH  14  15
ATOM     15  C   UNL     1     -12.308   8.188   6.060  1.00  0.00    -0.000 C 
BRANCH  15  16
ATOM     16  C   UNL     1     -12.648   9.668   5.820  1.00  0.00    -0.000 C 
BRANCH  16  17
ATOM     17  C   UNL     1     -11.413  10.580   5.883  1.00  0.00    -0.000 C 
BRANCH  17  18
ATOM     18  C   UNL     1     -11.309  11.450   4.621  1.00  0.00    -0.000 C 
BRANCH  18  19
ATOM     19  C   UNL     1     -12.581  11.398   3.761  1.00  0.00    -0.003 C 
ATOM     20  C   UNL     1     -12.284  11.397   2.262  1.00  0.00     0.004 C 
ENDBRANCH  18  19
ENDBRANCH  17  18
ENDBRANCH  16  17
ENDBRANCH  15  16
ENDBRANCH  14  15
ENDBRANCH  13  14
ENDBRANCH  12  13
ENDBRANCH   1  12
TORSDOF 16
ENDMDL
MODEL 7
REMARK VINA RESULT:    -4.813     15.107     18.114
REMARK INTER + INTRA:         -10.236
REMARK INTER:                  -9.168
REMARK INTRA:                  -1.068
REMARK UNBOUND:                -0.922
REMARK SMILES CCCCCCCCCCCCCCCCCC(=O)[O-]
REMARK SMILES IDX 10 1 11 2 12 3 13 4 14 5 15 6 16 7 17 8 18 9 19 10 20 11
REMARK SMILES IDX 9 12 8 13 7 14 6 15 5 16 4 17 3 18 2 19 1 20
REMARK H PARENT
REMARK Flexibility Score: inf
ROOT
ATOM      1  C   UNL     1      -9.284   5.821   6.721  1.00  0.00     0.000 C 
ENDROOT
BRANCH   1   2
ATOM      2  C   UNL     1      -9.720   5.729   8.197  1.00  0.00     0.000 C 
BRANCH   2   3
ATOM      3  C   UNL     1     -10.756   4.631   8.510  1.00  0.00     0.000 C 
BRANCH   3   4
ATOM      4  C   UNL     1     -11.362   3.932   7.278  1.00  0.00     0.000 C 
BRANCH   4   5
ATOM      5  C   UNL     1     -12.796   4.398   6.972  1.00  0.00     0.000 C 
BRANCH   5   6
ATOM      6  C   UNL     1     -12.841   5.679   6.120  1.00  0.00     0.000 C 
BRANCH   6   7
ATOM      7  C   UNL     1     -14.059   5.804   5.187  1.00  0.00     0.006 C 
BRANCH   7   8
ATOM      8  C   UNL     1     -13.690   5.689   3.702  1.00  0.00     0.053 C 
BRANCH   8   9
ATOM      9  C   UNL     1     -13.921   6.992   3.005  1.00  0.00     0.041 C 
ATOM     10  O   UNL     1     -14.076   7.023   1.755  1.00  0.00    -0.550 OA
ATOM     11  O   UNL     1     -14.015   8.167   3.739  1.00  0.00    -0.550 OA
ENDBRANCH   8   9
ENDBRANCH   7   8
ENDBRANCH   6   7
ENDBRANCH   5   6
ENDBRANCH   4   5
ENDBRANCH   3   4
ENDBRANCH   2   3
ENDBRANCH   1   2
BRANCH   1  12
ATOM     12  C   UNL     1      -9.610   7.157   6.028  1.00  0.00     0.000 C 
BRANCH  12  13
ATOM     13  C   UNL     1      -8.364   8.032   5.807  1.00  0.00    -0.000 C 
BRANCH  13  14
ATOM     14  C   UNL     1      -8.692   9.356   5.093  1.00  0.00    -0.000 C 
BRANCH  14  15
ATOM     15  C   UNL     1      -7.726  10.489   5.481  1.00  0.00    -0.000 C 
BRANCH  15  16
ATOM     16  C   UNL     1      -6.574  10.003   6.374  1.00  0.00    -0.000 C 
BRANCH  16  17
ATOM     17  C   UNL     1      -6.166  11.040   7.433  1.00  0.00    -0.000 C 
BRANCH  17  18
ATOM     18  C   UNL     1      -4.905  11.801   6.998  1.00  0.00    -0.000 C 
BRANCH  18  19
ATOM     19  C   UNL     1      -3.955  10.938   6.154  1.00  0.00    -0.003 C 
ATOM     20  C   UNL     1      -2.916  11.765   5.399  1.00  0.00     0.004 C 
ENDBRANCH  18  19
ENDBRANCH  17  18
ENDBRANCH  16  17
ENDBRANCH  15  16
ENDBRANCH  14  15
ENDBRANCH  13  14
ENDBRANCH  12  13
ENDBRANCH   1  12
TORSDOF 16
ENDMDL
MODEL 8
REMARK VINA RESULT:    -4.796     15.649     17.743
REMARK INTER + INTRA:         -10.203
REMARK INTER:                  -8.575
REMARK INTRA:                  -1.628
REMARK UNBOUND:                -0.922
REMARK SMILES CCCCCCCCCCCCCCCCCC(=O)[O-]
REMARK SMILES IDX 10 1 11 2 12 3 13 4 14 5 15 6 16 7 17 8 18 9 19 10 20 11
REMARK SMILES IDX 9 12 8 13 7 14 6 15 5 16 4 17 3 18 2 19 1 20
REMARK H PARENT
REMARK Flexibility Score: inf
ROOT
ATOM      1  C   UNL     1     -11.812   3.974   6.638  1.00  0.00     0.000 C 
ENDROOT
BRANCH   1   2
ATOM      2  C   UNL     1     -12.849   5.082   6.367  1.00  0.00     0.000 C 
BRANCH   2   3
ATOM      3  C   UNL     1     -12.886   5.608   4.918  1.00  0.00     0.000 C 
BRANCH   3   4
ATOM      4  C   UNL     1     -13.435   7.038   4.754  1.00  0.00     0.000 C 
BRANCH   4   5
ATOM      5  C   UNL     1     -12.819   8.033   5.751  1.00  0.00     0.000 C 
BRANCH   5   6
ATOM      6  C   UNL     1     -12.986   9.500   5.315  1.00  0.00     0.000 C 
BRANCH   6   7
ATOM      7  C   UNL     1     -13.940   9.727   4.128  1.00  0.00     0.006 C 
BRANCH   7   8
ATOM      8  C   UNL     1     -13.643  11.020   3.359  1.00  0.00     0.053 C 
BRANCH   8   9
ATOM      9  C   UNL     1     -13.149  10.707   1.983  1.00  0.00     0.041 C 
ATOM     10  O   UNL     1     -12.205  11.372   1.481  1.00  0.00    -0.550 OA
ATOM     11  O   UNL     1     -13.696   9.646   1.271  1.00  0.00    -0.550 OA
ENDBRANCH   8   9
ENDBRANCH   7   8
ENDBRANCH   6   7
ENDBRANCH   5   6
ENDBRANCH   4   5
ENDBRANCH   3   4
ENDBRANCH   2   3
ENDBRANCH   1   2
BRANCH   1  12
ATOM     12  C   UNL     1     -10.861   4.247   7.818  1.00  0.00     0.000 C 
BRANCH  12  13
ATOM     13  C   UNL     1     -10.292   5.677   7.806  1.00  0.00    -0.000 C 
BRANCH  13  14
ATOM     14  C   UNL     1      -9.099   5.829   6.846  1.00  0.00    -0.000 C 
BRANCH  14  15
ATOM     15  C   UNL     1      -9.422   6.732   5.643  1.00  0.00    -0.000 C 
BRANCH  15  16
ATOM     16  C   UNL     1      -9.081   8.208   5.904  1.00  0.00    -0.000 C 
BRANCH  16  17
ATOM     17  C   UNL     1      -7.971   8.733   4.981  1.00  0.00    -0.000 C 
BRANCH  17  18
ATOM     18  C   UNL     1      -7.542  10.150   5.391  1.00  0.00    -0.000 C 
BRANCH  18  19
ATOM     19  C   UNL     1      -6.728  10.166   6.694  1.00  0.00    -0.003 C 
ATOM     20  C   UNL     1      -5.271  10.574   6.478  1.00  0.00     0.004 C 
ENDBRANCH  18  19
ENDBRANCH  17  18
ENDBRANCH  16  17
ENDBRANCH  15  16
ENDBRANCH  14  15
ENDBRANCH  13  14
ENDBRANCH  12  13
ENDBRANCH   1  12
TORSDOF 16
ENDMDL
MODEL 9
REMARK VINA RESULT:    -4.790      0.939      2.310
REMARK INTER + INTRA:         -10.192
REMARK INTER:                  -8.888
REMARK INTRA:                  -1.304
REMARK UNBOUND:                -0.922
REMARK SMILES CCCCCCCCCCCCCCCCCC(=O)[O-]
REMARK SMILES IDX 10 1 11 2 12 3 13 4 14 5 15 6 16 7 17 8 18 9 19 10 20 11
REMARK SMILES IDX 9 12 8 13 7 14 6 15 5 16 4 17 3 18 2 19 1 20
REMARK H PARENT
REMARK Flexibility Score: inf
ROOT
ATOM      1  C   UNL     1     -13.868   0.589 -10.471  1.00  0.00     0.000 C 
ENDROOT
BRANCH   1   2
ATOM      2  C   UNL     1     -14.651  -0.609 -11.044  1.00  0.00     0.000 C 
BRANCH   2   3
ATOM      3  C   UNL     1     -14.980  -1.725 -10.031  1.00  0.00     0.000 C 
BRANCH   3   4
ATOM      4  C   UNL     1     -14.265  -3.066 -10.277  1.00  0.00     0.000 C 
BRANCH   4   5
ATOM      5  C   UNL     1     -12.810  -2.890 -10.746  1.00  0.00     0.000 C 
BRANCH   5   6
ATOM      6  C   UNL     1     -11.783  -3.219  -9.647  1.00  0.00     0.000 C 
BRANCH   6   7
ATOM      7  C   UNL     1     -10.329  -2.827  -9.970  1.00  0.00     0.006 C 
BRANCH   7   8
ATOM      8  C   UNL     1      -9.438  -2.746  -8.724  1.00  0.00     0.053 C 
BRANCH   8   9
ATOM      9  C   UNL     1      -9.406  -4.065  -8.019  1.00  0.00     0.041 C 
ATOM     10  O   UNL     1      -8.762  -5.030  -8.509  1.00  0.00    -0.550 OA
ATOM     11  O   UNL     1     -10.044  -4.215  -6.794  1.00  0.00    -0.550 OA
ENDBRANCH   8   9
ENDBRANCH   7   8
ENDBRANCH   6   7
ENDBRANCH   5   6
ENDBRANCH   4   5
ENDBRANCH   3   4
ENDBRANCH   2   3
ENDBRANCH   1   2
BRANCH   1  12
ATOM     12  C   UNL     1     -14.738   1.754  -9.964  1.00  0.00     0.000 C 
BRANCH  12  13
ATOM     13  C   UNL     1     -15.014   1.676  -8.452  1.00  0.00    -0.000 C 
BRANCH  13  14
ATOM     14  C   UNL     1     -14.643   2.977  -7.718  1.00  0.00    -0.000 C 
BRANCH  14  15
ATOM     15  C   UNL     1     -13.619   3.821  -8.496  1.00  0.00    -0.000 C 
BRANCH  15  16
ATOM     16  C   UNL     1     -12.420   4.240  -7.630  1.00  0.00    -0.000 C 
BRANCH  16  17
ATOM     17  C   UNL     1     -11.070   3.907  -8.285  1.00  0.00    -0.000 C 
BRANCH  17  18
ATOM     18  C   UNL     1     -11.244   2.867  -9.402  1.00  0.00    -0.000 C 
BRANCH  18  19
ATOM     19  C   UNL     1     -11.020   1.429  -8.909  1.00  0.00    -0.003 C 
ATOM     20  C   UNL     1     -10.808   0.437 -10.052  1.00  0.00     0.004 C 
ENDBRANCH  18  19
ENDBRANCH  17  18
ENDBRANCH  16  17
ENDBRANCH  15  16
ENDBRANCH  14  15
ENDBRANCH  13  14
ENDBRANCH  12  13
ENDBRANCH   1  12
TORSDOF 16
ENDMDL
