MODEL 1
REMARK VINA RESULT:    -2.679      0.000      0.000
REMARK INTER + INTRA:          -3.246
REMARK INTER:                  -3.149
REMARK INTRA:                  -0.097
REMARK UNBOUND:                -0.097
REMARK SMILES CCCCC(=O)[O-]
REMARK SMILES IDX 4 1 5 2 6 3 7 4 3 5 2 6 1 7
REMARK H PARENT
REMARK Flexibility Score: inf
ROOT
ATOM      1  C   UNL     1       0.016   1.431   7.981  1.00  0.00     0.053 C 
ENDROOT
BRANCH   1   2
ATOM      2  C   UNL     1      -0.363   1.804   6.583  1.00  0.00     0.041 C 
ATOM      3  O   UNL     1       0.364   1.457   5.615  1.00  0.00    -0.550 OA
ATOM      4  O   UNL     1      -1.494   2.577   6.351  1.00  0.00    -0.550 OA
ENDBRANCH   1   2
BRANCH   1   5
ATOM      5  C   UNL     1       1.112   0.358   7.971  1.00  0.00     0.006 C 
BRANCH   5   6
ATOM      6  C   UNL     1       0.588  -1.025   8.386  1.00  0.00    -0.003 C 
ATOM      7  C   UNL     1      -0.013  -1.804   7.216  1.00  0.00     0.004 C 
ENDBRANCH   5   6
ENDBRANCH   1   5
TORSDOF 3
ENDMDL
MODEL 2
REMARK VINA RESULT:    -2.675      0.130      1.231
REMARK INTER + INTRA:          -3.241
REMARK INTER:                  -3.140
REMARK INTRA:                  -0.101
REMARK UNBOUND:                -0.097
REMARK SMILES CCCCC(=O)[O-]
REMARK SMILES IDX 4 1 5 2 6 3 7 4 3 5 2 6 1 7
REMARK H PARENT
REMARK Flexibility Score: inf
ROOT
ATOM      1  C   UNL     1      -0.193   1.314   7.950  1.00  0.00     0.053 C 
ENDROOT
BRANCH   1   2
ATOM      2  C   UNL     1      -0.437   1.815   6.561  1.00  0.00     0.041 C 
ATOM      3  O   UNL     1      -1.418   2.566   6.322  1.00  0.00    -0.550 OA
ATOM      4  O   UNL     1       0.392   1.412   5.521  1.00  0.00    -0.550 OA
ENDBRANCH   1   2
BRANCH   1   5
ATOM      5  C   UNL     1       1.059   0.428   7.987  1.00  0.00     0.006 C 
BRANCH   5   6
ATOM      6  C   UNL     1       0.742  -1.024   8.378  1.00  0.00    -0.003 C 
ATOM      7  C   UNL     1       0.043  -1.797   7.260  1.00  0.00     0.004 C 
ENDBRANCH   5   6
ENDBRANCH   1   5
TORSDOF 3
ENDMDL
MODEL 3
REMARK VINA RESULT:    -2.674      1.130      1.755
REMARK INTER + INTRA:          -3.240
REMARK INTER:                  -3.219
REMARK INTRA:                  -0.021
REMARK UNBOUND:                -0.097
REMARK SMILES CCCCC(=O)[O-]
REMARK SMILES IDX 4 1 5 2 6 3 7 4 3 5 2 6 1 7
REMARK H PARENT
REMARK Flexibility Score: inf
ROOT
ATOM      1  C   UNL     1      -0.862   0.180   7.169  1.00  0.00     0.053 C 
ENDROOT
BRANCH   1   2
ATOM      2  C   UNL     1      -0.599   1.360   6.287  1.00  0.00     0.041 C 
ATOM      3  O   UNL     1      -1.416   2.318   6.251  1.00  0.00    -0.550 OA
ATOM      4  O   UNL     1       0.523   1.380   5.468  1.00  0.00    -0.550 OA
ENDBRANCH   1   2
BRANCH   1   5
ATOM      5  C   UNL     1       0.265  -0.851   7.033  1.00  0.00     0.006 C 
BRANCH   5   6
ATOM      6  C   UNL     1      -0.036  -2.157   7.783  1.00  0.00    -0.003 C 
ATOM      7  C   UNL     1      -0.630  -3.236   6.877  1.00  0.00     0.004 C 
ENDBRANCH   5   6
ENDBRANCH   1   5
TORSDOF 3
ENDMDL
MODEL 4
REMARK VINA RESULT:    -2.589     13.334     14.187
REMARK INTER + INTRA:          -3.139
REMARK INTER:                  -3.119
REMARK INTRA:                  -0.020
REMARK UNBOUND:                -0.097
REMARK SMILES CCCCC(=O)[O-]
REMARK SMILES IDX 4 1 5 2 6 3 7 4 3 5 2 6 1 7
REMARK H PARENT
REMARK Flexibility Score: inf
ROOT
ATOM      1  C   UNL     1      -6.189  -3.272  -4.201  1.00  0.00     0.053 C 
ENDROOT
BRANCH   1   2
ATOM      2  C   UNL     1      -5.876  -4.157  -5.367  1.00  0.00     0.041 C 
ATOM      3  O   UNL     1      -4.685  -4.314  -5.741  1.00  0.00    -0.550 OA
ATOM      4  O   UNL     1      -6.906  -4.769  -6.071  1.00  0.00    -0.550 OA
ENDBRANCH   1   2
BRANCH   1   5
ATOM      5  C   UNL     1      -5.648  -1.858  -4.442  1.00  0.00     0.006 C 
BRANCH   5   6
ATOM      6  C   UNL     1      -6.719  -0.775  -4.241  1.00  0.00    -0.003 C 
ATOM      7  C   UNL     1      -6.689  -0.168  -2.839  1.00  0.00     0.004 C 
ENDBRANCH   5   6
ENDBRANCH   1   5
TORSDOF 3
ENDMDL
MODEL 5
REMARK VINA RESULT:    -2.446      2.053      3.360
REMARK INTER + INTRA:          -2.971
REMARK INTER:                  -2.862
REMARK INTRA:                  -0.110
REMARK UNBOUND:                -0.097
REMARK SMILES CCCCC(=O)[O-]
REMARK SMILES IDX 4 1 5 2 6 3 7 4 3 5 2 6 1 7
REMARK H PARENT
REMARK Flexibility Score: inf
ROOT
ATOM      1  C   UNL     1      -0.256   2.348   7.572  1.00  0.00     0.053 C 
ENDROOT
BRANCH   1   2
ATOM      2  C   UNL     1       0.452   1.345   6.717  1.00  0.00     0.041 C 
ATOM      3  O   UNL     1       0.414   1.443   5.462  1.00  0.00    -0.550 OA
ATOM      4  O   UNL     1       1.112   0.272   7.304  1.00  0.00    -0.550 OA
ENDBRANCH   1   2
BRANCH   1   5
ATOM      5  C   UNL     1      -1.581   1.773   8.086  1.00  0.00     0.006 C 
BRANCH   5   6
ATOM      6  C   UNL     1      -2.700   1.841   7.036  1.00  0.00    -0.003 C 
ATOM      7  C   UNL     1      -2.829   3.225   6.400  1.00  0.00     0.004 C 
ENDBRANCH   5   6
ENDBRANCH   1   5
TORSDOF 3
ENDMDL
MODEL 6
REMARK VINA RESULT:    -2.437      1.590      2.000
REMARK INTER + INTRA:          -2.961
REMARK INTER:                  -2.858
REMARK INTRA:                  -0.102
REMARK UNBOUND:                -0.097
REMARK SMILES CCCCC(=O)[O-]
REMARK SMILES IDX 4 1 5 2 6 3 7 4 3 5 2 6 1 7
REMARK H PARENT
REMARK Flexibility Score: inf
ROOT
ATOM      1  C   UNL     1      -0.654   2.162   7.131  1.00  0.00     0.053 C 
ENDROOT
BRANCH   1   2
ATOM      2  C   UNL     1      -2.017   2.175   6.513  1.00  0.00     0.041 C 
ATOM      3  O   UNL     1      -2.486   3.241   6.037  1.00  0.00    -0.550 OA
ATOM      4  O   UNL     1      -2.789   1.020   6.508  1.00  0.00    -0.550 OA
ENDBRANCH   1   2
BRANCH   1   5
ATOM      5  C   UNL     1       0.297   1.281   6.311  1.00  0.00     0.006 C 
BRANCH   5   6
ATOM      6  C   UNL     1       0.924   0.155   7.146  1.00  0.00    -0.003 C 
ATOM      7  C   UNL     1       0.072  -1.114   7.161  1.00  0.00     0.004 C 
ENDBRANCH   5   6
ENDBRANCH   1   5
TORSDOF 3
ENDMDL
MODEL 7
REMARK VINA RESULT:    -2.403      1.688      2.868
REMARK INTER + INTRA:          -2.921
REMARK INTER:                  -2.825
REMARK INTRA:                  -0.096
REMARK UNBOUND:                -0.097
REMARK SMILES CCCCC(=O)[O-]
REMARK SMILES IDX 4 1 5 2 6 3 7 4 3 5 2 6 1 7
REMARK H PARENT
REMARK Flexibility Score: inf
ROOT
ATOM      1  C   UNL     1       1.079   0.712   7.645  1.00  0.00     0.053 C 
ENDROOT
BRANCH   1   2
ATOM      2  C   UNL     1       0.169   0.721   6.457  1.00  0.00     0.041 C 
ATOM      3  O   UNL     1       0.480   1.370   5.425  1.00  0.00    -0.550 OA
ATOM      4  O   UNL     1      -1.049   0.053   6.510  1.00  0.00    -0.550 OA
ENDBRANCH   1   2
BRANCH   1   5
ATOM      5  C   UNL     1       0.283   0.963   8.931  1.00  0.00     0.006 C 
BRANCH   5   6
ATOM      6  C   UNL     1      -0.180   2.422   9.063  1.00  0.00    -0.003 C 
ATOM      7  C   UNL     1       0.946   3.363   9.491  1.00  0.00     0.004 C 
ENDBRANCH   5   6
ENDBRANCH   1   5
TORSDOF 3
ENDMDL
MODEL 8
REMARK VINA RESULT:    -2.311      2.556      4.343
REMARK INTER + INTRA:          -2.813
REMARK INTER:                  -2.763
REMARK INTRA:                  -0.050
REMARK UNBOUND:                -0.097
REMARK SMILES CCCCC(=O)[O-]
REMARK SMILES IDX 4 1 5 2 6 3 7 4 3 5 2 6 1 7
REMARK H PARENT
REMARK Flexibility Score: inf
ROOT
ATOM      1  C   UNL     1      -1.780   1.472   6.869  1.00  0.00     0.053 C 
ENDROOT
BRANCH   1   2
ATOM      2  C   UNL     1      -0.328   1.823   6.780  1.00  0.00     0.041 C 
ATOM      3  O   UNL     1       0.230   2.451   7.717  1.00  0.00    -0.550 OA
ATOM      4  O   UNL     1       0.397   1.499   5.640  1.00  0.00    -0.550 OA
ENDBRANCH   1   2
BRANCH   1   5
ATOM      5  C   UNL     1      -2.638   2.581   6.247  1.00  0.00     0.006 C 
BRANCH   5   6
ATOM      6  C   UNL     1      -3.199   3.551   7.297  1.00  0.00    -0.003 C 
ATOM      7  C   UNL     1      -3.871   4.774   6.673  1.00  0.00     0.004 C 
ENDBRANCH   5   6
ENDBRANCH   1   5
TORSDOF 3
ENDMDL
MODEL 9
REMARK VINA RESULT:    -2.272     13.068     13.679
REMARK INTER + INTRA:          -2.767
REMARK INTER:                  -2.678
REMARK INTRA:                  -0.089
REMARK UNBOUND:                -0.097
REMARK SMILES CCCCC(=O)[O-]
REMARK SMILES IDX 4 1 5 2 6 3 7 4 3 5 2 6 1 7
REMARK H PARENT
REMARK Flexibility Score: inf
ROOT
ATOM      1  C   UNL     1      -7.554  -0.661  -4.634  1.00  0.00     0.053 C 
ENDROOT
BRANCH   1   2
ATOM      2  C   UNL     1      -6.603   0.433  -5.004  1.00  0.00     0.041 C 
ATOM      3  O   UNL     1      -6.358   0.678  -6.215  1.00  0.00    -0.550 OA
ATOM      4  O   UNL     1      -5.949   1.151  -4.011  1.00  0.00    -0.550 OA
ENDBRANCH   1   2
BRANCH   1   5
ATOM      5  C   UNL     1      -6.848  -1.715  -3.772  1.00  0.00     0.006 C 
BRANCH   5   6
ATOM      6  C   UNL     1      -5.647  -2.352  -4.487  1.00  0.00    -0.003 C 
ATOM      7  C   UNL     1      -5.928  -3.780  -4.954  1.00  0.00     0.004 C 
ENDBRANCH   5   6
ENDBRANCH   1   5
TORSDOF 3
ENDMDL
