MODEL 1
REMARK VINA RESULT:    -2.730      0.000      0.000
REMARK INTER + INTRA:          -4.145
REMARK INTER:                  -4.007
REMARK INTRA:                  -0.137
REMARK UNBOUND:                -0.137
REMARK SMILES O=C([O-])CCCCCCCC(=O)[O-]
REMARK SMILES IDX 7 1 6 2 5 3 4 4 2 5 1 6 3 7 8 8 9 9 10 10 11 11 12 12 13 13
REMARK H PARENT
REMARK Flexibility Score: inf
ROOT
ATOM      1  C   UNL     1      89.521  18.185 120.240  1.00  0.00     0.000 C 
ENDROOT
BRANCH   1   2
ATOM      2  C   UNL     1      90.811  18.053 121.063  1.00  0.00     0.000 C 
BRANCH   2   3
ATOM      3  C   UNL     1      91.927  17.401 120.233  1.00  0.00     0.006 C 
BRANCH   3   4
ATOM      4  C   UNL     1      93.078  16.888 121.111  1.00  0.00     0.053 C 
BRANCH   4   5
ATOM      5  C   UNL     1      93.900  15.854 120.403  1.00  0.00     0.041 C 
ATOM      6  O   UNL     1      94.200  16.008 119.189  1.00  0.00    -0.550 OA
ATOM      7  O   UNL     1      94.303  14.707 121.073  1.00  0.00    -0.550 OA
ENDBRANCH   4   5
ENDBRANCH   3   4
ENDBRANCH   2   3
ENDBRANCH   1   2
BRANCH   1   8
ATOM      8  C   UNL     1      88.258  18.273 121.115  1.00  0.00     0.000 C 
BRANCH   8   9
ATOM      9  C   UNL     1      86.941  17.901 120.401  1.00  0.00     0.006 C 
BRANCH   9  10
ATOM     10  C   UNL     1      85.673  18.444 121.080  1.00  0.00     0.053 C 
BRANCH  10  11
ATOM     11  C   UNL     1      84.489  17.558 120.843  1.00  0.00     0.041 C 
ATOM     12  O   UNL     1      84.645  16.406 120.361  1.00  0.00    -0.550 OA
ATOM     13  O   UNL     1      83.209  18.019 121.125  1.00  0.00    -0.550 OA
ENDBRANCH  10  11
ENDBRANCH   9  10
ENDBRANCH   8   9
ENDBRANCH   1   8
TORSDOF 8
ENDMDL
MODEL 2
REMARK VINA RESULT:    -2.082      0.719      7.696
REMARK INTER + INTRA:          -3.192
REMARK INTER:                  -2.996
REMARK INTRA:                  -0.196
REMARK UNBOUND:                -0.137
REMARK SMILES O=C([O-])CCCCCCCC(=O)[O-]
REMARK SMILES IDX 7 1 6 2 5 3 4 4 2 5 1 6 3 7 8 8 9 9 10 10 11 11 12 12 13 13
REMARK H PARENT
REMARK Flexibility Score: inf
ROOT
ATOM      1  C   UNL     1      89.459  18.147 120.156  1.00  0.00     0.000 C 
ENDROOT
BRANCH   1   2
ATOM      2  C   UNL     1      88.124  18.802 120.540  1.00  0.00     0.000 C 
BRANCH   2   3
ATOM      3  C   UNL     1      87.077  17.740 120.908  1.00  0.00     0.006 C 
BRANCH   3   4
ATOM      4  C   UNL     1      85.684  18.348 121.124  1.00  0.00     0.053 C 
BRANCH   4   5
ATOM      5  C   UNL     1      84.595  17.410 120.703  1.00  0.00     0.041 C 
ATOM      6  O   UNL     1      84.882  16.318 120.145  1.00  0.00    -0.550 OA
ATOM      7  O   UNL     1      83.264  17.757 120.895  1.00  0.00    -0.550 OA
ENDBRANCH   4   5
ENDBRANCH   3   4
ENDBRANCH   2   3
ENDBRANCH   1   2
BRANCH   1   8
ATOM      8  C   UNL     1      90.610  18.533 121.101  1.00  0.00     0.000 C 
BRANCH   8   9
ATOM      9  C   UNL     1      91.839  17.601 121.050  1.00  0.00     0.006 C 
BRANCH   9  10
ATOM     10  C   UNL     1      92.147  17.025 119.659  1.00  0.00     0.053 C 
BRANCH  10  11
ATOM     11  C   UNL     1      93.454  16.296 119.632  1.00  0.00     0.041 C 
ATOM     12  O   UNL     1      94.097  16.184 118.556  1.00  0.00    -0.550 OA
ATOM     13  O   UNL     1      93.947  15.710 120.792  1.00  0.00    -0.550 OA
ENDBRANCH  10  11
ENDBRANCH   9  10
ENDBRANCH   8   9
ENDBRANCH   1   8
TORSDOF 8
ENDMDL
MODEL 3
REMARK VINA RESULT:     0.014      2.289      3.450
REMARK INTER + INTRA:          -0.117
REMARK INTER:                   0.119
REMARK INTRA:                  -0.236
REMARK UNBOUND:                -0.137
REMARK SMILES O=C([O-])CCCCCCCC(=O)[O-]
REMARK SMILES IDX 7 1 6 2 5 3 4 4 2 5 1 6 3 7 8 8 9 9 10 10 11 11 12 12 13 13
REMARK H PARENT
REMARK Flexibility Score: inf
ROOT
ATOM      1  C   UNL     1      91.814  17.209 119.614  1.00  0.00     0.000 C 
ENDROOT
BRANCH   1   2
ATOM      2  C   UNL     1      92.866  16.103 119.780  1.00  0.00     0.000 C 
BRANCH   2   3
ATOM      3  C   UNL     1      94.207  16.522 119.159  1.00  0.00     0.006 C 
BRANCH   3   4
ATOM      4  C   UNL     1      95.403  16.117 120.032  1.00  0.00     0.053 C 
BRANCH   4   5
ATOM      5  C   UNL     1      96.644  16.871 119.662  1.00  0.00     0.041 C 
ATOM      6  O   UNL     1      97.649  16.845 120.420  1.00  0.00    -0.550 OA
ATOM      7  O   UNL     1      96.677  17.631 118.500  1.00  0.00    -0.550 OA
ENDBRANCH   4   5
ENDBRANCH   3   4
ENDBRANCH   2   3
ENDBRANCH   1   2
BRANCH   1   8
ATOM      8  C   UNL     1      91.611  18.041 120.892  1.00  0.00     0.000 C 
BRANCH   8   9
ATOM      9  C   UNL     1      90.171  18.544 121.123  1.00  0.00     0.006 C 
BRANCH   9  10
ATOM     10  C   UNL     1      89.137  18.000 120.126  1.00  0.00     0.053 C 
BRANCH  10  11
ATOM     11  C   UNL     1      87.760  18.517 120.408  1.00  0.00     0.041 C 
ATOM     12  O   UNL     1      87.605  19.624 120.988  1.00  0.00    -0.550 OA
ATOM     13  O   UNL     1      86.649  17.760 120.060  1.00  0.00    -0.550 OA
ENDBRANCH  10  11
ENDBRANCH   9  10
ENDBRANCH   8   9
ENDBRANCH   1   8
TORSDOF 8
ENDMDL
