MODEL 1
REMARK VINA RESULT:    -0.315      0.000      0.000
REMARK INTER + INTRA:          -2.626
REMARK INTER:                  -0.721
REMARK INTRA:                  -1.906
REMARK UNBOUND:                -1.906
REMARK SMILES CCCCCCCCCCCCCCCCCCCCCCCC(=O)[O-]
REMARK SMILES IDX 13 1 14 2 15 3 16 4 17 5 18 6 19 7 20 8 21 9 22 10 23 11
REMARK SMILES IDX 24 12 25 13 26 14 12 15 11 16 10 17 9 18 8 19 7 20 6 21 5 22
REMARK SMILES IDX 4 23 3 24 2 25 1 26
REMARK H PARENT
REMARK Flexibility Score: inf
ROOT
ATOM      1  C   UNL     1      -8.937   8.877   5.793  1.00  0.00     0.000 C 
ENDROOT
BRANCH   1   2
ATOM      2  C   UNL     1      -9.751   7.575   5.915  1.00  0.00     0.000 C 
BRANCH   2   3
ATOM      3  C   UNL     1      -8.879   6.307   6.044  1.00  0.00     0.000 C 
BRANCH   3   4
ATOM      4  C   UNL     1      -7.476   6.574   6.624  1.00  0.00     0.000 C 
BRANCH   4   5
ATOM      5  C   UNL     1      -7.198   5.900   7.980  1.00  0.00     0.000 C 
BRANCH   5   6
ATOM      6  C   UNL     1      -8.470   5.378   8.665  1.00  0.00     0.000 C 
BRANCH   6   7
ATOM      7  C   UNL     1      -8.815   6.214   9.908  1.00  0.00     0.000 C 
BRANCH   7   8
ATOM      8  C   UNL     1      -9.545   7.517   9.544  1.00  0.00     0.000 C 
BRANCH   8   9
ATOM      9  C   UNL     1      -8.748   8.765   9.954  1.00  0.00     0.000 C 
BRANCH   9  10
ATOM     10  C   UNL     1      -7.706   9.126   8.889  1.00  0.00     0.006 C 
BRANCH  10  11
ATOM     11  C   UNL     1      -6.442   9.705   9.531  1.00  0.00     0.053 C 
BRANCH  11  12
ATOM     12  C   UNL     1      -5.219   9.212   8.826  1.00  0.00     0.041 C 
ATOM     13  O   UNL     1      -5.266   8.936   7.599  1.00  0.00    -0.550 OA
ATOM     14  O   UNL     1      -4.041   9.011   9.534  1.00  0.00    -0.550 OA
ENDBRANCH  11  12
ENDBRANCH  10  11
ENDBRANCH   9  10
ENDBRANCH   8   9
ENDBRANCH   7   8
ENDBRANCH   6   7
ENDBRANCH   5   6
ENDBRANCH   4   5
ENDBRANCH   3   4
ENDBRANCH   2   3
ENDBRANCH   1   2
BRANCH   1  15
ATOM     15  C   UNL     1      -9.723  10.081   5.234  1.00  0.00     0.000 C 
BRANCH  15  16
ATOM     16  C   UNL     1      -9.915  10.042   3.707  1.00  0.00     0.000 C 
BRANCH  16  17
ATOM     17  C   UNL     1      -8.876   9.141   3.003  1.00  0.00     0.000 C 
BRANCH  17  18
ATOM     18  C   UNL     1      -8.033   9.898   1.960  1.00  0.00    -0.000 C 
BRANCH  18  19
ATOM     19  C   UNL     1      -8.521   9.695   0.513  1.00  0.00    -0.000 C 
BRANCH  19  20
ATOM     20  C   UNL     1      -8.780   8.215   0.178  1.00  0.00    -0.000 C 
BRANCH  20  21
ATOM     21  C   UNL     1     -10.069   8.005  -0.630  1.00  0.00    -0.000 C 
BRANCH  21  22
ATOM     22  C   UNL     1      -9.804   7.785  -2.128  1.00  0.00    -0.000 C 
BRANCH  22  23
ATOM     23  C   UNL     1      -9.259   6.379  -2.437  1.00  0.00    -0.000 C 
BRANCH  23  24
ATOM     24  C   UNL     1     -10.113   5.540  -3.413  1.00  0.00    -0.000 C 
BRANCH  24  25
ATOM     25  C   UNL     1      -9.329   4.882  -4.561  1.00  0.00    -0.003 C 
ATOM     26  C   UNL     1      -9.693   5.449  -5.932  1.00  0.00     0.004 C 
ENDBRANCH  24  25
ENDBRANCH  23  24
ENDBRANCH  22  23
ENDBRANCH  21  22
ENDBRANCH  20  21
ENDBRANCH  19  20
ENDBRANCH  18  19
ENDBRANCH  17  18
ENDBRANCH  16  17
ENDBRANCH  15  16
ENDBRANCH   1  15
TORSDOF 22
ENDMDL
MODEL 2
REMARK VINA RESULT:    -0.280      2.279      3.647
REMARK INTER + INTRA:          -2.547
REMARK INTER:                  -1.873
REMARK INTRA:                  -0.674
REMARK UNBOUND:                -1.906
REMARK SMILES CCCCCCCCCCCCCCCCCCCCCCCC(=O)[O-]
REMARK SMILES IDX 13 1 14 2 15 3 16 4 17 5 18 6 19 7 20 8 21 9 22 10 23 11
REMARK SMILES IDX 24 12 25 13 26 14 12 15 11 16 10 17 9 18 8 19 7 20 6 21 5 22
REMARK SMILES IDX 4 23 3 24 2 25 1 26
REMARK H PARENT
REMARK Flexibility Score: inf
ROOT
ATOM      1  C   UNL     1      -9.951   8.733   5.642  1.00  0.00     0.000 C 
ENDROOT
BRANCH   1   2
ATOM      2  C   UNL     1      -9.576   8.248   7.055  1.00  0.00     0.000 C 
BRANCH   2   3
ATOM      3  C   UNL     1      -8.054   8.121   7.285  1.00  0.00     0.000 C 
BRANCH   3   4
ATOM      4  C   UNL     1      -7.574   8.733   8.616  1.00  0.00     0.000 C 
BRANCH   4   5
ATOM      5  C   UNL     1      -6.713  10.001   8.472  1.00  0.00     0.000 C 
BRANCH   5   6
ATOM      6  C   UNL     1      -5.225   9.696   8.243  1.00  0.00     0.000 C 
BRANCH   6   7
ATOM      7  C   UNL     1      -4.674   8.768   9.338  1.00  0.00     0.000 C 
BRANCH   7   8
ATOM      8  C   UNL     1      -4.532   7.318   8.851  1.00  0.00     0.000 C 
BRANCH   8   9
ATOM      9  C   UNL     1      -5.187   6.313   9.811  1.00  0.00     0.000 C 
BRANCH   9  10
ATOM     10  C   UNL     1      -6.497   5.769   9.228  1.00  0.00     0.006 C 
BRANCH  10  11
ATOM     11  C   UNL     1      -7.055   4.637  10.095  1.00  0.00     0.053 C 
BRANCH  11  12
ATOM     12  C   UNL     1      -8.360   4.152   9.551  1.00  0.00     0.041 C 
ATOM     13  O   UNL     1      -8.883   3.101  10.006  1.00  0.00    -0.550 OA
ATOM     14  O   UNL     1      -8.975   4.832   8.508  1.00  0.00    -0.550 OA
ENDBRANCH  11  12
ENDBRANCH  10  11
ENDBRANCH   9  10
ENDBRANCH   8   9
ENDBRANCH   7   8
ENDBRANCH   6   7
ENDBRANCH   5   6
ENDBRANCH   4   5
ENDBRANCH   3   4
ENDBRANCH   2   3
ENDBRANCH   1   2
BRANCH   1  15
ATOM     15  C   UNL     1     -10.121   7.611   4.596  1.00  0.00     0.000 C 
BRANCH  15  16
ATOM     16  C   UNL     1      -9.386   7.882   3.271  1.00  0.00     0.000 C 
BRANCH  16  17
ATOM     17  C   UNL     1      -7.899   8.246   3.481  1.00  0.00     0.000 C 
BRANCH  17  18
ATOM     18  C   UNL     1      -7.372   9.242   2.432  1.00  0.00    -0.000 C 
BRANCH  18  19
ATOM     19  C   UNL     1      -8.486   9.887   1.585  1.00  0.00    -0.000 C 
BRANCH  19  20
ATOM     20  C   UNL     1      -9.071   8.921   0.540  1.00  0.00    -0.000 C 
BRANCH  20  21
ATOM     21  C   UNL     1     -10.019   9.616  -0.449  1.00  0.00    -0.000 C 
BRANCH  21  22
ATOM     22  C   UNL     1      -9.353   9.917  -1.801  1.00  0.00    -0.000 C 
BRANCH  22  23
ATOM     23  C   UNL     1      -9.688   8.871  -2.878  1.00  0.00    -0.000 C 
BRANCH  23  24
ATOM     24  C   UNL     1     -10.088   7.478  -2.343  1.00  0.00    -0.000 C 
BRANCH  24  25
ATOM     25  C   UNL     1      -9.894   6.321  -3.338  1.00  0.00    -0.003 C 
ATOM     26  C   UNL     1     -10.125   6.738  -4.789  1.00  0.00     0.004 C 
ENDBRANCH  24  25
ENDBRANCH  23  24
ENDBRANCH  22  23
ENDBRANCH  21  22
ENDBRANCH  20  21
ENDBRANCH  19  20
ENDBRANCH  18  19
ENDBRANCH  17  18
ENDBRANCH  16  17
ENDBRANCH  15  16
ENDBRANCH   1  15
TORSDOF 22
ENDMDL
MODEL 3
REMARK VINA RESULT:     0.138      1.733      2.625
REMARK INTER + INTRA:          -1.590
REMARK INTER:                   0.086
REMARK INTRA:                  -1.677
REMARK UNBOUND:                -1.906
REMARK SMILES CCCCCCCCCCCCCCCCCCCCCCCC(=O)[O-]
REMARK SMILES IDX 13 1 14 2 15 3 16 4 17 5 18 6 19 7 20 8 21 9 22 10 23 11
REMARK SMILES IDX 24 12 25 13 26 14 12 15 11 16 10 17 9 18 8 19 7 20 6 21 5 22
REMARK SMILES IDX 4 23 3 24 2 25 1 26
REMARK H PARENT
REMARK Flexibility Score: inf
ROOT
ATOM      1  C   UNL     1      -8.890   8.065   3.623  1.00  0.00     0.000 C 
ENDROOT
BRANCH   1   2
ATOM      2  C   UNL     1      -9.327   6.706   4.201  1.00  0.00     0.000 C 
BRANCH   2   3
ATOM      3  C   UNL     1      -8.916   6.496   5.675  1.00  0.00     0.000 C 
BRANCH   3   4
ATOM      4  C   UNL     1      -9.951   7.023   6.689  1.00  0.00     0.000 C 
BRANCH   4   5
ATOM      5  C   UNL     1      -9.429   7.167   8.130  1.00  0.00     0.000 C 
BRANCH   5   6
ATOM      6  C   UNL     1      -9.253   8.630   8.564  1.00  0.00     0.000 C 
BRANCH   6   7
ATOM      7  C   UNL     1      -8.871   9.520   7.370  1.00  0.00     0.000 C 
BRANCH   7   8
ATOM      8  C   UNL     1      -7.384   9.909   7.390  1.00  0.00     0.000 C 
BRANCH   8   9
ATOM      9  C   UNL     1      -6.716   9.587   8.736  1.00  0.00     0.000 C 
BRANCH   9  10
ATOM     10  C   UNL     1      -5.782   8.378   8.611  1.00  0.00     0.006 C 
BRANCH  10  11
ATOM     11  C   UNL     1      -5.903   7.462   9.832  1.00  0.00     0.053 C 
BRANCH  11  12
ATOM     12  C   UNL     1      -5.657   6.038   9.449  1.00  0.00     0.041 C 
ATOM     13  O   UNL     1      -4.529   5.516   9.647  1.00  0.00    -0.550 OA
ATOM     14  O   UNL     1      -6.658   5.301   8.828  1.00  0.00    -0.550 OA
ENDBRANCH  11  12
ENDBRANCH  10  11
ENDBRANCH   9  10
ENDBRANCH   8   9
ENDBRANCH   7   8
ENDBRANCH   6   7
ENDBRANCH   5   6
ENDBRANCH   4   5
ENDBRANCH   3   4
ENDBRANCH   2   3
ENDBRANCH   1   2
BRANCH   1  15
ATOM     15  C   UNL     1      -8.099   7.982   2.301  1.00  0.00     0.000 C 
BRANCH  15  16
ATOM     16  C   UNL     1      -6.932   8.983   2.212  1.00  0.00     0.000 C 
BRANCH  16  17
ATOM     17  C   UNL     1      -7.168  10.075   1.146  1.00  0.00     0.000 C 
BRANCH  17  18
ATOM     18  C   UNL     1      -8.618  10.103   0.627  1.00  0.00    -0.000 C 
BRANCH  18  19
ATOM     19  C   UNL     1      -8.729   9.876  -0.893  1.00  0.00    -0.000 C 
BRANCH  19  20
ATOM     20  C   UNL     1     -10.046   9.188  -1.294  1.00  0.00    -0.000 C 
BRANCH  20  21
ATOM     21  C   UNL     1      -9.922   7.658  -1.361  1.00  0.00    -0.000 C 
BRANCH  21  22
ATOM     22  C   UNL     1      -9.781   7.135  -2.799  1.00  0.00    -0.000 C 
BRANCH  22  23
ATOM     23  C   UNL     1      -9.796   5.598  -2.878  1.00  0.00    -0.000 C 
BRANCH  23  24
ATOM     24  C   UNL     1     -10.125   5.011  -4.268  1.00  0.00    -0.000 C 
BRANCH  24  25
ATOM     25  C   UNL     1      -8.962   5.036  -5.276  1.00  0.00    -0.003 C 
ATOM     26  C   UNL     1      -9.378   5.554  -6.651  1.00  0.00     0.004 C 
ENDBRANCH  24  25
ENDBRANCH  23  24
ENDBRANCH  22  23
ENDBRANCH  21  22
ENDBRANCH  20  21
ENDBRANCH  19  20
ENDBRANCH  18  19
ENDBRANCH  17  18
ENDBRANCH  16  17
ENDBRANCH  15  16
ENDBRANCH   1  15
TORSDOF 22
ENDMDL
MODEL 4
REMARK VINA RESULT:     0.626      4.370     10.789
REMARK INTER + INTRA:          -0.474
REMARK INTER:                   0.872
REMARK INTRA:                  -1.346
REMARK UNBOUND:                -1.906
REMARK SMILES CCCCCCCCCCCCCCCCCCCCCCCC(=O)[O-]
REMARK SMILES IDX 13 1 14 2 15 3 16 4 17 5 18 6 19 7 20 8 21 9 22 10 23 11
REMARK SMILES IDX 24 12 25 13 26 14 12 15 11 16 10 17 9 18 8 19 7 20 6 21 5 22
REMARK SMILES IDX 4 23 3 24 2 25 1 26
REMARK H PARENT
REMARK Flexibility Score: inf
ROOT
ATOM      1  C   UNL     1      -8.582   7.700   5.081  1.00  0.00     0.000 C 
ENDROOT
BRANCH   1   2
ATOM      2  C   UNL     1      -7.602   8.885   4.994  1.00  0.00     0.000 C 
BRANCH   2   3
ATOM      3  C   UNL     1      -7.714   9.688   3.679  1.00  0.00     0.000 C 
BRANCH   3   4
ATOM      4  C   UNL     1      -8.865   9.224   2.764  1.00  0.00     0.000 C 
BRANCH   4   5
ATOM      5  C   UNL     1      -8.757   9.692   1.301  1.00  0.00     0.000 C 
BRANCH   5   6
ATOM      6  C   UNL     1      -9.632   8.872   0.340  1.00  0.00     0.000 C 
BRANCH   6   7
ATOM      7  C   UNL     1      -9.604   9.463  -1.078  1.00  0.00     0.000 C 
BRANCH   7   8
ATOM      8  C   UNL     1      -9.937   8.413  -2.150  1.00  0.00     0.000 C 
BRANCH   8   9
ATOM      9  C   UNL     1      -9.394   7.021  -1.791  1.00  0.00     0.000 C 
BRANCH   9  10
ATOM     10  C   UNL     1     -10.121   5.927  -2.581  1.00  0.00     0.006 C 
BRANCH  10  11
ATOM     11  C   UNL     1      -9.126   5.049  -3.345  1.00  0.00     0.053 C 
BRANCH  11  12
ATOM     12  C   UNL     1      -9.341   5.172  -4.820  1.00  0.00     0.041 C 
ATOM     13  O   UNL     1      -9.853   6.217  -5.299  1.00  0.00    -0.550 OA
ATOM     14  O   UNL     1      -9.020   4.113  -5.660  1.00  0.00    -0.550 OA
ENDBRANCH  11  12
ENDBRANCH  10  11
ENDBRANCH   9  10
ENDBRANCH   8   9
ENDBRANCH   7   8
ENDBRANCH   6   7
ENDBRANCH   5   6
ENDBRANCH   4   5
ENDBRANCH   3   4
ENDBRANCH   2   3
ENDBRANCH   1   2
BRANCH   1  15
ATOM     15  C   UNL     1      -9.569   7.763   6.265  1.00  0.00     0.000 C 
BRANCH  15  16
ATOM     16  C   UNL     1      -9.273   6.738   7.375  1.00  0.00     0.000 C 
BRANCH  16  17
ATOM     17  C   UNL     1      -9.792   7.195   8.757  1.00  0.00     0.000 C 
BRANCH  17  18
ATOM     18  C   UNL     1      -9.930   8.725   8.870  1.00  0.00    -0.000 C 
BRANCH  18  19
ATOM     19  C   UNL     1      -9.059   9.337   9.983  1.00  0.00    -0.000 C 
BRANCH  19  20
ATOM     20  C   UNL     1      -7.655   9.729   9.490  1.00  0.00    -0.000 C 
BRANCH  20  21
ATOM     21  C   UNL     1      -6.626   8.603   9.668  1.00  0.00    -0.000 C 
BRANCH  21  22
ATOM     22  C   UNL     1      -5.194   9.046   9.329  1.00  0.00    -0.000 C 
BRANCH  22  23
ATOM     23  C   UNL     1      -4.281   7.869   8.943  1.00  0.00    -0.000 C 
BRANCH  23  24
ATOM     24  C   UNL     1      -5.006   6.532   8.675  1.00  0.00    -0.000 C 
BRANCH  24  25
ATOM     25  C   UNL     1      -5.466   5.779   9.935  1.00  0.00    -0.003 C 
ATOM     26  C   UNL     1      -6.684   4.891   9.686  1.00  0.00     0.004 C 
ENDBRANCH  24  25
ENDBRANCH  23  24
ENDBRANCH  22  23
ENDBRANCH  21  22
ENDBRANCH  20  21
ENDBRANCH  19  20
ENDBRANCH  18  19
ENDBRANCH  17  18
ENDBRANCH  16  17
ENDBRANCH  15  16
ENDBRANCH   1  15
TORSDOF 22
ENDMDL
MODEL 5
REMARK VINA RESULT:     0.846      2.388      3.597
REMARK INTER + INTRA:           0.028
REMARK INTER:                   1.198
REMARK INTRA:                  -1.170
REMARK UNBOUND:                -1.906
REMARK SMILES CCCCCCCCCCCCCCCCCCCCCCCC(=O)[O-]
REMARK SMILES IDX 13 1 14 2 15 3 16 4 17 5 18 6 19 7 20 8 21 9 22 10 23 11
REMARK SMILES IDX 24 12 25 13 26 14 12 15 11 16 10 17 9 18 8 19 7 20 6 21 5 22
REMARK SMILES IDX 4 23 3 24 2 25 1 26
REMARK H PARENT
REMARK Flexibility Score: inf
ROOT
ATOM      1  C   UNL     1      -8.096   9.119   5.008  1.00  0.00     0.000 C 
ENDROOT
BRANCH   1   2
ATOM      2  C   UNL     1      -8.854   8.964   6.340  1.00  0.00     0.000 C 
BRANCH   2   3
ATOM      3  C   UNL     1      -8.258   9.799   7.495  1.00  0.00     0.000 C 
BRANCH   3   4
ATOM      4  C   UNL     1      -7.445   8.967   8.507  1.00  0.00     0.000 C 
BRANCH   4   5
ATOM      5  C   UNL     1      -5.961   8.776   8.143  1.00  0.00     0.000 C 
BRANCH   5   6
ATOM      6  C   UNL     1      -5.616   7.327   7.764  1.00  0.00     0.000 C 
BRANCH   6   7
ATOM      7  C   UNL     1      -4.485   6.777   8.647  1.00  0.00     0.000 C 
BRANCH   7   8
ATOM      8  C   UNL     1      -5.008   6.237   9.988  1.00  0.00     0.000 C 
BRANCH   8   9
ATOM      9  C   UNL     1      -5.955   5.041   9.805  1.00  0.00     0.000 C 
BRANCH   9  10
ATOM     10  C   UNL     1      -7.416   5.458  10.015  1.00  0.00     0.006 C 
BRANCH  10  11
ATOM     11  C   UNL     1      -8.150   5.578   8.676  1.00  0.00     0.053 C 
BRANCH  11  12
ATOM     12  C   UNL     1      -9.182   4.504   8.543  1.00  0.00     0.041 C 
ATOM     13  O   UNL     1      -9.210   3.550   9.363  1.00  0.00    -0.550 OA
ATOM     14  O   UNL     1     -10.081   4.531   7.485  1.00  0.00    -0.550 OA
ENDBRANCH  11  12
ENDBRANCH  10  11
ENDBRANCH   9  10
ENDBRANCH   8   9
ENDBRANCH   7   8
ENDBRANCH   6   7
ENDBRANCH   5   6
ENDBRANCH   4   5
ENDBRANCH   3   4
ENDBRANCH   2   3
ENDBRANCH   1   2
BRANCH   1  15
ATOM     15  C   UNL     1      -8.801   8.493   3.787  1.00  0.00     0.000 C 
BRANCH  15  16
ATOM     16  C   UNL     1      -9.198   9.516   2.707  1.00  0.00     0.000 C 
BRANCH  16  17
ATOM     17  C   UNL     1      -9.537   8.849   1.355  1.00  0.00     0.000 C 
BRANCH  17  18
ATOM     18  C   UNL     1      -8.731   9.433   0.180  1.00  0.00    -0.000 C 
BRANCH  18  19
ATOM     19  C   UNL     1      -9.261   9.001  -1.200  1.00  0.00    -0.000 C 
BRANCH  19  20
ATOM     20  C   UNL     1      -8.910   7.541  -1.539  1.00  0.00    -0.000 C 
BRANCH  20  21
ATOM     21  C   UNL     1     -10.110   6.593  -1.399  1.00  0.00    -0.000 C 
BRANCH  21  22
ATOM     22  C   UNL     1     -10.125   5.489  -2.468  1.00  0.00    -0.000 C 
BRANCH  22  23
ATOM     23  C   UNL     1      -8.893   5.535  -3.390  1.00  0.00    -0.000 C 
BRANCH  23  24
ATOM     24  C   UNL     1      -9.066   4.839  -4.757  1.00  0.00    -0.000 C 
BRANCH  24  25
ATOM     25  C   UNL     1     -10.066   5.516  -5.709  1.00  0.00    -0.003 C 
ATOM     26  C   UNL     1      -9.803   5.191  -7.178  1.00  0.00     0.004 C 
ENDBRANCH  24  25
ENDBRANCH  23  24
ENDBRANCH  22  23
ENDBRANCH  21  22
ENDBRANCH  20  21
ENDBRANCH  19  20
ENDBRANCH  18  19
ENDBRANCH  17  18
ENDBRANCH  16  17
ENDBRANCH  15  16
ENDBRANCH   1  15
TORSDOF 22
ENDMDL
MODEL 6
REMARK VINA RESULT:     1.421      4.993      9.474
REMARK INTER + INTRA:           1.343
REMARK INTER:                   3.196
REMARK INTRA:                  -1.852
REMARK UNBOUND:                -1.906
REMARK SMILES CCCCCCCCCCCCCCCCCCCCCCCC(=O)[O-]
REMARK SMILES IDX 13 1 14 2 15 3 16 4 17 5 18 6 19 7 20 8 21 9 22 10 23 11
REMARK SMILES IDX 24 12 25 13 26 14 12 15 11 16 10 17 9 18 8 19 7 20 6 21 5 22
REMARK SMILES IDX 4 23 3 24 2 25 1 26
REMARK H PARENT
REMARK Flexibility Score: inf
ROOT
ATOM      1  C   UNL     1      -9.540   8.545   2.909  1.00  0.00     0.000 C 
ENDROOT
BRANCH   1   2
ATOM      2  C   UNL     1      -8.388   8.795   1.918  1.00  0.00     0.000 C 
BRANCH   2   3
ATOM      3  C   UNL     1      -7.133   9.418   2.568  1.00  0.00     0.000 C 
BRANCH   3   4
ATOM      4  C   UNL     1      -6.084   8.379   3.013  1.00  0.00     0.000 C 
BRANCH   4   5
ATOM      5  C   UNL     1      -5.364   7.653   1.862  1.00  0.00     0.000 C 
BRANCH   5   6
ATOM      6  C   UNL     1      -4.123   6.875   2.324  1.00  0.00     0.000 C 
BRANCH   6   7
ATOM      7  C   UNL     1      -3.490   6.096   1.159  1.00  0.00     0.000 C 
BRANCH   7   8
ATOM      8  C   UNL     1      -2.092   5.562   1.511  1.00  0.00     0.000 C 
BRANCH   8   9
ATOM      9  C   UNL     1      -1.904   4.097   1.089  1.00  0.00     0.000 C 
BRANCH   9  10
ATOM     10  C   UNL     1      -0.559   3.550   1.581  1.00  0.00     0.006 C 
BRANCH  10  11
ATOM     11  C   UNL     1       0.529   4.625   1.511  1.00  0.00     0.053 C 
BRANCH  11  12
ATOM     12  C   UNL     1       1.146   4.838   2.857  1.00  0.00     0.041 C 
ATOM     13  O   UNL     1       1.129   3.916   3.713  1.00  0.00    -0.550 OA
ATOM     14  O   UNL     1       1.697   6.071   3.182  1.00  0.00    -0.550 OA
ENDBRANCH  11  12
ENDBRANCH  10  11
ENDBRANCH   9  10
ENDBRANCH   8   9
ENDBRANCH   7   8
ENDBRANCH   6   7
ENDBRANCH   5   6
ENDBRANCH   4   5
ENDBRANCH   3   4
ENDBRANCH   2   3
ENDBRANCH   1   2
BRANCH   1  15
ATOM     15  C   UNL     1      -9.379   7.283   3.782  1.00  0.00     0.000 C 
BRANCH  15  16
ATOM     16  C   UNL     1      -9.069   7.585   5.260  1.00  0.00     0.000 C 
BRANCH  16  17
ATOM     17  C   UNL     1      -9.231   6.345   6.165  1.00  0.00     0.000 C 
BRANCH  17  18
ATOM     18  C   UNL     1      -9.161   6.684   7.666  1.00  0.00    -0.000 C 
BRANCH  18  19
ATOM     19  C   UNL     1      -8.372   5.650   8.491  1.00  0.00    -0.000 C 
BRANCH  19  20
ATOM     20  C   UNL     1      -7.200   6.279   9.265  1.00  0.00    -0.000 C 
BRANCH  20  21
ATOM     21  C   UNL     1      -5.849   6.086   8.559  1.00  0.00    -0.000 C 
BRANCH  21  22
ATOM     22  C   UNL     1      -4.821   7.165   8.933  1.00  0.00    -0.000 C 
BRANCH  22  23
ATOM     23  C   UNL     1      -5.466   8.401   9.587  1.00  0.00    -0.000 C 
BRANCH  23  24
ATOM     24  C   UNL     1      -5.279   9.727   8.818  1.00  0.00    -0.000 C 
BRANCH  24  25
ATOM     25  C   UNL     1      -6.062   9.828   7.497  1.00  0.00    -0.003 C 
ATOM     26  C   UNL     1      -7.570   9.940   7.706  1.00  0.00     0.004 C 
ENDBRANCH  24  25
ENDBRANCH  23  24
ENDBRANCH  22  23
ENDBRANCH  21  22
ENDBRANCH  20  21
ENDBRANCH  19  20
ENDBRANCH  18  19
ENDBRANCH  17  18
ENDBRANCH  16  17
ENDBRANCH  15  16
ENDBRANCH   1  15
TORSDOF 22
ENDMDL
MODEL 7
REMARK VINA RESULT:     1.445      5.098      9.481
REMARK INTER + INTRA:           1.399
REMARK INTER:                   3.129
REMARK INTRA:                  -1.730
REMARK UNBOUND:                -1.906
REMARK SMILES CCCCCCCCCCCCCCCCCCCCCCCC(=O)[O-]
REMARK SMILES IDX 13 1 14 2 15 3 16 4 17 5 18 6 19 7 20 8 21 9 22 10 23 11
REMARK SMILES IDX 24 12 25 13 26 14 12 15 11 16 10 17 9 18 8 19 7 20 6 21 5 22
REMARK SMILES IDX 4 23 3 24 2 25 1 26
REMARK H PARENT
REMARK Flexibility Score: inf
ROOT
ATOM      1  C   UNL     1      -8.458   9.191   4.333  1.00  0.00     0.000 C 
ENDROOT
BRANCH   1   2
ATOM      2  C   UNL     1      -8.398   9.027   2.803  1.00  0.00     0.000 C 
BRANCH   2   3
ATOM      3  C   UNL     1      -6.961   9.011   2.236  1.00  0.00     0.000 C 
BRANCH   3   4
ATOM      4  C   UNL     1      -6.134   7.786   2.675  1.00  0.00     0.000 C 
BRANCH   4   5
ATOM      5  C   UNL     1      -4.753   7.665   2.005  1.00  0.00     0.000 C 
BRANCH   5   6
ATOM      6  C   UNL     1      -4.144   6.260   2.132  1.00  0.00     0.000 C 
BRANCH   6   7
ATOM      7  C   UNL     1      -3.152   5.981   0.991  1.00  0.00     0.000 C 
BRANCH   7   8
ATOM      8  C   UNL     1      -1.840   5.365   1.504  1.00  0.00     0.000 C 
BRANCH   8   9
ATOM      9  C   UNL     1      -1.731   3.868   1.176  1.00  0.00     0.000 C 
BRANCH   9  10
ATOM     10  C   UNL     1      -0.303   3.358   1.399  1.00  0.00     0.006 C 
BRANCH  10  11
ATOM     11  C   UNL     1       0.680   4.523   1.546  1.00  0.00     0.053 C 
BRANCH  11  12
ATOM     12  C   UNL     1       1.098   4.681   2.973  1.00  0.00     0.041 C 
ATOM     13  O   UNL     1       1.090   3.690   3.749  1.00  0.00    -0.550 OA
ATOM     14  O   UNL     1       1.449   5.934   3.460  1.00  0.00    -0.550 OA
ENDBRANCH  11  12
ENDBRANCH  10  11
ENDBRANCH   9  10
ENDBRANCH   8   9
ENDBRANCH   7   8
ENDBRANCH   6   7
ENDBRANCH   5   6
ENDBRANCH   4   5
ENDBRANCH   3   4
ENDBRANCH   2   3
ENDBRANCH   1   2
BRANCH   1  15
ATOM     15  C   UNL     1      -8.541   7.868   5.123  1.00  0.00     0.000 C 
BRANCH  15  16
ATOM     16  C   UNL     1      -9.909   7.628   5.789  1.00  0.00     0.000 C 
BRANCH  16  17
ATOM     17  C   UNL     1      -9.779   7.127   7.244  1.00  0.00     0.000 C 
BRANCH  17  18
ATOM     18  C   UNL     1      -9.965   8.249   8.283  1.00  0.00    -0.000 C 
BRANCH  18  19
ATOM     19  C   UNL     1      -8.659   8.642   9.000  1.00  0.00    -0.000 C 
BRANCH  19  20
ATOM     20  C   UNL     1      -7.778   9.579   8.156  1.00  0.00    -0.000 C 
BRANCH  20  21
ATOM     21  C   UNL     1      -6.312   9.125   8.097  1.00  0.00    -0.000 C 
BRANCH  21  22
ATOM     22  C   UNL     1      -5.852   8.429   9.388  1.00  0.00    -0.000 C 
BRANCH  22  23
ATOM     23  C   UNL     1      -4.813   7.323   9.132  1.00  0.00    -0.000 C 
BRANCH  23  24
ATOM     24  C   UNL     1      -5.367   5.882   9.148  1.00  0.00    -0.000 C 
BRANCH  24  25
ATOM     25  C   UNL     1      -6.772   5.732   9.757  1.00  0.00    -0.003 C 
ATOM     26  C   UNL     1      -7.656   4.758   8.981  1.00  0.00     0.004 C 
ENDBRANCH  24  25
ENDBRANCH  23  24
ENDBRANCH  22  23
ENDBRANCH  21  22
ENDBRANCH  20  21
ENDBRANCH  19  20
ENDBRANCH  18  19
ENDBRANCH  17  18
ENDBRANCH  16  17
ENDBRANCH  15  16
ENDBRANCH   1  15
TORSDOF 22
ENDMDL
