MODEL 1
REMARK VINA RESULT:    -6.104      0.000      0.000
REMARK INTER + INTRA:          -9.444
REMARK INTER:                  -8.244
REMARK INTRA:                  -1.200
REMARK UNBOUND:                -1.200
REMARK SMILES O=c1c(-c2ccc(O)cc2)coc2c([C@@H]3O[C@H](CO)[C@H](O)[C@H](O)[C@H]3O)c(O)ccc12
REMARK SMILES IDX 3 1 11 2 12 3 13 4 30 5 2 6 1 7 29 8 28 9 26 10 14 11 4 12
REMARK SMILES IDX 5 13 6 14 7 15 10 16 9 17 8 18 15 20 24 21 16 22 22 23 17 24
REMARK SMILES IDX 20 25 25 26 23 28 18 30 19 31 21 33 27 35
REMARK H PARENT 8 19 25 27 23 29 19 32 21 34 27 36
REMARK Flexibility Score: inf
ROOT
ATOM      1  C   UNL     1      -8.698   8.858  12.692  1.00  0.00     0.065 A 
ATOM      2  C   UNL     1      -8.038   9.626  13.685  1.00  0.00     0.208 A 
ATOM      3  O   UNL     1      -8.230   9.390  14.984  1.00  0.00    -0.463 OA
ATOM      4  C   UNL     1      -8.968   8.369  15.420  1.00  0.00     0.147 A 
ATOM      5  C   UNL     1      -9.529   7.461  14.489  1.00  0.00     0.066 A 
ATOM      6  C   UNL     1      -9.515   7.805  13.130  1.00  0.00     0.200 A 
ATOM      7  O   UNL     1     -10.312   7.237  12.331  1.00  0.00    -0.288 OA
ATOM      8  C   UNL     1     -10.065   6.241  14.949  1.00  0.00     0.020 A 
ATOM      9  C   UNL     1      -9.849   5.868  16.276  1.00  0.00     0.047 A 
ATOM     10  C   UNL     1      -9.372   6.794  17.202  1.00  0.00     0.125 A 
ATOM     11  C   UNL     1      -9.164   8.144  16.798  1.00  0.00     0.069 A 
ENDROOT
BRANCH   1  12
ATOM     12  C   UNL     1      -8.462   9.129  11.228  1.00  0.00    -0.011 A 
ATOM     13  C   UNL     1      -9.220  10.090  10.524  1.00  0.00     0.013 A 
ATOM     14  C   UNL     1      -8.999  10.330   9.162  1.00  0.00     0.047 A 
ATOM     15  C   UNL     1      -8.047   9.595   8.458  1.00  0.00     0.115 A 
ATOM     16  C   UNL     1      -7.502   8.390  10.494  1.00  0.00     0.013 A 
ATOM     17  C   UNL     1      -7.309   8.606   9.122  1.00  0.00     0.047 A 
BRANCH  15  18
ATOM     18  O   UNL     1      -7.828   9.866   7.107  1.00  0.00    -0.508 OA
ATOM     19  H   UNL     1      -7.167  10.578   6.811  1.00  0.00     0.293 HD
ENDBRANCH  15  18
ENDBRANCH   1  12
BRANCH  11  20
ATOM     20  C   UNL     1      -9.353   9.277  17.826  1.00  0.00     0.188 C 
ATOM     21  C   UNL     1     -10.730   9.189  18.584  1.00  0.00     0.179 C 
ATOM     22  O   UNL     1      -8.297   9.112  18.767  1.00  0.00    -0.362 OA
ATOM     23  C   UNL     1     -10.768  10.016  19.899  1.00  0.00     0.177 C 
ATOM     24  C   UNL     1      -8.280  10.124  19.754  1.00  0.00     0.176 C 
ATOM     25  C   UNL     1      -9.452   9.896  20.718  1.00  0.00     0.177 C 
BRANCH  21  26
ATOM     26  O   UNL     1     -11.774   9.680  17.775  1.00  0.00    -0.387 OA
ATOM     27  H   UNL     1     -12.375   8.919  17.567  1.00  0.00     0.211 HD
ENDBRANCH  21  26
BRANCH  23  28
ATOM     28  O   UNL     1     -11.895   9.694  20.689  1.00  0.00    -0.387 OA
ATOM     29  H   UNL     1     -12.024   8.710  20.709  1.00  0.00     0.211 HD
ENDBRANCH  23  28
BRANCH  24  30
ATOM     30  C   UNL     1      -6.912  10.100  20.432  1.00  0.00     0.191 C 
BRANCH  30  31
ATOM     31  O   UNL     1      -7.016  10.514  21.774  1.00  0.00    -0.394 OA
ATOM     32  H   UNL     1      -7.677  11.259  21.792  1.00  0.00     0.210 HD
ENDBRANCH  30  31
ENDBRANCH  24  30
BRANCH  25  33
ATOM     33  O   UNL     1      -9.311   8.634  21.366  1.00  0.00    -0.388 OA
ATOM     34  H   UNL     1      -9.905   8.595  22.162  1.00  0.00     0.211 HD
ENDBRANCH  25  33
ENDBRANCH  11  20
BRANCH  10  35
ATOM     35  O   UNL     1      -9.069   6.369  18.485  1.00  0.00    -0.507 OA
ATOM     36  H   UNL     1      -8.318   6.812  19.054  1.00  0.00     0.293 HD
ENDBRANCH  10  35
TORSDOF 9
ENDMDL
MODEL 2
REMARK VINA RESULT:    -6.073      0.487      1.012
REMARK INTER + INTRA:          -9.403
REMARK INTER:                  -8.193
REMARK INTRA:                  -1.211
REMARK UNBOUND:                -1.200
REMARK SMILES O=c1c(-c2ccc(O)cc2)coc2c([C@@H]3O[C@H](CO)[C@H](O)[C@H](O)[C@H]3O)c(O)ccc12
REMARK SMILES IDX 3 1 11 2 12 3 13 4 30 5 2 6 1 7 29 8 28 9 26 10 14 11 4 12
REMARK SMILES IDX 5 13 6 14 7 15 10 16 9 17 8 18 15 20 24 21 16 22 22 23 17 24
REMARK SMILES IDX 20 25 25 26 23 28 18 30 19 31 21 33 27 35
REMARK H PARENT 8 19 25 27 23 29 19 32 21 34 27 36
REMARK Flexibility Score: inf
ROOT
ATOM      1  C   UNL     1      -8.352   8.409  12.582  1.00  0.00     0.065 A 
ATOM      2  C   UNL     1      -7.706   9.203  13.563  1.00  0.00     0.208 A 
ATOM      3  O   UNL     1      -7.968   9.048  14.863  1.00  0.00    -0.463 OA
ATOM      4  C   UNL     1      -8.768   8.085  15.317  1.00  0.00     0.147 A 
ATOM      5  C   UNL     1      -9.325   7.149  14.410  1.00  0.00     0.066 A 
ATOM      6  C   UNL     1      -9.232   7.415  13.037  1.00  0.00     0.200 A 
ATOM      7  O   UNL     1     -10.015   6.836  12.231  1.00  0.00    -0.288 OA
ATOM      8  C   UNL     1      -9.933   5.980  14.909  1.00  0.00     0.020 A 
ATOM      9  C   UNL     1      -9.795   5.673  16.262  1.00  0.00     0.047 A 
ATOM     10  C   UNL     1      -9.322   6.630  17.160  1.00  0.00     0.125 A 
ATOM     11  C   UNL     1      -9.037   7.945  16.693  1.00  0.00     0.069 A 
ENDROOT
BRANCH   1  12
ATOM     12  C   UNL     1      -8.036   8.587  11.119  1.00  0.00    -0.011 A 
ATOM     13  C   UNL     1      -7.058   7.800  10.473  1.00  0.00     0.013 A 
ATOM     14  C   UNL     1      -6.767   7.978   9.115  1.00  0.00     0.047 A 
ATOM     15  C   UNL     1      -7.412   8.967   8.376  1.00  0.00     0.115 A 
ATOM     16  C   UNL     1      -8.679   9.590  10.352  1.00  0.00     0.013 A 
ATOM     17  C   UNL     1      -8.358   9.791   9.001  1.00  0.00     0.047 A 
BRANCH  15  18
ATOM     18  O   UNL     1      -7.122   9.113   7.018  1.00  0.00    -0.508 OA
ATOM     19  H   UNL     1      -7.228   8.339   6.369  1.00  0.00     0.293 HD
ENDBRANCH  15  18
ENDBRANCH   1  12
BRANCH  11  20
ATOM     20  C   UNL     1      -9.225   9.141  17.648  1.00  0.00     0.188 C 
ATOM     21  C   UNL     1     -10.645   9.162  18.327  1.00  0.00     0.179 C 
ATOM     22  O   UNL     1      -8.234   8.977  18.657  1.00  0.00    -0.362 OA
ATOM     23  C   UNL     1     -10.715  10.060  19.592  1.00  0.00     0.177 C 
ATOM     24  C   UNL     1      -8.220  10.039  19.589  1.00  0.00     0.176 C 
ATOM     25  C   UNL     1      -9.455   9.922  20.493  1.00  0.00     0.177 C 
BRANCH  21  26
ATOM     26  O   UNL     1     -11.615   9.659  17.433  1.00  0.00    -0.387 OA
ATOM     27  H   UNL     1     -12.140  10.349  17.915  1.00  0.00     0.211 HD
ENDBRANCH  21  26
BRANCH  23  28
ATOM     28  O   UNL     1     -11.900   9.838  20.331  1.00  0.00    -0.387 OA
ATOM     29  H   UNL     1     -11.881  10.371  21.167  1.00  0.00     0.211 HD
ENDBRANCH  23  28
BRANCH  24  30
ATOM     30  C   UNL     1      -6.896   9.985  20.348  1.00  0.00     0.191 C 
BRANCH  30  31
ATOM     31  O   UNL     1      -7.057  10.463  21.663  1.00  0.00    -0.394 OA
ATOM     32  H   UNL     1      -6.160  10.775  21.965  1.00  0.00     0.210 HD
ENDBRANCH  30  31
ENDBRANCH  24  30
BRANCH  25  33
ATOM     33  O   UNL     1      -9.417   8.692  21.213  1.00  0.00    -0.388 OA
ATOM     34  H   UNL     1     -10.290   8.224  21.128  1.00  0.00     0.211 HD
ENDBRANCH  25  33
ENDBRANCH  11  20
BRANCH  10  35
ATOM     35  O   UNL     1      -9.098   6.266  18.477  1.00  0.00    -0.507 OA
ATOM     36  H   UNL     1      -8.345   6.697  19.052  1.00  0.00     0.293 HD
ENDBRANCH  10  35
TORSDOF 9
ENDMDL
MODEL 3
REMARK VINA RESULT:    -5.773      1.828      8.691
REMARK INTER + INTRA:          -8.998
REMARK INTER:                  -7.765
REMARK INTRA:                  -1.232
REMARK UNBOUND:                -1.200
REMARK SMILES O=c1c(-c2ccc(O)cc2)coc2c([C@@H]3O[C@H](CO)[C@H](O)[C@H](O)[C@H]3O)c(O)ccc12
REMARK SMILES IDX 3 1 11 2 12 3 13 4 30 5 2 6 1 7 29 8 28 9 26 10 14 11 4 12
REMARK SMILES IDX 5 13 6 14 7 15 10 16 9 17 8 18 15 20 24 21 16 22 22 23 17 24
REMARK SMILES IDX 20 25 25 26 23 28 18 30 19 31 21 33 27 35
REMARK H PARENT 8 19 25 27 23 29 19 32 21 34 27 36
REMARK Flexibility Score: inf
ROOT
ATOM      1  C   UNL     1      -8.540   8.963  16.874  1.00  0.00     0.065 A 
ATOM      2  C   UNL     1      -8.304   9.796  15.751  1.00  0.00     0.208 A 
ATOM      3  O   UNL     1      -8.589   9.387  14.513  1.00  0.00    -0.463 OA
ATOM      4  C   UNL     1      -9.194   8.226  14.269  1.00  0.00     0.147 A 
ATOM      5  C   UNL     1      -9.608   7.409  15.351  1.00  0.00     0.066 A 
ATOM      6  C   UNL     1      -9.138   7.716  16.636  1.00  0.00     0.200 A 
ATOM      7  O   UNL     1      -9.160   6.833  17.539  1.00  0.00    -0.288 OA
ATOM      8  C   UNL     1     -10.485   6.333  15.109  1.00  0.00     0.020 A 
ATOM      9  C   UNL     1     -11.083   6.220  13.855  1.00  0.00     0.047 A 
ATOM     10  C   UNL     1     -10.614   6.971  12.777  1.00  0.00     0.125 A 
ATOM     11  C   UNL     1      -9.477   7.811  12.952  1.00  0.00     0.069 A 
ENDROOT
BRANCH   1  12
ATOM     12  C   UNL     1      -8.224   9.443  18.268  1.00  0.00    -0.011 A 
ATOM     13  C   UNL     1      -9.237   9.901  19.138  1.00  0.00     0.013 A 
ATOM     14  C   UNL     1      -8.934  10.351  20.429  1.00  0.00     0.047 A 
ATOM     15  C   UNL     1      -7.614  10.396  20.872  1.00  0.00     0.115 A 
ATOM     16  C   UNL     1      -6.888   9.499  18.735  1.00  0.00     0.013 A 
ATOM     17  C   UNL     1      -6.583   9.987  20.014  1.00  0.00     0.047 A 
BRANCH  15  18
ATOM     18  O   UNL     1      -7.336  10.828  22.169  1.00  0.00    -0.508 OA
ATOM     19  H   UNL     1      -6.675  11.579  22.346  1.00  0.00     0.293 HD
ENDBRANCH  15  18
ENDBRANCH   1  12
BRANCH  11  20
ATOM     20  C   UNL     1      -8.530   8.056  11.761  1.00  0.00     0.188 C 
ATOM     21  C   UNL     1      -8.012   6.721  11.109  1.00  0.00     0.179 C 
ATOM     22  O   UNL     1      -9.306   8.767  10.803  1.00  0.00    -0.362 OA
ATOM     23  C   UNL     1      -7.437   6.912   9.678  1.00  0.00     0.177 C 
ATOM     24  C   UNL     1      -8.560   9.139   9.661  1.00  0.00     0.176 C 
ATOM     25  C   UNL     1      -8.289   7.886   8.817  1.00  0.00     0.177 C 
BRANCH  21  26
ATOM     26  O   UNL     1      -6.976   6.160  11.882  1.00  0.00    -0.387 OA
ATOM     27  H   UNL     1      -7.385   5.487  12.488  1.00  0.00     0.211 HD
ENDBRANCH  21  26
BRANCH  23  28
ATOM     28  O   UNL     1      -7.248   5.675   9.019  1.00  0.00    -0.387 OA
ATOM     29  H   UNL     1      -7.048   4.966   9.683  1.00  0.00     0.211 HD
ENDBRANCH  23  28
BRANCH  24  30
ATOM     30  C   UNL     1      -9.340  10.223   8.919  1.00  0.00     0.191 C 
BRANCH  30  31
ATOM     31  O   UNL     1     -10.721   9.952   8.952  1.00  0.00    -0.394 OA
ATOM     32  H   UNL     1     -10.850   9.208   9.603  1.00  0.00     0.210 HD
ENDBRANCH  30  31
ENDBRANCH  24  30
BRANCH  25  33
ATOM     33  O   UNL     1      -9.521   7.315   8.383  1.00  0.00    -0.388 OA
ATOM     34  H   UNL     1     -10.096   7.116   9.170  1.00  0.00     0.211 HD
ENDBRANCH  25  33
ENDBRANCH  11  20
BRANCH  10  35
ATOM     35  O   UNL     1     -11.292   6.915  11.571  1.00  0.00    -0.507 OA
ATOM     36  H   UNL     1     -11.258   7.691  10.878  1.00  0.00     0.293 HD
ENDBRANCH  10  35
TORSDOF 9
ENDMDL
MODEL 4
REMARK VINA RESULT:    -5.253      1.265      1.379
REMARK INTER + INTRA:          -8.295
REMARK INTER:                  -7.382
REMARK INTRA:                  -0.913
REMARK UNBOUND:                -1.200
REMARK SMILES O=c1c(-c2ccc(O)cc2)coc2c([C@@H]3O[C@H](CO)[C@H](O)[C@H](O)[C@H]3O)c(O)ccc12
REMARK SMILES IDX 3 1 11 2 12 3 13 4 30 5 2 6 1 7 29 8 28 9 26 10 14 11 4 12
REMARK SMILES IDX 5 13 6 14 7 15 10 16 9 17 8 18 15 20 24 21 16 22 22 23 17 24
REMARK SMILES IDX 20 25 25 26 23 28 18 30 19 31 21 33 27 35
REMARK H PARENT 8 19 25 27 23 29 19 32 21 34 27 36
REMARK Flexibility Score: inf
ROOT
ATOM      1  C   UNL     1      -7.525   8.721  12.137  1.00  0.00     0.065 A 
ATOM      2  C   UNL     1      -7.017   9.408  13.269  1.00  0.00     0.208 A 
ATOM      3  O   UNL     1      -7.493   9.175  14.493  1.00  0.00    -0.463 OA
ATOM      4  C   UNL     1      -8.394   8.224  14.736  1.00  0.00     0.147 A 
ATOM      5  C   UNL     1      -8.832   7.386  13.681  1.00  0.00     0.066 A 
ATOM      6  C   UNL     1      -8.506   7.744  12.366  1.00  0.00     0.200 A 
ATOM      7  O   UNL     1      -9.170   7.266  11.402  1.00  0.00    -0.288 OA
ATOM      8  C   UNL     1      -9.560   6.217  13.982  1.00  0.00     0.020 A 
ATOM      9  C   UNL     1      -9.657   5.808  15.312  1.00  0.00     0.047 A 
ATOM     10  C   UNL     1      -9.299   6.672  16.346  1.00  0.00     0.125 A 
ATOM     11  C   UNL     1      -8.890   8.001  16.037  1.00  0.00     0.069 A 
ENDROOT
BRANCH   1  12
ATOM     12  C   UNL     1      -6.968   8.987  10.762  1.00  0.00    -0.011 A 
ATOM     13  C   UNL     1      -7.646   9.812   9.838  1.00  0.00     0.013 A 
ATOM     14  C   UNL     1      -7.125  10.048   8.560  1.00  0.00     0.047 A 
ATOM     15  C   UNL     1      -5.939   9.440   8.155  1.00  0.00     0.115 A 
ATOM     16  C   UNL     1      -5.766   8.375  10.330  1.00  0.00     0.013 A 
ATOM     17  C   UNL     1      -5.266   8.582   9.036  1.00  0.00     0.047 A 
BRANCH  15  18
ATOM     18  O   UNL     1      -5.426   9.706   6.885  1.00  0.00    -0.508 OA
ATOM     19  H   UNL     1      -4.522   9.346   6.594  1.00  0.00     0.293 HD
ENDBRANCH  15  18
ENDBRANCH   1  12
BRANCH  11  20
ATOM     20  C   UNL     1      -9.184   9.134  17.041  1.00  0.00     0.188 C 
ATOM     21  C   UNL     1     -10.664   9.107  17.573  1.00  0.00     0.179 C 
ATOM     22  O   UNL     1      -8.297   8.909  18.131  1.00  0.00    -0.362 OA
ATOM     23  C   UNL     1     -10.868   9.924  18.879  1.00  0.00     0.177 C 
ATOM     24  C   UNL     1      -8.386   9.910  19.125  1.00  0.00     0.176 C 
ATOM     25  C   UNL     1      -9.704   9.733  19.892  1.00  0.00     0.177 C 
BRANCH  21  26
ATOM     26  O   UNL     1     -11.545   9.657  16.619  1.00  0.00    -0.387 OA
ATOM     27  H   UNL     1     -12.250   8.983  16.440  1.00  0.00     0.211 HD
ENDBRANCH  21  26
BRANCH  23  28
ATOM     28  O   UNL     1     -12.120   9.652  19.479  1.00  0.00    -0.387 OA
ATOM     29  H   UNL     1     -11.989   9.111  20.301  1.00  0.00     0.211 HD
ENDBRANCH  23  28
BRANCH  24  30
ATOM     30  C   UNL     1      -7.143   9.812  20.008  1.00  0.00     0.191 C 
BRANCH  30  31
ATOM     31  O   UNL     1      -5.984  10.115  19.269  1.00  0.00    -0.394 OA
ATOM     32  H   UNL     1      -6.255  10.767  18.566  1.00  0.00     0.210 HD
ENDBRANCH  30  31
ENDBRANCH  24  30
BRANCH  25  33
ATOM     33  O   UNL     1      -9.727   8.460  20.533  1.00  0.00    -0.388 OA
ATOM     34  H   UNL     1      -9.870   8.576  21.510  1.00  0.00     0.211 HD
ENDBRANCH  25  33
ENDBRANCH  11  20
BRANCH  10  35
ATOM     35  O   UNL     1      -9.308   6.204  17.649  1.00  0.00    -0.507 OA
ATOM     36  H   UNL     1      -9.947   5.444  17.962  1.00  0.00     0.293 HD
ENDBRANCH  10  35
TORSDOF 9
ENDMDL
MODEL 5
REMARK VINA RESULT:    -5.174      2.112      8.358
REMARK INTER + INTRA:          -8.188
REMARK INTER:                  -7.576
REMARK INTRA:                  -0.612
REMARK UNBOUND:                -1.200
REMARK SMILES O=c1c(-c2ccc(O)cc2)coc2c([C@@H]3O[C@H](CO)[C@H](O)[C@H](O)[C@H]3O)c(O)ccc12
REMARK SMILES IDX 3 1 11 2 12 3 13 4 30 5 2 6 1 7 29 8 28 9 26 10 14 11 4 12
REMARK SMILES IDX 5 13 6 14 7 15 10 16 9 17 8 18 15 20 24 21 16 22 22 23 17 24
REMARK SMILES IDX 20 25 25 26 23 28 18 30 19 31 21 33 27 35
REMARK H PARENT 8 19 25 27 23 29 19 32 21 34 27 36
REMARK Flexibility Score: inf
ROOT
ATOM      1  C   UNL     1      -8.451   9.282  16.584  1.00  0.00     0.065 A 
ATOM      2  C   UNL     1      -8.160  10.148  15.500  1.00  0.00     0.208 A 
ATOM      3  O   UNL     1      -8.619   9.899  14.271  1.00  0.00    -0.463 OA
ATOM      4  C   UNL     1      -9.447   8.888  14.013  1.00  0.00     0.147 A 
ATOM      5  C   UNL     1      -9.912   8.072  15.075  1.00  0.00     0.066 A 
ATOM      6  C   UNL     1      -9.288   8.186  16.325  1.00  0.00     0.200 A 
ATOM      7  O   UNL     1      -9.397   7.250  17.168  1.00  0.00    -0.288 OA
ATOM      8  C   UNL     1     -10.991   7.193  14.851  1.00  0.00     0.020 A 
ATOM      9  C   UNL     1     -11.703   7.291  13.656  1.00  0.00     0.047 A 
ATOM     10  C   UNL     1     -11.195   8.031  12.589  1.00  0.00     0.125 A 
ATOM     11  C   UNL     1      -9.912   8.638  12.706  1.00  0.00     0.069 A 
ENDROOT
BRANCH   1  12
ATOM     12  C   UNL     1      -7.936   9.583  17.968  1.00  0.00    -0.011 A 
ATOM     13  C   UNL     1      -8.814   9.793  19.054  1.00  0.00     0.013 A 
ATOM     14  C   UNL     1      -8.327  10.079  20.335  1.00  0.00     0.047 A 
ATOM     15  C   UNL     1      -6.958  10.203  20.560  1.00  0.00     0.115 A 
ATOM     16  C   UNL     1      -6.548   9.717  18.217  1.00  0.00     0.013 A 
ATOM     17  C   UNL     1      -6.064  10.041  19.493  1.00  0.00     0.047 A 
BRANCH  15  18
ATOM     18  O   UNL     1      -6.492  10.467  21.849  1.00  0.00    -0.508 OA
ATOM     19  H   UNL     1      -5.671  11.044  22.007  1.00  0.00     0.293 HD
ENDBRANCH  15  18
ENDBRANCH   1  12
BRANCH  11  20
ATOM     20  C   UNL     1      -9.039   8.806  11.447  1.00  0.00     0.188 C 
ATOM     21  C   UNL     1      -7.612   9.388  11.768  1.00  0.00     0.179 C 
ATOM     22  O   UNL     1      -8.893   7.495  10.912  1.00  0.00    -0.362 OA
ATOM     23  C   UNL     1      -6.579   9.158  10.631  1.00  0.00     0.177 C 
ATOM     24  C   UNL     1      -8.167   7.476   9.699  1.00  0.00     0.176 C 
ATOM     25  C   UNL     1      -6.686   7.740  10.003  1.00  0.00     0.177 C 
BRANCH  21  26
ATOM     26  O   UNL     1      -7.678  10.781  11.969  1.00  0.00    -0.387 OA
ATOM     27  H   UNL     1      -8.473  10.965  12.534  1.00  0.00     0.211 HD
ENDBRANCH  21  26
BRANCH  23  28
ATOM     28  O   UNL     1      -5.258   9.431  11.058  1.00  0.00    -0.387 OA
ATOM     29  H   UNL     1      -4.749   8.584  11.142  1.00  0.00     0.211 HD
ENDBRANCH  23  28
BRANCH  24  30
ATOM     30  C   UNL     1      -8.425   6.135   9.015  1.00  0.00     0.191 C 
BRANCH  30  31
ATOM     31  O   UNL     1      -8.579   5.112   9.970  1.00  0.00    -0.394 OA
ATOM     32  H   UNL     1      -8.224   5.469  10.830  1.00  0.00     0.210 HD
ENDBRANCH  30  31
ENDBRANCH  24  30
BRANCH  25  33
ATOM     33  O   UNL     1      -6.173   6.715  10.851  1.00  0.00    -0.388 OA
ATOM     34  H   UNL     1      -6.916   6.294  11.360  1.00  0.00     0.211 HD
ENDBRANCH  25  33
ENDBRANCH  11  20
BRANCH  10  35
ATOM     35  O   UNL     1     -11.971   8.195  11.453  1.00  0.00    -0.507 OA
ATOM     36  H   UNL     1     -12.131   7.423  10.774  1.00  0.00     0.293 HD
ENDBRANCH  10  35
TORSDOF 9
ENDMDL
MODEL 6
REMARK VINA RESULT:    -5.169      3.570      5.559
REMARK INTER + INTRA:          -8.182
REMARK INTER:                  -7.675
REMARK INTRA:                  -0.507
REMARK UNBOUND:                -1.200
REMARK SMILES O=c1c(-c2ccc(O)cc2)coc2c([C@@H]3O[C@H](CO)[C@H](O)[C@H](O)[C@H]3O)c(O)ccc12
REMARK SMILES IDX 3 1 11 2 12 3 13 4 30 5 2 6 1 7 29 8 28 9 26 10 14 11 4 12
REMARK SMILES IDX 5 13 6 14 7 15 10 16 9 17 8 18 15 20 24 21 16 22 22 23 17 24
REMARK SMILES IDX 20 25 25 26 23 28 18 30 19 31 21 33 27 35
REMARK H PARENT 8 19 25 27 23 29 19 32 21 34 27 36
REMARK Flexibility Score: inf
ROOT
ATOM      1  C   UNL     1      -4.949  10.307  15.173  1.00  0.00     0.065 A 
ATOM      2  C   UNL     1      -6.317  10.477  14.841  1.00  0.00     0.208 A 
ATOM      3  O   UNL     1      -7.278  10.291  15.748  1.00  0.00    -0.463 OA
ATOM      4  C   UNL     1      -7.009  10.035  17.027  1.00  0.00     0.147 A 
ATOM      5  C   UNL     1      -5.663  10.009  17.470  1.00  0.00     0.066 A 
ATOM      6  C   UNL     1      -4.645   9.994  16.506  1.00  0.00     0.200 A 
ATOM      7  O   UNL     1      -3.487   9.597  16.823  1.00  0.00    -0.288 OA
ATOM      8  C   UNL     1      -5.388  10.017  18.852  1.00  0.00     0.020 A 
ATOM      9  C   UNL     1      -6.433  10.255  19.745  1.00  0.00     0.047 A 
ATOM     10  C   UNL     1      -7.758  10.197  19.314  1.00  0.00     0.125 A 
ATOM     11  C   UNL     1      -8.040   9.834  17.967  1.00  0.00     0.069 A 
ENDROOT
BRANCH   1  12
ATOM     12  C   UNL     1      -3.874  10.532  14.140  1.00  0.00    -0.011 A 
ATOM     13  C   UNL     1      -4.108  10.296  12.768  1.00  0.00     0.013 A 
ATOM     14  C   UNL     1      -3.101  10.500  11.816  1.00  0.00     0.047 A 
ATOM     15  C   UNL     1      -1.827  10.906  12.209  1.00  0.00     0.115 A 
ATOM     16  C   UNL     1      -2.572  10.940  14.520  1.00  0.00     0.013 A 
ATOM     17  C   UNL     1      -1.554  11.108  13.569  1.00  0.00     0.047 A 
BRANCH  15  18
ATOM     18  O   UNL     1      -0.845  11.125  11.242  1.00  0.00    -0.508 OA
ATOM     19  H   UNL     1      -0.211  10.385  10.955  1.00  0.00     0.293 HD
ENDBRANCH  15  18
ENDBRANCH   1  12
BRANCH  11  20
ATOM     20  C   UNL     1      -9.347   9.080  17.646  1.00  0.00     0.188 C 
ATOM     21  C   UNL     1     -10.288   9.880  16.671  1.00  0.00     0.179 C 
ATOM     22  O   UNL     1      -8.939   7.875  17.008  1.00  0.00    -0.362 OA
ATOM     23  C   UNL     1     -11.368   8.996  15.988  1.00  0.00     0.177 C 
ATOM     24  C   UNL     1     -10.024   7.021  16.705  1.00  0.00     0.176 C 
ATOM     25  C   UNL     1     -10.812   7.619  15.531  1.00  0.00     0.177 C 
BRANCH  21  26
ATOM     26  O   UNL     1     -10.983  10.889  17.369  1.00  0.00    -0.387 OA
ATOM     27  H   UNL     1     -10.818  11.747  16.897  1.00  0.00     0.211 HD
ENDBRANCH  21  26
BRANCH  23  28
ATOM     28  O   UNL     1     -12.003   9.673  14.921  1.00  0.00    -0.387 OA
ATOM     29  H   UNL     1     -11.967  10.653  15.075  1.00  0.00     0.211 HD
ENDBRANCH  23  28
BRANCH  24  30
ATOM     30  C   UNL     1      -9.466   5.627  16.424  1.00  0.00     0.191 C 
BRANCH  30  31
ATOM     31  O   UNL     1      -8.372   5.700  15.540  1.00  0.00    -0.394 OA
ATOM     32  H   UNL     1      -7.653   5.130  15.929  1.00  0.00     0.210 HD
ENDBRANCH  30  31
ENDBRANCH  24  30
BRANCH  25  33
ATOM     33  O   UNL     1      -9.976   7.710  14.380  1.00  0.00    -0.388 OA
ATOM     34  H   UNL     1      -9.048   7.939  14.653  1.00  0.00     0.211 HD
ENDBRANCH  25  33
ENDBRANCH  11  20
BRANCH  10  35
ATOM     35  O   UNL     1      -8.769  10.539  20.198  1.00  0.00    -0.507 OA
ATOM     36  H   UNL     1      -8.776  11.445  20.710  1.00  0.00     0.293 HD
ENDBRANCH  10  35
TORSDOF 9
ENDMDL
MODEL 7
REMARK VINA RESULT:    -5.141      2.446      8.817
REMARK INTER + INTRA:          -8.144
REMARK INTER:                  -7.068
REMARK INTRA:                  -1.076
REMARK UNBOUND:                -1.200
REMARK SMILES O=c1c(-c2ccc(O)cc2)coc2c([C@@H]3O[C@H](CO)[C@H](O)[C@H](O)[C@H]3O)c(O)ccc12
REMARK SMILES IDX 3 1 11 2 12 3 13 4 30 5 2 6 1 7 29 8 28 9 26 10 14 11 4 12
REMARK SMILES IDX 5 13 6 14 7 15 10 16 9 17 8 18 15 20 24 21 16 22 22 23 17 24
REMARK SMILES IDX 20 25 25 26 23 28 18 30 19 31 21 33 27 35
REMARK H PARENT 8 19 25 27 23 29 19 32 21 34 27 36
REMARK Flexibility Score: inf
ROOT
ATOM      1  C   UNL     1      -9.929   8.563  16.629  1.00  0.00     0.065 A 
ATOM      2  C   UNL     1     -10.800   7.616  16.032  1.00  0.00     0.208 A 
ATOM      3  O   UNL     1     -10.582   7.155  14.799  1.00  0.00    -0.463 OA
ATOM      4  C   UNL     1      -9.495   7.478  14.100  1.00  0.00     0.147 A 
ATOM      5  C   UNL     1      -8.498   8.293  14.691  1.00  0.00     0.066 A 
ATOM      6  C   UNL     1      -8.799   8.950  15.892  1.00  0.00     0.200 A 
ATOM      7  O   UNL     1      -8.116   9.952  16.248  1.00  0.00    -0.288 OA
ATOM      8  C   UNL     1      -7.238   8.405  14.071  1.00  0.00     0.020 A 
ATOM      9  C   UNL     1      -6.934   7.556  13.006  1.00  0.00     0.047 A 
ATOM     10  C   UNL     1      -7.939   6.820  12.379  1.00  0.00     0.125 A 
ATOM     11  C   UNL     1      -9.290   6.986  12.795  1.00  0.00     0.069 A 
ENDROOT
BRANCH   1  12
ATOM     12  C   UNL     1     -10.181   9.065  18.027  1.00  0.00    -0.011 A 
ATOM     13  C   UNL     1      -9.501   8.524  19.140  1.00  0.00     0.013 A 
ATOM     14  C   UNL     1      -9.747   8.993  20.437  1.00  0.00     0.047 A 
ATOM     15  C   UNL     1     -10.702   9.981  20.663  1.00  0.00     0.115 A 
ATOM     16  C   UNL     1     -11.151  10.067  18.279  1.00  0.00     0.013 A 
ATOM     17  C   UNL     1     -11.423  10.507  19.583  1.00  0.00     0.047 A 
BRANCH  15  18
ATOM     18  O   UNL     1     -10.916  10.449  21.961  1.00  0.00    -0.508 OA
ATOM     19  H   UNL     1     -11.649  11.122  22.166  1.00  0.00     0.293 HD
ENDBRANCH  15  18
ENDBRANCH   1  12
BRANCH  11  20
ATOM     20  C   UNL     1     -10.424   6.813  11.765  1.00  0.00     0.188 C 
ATOM     21  C   UNL     1     -11.033   8.186  11.293  1.00  0.00     0.179 C 
ATOM     22  O   UNL     1      -9.822   6.167  10.648  1.00  0.00    -0.362 OA
ATOM     23  C   UNL     1     -11.838   8.083   9.967  1.00  0.00     0.177 C 
ATOM     24  C   UNL     1     -10.749   5.866   9.624  1.00  0.00     0.176 C 
ATOM     25  C   UNL     1     -11.147   7.169   8.917  1.00  0.00     0.177 C 
BRANCH  21  26
ATOM     26  O   UNL     1     -11.923   8.693  12.261  1.00  0.00    -0.387 OA
ATOM     27  H   UNL     1     -11.726   9.659  12.371  1.00  0.00     0.211 HD
ENDBRANCH  21  26
BRANCH  23  28
ATOM     28  O   UNL     1     -12.125   9.359   9.427  1.00  0.00    -0.387 OA
ATOM     29  H   UNL     1     -11.565  10.047   9.872  1.00  0.00     0.211 HD
ENDBRANCH  23  28
BRANCH  24  30
ATOM     30  C   UNL     1     -10.110   4.834   8.697  1.00  0.00     0.191 C 
BRANCH  30  31
ATOM     31  O   UNL     1      -8.716   5.022   8.629  1.00  0.00    -0.394 OA
ATOM     32  H   UNL     1      -8.341   4.689   9.490  1.00  0.00     0.210 HD
ENDBRANCH  30  31
ENDBRANCH  24  30
BRANCH  25  33
ATOM     33  O   UNL     1     -10.000   7.771   8.323  1.00  0.00    -0.388 OA
ATOM     34  H   UNL     1      -9.281   7.093   8.214  1.00  0.00     0.211 HD
ENDBRANCH  25  33
ENDBRANCH  11  20
BRANCH  10  35
ATOM     35  O   UNL     1      -7.592   5.910  11.395  1.00  0.00    -0.507 OA
ATOM     36  H   UNL     1      -7.045   6.184  10.553  1.00  0.00     0.293 HD
ENDBRANCH  10  35
TORSDOF 9
ENDMDL
MODEL 8
REMARK VINA RESULT:    -4.834      2.359      8.864
REMARK INTER + INTRA:          -7.729
REMARK INTER:                  -7.015
REMARK INTRA:                  -0.714
REMARK UNBOUND:                -1.200
REMARK SMILES O=c1c(-c2ccc(O)cc2)coc2c([C@@H]3O[C@H](CO)[C@H](O)[C@H](O)[C@H]3O)c(O)ccc12
REMARK SMILES IDX 3 1 11 2 12 3 13 4 30 5 2 6 1 7 29 8 28 9 26 10 14 11 4 12
REMARK SMILES IDX 5 13 6 14 7 15 10 16 9 17 8 18 15 20 24 21 16 22 22 23 17 24
REMARK SMILES IDX 20 25 25 26 23 28 18 30 19 31 21 33 27 35
REMARK H PARENT 8 19 25 27 23 29 19 32 21 34 27 36
REMARK Flexibility Score: inf
ROOT
ATOM      1  C   UNL     1      -8.295   8.502  14.841  1.00  0.00     0.065 A 
ATOM      2  C   UNL     1      -8.607   7.398  14.007  1.00  0.00     0.208 A 
ATOM      3  O   UNL     1      -8.248   7.377  12.722  1.00  0.00    -0.463 OA
ATOM      4  C   UNL     1      -7.500   8.334  12.177  1.00  0.00     0.147 A 
ATOM      5  C   UNL     1      -7.013   9.391  12.986  1.00  0.00     0.066 A 
ATOM      6  C   UNL     1      -7.544   9.543  14.275  1.00  0.00     0.200 A 
ATOM      7  O   UNL     1      -7.433  10.651  14.872  1.00  0.00    -0.288 OA
ATOM      8  C   UNL     1      -6.005  10.239  12.485  1.00  0.00     0.020 A 
ATOM      9  C   UNL     1      -5.370   9.898  11.291  1.00  0.00     0.047 A 
ATOM     10  C   UNL     1      -5.904   8.912  10.462  1.00  0.00     0.125 A 
ATOM     11  C   UNL     1      -7.139   8.296  10.815  1.00  0.00     0.069 A 
ENDROOT
BRANCH   1  12
ATOM     12  C   UNL     1      -8.698   8.506  16.293  1.00  0.00    -0.011 A 
ATOM     13  C   UNL     1      -7.921   9.161  17.273  1.00  0.00     0.013 A 
ATOM     14  C   UNL     1      -8.299   9.154  18.621  1.00  0.00     0.047 A 
ATOM     15  C   UNL     1      -9.436   8.464  19.034  1.00  0.00     0.115 A 
ATOM     16  C   UNL     1      -9.848   7.807  16.734  1.00  0.00     0.013 A 
ATOM     17  C   UNL     1     -10.204   7.769  18.090  1.00  0.00     0.047 A 
BRANCH  15  18
ATOM     18  O   UNL     1      -9.806   8.488  20.380  1.00  0.00    -0.508 OA
ATOM     19  H   UNL     1     -10.763   8.683  20.661  1.00  0.00     0.293 HD
ENDBRANCH  15  18
ENDBRANCH   1  12
BRANCH  11  20
ATOM     20  C   UNL     1      -8.083   7.806   9.699  1.00  0.00     0.188 C 
ATOM     21  C   UNL     1      -8.017   6.248   9.485  1.00  0.00     0.179 C 
ATOM     22  O   UNL     1      -9.393   8.156  10.134  1.00  0.00    -0.362 OA
ATOM     23  C   UNL     1      -9.237   5.676   8.711  1.00  0.00     0.177 C 
ATOM     24  C   UNL     1     -10.390   7.837   9.183  1.00  0.00     0.176 C 
ATOM     25  C   UNL     1     -10.582   6.314   9.159  1.00  0.00     0.177 C 
BRANCH  21  26
ATOM     26  O   UNL     1      -6.873   5.898   8.740  1.00  0.00    -0.387 OA
ATOM     27  H   UNL     1      -6.314   6.712   8.649  1.00  0.00     0.211 HD
ENDBRANCH  21  26
BRANCH  23  28
ATOM     28  O   UNL     1      -9.290   4.264   8.784  1.00  0.00    -0.387 OA
ATOM     29  H   UNL     1     -10.224   3.970   8.947  1.00  0.00     0.211 HD
ENDBRANCH  23  28
BRANCH  24  30
ATOM     30  C   UNL     1     -11.655   8.611   9.547  1.00  0.00     0.191 C 
BRANCH  30  31
ATOM     31  O   UNL     1     -11.863   8.597  10.940  1.00  0.00    -0.394 OA
ATOM     32  H   UNL     1     -12.541   7.889  11.120  1.00  0.00     0.210 HD
ENDBRANCH  30  31
ENDBRANCH  24  30
BRANCH  25  33
ATOM     33  O   UNL     1     -11.017   5.858  10.438  1.00  0.00    -0.388 OA
ATOM     34  H   UNL     1     -10.357   5.213  10.809  1.00  0.00     0.211 HD
ENDBRANCH  25  33
ENDBRANCH  11  20
BRANCH  10  35
ATOM     35  O   UNL     1      -5.198   8.523   9.336  1.00  0.00    -0.507 OA
ATOM     36  H   UNL     1      -5.662   8.087   8.512  1.00  0.00     0.293 HD
ENDBRANCH  10  35
TORSDOF 9
ENDMDL
MODEL 9
REMARK VINA RESULT:    -4.807      3.005      4.593
REMARK INTER + INTRA:          -7.693
REMARK INTER:                  -8.955
REMARK INTRA:                   1.262
REMARK UNBOUND:                -1.200
REMARK SMILES O=c1c(-c2ccc(O)cc2)coc2c([C@@H]3O[C@H](CO)[C@H](O)[C@H](O)[C@H]3O)c(O)ccc12
REMARK SMILES IDX 3 1 11 2 12 3 13 4 30 5 2 6 1 7 29 8 28 9 26 10 14 11 4 12
REMARK SMILES IDX 5 13 6 14 7 15 10 16 9 17 8 18 15 20 24 21 16 22 22 23 17 24
REMARK SMILES IDX 20 25 25 26 23 28 18 30 19 31 21 33 27 35
REMARK H PARENT 8 19 25 27 23 29 19 32 21 34 27 36
REMARK Flexibility Score: inf
ROOT
ATOM      1  C   UNL     1      -9.910   7.648  12.929  1.00  0.00     0.065 A 
ATOM      2  C   UNL     1      -8.521   7.907  13.052  1.00  0.00     0.208 A 
ATOM      3  O   UNL     1      -7.998   8.354  14.196  1.00  0.00    -0.463 OA
ATOM      4  C   UNL     1      -8.724   8.488  15.305  1.00  0.00     0.147 A 
ATOM      5  C   UNL     1     -10.086   8.096  15.305  1.00  0.00     0.066 A 
ATOM      6  C   UNL     1     -10.701   7.824  14.075  1.00  0.00     0.200 A 
ATOM      7  O   UNL     1     -11.961   7.846  13.986  1.00  0.00    -0.288 OA
ATOM      8  C   UNL     1     -10.771   7.973  16.531  1.00  0.00     0.020 A 
ATOM      9  C   UNL     1     -10.043   8.041  17.719  1.00  0.00     0.047 A 
ATOM     10  C   UNL     1      -8.728   8.506  17.717  1.00  0.00     0.125 A 
ATOM     11  C   UNL     1      -8.152   8.969  16.500  1.00  0.00     0.069 A 
ENDROOT
BRANCH   1  12
ATOM     12  C   UNL     1     -10.485   7.134  11.634  1.00  0.00    -0.011 A 
ATOM     13  C   UNL     1     -11.594   7.755  11.020  1.00  0.00     0.013 A 
ATOM     14  C   UNL     1     -12.125   7.266   9.820  1.00  0.00     0.047 A 
ATOM     15  C   UNL     1     -11.594   6.125   9.223  1.00  0.00     0.115 A 
ATOM     16  C   UNL     1      -9.961   5.973  11.014  1.00  0.00     0.013 A 
ATOM     17  C   UNL     1     -10.519   5.463   9.833  1.00  0.00     0.047 A 
BRANCH  15  18
ATOM     18  O   UNL     1     -12.124   5.667   8.016  1.00  0.00    -0.508 OA
ATOM     19  H   UNL     1     -12.830   6.198   7.514  1.00  0.00     0.293 HD
ENDBRANCH  15  18
ENDBRANCH   1  12
BRANCH  11  20
ATOM     20  C   UNL     1      -7.093  10.089  16.545  1.00  0.00     0.188 C 
ATOM     21  C   UNL     1      -6.104   9.945  17.761  1.00  0.00     0.179 C 
ATOM     22  O   UNL     1      -6.357   9.959  15.333  1.00  0.00    -0.362 OA
ATOM     23  C   UNL     1      -4.794  10.763  17.594  1.00  0.00     0.177 C 
ATOM     24  C   UNL     1      -5.377  10.966  15.177  1.00  0.00     0.176 C 
ATOM     25  C   UNL     1      -4.222  10.689  16.150  1.00  0.00     0.177 C 
BRANCH  21  26
ATOM     26  O   UNL     1      -6.709  10.400  18.949  1.00  0.00    -0.387 OA
ATOM     27  H   UNL     1      -7.303  11.159  18.711  1.00  0.00     0.211 HD
ENDBRANCH  21  26
BRANCH  23  28
ATOM     28  O   UNL     1      -3.819  10.394  18.551  1.00  0.00    -0.387 OA
ATOM     29  H   UNL     1      -2.913  10.461  18.152  1.00  0.00     0.211 HD
ENDBRANCH  23  28
BRANCH  24  30
ATOM     30  C   UNL     1      -4.952  10.990  13.710  1.00  0.00     0.191 C 
BRANCH  30  31
ATOM     31  O   UNL     1      -3.552  11.090  13.600  1.00  0.00    -0.394 OA
ATOM     32  H   UNL     1      -3.187  10.177  13.762  1.00  0.00     0.210 HD
ENDBRANCH  30  31
ENDBRANCH  24  30
BRANCH  25  33
ATOM     33  O   UNL     1      -3.625   9.430  15.851  1.00  0.00    -0.388 OA
ATOM     34  H   UNL     1      -2.696   9.565  15.524  1.00  0.00     0.211 HD
ENDBRANCH  25  33
ENDBRANCH  11  20
BRANCH  10  35
ATOM     35  O   UNL     1      -7.999   8.466  18.894  1.00  0.00    -0.507 OA
ATOM     36  H   UNL     1      -7.656   9.329  19.365  1.00  0.00     0.293 HD
ENDBRANCH  10  35
TORSDOF 9
ENDMDL
