MODEL 1
REMARK VINA RESULT:    -3.982      0.000      0.000
REMARK INTER + INTRA:          -5.115
REMARK INTER:                  -4.913
REMARK INTRA:                  -0.202
REMARK UNBOUND:                -0.202
REMARK SMILES CCCCC=CC(C)=O
REMARK SMILES IDX 4 1 3 2 2 3 1 4 5 5 6 6 7 7 9 8 8 9
REMARK H PARENT
REMARK Flexibility Score: inf
ROOT
ATOM      1  C   UNL     1       2.319  28.221  54.911  1.00  0.00     0.027 C 
ENDROOT
BRANCH   1   2
ATOM      2  C   UNL     1       0.837  28.115  55.303  1.00  0.00     0.004 C 
BRANCH   2   3
ATOM      3  C   UNL     1       0.600  28.398  56.793  1.00  0.00    -0.003 C 
ATOM      4  C   UNL     1      -0.550  29.377  57.032  1.00  0.00     0.004 C 
ENDBRANCH   2   3
ENDBRANCH   1   2
BRANCH   1   5
ATOM      5  C   UNL     1       3.178  28.498  56.110  1.00  0.00    -0.023 C 
ATOM      6  C   UNL     1       4.259  27.756  56.381  1.00  0.00     0.042 C 
BRANCH   6   7
ATOM      7  C   UNL     1       5.127  27.982  57.554  1.00  0.00     0.152 C 
ATOM      8  O   UNL     1       5.785  29.054  57.619  1.00  0.00    -0.295 OA
ATOM      9  C   UNL     1       5.251  26.986  58.668  1.00  0.00     0.093 C 
ENDBRANCH   6   7
ENDBRANCH   1   5
TORSDOF 4
ENDMDL
MODEL 2
REMARK VINA RESULT:    -3.945      2.529      4.894
REMARK INTER + INTRA:          -5.069
REMARK INTER:                  -4.828
REMARK INTRA:                  -0.241
REMARK UNBOUND:                -0.202
REMARK SMILES CCCCC=CC(C)=O
REMARK SMILES IDX 4 1 3 2 2 3 1 4 5 5 6 6 7 7 9 8 8 9
REMARK H PARENT
REMARK Flexibility Score: inf
ROOT
ATOM      1  C   UNL     1       3.509  27.832  57.497  1.00  0.00     0.027 C 
ENDROOT
BRANCH   1   2
ATOM      2  C   UNL     1       4.268  27.956  56.167  1.00  0.00     0.004 C 
BRANCH   2   3
ATOM      3  C   UNL     1       5.469  28.908  56.261  1.00  0.00    -0.003 C 
ATOM      4  C   UNL     1       6.063  28.971  57.669  1.00  0.00     0.004 C 
ENDBRANCH   2   3
ENDBRANCH   1   2
BRANCH   1   5
ATOM      5  C   UNL     1       2.145  28.453  57.402  1.00  0.00    -0.023 C 
ATOM      6  C   UNL     1       1.534  28.620  56.222  1.00  0.00     0.042 C 
BRANCH   6   7
ATOM      7  C   UNL     1       0.200  29.236  56.079  1.00  0.00     0.152 C 
ATOM      8  O   UNL     1      -0.225  29.493  54.922  1.00  0.00    -0.295 OA
ATOM      9  C   UNL     1      -0.665  29.567  57.259  1.00  0.00     0.093 C 
ENDBRANCH   6   7
ENDBRANCH   1   5
TORSDOF 4
ENDMDL
MODEL 3
REMARK VINA RESULT:    -3.690      2.243      2.970
REMARK INTER + INTRA:          -4.755
REMARK INTER:                  -4.489
REMARK INTRA:                  -0.266
REMARK UNBOUND:                -0.202
REMARK SMILES CCCCC=CC(C)=O
REMARK SMILES IDX 4 1 3 2 2 3 1 4 5 5 6 6 7 7 9 8 8 9
REMARK H PARENT
REMARK Flexibility Score: inf
ROOT
ATOM      1  C   UNL     1       2.485  28.113  57.521  1.00  0.00     0.027 C 
ENDROOT
BRANCH   1   2
ATOM      2  C   UNL     1       1.400  29.200  57.511  1.00  0.00     0.004 C 
BRANCH   2   3
ATOM      3  C   UNL     1       0.049  28.679  56.998  1.00  0.00    -0.003 C 
ATOM      4  C   UNL     1      -0.415  29.394  55.729  1.00  0.00     0.004 C 
ENDBRANCH   2   3
ENDBRANCH   1   2
BRANCH   1   5
ATOM      5  C   UNL     1       3.573  28.425  56.535  1.00  0.00    -0.023 C 
ATOM      6  C   UNL     1       3.315  28.545  55.226  1.00  0.00     0.042 C 
BRANCH   6   7
ATOM      7  C   UNL     1       4.353  28.838  54.217  1.00  0.00     0.152 C 
ATOM      8  O   UNL     1       4.233  28.341  53.066  1.00  0.00    -0.295 OA
ATOM      9  C   UNL     1       5.541  29.704  54.514  1.00  0.00     0.093 C 
ENDBRANCH   6   7
ENDBRANCH   1   5
TORSDOF 4
ENDMDL
MODEL 4
REMARK VINA RESULT:    -3.661      1.413      1.852
REMARK INTER + INTRA:          -4.720
REMARK INTER:                  -4.488
REMARK INTRA:                  -0.232
REMARK UNBOUND:                -0.202
REMARK SMILES CCCCC=CC(C)=O
REMARK SMILES IDX 4 1 3 2 2 3 1 4 5 5 6 6 7 7 9 8 8 9
REMARK H PARENT
REMARK Flexibility Score: inf
ROOT
ATOM      1  C   UNL     1       4.179  28.598  54.855  1.00  0.00     0.027 C 
ENDROOT
BRANCH   1   2
ATOM      2  C   UNL     1       2.764  28.990  54.403  1.00  0.00     0.004 C 
BRANCH   2   3
ATOM      3  C   UNL     1       1.670  28.249  55.185  1.00  0.00    -0.003 C 
ATOM      4  C   UNL     1       0.299  28.914  55.055  1.00  0.00     0.004 C 
ENDBRANCH   2   3
ENDBRANCH   1   2
BRANCH   1   5
ATOM      5  C   UNL     1       4.135  27.717  56.070  1.00  0.00    -0.023 C 
ATOM      6  C   UNL     1       4.842  28.009  57.169  1.00  0.00     0.042 C 
BRANCH   6   7
ATOM      7  C   UNL     1       4.840  27.168  58.383  1.00  0.00     0.152 C 
ATOM      8  O   UNL     1       5.940  26.906  58.937  1.00  0.00    -0.295 OA
ATOM      9  C   UNL     1       3.578  26.616  58.977  1.00  0.00     0.093 C 
ENDBRANCH   6   7
ENDBRANCH   1   5
TORSDOF 4
ENDMDL
MODEL 5
REMARK VINA RESULT:    -3.511      9.672     10.973
REMARK INTER + INTRA:          -4.534
REMARK INTER:                  -4.342
REMARK INTRA:                  -0.192
REMARK UNBOUND:                -0.202
REMARK SMILES CCCCC=CC(C)=O
REMARK SMILES IDX 4 1 3 2 2 3 1 4 5 5 6 6 7 7 9 8 8 9
REMARK H PARENT
REMARK Flexibility Score: inf
ROOT
ATOM      1  C   UNL     1      -5.644  29.325  58.273  1.00  0.00     0.027 C 
ENDROOT
BRANCH   1   2
ATOM      2  C   UNL     1      -6.294  30.715  58.329  1.00  0.00     0.004 C 
BRANCH   2   3
ATOM      3  C   UNL     1      -5.859  31.519  59.563  1.00  0.00    -0.003 C 
ATOM      4  C   UNL     1      -4.390  31.297  59.925  1.00  0.00     0.004 C 
ENDBRANCH   2   3
ENDBRANCH   1   2
BRANCH   1   5
ATOM      5  C   UNL     1      -6.415  28.402  57.374  1.00  0.00    -0.023 C 
ATOM      6  C   UNL     1      -7.720  28.588  57.137  1.00  0.00     0.042 C 
BRANCH   6   7
ATOM      7  C   UNL     1      -8.521  27.701  56.271  1.00  0.00     0.152 C 
ATOM      8  O   UNL     1      -9.759  27.912  56.172  1.00  0.00    -0.295 OA
ATOM      9  C   UNL     1      -7.917  26.561  55.506  1.00  0.00     0.093 C 
ENDBRANCH   6   7
ENDBRANCH   1   5
TORSDOF 4
ENDMDL
MODEL 6
REMARK VINA RESULT:    -3.509      9.750     12.679
REMARK INTER + INTRA:          -4.532
REMARK INTER:                  -4.397
REMARK INTRA:                  -0.134
REMARK UNBOUND:                -0.202
REMARK SMILES CCCCC=CC(C)=O
REMARK SMILES IDX 4 1 3 2 2 3 1 4 5 5 6 6 7 7 9 8 8 9
REMARK H PARENT
REMARK Flexibility Score: inf
ROOT
ATOM      1  C   UNL     1      -6.671  31.526  58.154  1.00  0.00     0.027 C 
ENDROOT
BRANCH   1   2
ATOM      2  C   UNL     1      -5.995  31.598  59.532  1.00  0.00     0.004 C 
BRANCH   2   3
ATOM      3  C   UNL     1      -4.636  30.883  59.559  1.00  0.00    -0.003 C 
ATOM      4  C   UNL     1      -3.517  31.765  60.115  1.00  0.00     0.004 C 
ENDBRANCH   2   3
ENDBRANCH   1   2
BRANCH   1   5
ATOM      5  C   UNL     1      -7.954  32.306  58.139  1.00  0.00    -0.023 C 
ATOM      6  C   UNL     1      -8.972  31.992  58.950  1.00  0.00     0.042 C 
BRANCH   6   7
ATOM      7  C   UNL     1     -10.255  32.723  58.962  1.00  0.00     0.152 C 
ATOM      8  O   UNL     1     -11.266  32.159  59.458  1.00  0.00    -0.295 OA
ATOM      9  C   UNL     1     -10.397  34.109  58.407  1.00  0.00     0.093 C 
ENDBRANCH   6   7
ENDBRANCH   1   5
TORSDOF 4
ENDMDL
MODEL 7
REMARK VINA RESULT:    -3.365      2.817      5.052
REMARK INTER + INTRA:          -4.354
REMARK INTER:                  -4.128
REMARK INTRA:                  -0.226
REMARK UNBOUND:                -0.202
REMARK SMILES CCCCC=CC(C)=O
REMARK SMILES IDX 4 1 3 2 2 3 1 4 5 5 6 6 7 7 9 8 8 9
REMARK H PARENT
REMARK Flexibility Score: inf
ROOT
ATOM      1  C   UNL     1       3.636  28.126  55.803  1.00  0.00     0.027 C 
ENDROOT
BRANCH   1   2
ATOM      2  C   UNL     1       4.606  28.719  54.771  1.00  0.00     0.004 C 
BRANCH   2   3
ATOM      3  C   UNL     1       3.914  29.073  53.446  1.00  0.00    -0.003 C 
ATOM      4  C   UNL     1       4.584  28.418  52.238  1.00  0.00     0.004 C 
ENDBRANCH   2   3
ENDBRANCH   1   2
BRANCH   1   5
ATOM      5  C   UNL     1       2.216  28.496  55.486  1.00  0.00    -0.023 C 
ATOM      6  C   UNL     1       1.364  28.881  56.445  1.00  0.00     0.042 C 
BRANCH   6   7
ATOM      7  C   UNL     1      -0.044  29.243  56.183  1.00  0.00     0.152 C 
ATOM      8  O   UNL     1      -0.779  29.550  57.159  1.00  0.00    -0.295 OA
ATOM      9  C   UNL     1      -0.627  29.258  54.802  1.00  0.00     0.093 C 
ENDBRANCH   6   7
ENDBRANCH   1   5
TORSDOF 4
ENDMDL
MODEL 8
REMARK VINA RESULT:    -3.221      1.429      1.934
REMARK INTER + INTRA:          -4.176
REMARK INTER:                  -4.006
REMARK INTRA:                  -0.170
REMARK UNBOUND:                -0.202
REMARK SMILES CCCCC=CC(C)=O
REMARK SMILES IDX 4 1 3 2 2 3 1 4 5 5 6 6 7 7 9 8 8 9
REMARK H PARENT
REMARK Flexibility Score: inf
ROOT
ATOM      1  C   UNL     1       1.366  28.160  57.009  1.00  0.00     0.027 C 
ENDROOT
BRANCH   1   2
ATOM      2  C   UNL     1       0.375  29.248  57.449  1.00  0.00     0.004 C 
BRANCH   2   3
ATOM      3  C   UNL     1      -0.620  29.622  56.341  1.00  0.00    -0.003 C 
ATOM      4  C   UNL     1       0.018  29.623  54.951  1.00  0.00     0.004 C 
ENDBRANCH   2   3
ENDBRANCH   1   2
BRANCH   1   5
ATOM      5  C   UNL     1       2.751  28.456  57.507  1.00  0.00    -0.023 C 
ATOM      6  C   UNL     1       3.803  27.722  57.120  1.00  0.00     0.042 C 
BRANCH   6   7
ATOM      7  C   UNL     1       5.181  27.967  57.591  1.00  0.00     0.152 C 
ATOM      8  O   UNL     1       5.575  27.383  58.635  1.00  0.00    -0.295 OA
ATOM      9  C   UNL     1       6.125  28.885  56.873  1.00  0.00     0.093 C 
ENDBRANCH   6   7
ENDBRANCH   1   5
TORSDOF 4
ENDMDL
MODEL 9
REMARK VINA RESULT:    -2.879      2.102      4.708
REMARK INTER + INTRA:          -3.754
REMARK INTER:                  -3.482
REMARK INTRA:                  -0.272
REMARK UNBOUND:                -0.202
REMARK SMILES CCCCC=CC(C)=O
REMARK SMILES IDX 4 1 3 2 2 3 1 4 5 5 6 6 7 7 9 8 8 9
REMARK H PARENT
REMARK Flexibility Score: inf
ROOT
ATOM      1  C   UNL     1       4.853  28.003  56.116  1.00  0.00     0.027 C 
ENDROOT
BRANCH   1   2
ATOM      2  C   UNL     1       5.323  29.073  57.113  1.00  0.00     0.004 C 
BRANCH   2   3
ATOM      3  C   UNL     1       6.125  28.479  58.280  1.00  0.00    -0.003 C 
ATOM      4  C   UNL     1       5.705  27.048  58.616  1.00  0.00     0.004 C 
ENDBRANCH   2   3
ENDBRANCH   1   2
BRANCH   1   5
ATOM      5  C   UNL     1       3.388  28.148  55.818  1.00  0.00    -0.023 C 
ATOM      6  C   UNL     1       2.513  28.495  56.770  1.00  0.00     0.042 C 
BRANCH   6   7
ATOM      7  C   UNL     1       1.063  28.638  56.526  1.00  0.00     0.152 C 
ATOM      8  O   UNL     1       0.580  28.160  55.466  1.00  0.00    -0.295 OA
ATOM      9  C   UNL     1       0.149  29.328  57.494  1.00  0.00     0.093 C 
ENDBRANCH   6   7
ENDBRANCH   1   5
TORSDOF 4
ENDMDL
