MODEL 1
REMARK VINA RESULT:    -5.276      0.000      0.000
REMARK INTER + INTRA:          -5.430
REMARK INTER:                  -5.430
REMARK INTRA:                   0.000
REMARK UNBOUND:                 0.000
REMARK SMILES Nc1ncnc2nc[nH]c12
REMARK SMILES IDX 8 1 7 2 6 3 5 4 4 5 3 6 2 7 10 8 9 9 1 11
REMARK H PARENT 9 10 1 12 1 13
REMARK Flexibility Score: inf
ROOT
ATOM      1  C   UNL     1      -1.309 103.483  11.537  1.00  0.00     0.199 A 
ATOM      2  N   UNL     1      -2.021 102.397  11.129  1.00  0.00    -0.217 NA
ATOM      3  C   UNL     1      -1.225 101.379  11.496  1.00  0.00     0.182 A 
ATOM      4  N   UNL     1      -1.468 100.058  11.320  1.00  0.00    -0.215 NA
ATOM      5  C   UNL     1      -0.533  99.164  11.762  1.00  0.00     0.226 A 
ATOM      6  N   UNL     1       0.618  99.604  12.366  1.00  0.00    -0.217 NA
ATOM      7  C   UNL     1       0.866 100.935  12.545  1.00  0.00     0.152 A 
ATOM      8  C   UNL     1      -0.097 101.832  12.089  1.00  0.00     0.127 A 
ATOM      9  N   UNL     1      -0.127 103.170  12.127  1.00  0.00    -0.340 N 
ATOM     10  H   UNL     1       0.583 103.829  12.514  1.00  0.00     0.168 HD
ENDROOT
BRANCH   7  11
ATOM     11  N   UNL     1       2.071 101.370  13.177  1.00  0.00    -0.382 N 
ATOM     12  H   UNL     1       2.742 100.666  13.559  1.00  0.00     0.158 HD
ATOM     13  H   UNL     1       2.303 102.382  13.268  1.00  0.00     0.158 HD
ENDBRANCH   7  11
TORSDOF 1
ENDMDL
MODEL 2
REMARK VINA RESULT:    -5.043      0.924      3.045
REMARK INTER + INTRA:          -5.190
REMARK INTER:                  -5.190
REMARK INTRA:                   0.000
REMARK UNBOUND:                 0.000
REMARK SMILES Nc1ncnc2nc[nH]c12
REMARK SMILES IDX 8 1 7 2 6 3 5 4 4 5 3 6 2 7 10 8 9 9 1 11
REMARK H PARENT 9 10 1 12 1 13
REMARK Flexibility Score: inf
ROOT
ATOM      1  C   UNL     1       2.163  99.973  13.152  1.00  0.00     0.199 A 
ATOM      2  N   UNL     1       1.250  99.075  12.692  1.00  0.00    -0.217 NA
ATOM      3  C   UNL     1       0.271  99.873  12.232  1.00  0.00     0.182 A 
ATOM      4  N   UNL     1      -0.891  99.479  11.659  1.00  0.00    -0.215 NA
ATOM      5  C   UNL     1      -1.769 100.445  11.250  1.00  0.00     0.226 A 
ATOM      6  N   UNL     1      -1.472 101.772  11.421  1.00  0.00    -0.217 NA
ATOM      7  C   UNL     1      -0.300 102.173  11.998  1.00  0.00     0.152 A 
ATOM      8  C   UNL     1       0.584 101.177  12.408  1.00  0.00     0.127 A 
ATOM      9  N   UNL     1       1.784 101.267  12.994  1.00  0.00    -0.340 N 
ATOM     10  H   UNL     1       2.315 102.122  13.268  1.00  0.00     0.168 HD
ENDROOT
BRANCH   7  11
ATOM     11  N   UNL     1      -0.011 103.561  12.165  1.00  0.00    -0.382 N 
ATOM     12  H   UNL     1      -0.790 104.257  12.187  1.00  0.00     0.158 HD
ATOM     13  H   UNL     1       0.968 103.905  12.266  1.00  0.00     0.158 HD
ENDBRANCH   7  11
TORSDOF 1
ENDMDL
MODEL 3
REMARK VINA RESULT:    -4.733      2.152      2.725
REMARK INTER + INTRA:          -4.871
REMARK INTER:                  -4.871
REMARK INTRA:                   0.000
REMARK UNBOUND:                 0.000
REMARK SMILES Nc1ncnc2nc[nH]c12
REMARK SMILES IDX 8 1 7 2 6 3 5 4 4 5 3 6 2 7 10 8 9 9 1 11
REMARK H PARENT 9 10 1 12 1 13
REMARK Flexibility Score: inf
ROOT
ATOM      1  C   UNL     1       0.021 103.828   8.742  1.00  0.00     0.199 A 
ATOM      2  N   UNL     1       0.369 102.514   8.673  1.00  0.00    -0.217 NA
ATOM      3  C   UNL     1      -0.008 102.055   9.878  1.00  0.00     0.182 A 
ATOM      4  N   UNL     1       0.116 100.786  10.334  1.00  0.00    -0.215 NA
ATOM      5  C   UNL     1      -0.328 100.507  11.598  1.00  0.00     0.226 A 
ATOM      6  N   UNL     1      -0.881 101.494  12.373  1.00  0.00    -0.217 NA
ATOM      7  C   UNL     1      -1.007 102.775  11.916  1.00  0.00     0.152 A 
ATOM      8  C   UNL     1      -0.551 103.042  10.627  1.00  0.00     0.127 A 
ATOM      9  N   UNL     1      -0.543 104.182   9.926  1.00  0.00    -0.340 N 
ATOM     10  H   UNL     1      -0.886 105.126  10.208  1.00  0.00     0.168 HD
ENDROOT
BRANCH   7  11
ATOM     11  N   UNL     1      -1.587 103.786  12.741  1.00  0.00    -0.382 N 
ATOM     12  H   UNL     1      -1.048 104.656  12.957  1.00  0.00     0.158 HD
ATOM     13  H   UNL     1      -2.544 103.680  13.140  1.00  0.00     0.158 HD
ENDBRANCH   7  11
TORSDOF 1
ENDMDL
MODEL 4
REMARK VINA RESULT:    -4.668      9.289     10.116
REMARK INTER + INTRA:          -4.804
REMARK INTER:                  -4.804
REMARK INTRA:                   0.000
REMARK UNBOUND:                 0.000
REMARK SMILES Nc1ncnc2nc[nH]c12
REMARK SMILES IDX 8 1 7 2 6 3 5 4 4 5 3 6 2 7 10 8 9 9 1 11
REMARK H PARENT 9 10 1 12 1 13
REMARK Flexibility Score: inf
ROOT
ATOM      1  C   UNL     1       5.450 104.013   5.259  1.00  0.00     0.199 A 
ATOM      2  N   UNL     1       4.535 104.782   5.909  1.00  0.00    -0.217 NA
ATOM      3  C   UNL     1       3.645 105.048   4.938  1.00  0.00     0.182 A 
ATOM      4  N   UNL     1       2.517 105.790   5.056  1.00  0.00    -0.215 NA
ATOM      5  C   UNL     1       1.730 105.950   3.950  1.00  0.00     0.226 A 
ATOM      6  N   UNL     1       2.082 105.371   2.757  1.00  0.00    -0.217 NA
ATOM      7  C   UNL     1       3.219 104.623   2.635  1.00  0.00     0.152 A 
ATOM      8  C   UNL     1       4.008 104.469   3.771  1.00  0.00     0.127 A 
ATOM      9  N   UNL     1       5.157 103.804   3.950  1.00  0.00    -0.340 N 
ATOM     10  H   UNL     1       5.706 103.251   3.256  1.00  0.00     0.168 HD
ENDROOT
BRANCH   7  11
ATOM     11  N   UNL     1       3.565 104.029   1.383  1.00  0.00    -0.382 N 
ATOM     12  H   UNL     1       3.136 104.388   0.500  1.00  0.00     0.158 HD
ATOM     13  H   UNL     1       4.241 103.238   1.324  1.00  0.00     0.158 HD
ENDBRANCH   7  11
TORSDOF 1
ENDMDL
MODEL 5
REMARK VINA RESULT:    -4.659     10.397     10.909
REMARK INTER + INTRA:          -4.795
REMARK INTER:                  -4.795
REMARK INTRA:                   0.000
REMARK UNBOUND:                 0.000
REMARK SMILES Nc1ncnc2nc[nH]c12
REMARK SMILES IDX 8 1 7 2 6 3 5 4 4 5 3 6 2 7 10 8 9 9 1 11
REMARK H PARENT 9 10 1 12 1 13
REMARK Flexibility Score: inf
ROOT
ATOM      1  C   UNL     1       4.820 106.174   1.033  1.00  0.00     0.199 A 
ATOM      2  N   UNL     1       3.928 105.270   0.543  1.00  0.00    -0.217 NA
ATOM      3  C   UNL     1       3.259 104.901   1.648  1.00  0.00     0.182 A 
ATOM      4  N   UNL     1       2.245 104.006   1.718  1.00  0.00    -0.215 NA
ATOM      5  C   UNL     1       1.685 103.758   2.940  1.00  0.00     0.226 A 
ATOM      6  N   UNL     1       2.145 104.404   4.059  1.00  0.00    -0.217 NA
ATOM      7  C   UNL     1       3.168 105.308   3.992  1.00  0.00     0.152 A 
ATOM      8  C   UNL     1       3.727 105.549   2.739  1.00  0.00     0.127 A 
ATOM      9  N   UNL     1       4.722 106.366   2.374  1.00  0.00    -0.340 N 
ATOM     10  H   UNL     1       5.295 107.004   2.967  1.00  0.00     0.168 HD
ENDROOT
BRANCH   7  11
ATOM     11  N   UNL     1       3.630 105.969   5.170  1.00  0.00    -0.382 N 
ATOM     12  H   UNL     1       3.031 105.989   6.026  1.00  0.00     0.158 HD
ATOM     13  H   UNL     1       4.560 106.439   5.201  1.00  0.00     0.158 HD
ENDBRANCH   7  11
TORSDOF 1
ENDMDL
MODEL 6
REMARK VINA RESULT:    -4.656     12.734     13.340
REMARK INTER + INTRA:          -4.792
REMARK INTER:                  -4.792
REMARK INTRA:                   0.000
REMARK UNBOUND:                 0.000
REMARK SMILES Nc1ncnc2nc[nH]c12
REMARK SMILES IDX 8 1 7 2 6 3 5 4 4 5 3 6 2 7 10 8 9 9 1 11
REMARK H PARENT 9 10 1 12 1 13
REMARK Flexibility Score: inf
ROOT
ATOM      1  C   UNL     1       3.536 104.992   2.496  1.00  0.00     0.199 A 
ATOM      2  N   UNL     1       2.998 105.233   1.269  1.00  0.00    -0.217 NA
ATOM      3  C   UNL     1       3.983 105.908   0.653  1.00  0.00     0.182 A 
ATOM      4  N   UNL     1       3.963 106.392  -0.611  1.00  0.00    -0.215 NA
ATOM      5  C   UNL     1       5.067 107.058  -1.066  1.00  0.00     0.226 A 
ATOM      6  N   UNL     1       6.160 107.226  -0.255  1.00  0.00    -0.217 NA
ATOM      7  C   UNL     1       6.183 106.739   1.022  1.00  0.00     0.152 A 
ATOM      8  C   UNL     1       5.051 106.063   1.469  1.00  0.00     0.127 A 
ATOM      9  N   UNL     1       4.790 105.488   2.650  1.00  0.00    -0.340 N 
ATOM     10  H   UNL     1       5.398 105.428   3.495  1.00  0.00     0.168 HD
ENDROOT
BRANCH   7  11
ATOM     11  N   UNL     1       7.333 106.926   1.849  1.00  0.00    -0.382 N 
ATOM     12  H   UNL     1       7.215 107.127   2.867  1.00  0.00     0.158 HD
ATOM     13  H   UNL     1       8.298 106.865   1.460  1.00  0.00     0.158 HD
ENDBRANCH   7  11
TORSDOF 1
ENDMDL
MODEL 7
REMARK VINA RESULT:    -4.566      5.896      7.990
REMARK INTER + INTRA:          -4.700
REMARK INTER:                  -4.700
REMARK INTRA:                   0.000
REMARK UNBOUND:                 0.000
REMARK SMILES Nc1ncnc2nc[nH]c12
REMARK SMILES IDX 8 1 7 2 6 3 5 4 4 5 3 6 2 7 10 8 9 9 1 11
REMARK H PARENT 9 10 1 12 1 13
REMARK Flexibility Score: inf
ROOT
ATOM      1  C   UNL     1      -1.637  92.901   7.648  1.00  0.00     0.199 A 
ATOM      2  N   UNL     1      -2.235  93.174   8.840  1.00  0.00    -0.217 NA
ATOM      3  C   UNL     1      -2.169  94.515   8.892  1.00  0.00     0.182 A 
ATOM      4  N   UNL     1      -2.630  95.309   9.888  1.00  0.00    -0.215 NA
ATOM      5  C   UNL     1      -2.471  96.661   9.762  1.00  0.00     0.226 A 
ATOM      6  N   UNL     1      -1.858  97.189   8.654  1.00  0.00    -0.217 NA
ATOM      7  C   UNL     1      -1.392  96.390   7.648  1.00  0.00     0.152 A 
ATOM      8  C   UNL     1      -1.563  95.016   7.791  1.00  0.00     0.127 A 
ATOM      9  N   UNL     1      -1.214  94.006   6.984  1.00  0.00    -0.340 N 
ATOM     10  H   UNL     1      -0.732  94.046   6.060  1.00  0.00     0.168 HD
ENDROOT
BRANCH   7  11
ATOM     11  N   UNL     1      -0.758  96.962   6.503  1.00  0.00    -0.382 N 
ATOM     12  H   UNL     1      -0.033  96.418   5.982  1.00  0.00     0.158 HD
ATOM     13  H   UNL     1      -1.001  97.919   6.168  1.00  0.00     0.158 HD
ENDBRANCH   7  11
TORSDOF 1
ENDMDL
MODEL 8
REMARK VINA RESULT:    -4.566      8.647      8.791
REMARK INTER + INTRA:          -4.699
REMARK INTER:                  -4.699
REMARK INTRA:                   0.000
REMARK UNBOUND:                 0.000
REMARK SMILES Nc1ncnc2nc[nH]c12
REMARK SMILES IDX 8 1 7 2 6 3 5 4 4 5 3 6 2 7 10 8 9 9 1 11
REMARK H PARENT 9 10 1 12 1 13
REMARK Flexibility Score: inf
ROOT
ATOM      1  C   UNL     1       0.036 107.348   5.286  1.00  0.00     0.199 A 
ATOM      2  N   UNL     1      -0.688 106.266   4.890  1.00  0.00    -0.217 NA
ATOM      3  C   UNL     1       0.269 105.420   4.472  1.00  0.00     0.182 A 
ATOM      4  N   UNL     1       0.085 104.175   3.972  1.00  0.00    -0.215 NA
ATOM      5  C   UNL     1       1.189 103.460   3.597  1.00  0.00     0.226 A 
ATOM      6  N   UNL     1       2.444 103.998   3.729  1.00  0.00    -0.217 NA
ATOM      7  C   UNL     1       2.632 105.253   4.233  1.00  0.00     0.152 A 
ATOM      8  C   UNL     1       1.498 105.968   4.611  1.00  0.00     0.127 A 
ATOM      9  N   UNL     1       1.376 107.197   5.127  1.00  0.00    -0.340 N 
ATOM     10  H   UNL     1       2.124 107.886   5.357  1.00  0.00     0.168 HD
ENDROOT
BRANCH   7  11
ATOM     11  N   UNL     1       3.948 105.793   4.362  1.00  0.00    -0.382 N 
ATOM     12  H   UNL     1       4.746 105.347   3.856  1.00  0.00     0.158 HD
ATOM     13  H   UNL     1       4.138 106.630   4.954  1.00  0.00     0.158 HD
ENDBRANCH   7  11
TORSDOF 1
ENDMDL
MODEL 9
REMARK VINA RESULT:    -4.561      7.902      8.496
REMARK INTER + INTRA:          -4.695
REMARK INTER:                  -4.695
REMARK INTRA:                   0.000
REMARK UNBOUND:                 0.000
REMARK SMILES Nc1ncnc2nc[nH]c12
REMARK SMILES IDX 8 1 7 2 6 3 5 4 4 5 3 6 2 7 10 8 9 9 1 11
REMARK H PARENT 9 10 1 12 1 13
REMARK Flexibility Score: inf
ROOT
ATOM      1  C   UNL     1       1.005 103.228   2.140  1.00  0.00     0.199 A 
ATOM      2  N   UNL     1       1.212 103.699   3.400  1.00  0.00    -0.217 NA
ATOM      3  C   UNL     1       0.944 102.620   4.156  1.00  0.00     0.182 A 
ATOM      4  N   UNL     1       1.000 102.546   5.507  1.00  0.00    -0.215 NA
ATOM      5  C   UNL     1       0.690 101.354   6.102  1.00  0.00     0.226 A 
ATOM      6  N   UNL     1       0.332 100.270   5.342  1.00  0.00    -0.217 NA
ATOM      7  C   UNL     1       0.275 100.343   3.978  1.00  0.00     0.152 A 
ATOM      8  C   UNL     1       0.595 101.563   3.389  1.00  0.00     0.127 A 
ATOM      9  N   UNL     1       0.625 101.925   2.100  1.00  0.00    -0.340 N 
ATOM     10  H   UNL     1       0.411 101.352   1.255  1.00  0.00     0.168 HD
ENDROOT
BRANCH   7  11
ATOM     11  N   UNL     1      -0.099  99.200   3.207  1.00  0.00    -0.382 N 
ATOM     12  H   UNL     1      -1.065  98.809   3.289  1.00  0.00     0.158 HD
ATOM     13  H   UNL     1       0.573  98.740   2.556  1.00  0.00     0.158 HD
ENDBRANCH   7  11
TORSDOF 1
ENDMDL
