MODEL 1
REMARK VINA RESULT:    -3.533      0.000      0.000
REMARK INTER + INTRA:          -6.107
REMARK INTER:                  -5.598
REMARK INTRA:                  -0.509
REMARK UNBOUND:                -0.509
REMARK SMILES CCCCCCCCCCCC(=O)[O-]
REMARK SMILES IDX 7 1 8 2 9 3 10 4 11 5 12 6 13 7 14 8 6 9 5 10 4 11 3 12 2 13
REMARK SMILES IDX 1 14
REMARK H PARENT
REMARK Flexibility Score: inf
ROOT
ATOM      1  C   UNL     1       7.359   6.656  35.449  1.00  0.00     0.000 C 
ENDROOT
BRANCH   1   2
ATOM      2  C   UNL     1       6.403   6.055  36.497  1.00  0.00     0.000 C 
BRANCH   2   3
ATOM      3  C   UNL     1       6.709   4.599  36.902  1.00  0.00     0.000 C 
BRANCH   3   4
ATOM      4  C   UNL     1       7.752   3.887  36.022  1.00  0.00     0.006 C 
BRANCH   4   5
ATOM      5  C   UNL     1       8.906   3.286  36.833  1.00  0.00     0.053 C 
BRANCH   5   6
ATOM      6  C   UNL     1      10.214   3.565  36.165  1.00  0.00     0.041 C 
ATOM      7  O   UNL     1      11.160   2.738  36.252  1.00  0.00    -0.550 OA
ATOM      8  O   UNL     1      10.375   4.716  35.404  1.00  0.00    -0.550 OA
ENDBRANCH   5   6
ENDBRANCH   4   5
ENDBRANCH   3   4
ENDBRANCH   2   3
ENDBRANCH   1   2
BRANCH   1   9
ATOM      9  C   UNL     1       6.888   6.530  33.986  1.00  0.00     0.000 C 
BRANCH   9  10
ATOM     10  C   UNL     1       6.415   7.843  33.340  1.00  0.00    -0.000 C 
BRANCH  10  11
ATOM     11  C   UNL     1       7.471   8.957  33.409  1.00  0.00    -0.000 C 
BRANCH  11  12
ATOM     12  C   UNL     1       6.956  10.244  32.752  1.00  0.00    -0.000 C 
BRANCH  12  13
ATOM     13  C   UNL     1       5.875  10.906  33.614  1.00  0.00    -0.003 C 
ATOM     14  C   UNL     1       6.301  10.973  35.077  1.00  0.00     0.004 C 
ENDBRANCH  12  13
ENDBRANCH  11  12
ENDBRANCH  10  11
ENDBRANCH   9  10
ENDBRANCH   1   9
TORSDOF 10
ENDMDL
MODEL 2
REMARK VINA RESULT:    -3.511      3.305      6.677
REMARK INTER + INTRA:          -6.072
REMARK INTER:                  -5.132
REMARK INTRA:                  -0.940
REMARK UNBOUND:                -0.509
REMARK SMILES CCCCCCCCCCCC(=O)[O-]
REMARK SMILES IDX 7 1 8 2 9 3 10 4 11 5 12 6 13 7 14 8 6 9 5 10 4 11 3 12 2 13
REMARK SMILES IDX 1 14
REMARK H PARENT
REMARK Flexibility Score: inf
ROOT
ATOM      1  C   UNL     1       7.568   5.280  36.790  1.00  0.00     0.000 C 
ENDROOT
BRANCH   1   2
ATOM      2  C   UNL     1       7.650   6.545  35.912  1.00  0.00     0.000 C 
BRANCH   2   3
ATOM      3  C   UNL     1       7.373   6.317  34.413  1.00  0.00     0.000 C 
BRANCH   3   4
ATOM      4  C   UNL     1       6.973   7.580  33.628  1.00  0.00     0.006 C 
BRANCH   4   5
ATOM      5  C   UNL     1       6.181   8.582  34.476  1.00  0.00     0.053 C 
BRANCH   5   6
ATOM      6  C   UNL     1       6.309   9.960  33.909  1.00  0.00     0.041 C 
ATOM      7  O   UNL     1       6.604  10.121  32.695  1.00  0.00    -0.550 OA
ATOM      8  O   UNL     1       6.056  11.068  34.707  1.00  0.00    -0.550 OA
ENDBRANCH   5   6
ENDBRANCH   4   5
ENDBRANCH   3   4
ENDBRANCH   2   3
ENDBRANCH   1   2
BRANCH   1   9
ATOM      9  C   UNL     1       6.578   4.206  36.298  1.00  0.00     0.000 C 
BRANCH   9  10
ATOM     10  C   UNL     1       7.208   2.838  35.983  1.00  0.00    -0.000 C 
BRANCH  10  11
ATOM     11  C   UNL     1       8.326   2.455  36.965  1.00  0.00    -0.000 C 
BRANCH  11  12
ATOM     12  C   UNL     1       9.619   2.107  36.217  1.00  0.00    -0.000 C 
BRANCH  12  13
ATOM     13  C   UNL     1      10.677   3.199  36.412  1.00  0.00    -0.003 C 
ATOM     14  C   UNL     1      10.622   4.227  35.286  1.00  0.00     0.004 C 
ENDBRANCH  12  13
ENDBRANCH  11  12
ENDBRANCH  10  11
ENDBRANCH   9  10
ENDBRANCH   1   9
TORSDOF 10
ENDMDL
MODEL 3
REMARK VINA RESULT:    -3.424      1.132      2.114
REMARK INTER + INTRA:          -5.935
REMARK INTER:                  -5.031
REMARK INTRA:                  -0.905
REMARK UNBOUND:                -0.509
REMARK SMILES CCCCCCCCCCCC(=O)[O-]
REMARK SMILES IDX 7 1 8 2 9 3 10 4 11 5 12 6 13 7 14 8 6 9 5 10 4 11 3 12 2 13
REMARK SMILES IDX 1 14
REMARK H PARENT
REMARK Flexibility Score: inf
ROOT
ATOM      1  C   UNL     1       6.660   5.626  35.056  1.00  0.00     0.000 C 
ENDROOT
BRANCH   1   2
ATOM      2  C   UNL     1       6.497   4.097  35.172  1.00  0.00     0.000 C 
BRANCH   2   3
ATOM      3  C   UNL     1       6.834   3.509  36.557  1.00  0.00     0.000 C 
BRANCH   3   4
ATOM      4  C   UNL     1       8.149   2.712  36.621  1.00  0.00     0.006 C 
BRANCH   4   5
ATOM      5  C   UNL     1       9.331   3.549  37.125  1.00  0.00     0.053 C 
BRANCH   5   6
ATOM      6  C   UNL     1      10.395   3.633  36.078  1.00  0.00     0.041 C 
ATOM      7  O   UNL     1      10.388   4.574  35.241  1.00  0.00    -0.550 OA
ATOM      8  O   UNL     1      11.423   2.700  36.055  1.00  0.00    -0.550 OA
ENDBRANCH   5   6
ENDBRANCH   4   5
ENDBRANCH   3   4
ENDBRANCH   2   3
ENDBRANCH   1   2
BRANCH   1   9
ATOM      9  C   UNL     1       7.200   6.324  36.320  1.00  0.00     0.000 C 
BRANCH   9  10
ATOM     10  C   UNL     1       6.653   7.740  36.565  1.00  0.00    -0.000 C 
BRANCH  10  11
ATOM     11  C   UNL     1       5.879   8.298  35.360  1.00  0.00    -0.000 C 
BRANCH  11  12
ATOM     12  C   UNL     1       6.249   9.764  35.101  1.00  0.00    -0.000 C 
BRANCH  12  13
ATOM     13  C   UNL     1       6.720   9.964  33.657  1.00  0.00    -0.003 C 
ATOM     14  C   UNL     1       7.006   8.628  32.979  1.00  0.00     0.004 C 
ENDBRANCH  12  13
ENDBRANCH  11  12
ENDBRANCH  10  11
ENDBRANCH   9  10
ENDBRANCH   1   9
TORSDOF 10
ENDMDL
MODEL 4
REMARK VINA RESULT:    -3.045     20.766     21.832
REMARK INTER + INTRA:          -5.334
REMARK INTER:                  -3.761
REMARK INTRA:                  -1.573
REMARK UNBOUND:                -0.509
REMARK SMILES CCCCCCCCCCCC(=O)[O-]
REMARK SMILES IDX 7 1 8 2 9 3 10 4 11 5 12 6 13 7 14 8 6 9 5 10 4 11 3 12 2 13
REMARK SMILES IDX 1 14
REMARK H PARENT
REMARK Flexibility Score: inf
ROOT
ATOM      1  C   UNL     1      19.743   3.589  19.431  1.00  0.00     0.000 C 
ENDROOT
BRANCH   1   2
ATOM      2  C   UNL     1      20.690   3.560  20.647  1.00  0.00     0.000 C 
BRANCH   2   3
ATOM      3  C   UNL     1      21.667   2.367  20.686  1.00  0.00     0.000 C 
BRANCH   3   4
ATOM      4  C   UNL     1      23.151   2.739  20.517  1.00  0.00     0.006 C 
BRANCH   4   5
ATOM      5  C   UNL     1      23.480   4.139  21.048  1.00  0.00     0.053 C 
BRANCH   5   6
ATOM      6  C   UNL     1      24.958   4.368  21.037  1.00  0.00     0.041 C 
ATOM      7  O   UNL     1      25.577   4.454  19.944  1.00  0.00    -0.550 OA
ATOM      8  O   UNL     1      25.644   4.535  22.232  1.00  0.00    -0.550 OA
ENDBRANCH   5   6
ENDBRANCH   4   5
ENDBRANCH   3   4
ENDBRANCH   2   3
ENDBRANCH   1   2
BRANCH   1   9
ATOM      9  C   UNL     1      19.856   2.376  18.486  1.00  0.00     0.000 C 
BRANCH   9  10
ATOM     10  C   UNL     1      20.666   2.625  17.203  1.00  0.00    -0.000 C 
BRANCH  10  11
ATOM     11  C   UNL     1      21.085   4.094  17.037  1.00  0.00    -0.000 C 
BRANCH  11  12
ATOM     12  C   UNL     1      22.600   4.256  17.212  1.00  0.00    -0.000 C 
BRANCH  12  13
ATOM     13  C   UNL     1      22.942   5.634  17.789  1.00  0.00    -0.003 C 
ATOM     14  C   UNL     1      21.679   6.406  18.158  1.00  0.00     0.004 C 
ENDBRANCH  12  13
ENDBRANCH  11  12
ENDBRANCH  10  11
ENDBRANCH   9  10
ENDBRANCH   1   9
TORSDOF 10
ENDMDL
MODEL 5
REMARK VINA RESULT:    -2.846     23.247     24.974
REMARK INTER + INTRA:          -5.018
REMARK INTER:                  -4.383
REMARK INTRA:                  -0.635
REMARK UNBOUND:                -0.509
REMARK SMILES CCCCCCCCCCCC(=O)[O-]
REMARK SMILES IDX 7 1 8 2 9 3 10 4 11 5 12 6 13 7 14 8 6 9 5 10 4 11 3 12 2 13
REMARK SMILES IDX 1 14
REMARK H PARENT
REMARK Flexibility Score: inf
ROOT
ATOM      1  C   UNL     1      20.693  20.612  20.663  1.00  0.00     0.000 C 
ENDROOT
BRANCH   1   2
ATOM      2  C   UNL     1      21.545  21.895  20.600  1.00  0.00     0.000 C 
BRANCH   2   3
ATOM      3  C   UNL     1      23.011  21.685  20.173  1.00  0.00     0.000 C 
BRANCH   3   4
ATOM      4  C   UNL     1      23.411  20.219  19.926  1.00  0.00     0.006 C 
BRANCH   4   5
ATOM      5  C   UNL     1      24.758  19.854  20.563  1.00  0.00     0.053 C 
BRANCH   5   6
ATOM      6  C   UNL     1      25.427  18.769  19.781  1.00  0.00     0.041 C 
ATOM      7  O   UNL     1      25.708  18.945  18.566  1.00  0.00    -0.550 OA
ATOM      8  O   UNL     1      25.786  17.581  20.404  1.00  0.00    -0.550 OA
ENDBRANCH   5   6
ENDBRANCH   4   5
ENDBRANCH   3   4
ENDBRANCH   2   3
ENDBRANCH   1   2
BRANCH   1   9
ATOM      9  C   UNL     1      19.170  20.833  20.571  1.00  0.00     0.000 C 
BRANCH   9  10
ATOM     10  C   UNL     1      18.431  19.877  19.620  1.00  0.00    -0.000 C 
BRANCH  10  11
ATOM     11  C   UNL     1      18.855  20.046  18.153  1.00  0.00    -0.000 C 
BRANCH  11  12
ATOM     12  C   UNL     1      18.992  18.685  17.460  1.00  0.00    -0.000 C 
BRANCH  12  13
ATOM     13  C   UNL     1      18.290  17.586  18.264  1.00  0.00    -0.003 C 
ATOM     14  C   UNL     1      18.680  16.200  17.761  1.00  0.00     0.004 C 
ENDBRANCH  12  13
ENDBRANCH  11  12
ENDBRANCH  10  11
ENDBRANCH   9  10
ENDBRANCH   1   9
TORSDOF 10
ENDMDL
MODEL 6
REMARK VINA RESULT:    -2.841     21.052     22.156
REMARK INTER + INTRA:          -5.011
REMARK INTER:                  -3.818
REMARK INTRA:                  -1.193
REMARK UNBOUND:                -0.509
REMARK SMILES CCCCCCCCCCCC(=O)[O-]
REMARK SMILES IDX 7 1 8 2 9 3 10 4 11 5 12 6 13 7 14 8 6 9 5 10 4 11 3 12 2 13
REMARK SMILES IDX 1 14
REMARK H PARENT
REMARK Flexibility Score: inf
ROOT
ATOM      1  C   UNL     1      20.151   3.766  19.560  1.00  0.00     0.000 C 
ENDROOT
BRANCH   1   2
ATOM      2  C   UNL     1      21.071   3.242  20.679  1.00  0.00     0.000 C 
BRANCH   2   3
ATOM      3  C   UNL     1      22.578   3.275  20.355  1.00  0.00     0.000 C 
BRANCH   3   4
ATOM      4  C   UNL     1      23.371   4.383  21.072  1.00  0.00     0.006 C 
BRANCH   4   5
ATOM      5  C   UNL     1      24.889   4.208  20.943  1.00  0.00     0.053 C 
BRANCH   5   6
ATOM      6  C   UNL     1      25.421   3.404  22.087  1.00  0.00     0.041 C 
ATOM      7  O   UNL     1      25.828   3.980  23.130  1.00  0.00    -0.550 OA
ATOM      8  O   UNL     1      25.420   2.017  22.022  1.00  0.00    -0.550 OA
ENDBRANCH   5   6
ENDBRANCH   4   5
ENDBRANCH   3   4
ENDBRANCH   2   3
ENDBRANCH   1   2
BRANCH   1   9
ATOM      9  C   UNL     1      20.836   3.971  18.193  1.00  0.00     0.000 C 
BRANCH   9  10
ATOM     10  C   UNL     1      20.836   5.420  17.678  1.00  0.00    -0.000 C 
BRANCH  10  11
ATOM     11  C   UNL     1      22.090   6.203  18.098  1.00  0.00    -0.000 C 
BRANCH  11  12
ATOM     12  C   UNL     1      23.170   6.133  17.012  1.00  0.00    -0.000 C 
BRANCH  12  13
ATOM     13  C   UNL     1      24.194   5.038  17.325  1.00  0.00    -0.003 C 
ATOM     14  C   UNL     1      25.599   5.618  17.462  1.00  0.00     0.004 C 
ENDBRANCH  12  13
ENDBRANCH  11  12
ENDBRANCH  10  11
ENDBRANCH   9  10
ENDBRANCH   1   9
TORSDOF 10
ENDMDL
MODEL 7
REMARK VINA RESULT:    -2.818     20.845     22.438
REMARK INTER + INTRA:          -4.974
REMARK INTER:                  -4.005
REMARK INTRA:                  -0.969
REMARK UNBOUND:                -0.509
REMARK SMILES CCCCCCCCCCCC(=O)[O-]
REMARK SMILES IDX 7 1 8 2 9 3 10 4 11 5 12 6 13 7 14 8 6 9 5 10 4 11 3 12 2 13
REMARK SMILES IDX 1 14
REMARK H PARENT
REMARK Flexibility Score: inf
ROOT
ATOM      1  C   UNL     1      20.714   3.594  20.694  1.00  0.00     0.000 C 
ENDROOT
BRANCH   1   2
ATOM      2  C   UNL     1      19.972   3.701  19.348  1.00  0.00     0.000 C 
BRANCH   2   3
ATOM      3  C   UNL     1      20.736   3.134  18.134  1.00  0.00     0.000 C 
BRANCH   3   4
ATOM      4  C   UNL     1      21.210   4.187  17.116  1.00  0.00     0.006 C 
BRANCH   4   5
ATOM      5  C   UNL     1      21.147   5.617  17.665  1.00  0.00     0.053 C 
BRANCH   5   6
ATOM      6  C   UNL     1      22.434   6.333  17.402  1.00  0.00     0.041 C 
ATOM      7  O   UNL     1      23.528   5.713  17.468  1.00  0.00    -0.550 OA
ATOM      8  O   UNL     1      22.423   7.673  17.036  1.00  0.00    -0.550 OA
ENDBRANCH   5   6
ENDBRANCH   4   5
ENDBRANCH   3   4
ENDBRANCH   2   3
ENDBRANCH   1   2
BRANCH   1   9
ATOM      9  C   UNL     1      22.224   3.302  20.586  1.00  0.00     0.000 C 
BRANCH   9  10
ATOM     10  C   UNL     1      23.136   4.534  20.717  1.00  0.00    -0.000 C 
BRANCH  10  11
ATOM     11  C   UNL     1      24.627   4.170  20.776  1.00  0.00    -0.000 C 
BRANCH  11  12
ATOM     12  C   UNL     1      25.191   4.389  22.185  1.00  0.00    -0.000 C 
BRANCH  12  13
ATOM     13  C   UNL     1      26.000   3.173  22.649  1.00  0.00    -0.003 C 
ATOM     14  C   UNL     1      25.410   1.877  22.101  1.00  0.00     0.004 C 
ENDBRANCH  12  13
ENDBRANCH  11  12
ENDBRANCH  10  11
ENDBRANCH   9  10
ENDBRANCH   1   9
TORSDOF 10
ENDMDL
MODEL 8
REMARK VINA RESULT:    -2.798     22.817     25.351
REMARK INTER + INTRA:          -4.942
REMARK INTER:                  -3.816
REMARK INTRA:                  -1.126
REMARK UNBOUND:                -0.509
REMARK SMILES CCCCCCCCCCCC(=O)[O-]
REMARK SMILES IDX 7 1 8 2 9 3 10 4 11 5 12 6 13 7 14 8 6 9 5 10 4 11 3 12 2 13
REMARK SMILES IDX 1 14
REMARK H PARENT
REMARK Flexibility Score: inf
ROOT
ATOM      1  C   UNL     1      22.069  21.642  20.680  1.00  0.00     0.000 C 
ENDROOT
BRANCH   1   2
ATOM      2  C   UNL     1      20.904  20.637  20.754  1.00  0.00     0.000 C 
BRANCH   2   3
ATOM      3  C   UNL     1      19.502  21.269  20.865  1.00  0.00     0.000 C 
BRANCH   3   4
ATOM      4  C   UNL     1      18.622  21.119  19.611  1.00  0.00     0.006 C 
BRANCH   4   5
ATOM      5  C   UNL     1      18.955  19.864  18.795  1.00  0.00     0.053 C 
BRANCH   5   6
ATOM      6  C   UNL     1      17.957  18.785  19.066  1.00  0.00     0.041 C 
ATOM      7  O   UNL     1      16.946  19.021  19.779  1.00  0.00    -0.550 OA
ATOM      8  O   UNL     1      18.114  17.531  18.490  1.00  0.00    -0.550 OA
ENDBRANCH   5   6
ENDBRANCH   4   5
ENDBRANCH   3   4
ENDBRANCH   2   3
ENDBRANCH   1   2
BRANCH   1   9
ATOM      9  C   UNL     1      22.488  22.053  19.253  1.00  0.00     0.000 C 
BRANCH   9  10
ATOM     10  C   UNL     1      22.414  20.928  18.206  1.00  0.00    -0.000 C 
BRANCH  10  11
ATOM     11  C   UNL     1      23.751  20.691  17.488  1.00  0.00    -0.000 C 
BRANCH  11  12
ATOM     12  C   UNL     1      24.908  20.614  18.493  1.00  0.00    -0.000 C 
BRANCH  12  13
ATOM     13  C   UNL     1      25.155  19.168  18.936  1.00  0.00    -0.003 C 
ATOM     14  C   UNL     1      24.654  18.934  20.357  1.00  0.00     0.004 C 
ENDBRANCH  12  13
ENDBRANCH  11  12
ENDBRANCH  10  11
ENDBRANCH   9  10
ENDBRANCH   1   9
TORSDOF 10
ENDMDL
MODEL 9
REMARK VINA RESULT:    -2.789     21.044     22.335
REMARK INTER + INTRA:          -4.928
REMARK INTER:                  -3.646
REMARK INTRA:                  -1.282
REMARK UNBOUND:                -0.509
REMARK SMILES CCCCCCCCCCCC(=O)[O-]
REMARK SMILES IDX 7 1 8 2 9 3 10 4 11 5 12 6 13 7 14 8 6 9 5 10 4 11 3 12 2 13
REMARK SMILES IDX 1 14
REMARK H PARENT
REMARK Flexibility Score: inf
ROOT
ATOM      1  C   UNL     1      22.225   6.200  17.997  1.00  0.00     0.000 C 
ENDROOT
BRANCH   1   2
ATOM      2  C   UNL     1      23.413   5.909  17.059  1.00  0.00     0.000 C 
BRANCH   2   3
ATOM      3  C   UNL     1      24.509   5.003  17.656  1.00  0.00     0.000 C 
BRANCH   3   4
ATOM      4  C   UNL     1      24.160   4.372  19.016  1.00  0.00     0.006 C 
BRANCH   4   5
ATOM      5  C   UNL     1      25.346   4.357  19.988  1.00  0.00     0.053 C 
BRANCH   5   6
ATOM      6  C   UNL     1      24.927   3.802  21.312  1.00  0.00     0.041 C 
ATOM      7  O   UNL     1      24.385   4.549  22.169  1.00  0.00    -0.550 OA
ATOM      8  O   UNL     1      25.090   2.450  21.583  1.00  0.00    -0.550 OA
ENDBRANCH   5   6
ENDBRANCH   4   5
ENDBRANCH   3   4
ENDBRANCH   2   3
ENDBRANCH   1   2
BRANCH   1   9
ATOM      9  C   UNL     1      20.872   5.620  17.537  1.00  0.00     0.000 C 
BRANCH   9  10
ATOM     10  C   UNL     1      20.929   4.176  17.012  1.00  0.00    -0.000 C 
BRANCH  10  11
ATOM     11  C   UNL     1      20.852   3.129  18.135  1.00  0.00    -0.000 C 
BRANCH  11  12
ATOM     12  C   UNL     1      20.025   3.650  19.316  1.00  0.00    -0.000 C 
BRANCH  12  13
ATOM     13  C   UNL     1      20.793   3.501  20.633  1.00  0.00    -0.003 C 
ATOM     14  C   UNL     1      21.595   2.203  20.660  1.00  0.00     0.004 C 
ENDBRANCH  12  13
ENDBRANCH  11  12
ENDBRANCH  10  11
ENDBRANCH   9  10
ENDBRANCH   1   9
TORSDOF 10
ENDMDL
