MODEL 1
REMARK VINA RESULT:    -3.984      0.000      0.000
REMARK INTER + INTRA:          -4.227
REMARK INTER:                  -4.217
REMARK INTRA:                  -0.010
REMARK UNBOUND:                -0.010
REMARK SMILES O=Cc1ccco1
REMARK SMILES IDX 5 1 6 2 7 3 3 4 4 5 2 6 1 7
REMARK H PARENT
REMARK Flexibility Score: inf
ROOT
ATOM      1  C   UNL     1       1.868  -5.390  -1.844  1.00  0.00     0.043 A 
ATOM      2  C   UNL     1       2.842  -5.849  -2.707  1.00  0.00     0.196 A 
ATOM      3  O   UNL     1       3.284  -7.017  -2.296  1.00  0.00    -0.462 OA
ATOM      4  C   UNL     1       2.639  -7.344  -1.201  1.00  0.00     0.166 A 
ATOM      5  C   UNL     1       1.734  -6.355  -0.869  1.00  0.00     0.054 A 
ENDROOT
BRANCH   4   6
ATOM      6  C   UNL     1       2.872  -8.588  -0.462  1.00  0.00     0.298 C 
ATOM      7  O   UNL     1       2.028  -9.521  -0.494  1.00  0.00    -0.294 OA
ENDBRANCH   4   6
TORSDOF 1
ENDMDL
MODEL 2
REMARK VINA RESULT:    -3.935      8.066      8.984
REMARK INTER + INTRA:          -4.176
REMARK INTER:                  -4.166
REMARK INTRA:                  -0.010
REMARK UNBOUND:                -0.010
REMARK SMILES O=Cc1ccco1
REMARK SMILES IDX 5 1 6 2 7 3 3 4 4 5 2 6 1 7
REMARK H PARENT
REMARK Flexibility Score: inf
ROOT
ATOM      1  C   UNL     1      -3.956  -4.776   3.915  1.00  0.00     0.043 A 
ATOM      2  C   UNL     1      -5.013  -5.099   4.743  1.00  0.00     0.196 A 
ATOM      3  O   UNL     1      -5.605  -6.185   4.302  1.00  0.00    -0.462 OA
ATOM      4  C   UNL     1      -4.981  -6.591   3.222  1.00  0.00     0.166 A 
ATOM      5  C   UNL     1      -3.934  -5.740   2.930  1.00  0.00     0.054 A 
ENDROOT
BRANCH   4   6
ATOM      6  C   UNL     1      -5.368  -7.780   2.457  1.00  0.00     0.298 C 
ATOM      7  O   UNL     1      -4.667  -8.825   2.496  1.00  0.00    -0.294 OA
ENDBRANCH   4   6
TORSDOF 1
ENDMDL
MODEL 3
REMARK VINA RESULT:    -3.698      8.853      9.724
REMARK INTER + INTRA:          -3.924
REMARK INTER:                  -3.911
REMARK INTRA:                  -0.013
REMARK UNBOUND:                -0.010
REMARK SMILES O=Cc1ccco1
REMARK SMILES IDX 5 1 6 2 7 3 3 4 4 5 2 6 1 7
REMARK H PARENT
REMARK Flexibility Score: inf
ROOT
ATOM      1  C   UNL     1      -3.538  -4.978   3.119  1.00  0.00     0.043 A 
ATOM      2  C   UNL     1      -3.977  -6.270   2.909  1.00  0.00     0.196 A 
ATOM      3  O   UNL     1      -5.058  -6.491   3.622  1.00  0.00    -0.462 OA
ATOM      4  C   UNL     1      -5.348  -5.399   4.290  1.00  0.00     0.166 A 
ATOM      5  C   UNL     1      -4.423  -4.413   4.011  1.00  0.00     0.054 A 
ENDROOT
BRANCH   4   6
ATOM      6  C   UNL     1      -6.496  -5.279   5.193  1.00  0.00     0.298 C 
ATOM      7  O   UNL     1      -6.710  -6.149   6.078  1.00  0.00    -0.294 OA
ENDBRANCH   4   6
TORSDOF 1
ENDMDL
MODEL 4
REMARK VINA RESULT:    -3.657      7.962      8.930
REMARK INTER + INTRA:          -3.880
REMARK INTER:                  -3.870
REMARK INTRA:                  -0.011
REMARK UNBOUND:                -0.010
REMARK SMILES O=Cc1ccco1
REMARK SMILES IDX 5 1 6 2 7 3 3 4 4 5 2 6 1 7
REMARK H PARENT
REMARK Flexibility Score: inf
ROOT
ATOM      1  C   UNL     1      -3.272  -7.475   2.148  1.00  0.00     0.043 A 
ATOM      2  C   UNL     1      -4.358  -8.325   2.199  1.00  0.00     0.196 A 
ATOM      3  O   UNL     1      -5.317  -7.778   2.911  1.00  0.00    -0.462 OA
ATOM      4  C   UNL     1      -4.907  -6.603   3.329  1.00  0.00     0.166 A 
ATOM      5  C   UNL     1      -3.624  -6.360   2.878  1.00  0.00     0.054 A 
ENDROOT
BRANCH   4   6
ATOM      6  C   UNL     1      -5.719  -5.705   4.154  1.00  0.00     0.298 C 
ATOM      7  O   UNL     1      -5.208  -5.088   5.126  1.00  0.00    -0.294 OA
ENDBRANCH   4   6
TORSDOF 1
ENDMDL
MODEL 5
REMARK VINA RESULT:    -3.652      1.507      3.128
REMARK INTER + INTRA:          -3.876
REMARK INTER:                  -3.865
REMARK INTRA:                  -0.011
REMARK UNBOUND:                -0.010
REMARK SMILES O=Cc1ccco1
REMARK SMILES IDX 5 1 6 2 7 3 3 4 4 5 2 6 1 7
REMARK H PARENT
REMARK Flexibility Score: inf
ROOT
ATOM      1  C   UNL     1       1.313  -8.587   0.023  1.00  0.00     0.043 A 
ATOM      2  C   UNL     1       2.569  -8.888  -0.465  1.00  0.00     0.196 A 
ATOM      3  O   UNL     1       2.993  -7.909  -1.231  1.00  0.00    -0.462 OA
ATOM      4  C   UNL     1       2.069  -6.977  -1.266  1.00  0.00     0.166 A 
ATOM      5  C   UNL     1       0.988  -7.351  -0.493  1.00  0.00     0.054 A 
ENDROOT
BRANCH   4   6
ATOM      6  C   UNL     1       2.199  -5.731  -2.026  1.00  0.00     0.298 C 
ATOM      7  O   UNL     1       1.643  -4.674  -1.627  1.00  0.00    -0.294 OA
ENDBRANCH   4   6
TORSDOF 1
ENDMDL
MODEL 6
REMARK VINA RESULT:    -3.630      1.188      3.013
REMARK INTER + INTRA:          -3.852
REMARK INTER:                  -3.840
REMARK INTRA:                  -0.012
REMARK UNBOUND:                -0.010
REMARK SMILES O=Cc1ccco1
REMARK SMILES IDX 5 1 6 2 7 3 3 4 4 5 2 6 1 7
REMARK H PARENT
REMARK Flexibility Score: inf
ROOT
ATOM      1  C   UNL     1       1.059  -8.563  -0.046  1.00  0.00     0.043 A 
ATOM      2  C   UNL     1       2.235  -9.253  -0.269  1.00  0.00     0.196 A 
ATOM      3  O   UNL     1       3.062  -8.505  -0.963  1.00  0.00    -0.462 OA
ATOM      4  C   UNL     1       2.480  -7.354  -1.204  1.00  0.00     0.166 A 
ATOM      5  C   UNL     1       1.216  -7.335  -0.650  1.00  0.00     0.054 A 
ENDROOT
BRANCH   4   6
ATOM      6  C   UNL     1       3.111  -6.266  -1.959  1.00  0.00     0.298 C 
ATOM      7  O   UNL     1       3.474  -6.439  -3.151  1.00  0.00    -0.294 OA
ENDBRANCH   4   6
TORSDOF 1
ENDMDL
MODEL 7
REMARK VINA RESULT:    -3.560      2.176      2.672
REMARK INTER + INTRA:          -3.778
REMARK INTER:                  -3.767
REMARK INTRA:                  -0.011
REMARK UNBOUND:                -0.010
REMARK SMILES O=Cc1ccco1
REMARK SMILES IDX 5 1 6 2 7 3 3 4 4 5 2 6 1 7
REMARK H PARENT
REMARK Flexibility Score: inf
ROOT
ATOM      1  C   UNL     1       1.943  -5.478  -2.020  1.00  0.00     0.043 A 
ATOM      2  C   UNL     1       2.836  -5.936  -2.969  1.00  0.00     0.196 A 
ATOM      3  O   UNL     1       3.987  -6.211  -2.398  1.00  0.00    -0.462 OA
ATOM      4  C   UNL     1       3.888  -5.953  -1.116  1.00  0.00     0.166 A 
ATOM      5  C   UNL     1       2.622  -5.489  -0.820  1.00  0.00     0.054 A 
ENDROOT
BRANCH   4   6
ATOM      6  C   UNL     1       4.985  -6.143  -0.162  1.00  0.00     0.298 C 
ATOM      7  O   UNL     1       5.906  -5.291  -0.065  1.00  0.00    -0.294 OA
ENDBRANCH   4   6
TORSDOF 1
ENDMDL
MODEL 8
REMARK VINA RESULT:    -3.554      2.408      3.100
REMARK INTER + INTRA:          -3.772
REMARK INTER:                  -3.760
REMARK INTRA:                  -0.011
REMARK UNBOUND:                -0.010
REMARK SMILES O=Cc1ccco1
REMARK SMILES IDX 5 1 6 2 7 3 3 4 4 5 2 6 1 7
REMARK H PARENT
REMARK Flexibility Score: inf
ROOT
ATOM      1  C   UNL     1       2.844  -8.419  -0.478  1.00  0.00     0.043 A 
ATOM      2  C   UNL     1       2.338  -7.177  -0.806  1.00  0.00     0.196 A 
ATOM      3  O   UNL     1       1.026  -7.204  -0.753  1.00  0.00    -0.462 OA
ATOM      4  C   UNL     1       0.648  -8.411  -0.402  1.00  0.00     0.166 A 
ATOM      5  C   UNL     1       1.752  -9.219  -0.216  1.00  0.00     0.054 A 
ENDROOT
BRANCH   4   6
ATOM      6  C   UNL     1      -0.753  -8.811  -0.241  1.00  0.00     0.298 C 
ATOM      7  O   UNL     1      -1.409  -8.458   0.773  1.00  0.00    -0.294 OA
ENDBRANCH   4   6
TORSDOF 1
ENDMDL
MODEL 9
REMARK VINA RESULT:    -3.519      6.580      7.515
REMARK INTER + INTRA:          -3.735
REMARK INTER:                  -3.724
REMARK INTRA:                  -0.010
REMARK UNBOUND:                -0.010
REMARK SMILES O=Cc1ccco1
REMARK SMILES IDX 5 1 6 2 7 3 3 4 4 5 2 6 1 7
REMARK H PARENT
REMARK Flexibility Score: inf
ROOT
ATOM      1  C   UNL     1      -5.057  -6.447   2.684  1.00  0.00     0.043 A 
ATOM      2  C   UNL     1      -5.554  -7.726   2.532  1.00  0.00     0.196 A 
ATOM      3  O   UNL     1      -4.564  -8.564   2.326  1.00  0.00    -0.462 OA
ATOM      4  C   UNL     1      -3.438  -7.890   2.338  1.00  0.00     0.166 A 
ATOM      5  C   UNL     1      -3.689  -6.551   2.559  1.00  0.00     0.054 A 
ENDROOT
BRANCH   4   6
ATOM      6  C   UNL     1      -2.122  -8.503   2.141  1.00  0.00     0.298 C 
ATOM      7  O   UNL     1      -1.589  -8.527   1.001  1.00  0.00    -0.294 OA
ENDBRANCH   4   6
TORSDOF 1
ENDMDL
