MODEL 1
REMARK VINA RESULT:    -7.702      0.000      0.000
REMARK INTER + INTRA:          -8.603
REMARK INTER:                  -8.603
REMARK INTRA:                   0.000
REMARK UNBOUND:                 0.000
REMARK SMILES Oc1cc(O)c2c(c1)CCc1cc(O)c(O)cc1-2
REMARK SMILES IDX 10 1 9 2 7 3 6 4 18 5 17 6 15 7 13 8 12 9 11 10 4 11 3 12
REMARK SMILES IDX 2 13 8 14 14 15 5 17 1 19 16 21
REMARK H PARENT 14 16 5 18 1 20 16 22
REMARK Flexibility Score: inf
ROOT
ATOM      1  C   UNL     1      -1.873  45.266   3.553  1.00  0.00     0.041 C 
ATOM      2  C   UNL     1      -0.743  46.271   3.802  1.00  0.00     0.041 C 
ATOM      3  C   UNL     1       0.507  45.855   3.066  1.00  0.00    -0.032 A 
ATOM      4  C   UNL     1       0.410  45.236   1.796  1.00  0.00     0.027 A 
ATOM      5  C   UNL     1      -0.956  45.044   1.209  1.00  0.00    -0.007 A 
ATOM      6  C   UNL     1      -1.178  44.953  -0.180  1.00  0.00     0.059 A 
ATOM      7  C   UNL     1      -2.471  44.768  -0.688  1.00  0.00     0.158 A 
ATOM      8  C   UNL     1      -3.565  44.701   0.189  1.00  0.00     0.157 A 
ATOM      9  C   UNL     1      -3.362  44.850   1.562  1.00  0.00     0.054 A 
ATOM     10  C   UNL     1      -2.074  45.056   2.074  1.00  0.00    -0.036 A 
ATOM     11  C   UNL     1       1.594  44.765   1.177  1.00  0.00     0.127 A 
ATOM     12  C   UNL     1       2.841  45.028   1.761  1.00  0.00     0.093 A 
ATOM     13  C   UNL     1       2.928  45.712   2.977  1.00  0.00     0.119 A 
ATOM     14  C   UNL     1       1.763  46.115   3.630  1.00  0.00     0.050 A 
ENDROOT
BRANCH   8  15
ATOM     15  O   UNL     1      -4.860  44.501  -0.288  1.00  0.00    -0.504 OA
ATOM     16  H   UNL     1      -5.384  43.658  -0.087  1.00  0.00     0.293 HD
ENDBRANCH   8  15
BRANCH  11  17
ATOM     17  O   UNL     1       1.543  44.001   0.012  1.00  0.00    -0.507 OA
ATOM     18  H   UNL     1       1.733  44.402  -0.899  1.00  0.00     0.293 HD
ENDBRANCH  11  17
BRANCH  13  19
ATOM     19  O   UNL     1       4.167  45.981   3.554  1.00  0.00    -0.508 OA
ATOM     20  H   UNL     1       4.482  45.495   4.386  1.00  0.00     0.293 HD
ENDBRANCH  13  19
BRANCH   7  21
ATOM     21  O   UNL     1      -2.674  44.659  -2.063  1.00  0.00    -0.504 OA
ATOM     22  H   UNL     1      -2.916  43.776  -2.497  1.00  0.00     0.293 HD
ENDBRANCH   7  21
TORSDOF 4
ENDMDL
MODEL 2
REMARK VINA RESULT:    -7.608      1.502      2.892
REMARK INTER + INTRA:          -8.498
REMARK INTER:                  -8.498
REMARK INTRA:                   0.000
REMARK UNBOUND:                 0.000
REMARK SMILES Oc1cc(O)c2c(c1)CCc1cc(O)c(O)cc1-2
REMARK SMILES IDX 10 1 9 2 7 3 6 4 18 5 17 6 15 7 13 8 12 9 11 10 4 11 3 12
REMARK SMILES IDX 2 13 8 14 14 15 5 17 1 19 16 21
REMARK H PARENT 14 16 5 18 1 20 16 22
REMARK Flexibility Score: inf
ROOT
ATOM      1  C   UNL     1      -0.234  44.880  -0.594  1.00  0.00     0.041 C 
ATOM      2  C   UNL     1       0.986  44.209   0.049  1.00  0.00     0.041 C 
ATOM      3  C   UNL     1       1.348  44.897   1.342  1.00  0.00    -0.032 A 
ATOM      4  C   UNL     1       0.330  45.412   2.181  1.00  0.00     0.027 A 
ATOM      5  C   UNL     1      -1.095  45.222   1.757  1.00  0.00    -0.007 A 
ATOM      6  C   UNL     1      -2.162  45.190   2.677  1.00  0.00     0.059 A 
ATOM      7  C   UNL     1      -3.482  45.015   2.238  1.00  0.00     0.158 A 
ATOM      8  C   UNL     1      -3.748  44.839   0.872  1.00  0.00     0.157 A 
ATOM      9  C   UNL     1      -2.692  44.810  -0.041  1.00  0.00     0.054 A 
ATOM     10  C   UNL     1      -1.369  44.964   0.394  1.00  0.00    -0.036 A 
ATOM     11  C   UNL     1       0.705  46.142   3.336  1.00  0.00     0.127 A 
ATOM     12  C   UNL     1       2.057  46.233   3.697  1.00  0.00     0.093 A 
ATOM     13  C   UNL     1       3.047  45.651   2.902  1.00  0.00     0.119 A 
ATOM     14  C   UNL     1       2.693  44.994   1.724  1.00  0.00     0.050 A 
ENDROOT
BRANCH   8  15
ATOM     15  O   UNL     1      -5.052  44.679   0.406  1.00  0.00    -0.504 OA
ATOM     16  H   UNL     1      -5.515  45.386  -0.152  1.00  0.00     0.293 HD
ENDBRANCH   8  15
BRANCH  11  17
ATOM     17  O   UNL     1      -0.245  46.813   4.104  1.00  0.00    -0.507 OA
ATOM     18  H   UNL     1      -1.225  46.833   3.845  1.00  0.00     0.293 HD
ENDBRANCH  11  17
BRANCH  13  19
ATOM     19  O   UNL     1       4.389  45.734   3.265  1.00  0.00    -0.508 OA
ATOM     20  H   UNL     1       4.756  46.537   3.763  1.00  0.00     0.293 HD
ENDBRANCH  13  19
BRANCH   7  21
ATOM     21  O   UNL     1      -4.530  45.005   3.158  1.00  0.00    -0.504 OA
ATOM     22  H   UNL     1      -4.362  45.063   4.156  1.00  0.00     0.293 HD
ENDBRANCH   7  21
TORSDOF 4
ENDMDL
MODEL 3
REMARK VINA RESULT:    -6.720      2.930      4.627
REMARK INTER + INTRA:          -7.506
REMARK INTER:                  -7.506
REMARK INTRA:                   0.000
REMARK UNBOUND:                 0.000
REMARK SMILES Oc1cc(O)c2c(c1)CCc1cc(O)c(O)cc1-2
REMARK SMILES IDX 10 1 9 2 7 3 6 4 18 5 17 6 15 7 13 8 12 9 11 10 4 11 3 12
REMARK SMILES IDX 2 13 8 14 14 15 5 17 1 19 16 21
REMARK H PARENT 14 16 5 18 1 20 16 22
REMARK Flexibility Score: inf
ROOT
ATOM      1  C   UNL     1       0.221  43.860   1.066  1.00  0.00     0.041 C 
ATOM      2  C   UNL     1       1.075  44.656   0.073  1.00  0.00     0.041 C 
ATOM      3  C   UNL     1       0.443  44.641  -1.298  1.00  0.00    -0.032 A 
ATOM      4  C   UNL     1      -0.966  44.670  -1.430  1.00  0.00     0.027 A 
ATOM      5  C   UNL     1      -1.789  44.748  -0.180  1.00  0.00    -0.007 A 
ATOM      6  C   UNL     1      -3.087  45.299  -0.159  1.00  0.00     0.059 A 
ATOM      7  C   UNL     1      -3.825  45.347   1.032  1.00  0.00     0.158 A 
ATOM      8  C   UNL     1      -3.262  44.871   2.225  1.00  0.00     0.157 A 
ATOM      9  C   UNL     1      -1.955  44.379   2.226  1.00  0.00     0.054 A 
ATOM     10  C   UNL     1      -1.205  44.347   1.043  1.00  0.00    -0.036 A 
ATOM     11  C   UNL     1      -1.531  44.552  -2.724  1.00  0.00     0.127 A 
ATOM     12  C   UNL     1      -0.698  44.537  -3.852  1.00  0.00     0.093 A 
ATOM     13  C   UNL     1       0.692  44.590  -3.711  1.00  0.00     0.119 A 
ATOM     14  C   UNL     1       1.258  44.632  -2.438  1.00  0.00     0.050 A 
ENDROOT
BRANCH   8  15
ATOM     15  O   UNL     1      -3.980  44.893   3.420  1.00  0.00    -0.504 OA
ATOM     16  H   UNL     1      -4.911  45.285   3.482  1.00  0.00     0.293 HD
ENDBRANCH   8  15
BRANCH  11  17
ATOM     17  O   UNL     1      -2.906  44.404  -2.900  1.00  0.00    -0.507 OA
ATOM     18  H   UNL     1      -3.532  45.201  -2.909  1.00  0.00     0.293 HD
ENDBRANCH  11  17
BRANCH  13  19
ATOM     19  O   UNL     1       1.520  44.583  -4.831  1.00  0.00    -0.508 OA
ATOM     20  H   UNL     1       1.651  43.747  -5.389  1.00  0.00     0.293 HD
ENDBRANCH  13  19
BRANCH   7  21
ATOM     21  O   UNL     1      -5.115  45.877   1.034  1.00  0.00    -0.504 OA
ATOM     22  H   UNL     1      -5.874  45.429   0.534  1.00  0.00     0.293 HD
ENDBRANCH   7  21
TORSDOF 4
ENDMDL
MODEL 4
REMARK VINA RESULT:    -6.440     12.293     14.258
REMARK INTER + INTRA:          -7.193
REMARK INTER:                  -7.193
REMARK INTRA:                   0.000
REMARK UNBOUND:                 0.000
REMARK SMILES Oc1cc(O)c2c(c1)CCc1cc(O)c(O)cc1-2
REMARK SMILES IDX 10 1 9 2 7 3 6 4 18 5 17 6 15 7 13 8 12 9 11 10 4 11 3 12
REMARK SMILES IDX 2 13 8 14 14 15 5 17 1 19 16 21
REMARK H PARENT 14 16 5 18 1 20 16 22
REMARK Flexibility Score: inf
ROOT
ATOM      1  C   UNL     1       7.313  53.217  -0.761  1.00  0.00     0.041 C 
ATOM      2  C   UNL     1       6.380  54.156   0.012  1.00  0.00     0.041 C 
ATOM      3  C   UNL     1       7.124  54.834   1.137  1.00  0.00    -0.032 A 
ATOM      4  C   UNL     1       8.480  55.204   0.968  1.00  0.00     0.027 A 
ATOM      5  C   UNL     1       9.124  54.931  -0.357  1.00  0.00    -0.007 A 
ATOM      6  C   UNL     1      10.219  55.680  -0.837  1.00  0.00     0.059 A 
ATOM      7  C   UNL     1      10.796  55.388  -2.081  1.00  0.00     0.158 A 
ATOM      8  C   UNL     1      10.266  54.360  -2.875  1.00  0.00     0.157 A 
ATOM      9  C   UNL     1       9.145  53.652  -2.435  1.00  0.00     0.054 A 
ATOM     10  C   UNL     1       8.551  53.953  -1.202  1.00  0.00    -0.036 A 
ATOM     11  C   UNL     1       9.180  55.745   2.075  1.00  0.00     0.127 A 
ATOM     12  C   UNL     1       8.497  56.022   3.267  1.00  0.00     0.093 A 
ATOM     13  C   UNL     1       7.136  55.725   3.394  1.00  0.00     0.119 A 
ATOM     14  C   UNL     1       6.457  55.125   2.335  1.00  0.00     0.050 A 
ENDROOT
BRANCH   8  15
ATOM     15  O   UNL     1      10.831  54.038  -4.108  1.00  0.00    -0.504 OA
ATOM     16  H   UNL     1      11.638  54.528  -4.476  1.00  0.00     0.293 HD
ENDBRANCH   8  15
BRANCH  11  17
ATOM     17  O   UNL     1      10.555  55.970   2.017  1.00  0.00    -0.507 OA
ATOM     18  H   UNL     1      10.951  56.894   2.143  1.00  0.00     0.293 HD
ENDBRANCH  11  17
BRANCH  13  19
ATOM     19  O   UNL     1       6.455  56.007   4.576  1.00  0.00    -0.508 OA
ATOM     20  H   UNL     1       5.663  56.638   4.594  1.00  0.00     0.293 HD
ENDBRANCH  13  19
BRANCH   7  21
ATOM     21  O   UNL     1      11.890  56.124  -2.534  1.00  0.00    -0.504 OA
ATOM     22  H   UNL     1      12.206  56.069  -3.495  1.00  0.00     0.293 HD
ENDBRANCH   7  21
TORSDOF 4
ENDMDL
MODEL 5
REMARK VINA RESULT:    -6.248      8.875     11.378
REMARK INTER + INTRA:          -6.978
REMARK INTER:                  -6.978
REMARK INTRA:                   0.000
REMARK UNBOUND:                 0.000
REMARK SMILES Oc1cc(O)c2c(c1)CCc1cc(O)c(O)cc1-2
REMARK SMILES IDX 10 1 9 2 7 3 6 4 18 5 17 6 15 7 13 8 12 9 11 10 4 11 3 12
REMARK SMILES IDX 2 13 8 14 14 15 5 17 1 19 16 21
REMARK H PARENT 14 16 5 18 1 20 16 22
REMARK Flexibility Score: inf
ROOT
ATOM      1  C   UNL     1       6.574  48.926  -2.187  1.00  0.00     0.041 C 
ATOM      2  C   UNL     1       5.878  47.657  -2.692  1.00  0.00     0.041 C 
ATOM      3  C   UNL     1       6.761  46.924  -3.673  1.00  0.00    -0.032 A 
ATOM      4  C   UNL     1       8.164  46.907  -3.489  1.00  0.00     0.027 A 
ATOM      5  C   UNL     1       8.725  47.605  -2.286  1.00  0.00    -0.007 A 
ATOM      6  C   UNL     1       9.956  47.241  -1.704  1.00  0.00     0.059 A 
ATOM      7  C   UNL     1      10.448  47.923  -0.582  1.00  0.00     0.158 A 
ATOM      8  C   UNL     1       9.697  48.961  -0.010  1.00  0.00     0.157 A 
ATOM      9  C   UNL     1       8.449  49.289  -0.542  1.00  0.00     0.054 A 
ATOM     10  C   UNL     1       7.944  48.597  -1.651  1.00  0.00    -0.036 A 
ATOM     11  C   UNL     1       8.973  46.299  -4.480  1.00  0.00     0.127 A 
ATOM     12  C   UNL     1       8.375  45.620  -5.551  1.00  0.00     0.093 A 
ATOM     13  C   UNL     1       6.983  45.576  -5.678  1.00  0.00     0.119 A 
ATOM     14  C   UNL     1       6.182  46.234  -4.746  1.00  0.00     0.050 A 
ENDROOT
BRANCH   8  15
ATOM     15  O   UNL     1      10.170  49.667   1.096  1.00  0.00    -0.504 OA
ATOM     16  H   UNL     1       9.565  49.932   1.864  1.00  0.00     0.293 HD
ENDBRANCH   8  15
BRANCH  11  17
ATOM     17  O   UNL     1      10.363  46.400  -4.438  1.00  0.00    -0.507 OA
ATOM     18  H   UNL     1      10.948  45.616  -4.171  1.00  0.00     0.293 HD
ENDBRANCH  11  17
BRANCH  13  19
ATOM     19  O   UNL     1       6.388  44.894  -6.737  1.00  0.00    -0.508 OA
ATOM     20  H   UNL     1       6.936  44.345  -7.389  1.00  0.00     0.293 HD
ENDBRANCH  13  19
BRANCH   7  21
ATOM     21  O   UNL     1      11.677  47.565  -0.029  1.00  0.00    -0.504 OA
ATOM     22  H   UNL     1      12.202  48.205   0.556  1.00  0.00     0.293 HD
ENDBRANCH   7  21
TORSDOF 4
ENDMDL
MODEL 6
REMARK VINA RESULT:    -6.170      7.166      9.942
REMARK INTER + INTRA:          -6.891
REMARK INTER:                  -6.891
REMARK INTRA:                   0.000
REMARK UNBOUND:                 0.000
REMARK SMILES Oc1cc(O)c2c(c1)CCc1cc(O)c(O)cc1-2
REMARK SMILES IDX 10 1 9 2 7 3 6 4 18 5 17 6 15 7 13 8 12 9 11 10 4 11 3 12
REMARK SMILES IDX 2 13 8 14 14 15 5 17 1 19 16 21
REMARK H PARENT 14 16 5 18 1 20 16 22
REMARK Flexibility Score: inf
ROOT
ATOM      1  C   UNL     1       9.169  46.787   2.877  1.00  0.00     0.041 C 
ATOM      2  C   UNL     1      10.368  47.715   2.652  1.00  0.00     0.041 C 
ATOM      3  C   UNL     1      10.683  47.826   1.180  1.00  0.00    -0.032 A 
ATOM      4  C   UNL     1       9.634  47.821   0.228  1.00  0.00     0.027 A 
ATOM      5  C   UNL     1       8.226  47.735   0.734  1.00  0.00    -0.007 A 
ATOM      6  C   UNL     1       7.127  48.235   0.005  1.00  0.00     0.059 A 
ATOM      7  C   UNL     1       5.824  48.130   0.511  1.00  0.00     0.158 A 
ATOM      8  C   UNL     1       5.606  47.548   1.769  1.00  0.00     0.157 A 
ATOM      9  C   UNL     1       6.693  47.103   2.524  1.00  0.00     0.054 A 
ATOM     10  C   UNL     1       8.000  47.225   2.032  1.00  0.00    -0.036 A 
ATOM     11  C   UNL     1       9.966  47.824  -1.149  1.00  0.00     0.127 A 
ATOM     12  C   UNL     1      11.304  47.959  -1.546  1.00  0.00     0.093 A 
ATOM     13  C   UNL     1      12.324  48.044  -0.594  1.00  0.00     0.119 A 
ATOM     14  C   UNL     1      12.013  47.969   0.763  1.00  0.00     0.050 A 
ENDROOT
BRANCH   8  15
ATOM     15  O   UNL     1       4.320  47.415   2.289  1.00  0.00    -0.504 OA
ATOM     16  H   UNL     1       3.826  46.531   2.286  1.00  0.00     0.293 HD
ENDBRANCH   8  15
BRANCH  11  17
ATOM     17  O   UNL     1       8.987  47.649  -2.126  1.00  0.00    -0.507 OA
ATOM     18  H   UNL     1       9.218  47.591  -3.111  1.00  0.00     0.293 HD
ENDBRANCH  11  17
BRANCH  13  19
ATOM     19  O   UNL     1      13.652  48.187  -0.988  1.00  0.00    -0.508 OA
ATOM     20  H   UNL     1      14.257  47.384  -1.117  1.00  0.00     0.293 HD
ENDBRANCH  13  19
BRANCH   7  21
ATOM     21  O   UNL     1       4.745  48.612  -0.229  1.00  0.00    -0.504 OA
ATOM     22  H   UNL     1       4.873  49.044  -1.136  1.00  0.00     0.293 HD
ENDBRANCH   7  21
TORSDOF 4
ENDMDL
MODEL 7
REMARK VINA RESULT:    -6.149      6.844     11.021
REMARK INTER + INTRA:          -6.868
REMARK INTER:                  -6.868
REMARK INTRA:                   0.000
REMARK UNBOUND:                 0.000
REMARK SMILES Oc1cc(O)c2c(c1)CCc1cc(O)c(O)cc1-2
REMARK SMILES IDX 10 1 9 2 7 3 6 4 18 5 17 6 15 7 13 8 12 9 11 10 4 11 3 12
REMARK SMILES IDX 2 13 8 14 14 15 5 17 1 19 16 21
REMARK H PARENT 14 16 5 18 1 20 16 22
REMARK Flexibility Score: inf
ROOT
ATOM      1  C   UNL     1       4.424  44.611   9.853  1.00  0.00     0.041 C 
ATOM      2  C   UNL     1       4.119  43.678   8.675  1.00  0.00     0.041 C 
ATOM      3  C   UNL     1       4.773  44.187   7.414  1.00  0.00    -0.032 A 
ATOM      4  C   UNL     1       6.040  44.818   7.477  1.00  0.00     0.027 A 
ATOM      5  C   UNL     1       6.705  44.928   8.815  1.00  0.00    -0.007 A 
ATOM      6  C   UNL     1       8.104  45.027   8.960  1.00  0.00     0.059 A 
ATOM      7  C   UNL     1       8.687  45.134  10.230  1.00  0.00     0.158 A 
ATOM      8  C   UNL     1       7.877  45.115  11.376  1.00  0.00     0.157 A 
ATOM      9  C   UNL     1       6.496  44.958  11.246  1.00  0.00     0.054 A 
ATOM     10  C   UNL     1       5.910  44.829   9.979  1.00  0.00    -0.036 A 
ATOM     11  C   UNL     1       6.580  45.375   6.292  1.00  0.00     0.127 A 
ATOM     12  C   UNL     1       5.925  45.186   5.067  1.00  0.00     0.093 A 
ATOM     13  C   UNL     1       4.714  44.491   5.007  1.00  0.00     0.119 A 
ATOM     14  C   UNL     1       4.138  44.002   6.179  1.00  0.00     0.050 A 
ENDROOT
BRANCH   8  15
ATOM     15  O   UNL     1       8.429  45.236  12.651  1.00  0.00    -0.504 OA
ATOM     16  H   UNL     1       8.287  44.535  13.368  1.00  0.00     0.293 HD
ENDBRANCH   8  15
BRANCH  11  17
ATOM     17  O   UNL     1       7.738  46.152   6.325  1.00  0.00    -0.507 OA
ATOM     18  H   UNL     1       7.904  46.832   7.057  1.00  0.00     0.293 HD
ENDBRANCH  11  17
BRANCH  13  19
ATOM     19  O   UNL     1       4.067  44.295   3.789  1.00  0.00    -0.508 OA
ATOM     20  H   UNL     1       4.396  44.734   2.937  1.00  0.00     0.293 HD
ENDBRANCH  13  19
BRANCH   7  21
ATOM     21  O   UNL     1      10.071  45.250  10.358  1.00  0.00    -0.504 OA
ATOM     22  H   UNL     1      10.686  44.459  10.211  1.00  0.00     0.293 HD
ENDBRANCH   7  21
TORSDOF 4
ENDMDL
MODEL 8
REMARK VINA RESULT:    -6.123     12.337     14.377
REMARK INTER + INTRA:          -6.839
REMARK INTER:                  -6.839
REMARK INTRA:                   0.000
REMARK UNBOUND:                 0.000
REMARK SMILES Oc1cc(O)c2c(c1)CCc1cc(O)c(O)cc1-2
REMARK SMILES IDX 10 1 9 2 7 3 6 4 18 5 17 6 15 7 13 8 12 9 11 10 4 11 3 12
REMARK SMILES IDX 2 13 8 14 14 15 5 17 1 19 16 21
REMARK H PARENT 14 16 5 18 1 20 16 22
REMARK Flexibility Score: inf
ROOT
ATOM      1  C   UNL     1       6.567  38.826   7.866  1.00  0.00     0.041 C 
ATOM      2  C   UNL     1       7.216  37.832   6.897  1.00  0.00     0.041 C 
ATOM      3  C   UNL     1       8.518  37.315   7.461  1.00  0.00    -0.032 A 
ATOM      4  C   UNL     1       8.650  37.098   8.854  1.00  0.00     0.027 A 
ATOM      5  C   UNL     1       7.459  37.365   9.724  1.00  0.00    -0.007 A 
ATOM      6  C   UNL     1       7.267  36.723  10.965  1.00  0.00     0.059 A 
ATOM      7  C   UNL     1       6.142  37.006  11.752  1.00  0.00     0.158 A 
ATOM      8  C   UNL     1       5.177  37.915  11.292  1.00  0.00     0.157 A 
ATOM      9  C   UNL     1       5.327  38.510  10.038  1.00  0.00     0.054 A 
ATOM     10  C   UNL     1       6.440  38.216   9.238  1.00  0.00    -0.036 A 
ATOM     11  C   UNL     1       9.913  36.711   9.365  1.00  0.00     0.127 A 
ATOM     12  C   UNL     1      10.967  36.427   8.484  1.00  0.00     0.093 A 
ATOM     13  C   UNL     1      10.799  36.569   7.104  1.00  0.00     0.119 A 
ATOM     14  C   UNL     1       9.580  37.020   6.597  1.00  0.00     0.050 A 
ENDROOT
BRANCH   8  15
ATOM     15  O   UNL     1       4.056  38.227  12.061  1.00  0.00    -0.504 OA
ATOM     16  H   UNL     1       4.109  38.836  12.868  1.00  0.00     0.293 HD
ENDBRANCH   8  15
BRANCH  11  17
ATOM     17  O   UNL     1      10.146  36.647  10.738  1.00  0.00    -0.507 OA
ATOM     18  H   UNL     1      10.065  37.463  11.332  1.00  0.00     0.293 HD
ENDBRANCH  11  17
BRANCH  13  19
ATOM     19  O   UNL     1      11.842  36.280   6.228  1.00  0.00    -0.508 OA
ATOM     20  H   UNL     1      12.308  35.380   6.237  1.00  0.00     0.293 HD
ENDBRANCH  13  19
BRANCH   7  21
ATOM     21  O   UNL     1       5.975  36.379  12.986  1.00  0.00    -0.504 OA
ATOM     22  H   UNL     1       6.690  35.777  13.377  1.00  0.00     0.293 HD
ENDBRANCH   7  21
TORSDOF 4
ENDMDL
MODEL 9
REMARK VINA RESULT:    -6.084      6.936     11.100
REMARK INTER + INTRA:          -6.796
REMARK INTER:                  -6.796
REMARK INTRA:                   0.000
REMARK UNBOUND:                 0.000
REMARK SMILES Oc1cc(O)c2c(c1)CCc1cc(O)c(O)cc1-2
REMARK SMILES IDX 10 1 9 2 7 3 6 4 18 5 17 6 15 7 13 8 12 9 11 10 4 11 3 12
REMARK SMILES IDX 2 13 8 14 14 15 5 17 1 19 16 21
REMARK H PARENT 14 16 5 18 1 20 16 22
REMARK Flexibility Score: inf
ROOT
ATOM      1  C   UNL     1       8.291  47.540  -1.628  1.00  0.00     0.041 C 
ATOM      2  C   UNL     1       7.096  48.289  -1.027  1.00  0.00     0.041 C 
ATOM      3  C   UNL     1       6.886  47.883   0.411  1.00  0.00    -0.032 A 
ATOM      4  C   UNL     1       8.001  47.598   1.237  1.00  0.00     0.027 A 
ATOM      5  C   UNL     1       9.370  47.744   0.647  1.00  0.00    -0.007 A 
ATOM      6  C   UNL     1      10.510  48.012   1.432  1.00  0.00     0.059 A 
ATOM      7  C   UNL     1      11.775  48.137   0.841  1.00  0.00     0.158 A 
ATOM      8  C   UNL     1      11.911  48.023  -0.551  1.00  0.00     0.157 A 
ATOM      9  C   UNL     1      10.780  47.817  -1.344  1.00  0.00     0.054 A 
ATOM     10  C   UNL     1       9.510  47.712  -0.759  1.00  0.00    -0.036 A 
ATOM     11  C   UNL     1       7.769  47.121   2.551  1.00  0.00     0.127 A 
ATOM     12  C   UNL     1       6.461  47.061   3.053  1.00  0.00     0.093 A 
ATOM     13  C   UNL     1       5.374  47.422   2.252  1.00  0.00     0.119 A 
ATOM     14  C   UNL     1       5.588  47.823   0.933  1.00  0.00     0.050 A 
ENDROOT
BRANCH   8  15
ATOM     15  O   UNL     1      13.159  48.126  -1.164  1.00  0.00    -0.504 OA
ATOM     16  H   UNL     1      13.825  47.362  -1.162  1.00  0.00     0.293 HD
ENDBRANCH   8  15
BRANCH  11  17
ATOM     17  O   UNL     1       8.818  46.666   3.348  1.00  0.00    -0.507 OA
ATOM     18  H   UNL     1       9.619  46.187   2.954  1.00  0.00     0.293 HD
ENDBRANCH  11  17
BRANCH  13  19
ATOM     19  O   UNL     1       4.075  47.370   2.752  1.00  0.00    -0.508 OA
ATOM     20  H   UNL     1       3.347  47.985   2.405  1.00  0.00     0.293 HD
ENDBRANCH  13  19
BRANCH   7  21
ATOM     21  O   UNL     1      12.897  48.382   1.632  1.00  0.00    -0.504 OA
ATOM     22  H   UNL     1      12.869  49.037   2.405  1.00  0.00     0.293 HD
ENDBRANCH   7  21
TORSDOF 4
ENDMDL
