MODEL 1
REMARK VINA RESULT:    -3.828      0.000      0.000
REMARK INTER + INTRA:          -7.836
REMARK INTER:                  -5.843
REMARK INTRA:                  -1.993
REMARK UNBOUND:                -1.993
REMARK SMILES OC[C@@H]1O[C@](CO)(O[C@H]2O[C@H](CO)[C@H](O)[C@@H](O)[C@H]2O)[C@H](O)[C@@H]1O
REMARK SMILES IDX 8 1 9 2 11 3 14 4 10 5 16 6 18 7 12 8 13 9 15 11 17 13 19 15
REMARK SMILES IDX 5 17 20 18 4 19 22 20 3 21 6 22 7 23 21 25 23 27 2 29 1 30
REMARK H PARENT 13 10 15 12 17 14 19 16 7 24 21 26 23 28 1 31
REMARK Flexibility Score: inf
ROOT
ATOM      1  O   UNL     1       8.970 -10.782  23.145  1.00  0.00    -0.313 OA
ENDROOT
BRANCH   1   2
ATOM      2  C   UNL     1       8.790 -12.152  22.810  1.00  0.00     0.285 C 
ATOM      3  C   UNL     1       6.594 -12.202  23.652  1.00  0.00     0.178 C 
ATOM      4  C   UNL     1       5.955 -12.407  22.258  1.00  0.00     0.177 C 
ATOM      5  O   UNL     1       7.885 -12.791  23.703  1.00  0.00    -0.341 OA
ATOM      6  C   UNL     1       6.861 -11.784  21.177  1.00  0.00     0.179 C 
ATOM      7  C   UNL     1       8.304 -12.301  21.350  1.00  0.00     0.202 C 
BRANCH   3   8
ATOM      8  C   UNL     1       5.738 -12.819  24.768  1.00  0.00     0.191 C 
BRANCH   8   9
ATOM      9  O   UNL     1       5.948 -12.150  25.984  1.00  0.00    -0.394 OA
ATOM     10  H   UNL     1       5.836 -12.821  26.706  1.00  0.00     0.210 HD
ENDBRANCH   8   9
ENDBRANCH   3   8
BRANCH   4  11
ATOM     11  O   UNL     1       5.785 -13.780  22.008  1.00  0.00    -0.387 OA
ATOM     12  H   UNL     1       6.458 -14.033  21.324  1.00  0.00     0.211 HD
ENDBRANCH   4  11
BRANCH   6  13
ATOM     13  O   UNL     1       6.830 -10.381  21.276  1.00  0.00    -0.387 OA
ATOM     14  H   UNL     1       7.465 -10.130  21.996  1.00  0.00     0.211 HD
ENDBRANCH   6  13
BRANCH   7  15
ATOM     15  O   UNL     1       9.189 -11.693  20.441  1.00  0.00    -0.385 OA
ATOM     16  H   UNL     1       9.830 -11.140  20.957  1.00  0.00     0.211 HD
ENDBRANCH   7  15
ENDBRANCH   1   2
BRANCH   1  17
ATOM     17  C   UNL     1      10.212 -10.488  23.788  1.00  0.00     0.224 C 
ATOM     18  C   UNL     1      11.009  -9.443  22.978  1.00  0.00     0.208 C 
ATOM     19  O   UNL     1      11.024 -11.640  23.969  1.00  0.00    -0.337 OA
ATOM     20  C   UNL     1      12.443  -9.837  23.244  1.00  0.00     0.180 C 
ATOM     21  C   UNL     1      12.353 -11.326  23.599  1.00  0.00     0.179 C 
BRANCH  17  22
ATOM     22  C   UNL     1       9.851  -9.938  25.184  1.00  0.00     0.225 C 
BRANCH  22  23
ATOM     23  O   UNL     1       8.699 -10.555  25.690  1.00  0.00    -0.391 OA
ATOM     24  H   UNL     1       8.910 -11.522  25.757  1.00  0.00     0.210 HD
ENDBRANCH  22  23
ENDBRANCH  17  22
BRANCH  18  25
ATOM     25  O   UNL     1      10.729  -9.542  21.605  1.00  0.00    -0.385 OA
ATOM     26  H   UNL     1      10.633 -10.508  21.401  1.00  0.00     0.211 HD
ENDBRANCH  18  25
BRANCH  20  27
ATOM     27  O   UNL     1      13.282  -9.583  22.144  1.00  0.00    -0.387 OA
ATOM     28  H   UNL     1      12.740  -9.756  21.330  1.00  0.00     0.211 HD
ENDBRANCH  20  27
BRANCH  21  29
ATOM     29  C   UNL     1      12.800 -12.261  22.459  1.00  0.00     0.191 C 
BRANCH  29  30
ATOM     30  O   UNL     1      11.886 -12.215  21.398  1.00  0.00    -0.394 OA
ATOM     31  H   UNL     1      11.904 -11.286  21.047  1.00  0.00     0.210 HD
ENDBRANCH  29  30
ENDBRANCH  21  29
ENDBRANCH   1  17
TORSDOF 13
ENDMDL
MODEL 2
REMARK VINA RESULT:    -3.748     10.784     12.588
REMARK INTER + INTRA:          -7.714
REMARK INTER:                  -5.726
REMARK INTRA:                  -1.988
REMARK UNBOUND:                -1.993
REMARK SMILES OC[C@@H]1O[C@](CO)(O[C@H]2O[C@H](CO)[C@H](O)[C@@H](O)[C@H]2O)[C@H](O)[C@@H]1O
REMARK SMILES IDX 8 1 9 2 11 3 14 4 10 5 16 6 18 7 12 8 13 9 15 11 17 13 19 15
REMARK SMILES IDX 5 17 20 18 4 19 22 20 3 21 6 22 7 23 21 25 23 27 2 29 1 30
REMARK H PARENT 13 10 15 12 17 14 19 16 7 24 21 26 23 28 1 31
REMARK Flexibility Score: inf
ROOT
ATOM      1  O   UNL     1       7.115  -0.399  18.609  1.00  0.00    -0.313 OA
ENDROOT
BRANCH   1   2
ATOM      2  C   UNL     1       5.934  -1.061  19.044  1.00  0.00     0.285 C 
ATOM      3  C   UNL     1       5.952  -2.558  17.230  1.00  0.00     0.178 C 
ATOM      4  C   UNL     1       6.240  -3.792  18.118  1.00  0.00     0.177 C 
ATOM      5  O   UNL     1       5.201  -1.590  17.945  1.00  0.00    -0.341 OA
ATOM      6  C   UNL     1       7.012  -3.352  19.379  1.00  0.00     0.179 C 
ATOM      7  C   UNL     1       6.273  -2.179  20.055  1.00  0.00     0.202 C 
BRANCH   3   8
ATOM      8  C   UNL     1       5.170  -2.938  15.964  1.00  0.00     0.191 C 
BRANCH   8   9
ATOM      9  O   UNL     1       5.523  -4.224  15.527  1.00  0.00    -0.394 OA
ATOM     10  H   UNL     1       5.477  -4.215  14.536  1.00  0.00     0.210 HD
ENDBRANCH   8   9
ENDBRANCH   3   8
BRANCH   4  11
ATOM     11  O   UNL     1       5.031  -4.407  18.487  1.00  0.00    -0.387 OA
ATOM     12  H   UNL     1       4.435  -4.367  17.695  1.00  0.00     0.211 HD
ENDBRANCH   4  11
BRANCH   6  13
ATOM     13  O   UNL     1       8.320  -2.969  19.031  1.00  0.00    -0.387 OA
ATOM     14  H   UNL     1       8.352  -2.925  18.040  1.00  0.00     0.211 HD
ENDBRANCH   6  13
BRANCH   7  15
ATOM     15  O   UNL     1       6.985  -1.683  21.163  1.00  0.00    -0.385 OA
ATOM     16  H   UNL     1       6.434  -1.826  21.975  1.00  0.00     0.211 HD
ENDBRANCH   7  15
ENDBRANCH   1   2
BRANCH   1  17
ATOM     17  C   UNL     1       7.042   1.028  18.647  1.00  0.00     0.224 C 
ATOM     18  C   UNL     1       8.208   1.609  19.473  1.00  0.00     0.208 C 
ATOM     19  O   UNL     1       5.818   1.502  19.191  1.00  0.00    -0.337 OA
ATOM     20  C   UNL     1       7.600   2.849  20.086  1.00  0.00     0.180 C 
ATOM     21  C   UNL     1       6.096   2.546  20.104  1.00  0.00     0.179 C 
BRANCH  17  22
ATOM     22  C   UNL     1       7.123   1.500  17.180  1.00  0.00     0.225 C 
BRANCH  22  23
ATOM     23  O   UNL     1       8.423   1.908  16.849  1.00  0.00    -0.391 OA
ATOM     24  H   UNL     1       8.449   2.889  16.991  1.00  0.00     0.210 HD
ENDBRANCH  22  23
ENDBRANCH  17  22
BRANCH  18  25
ATOM     25  O   UNL     1       8.609   0.720  20.485  1.00  0.00    -0.385 OA
ATOM     26  H   UNL     1       8.457   1.182  21.349  1.00  0.00     0.211 HD
ENDBRANCH  18  25
BRANCH  20  27
ATOM     27  O   UNL     1       8.119   3.128  21.362  1.00  0.00    -0.387 OA
ATOM     28  H   UNL     1       8.201   2.256  21.831  1.00  0.00     0.211 HD
ENDBRANCH  20  27
BRANCH  21  29
ATOM     29  C   UNL     1       5.559   2.165  21.496  1.00  0.00     0.191 C 
BRANCH  29  30
ATOM     30  O   UNL     1       6.151   0.975  21.942  1.00  0.00    -0.394 OA
ATOM     31  H   UNL     1       7.132   1.130  21.948  1.00  0.00     0.210 HD
ENDBRANCH  29  30
ENDBRANCH  21  29
ENDBRANCH   1  17
TORSDOF 13
ENDMDL
MODEL 3
REMARK VINA RESULT:    -3.423      1.543      5.953
REMARK INTER + INTRA:          -7.217
REMARK INTER:                  -5.403
REMARK INTRA:                  -1.814
REMARK UNBOUND:                -1.993
REMARK SMILES OC[C@@H]1O[C@](CO)(O[C@H]2O[C@H](CO)[C@H](O)[C@@H](O)[C@H]2O)[C@H](O)[C@@H]1O
REMARK SMILES IDX 8 1 9 2 11 3 14 4 10 5 16 6 18 7 12 8 13 9 15 11 17 13 19 15
REMARK SMILES IDX 5 17 20 18 4 19 22 20 3 21 6 22 7 23 21 25 23 27 2 29 1 30
REMARK H PARENT 13 10 15 12 17 14 19 16 7 24 21 26 23 28 1 31
REMARK Flexibility Score: inf
ROOT
ATOM      1  O   UNL     1      10.252 -11.657  22.006  1.00  0.00    -0.313 OA
ENDROOT
BRANCH   1   2
ATOM      2  C   UNL     1      10.988 -11.690  23.222  1.00  0.00     0.285 C 
ATOM      3  C   UNL     1      12.971 -10.959  22.188  1.00  0.00     0.178 C 
ATOM      4  C   UNL     1      12.979  -9.601  22.930  1.00  0.00     0.177 C 
ATOM      5  O   UNL     1      12.365 -11.963  22.988  1.00  0.00    -0.341 OA
ATOM      6  C   UNL     1      11.533  -9.195  23.278  1.00  0.00     0.179 C 
ATOM      7  C   UNL     1      10.826 -10.362  23.997  1.00  0.00     0.202 C 
BRANCH   3   8
ATOM      8  C   UNL     1      14.392 -11.420  21.830  1.00  0.00     0.191 C 
BRANCH   8   9
ATOM      9  O   UNL     1      14.524 -11.597  20.444  1.00  0.00    -0.394 OA
ATOM     10  H   UNL     1      15.131 -10.884  20.118  1.00  0.00     0.210 HD
ENDBRANCH   8   9
ENDBRANCH   3   8
BRANCH   4  11
ATOM     11  O   UNL     1      13.745  -9.703  24.105  1.00  0.00    -0.387 OA
ATOM     12  H   UNL     1      14.667  -9.422  23.871  1.00  0.00     0.211 HD
ENDBRANCH   4  11
BRANCH   6  13
ATOM     13  O   UNL     1      10.836  -8.850  22.106  1.00  0.00    -0.387 OA
ATOM     14  H   UNL     1      11.276  -9.331  21.358  1.00  0.00     0.211 HD
ENDBRANCH   6  13
BRANCH   7  15
ATOM     15  O   UNL     1       9.473 -10.073  24.258  1.00  0.00    -0.385 OA
ATOM     16  H   UNL     1       8.916 -10.705  23.737  1.00  0.00     0.211 HD
ENDBRANCH   7  15
ENDBRANCH   1   2
BRANCH   1  17
ATOM     17  C   UNL     1       9.302 -12.716  21.860  1.00  0.00     0.224 C 
ATOM     18  C   UNL     1       7.925 -12.157  21.448  1.00  0.00     0.208 C 
ATOM     19  O   UNL     1       9.146 -13.482  23.047  1.00  0.00    -0.337 OA
ATOM     20  C   UNL     1       6.963 -13.120  22.103  1.00  0.00     0.180 C 
ATOM     21  C   UNL     1       7.767 -13.698  23.275  1.00  0.00     0.179 C 
BRANCH  17  22
ATOM     22  C   UNL     1       9.864 -13.647  20.766  1.00  0.00     0.225 C 
BRANCH  22  23
ATOM     23  O   UNL     1      11.123 -13.212  20.326  1.00  0.00    -0.391 OA
ATOM     24  H   UNL     1      11.733 -13.988  20.426  1.00  0.00     0.210 HD
ENDBRANCH  22  23
ENDBRANCH  17  22
BRANCH  18  25
ATOM     25  O   UNL     1       7.729 -10.860  21.953  1.00  0.00    -0.385 OA
ATOM     26  H   UNL     1       8.295 -10.781  22.764  1.00  0.00     0.211 HD
ENDBRANCH  18  25
BRANCH  20  27
ATOM     27  O   UNL     1       5.771 -12.493  22.511  1.00  0.00    -0.387 OA
ATOM     28  H   UNL     1       5.072 -12.764  21.860  1.00  0.00     0.211 HD
ENDBRANCH  20  27
BRANCH  21  29
ATOM     29  C   UNL     1       7.377 -13.108  24.643  1.00  0.00     0.191 C 
BRANCH  29  30
ATOM     30  O   UNL     1       7.348 -11.708  24.586  1.00  0.00    -0.394 OA
ATOM     31  H   UNL     1       8.252 -11.417  24.297  1.00  0.00     0.210 HD
ENDBRANCH  29  30
ENDBRANCH  21  29
ENDBRANCH   1  17
TORSDOF 13
ENDMDL
MODEL 4
REMARK VINA RESULT:    -3.395      9.688     11.460
REMARK INTER + INTRA:          -7.174
REMARK INTER:                  -5.170
REMARK INTRA:                  -2.004
REMARK UNBOUND:                -1.993
REMARK SMILES OC[C@@H]1O[C@](CO)(O[C@H]2O[C@H](CO)[C@H](O)[C@@H](O)[C@H]2O)[C@H](O)[C@@H]1O
REMARK SMILES IDX 8 1 9 2 11 3 14 4 10 5 16 6 18 7 12 8 13 9 15 11 17 13 19 15
REMARK SMILES IDX 5 17 20 18 4 19 22 20 3 21 6 22 7 23 21 25 23 27 2 29 1 30
REMARK H PARENT 13 10 15 12 17 14 19 16 7 24 21 26 23 28 1 31
REMARK Flexibility Score: inf
ROOT
ATOM      1  O   UNL     1       5.060  -1.563  19.691  1.00  0.00    -0.313 OA
ENDROOT
BRANCH   1   2
ATOM      2  C   UNL     1       4.498  -2.803  19.283  1.00  0.00     0.285 C 
ATOM      3  C   UNL     1       4.439  -2.178  17.016  1.00  0.00     0.178 C 
ATOM      4  C   UNL     1       5.506  -3.217  16.596  1.00  0.00     0.177 C 
ATOM      5  O   UNL     1       3.688  -2.651  18.124  1.00  0.00    -0.341 OA
ATOM      6  C   UNL     1       6.444  -3.505  17.785  1.00  0.00     0.179 C 
ATOM      7  C   UNL     1       5.607  -3.851  19.033  1.00  0.00     0.202 C 
BRANCH   3   8
ATOM      8  C   UNL     1       3.466  -1.865  15.871  1.00  0.00     0.191 C 
BRANCH   8   9
ATOM      9  O   UNL     1       4.081  -2.064  14.625  1.00  0.00    -0.394 OA
ATOM     10  H   UNL     1       4.881  -2.629  14.785  1.00  0.00     0.210 HD
ENDBRANCH   8   9
ENDBRANCH   3   8
BRANCH   4  11
ATOM     11  O   UNL     1       4.877  -4.405  16.182  1.00  0.00    -0.387 OA
ATOM     12  H   UNL     1       4.212  -4.636  16.881  1.00  0.00     0.211 HD
ENDBRANCH   4  11
BRANCH   6  13
ATOM     13  O   UNL     1       7.256  -2.384  18.038  1.00  0.00    -0.387 OA
ATOM     14  H   UNL     1       6.654  -1.657  18.344  1.00  0.00     0.211 HD
ENDBRANCH   6  13
BRANCH   7  15
ATOM     15  O   UNL     1       6.416  -4.036  20.170  1.00  0.00    -0.385 OA
ATOM     16  H   UNL     1       6.747  -4.971  20.164  1.00  0.00     0.211 HD
ENDBRANCH   7  15
ENDBRANCH   1   2
BRANCH   1  17
ATOM     17  C   UNL     1       4.514  -1.035  20.903  1.00  0.00     0.224 C 
ATOM     18  C   UNL     1       5.636  -0.737  21.919  1.00  0.00     0.208 C 
ATOM     19  O   UNL     1       3.572  -1.910  21.508  1.00  0.00    -0.337 OA
ATOM     20  C   UNL     1       4.963  -0.998  23.246  1.00  0.00     0.180 C 
ATOM     21  C   UNL     1       3.833  -1.975  22.896  1.00  0.00     0.179 C 
BRANCH  17  22
ATOM     22  C   UNL     1       3.773   0.260  20.510  1.00  0.00     0.225 C 
BRANCH  22  23
ATOM     23  O   UNL     1       4.617   1.375  20.602  1.00  0.00    -0.391 OA
ATOM     24  H   UNL     1       4.586   1.668  21.549  1.00  0.00     0.210 HD
ENDBRANCH  22  23
ENDBRANCH  17  22
BRANCH  18  25
ATOM     25  O   UNL     1       6.723  -1.611  21.749  1.00  0.00    -0.385 OA
ATOM     26  H   UNL     1       6.851  -1.721  20.772  1.00  0.00     0.211 HD
ENDBRANCH  18  25
BRANCH  20  27
ATOM     27  O   UNL     1       5.854  -1.509  24.207  1.00  0.00    -0.387 OA
ATOM     28  H   UNL     1       5.339  -1.598  25.052  1.00  0.00     0.211 HD
ENDBRANCH  20  27
BRANCH  21  29
ATOM     29  C   UNL     1       4.133  -3.434  23.292  1.00  0.00     0.191 C 
BRANCH  29  30
ATOM     30  O   UNL     1       5.265  -3.905  22.615  1.00  0.00    -0.394 OA
ATOM     31  H   UNL     1       4.935  -4.450  21.854  1.00  0.00     0.210 HD
ENDBRANCH  29  30
ENDBRANCH  21  29
ENDBRANCH   1  17
TORSDOF 13
ENDMDL
MODEL 5
REMARK VINA RESULT:    -3.356      1.757      5.555
REMARK INTER + INTRA:          -7.116
REMARK INTER:                  -5.478
REMARK INTRA:                  -1.638
REMARK UNBOUND:                -1.993
REMARK SMILES OC[C@@H]1O[C@](CO)(O[C@H]2O[C@H](CO)[C@H](O)[C@@H](O)[C@H]2O)[C@H](O)[C@@H]1O
REMARK SMILES IDX 8 1 9 2 11 3 14 4 10 5 16 6 18 7 12 8 13 9 15 11 17 13 19 15
REMARK SMILES IDX 5 17 20 18 4 19 22 20 3 21 6 22 7 23 21 25 23 27 2 29 1 30
REMARK H PARENT 13 10 15 12 17 14 19 16 7 24 21 26 23 28 1 31
REMARK Flexibility Score: inf
ROOT
ATOM      1  O   UNL     1      10.413 -11.401  24.247  1.00  0.00    -0.313 OA
ENDROOT
BRANCH   1   2
ATOM      2  C   UNL     1      10.366 -10.048  23.813  1.00  0.00     0.285 C 
ATOM      3  C   UNL     1      12.467  -9.544  24.743  1.00  0.00     0.178 C 
ATOM      4  C   UNL     1      13.139  -9.325  23.366  1.00  0.00     0.177 C 
ATOM      5  O   UNL     1      11.092  -9.196  24.691  1.00  0.00    -0.341 OA
ATOM      6  C   UNL     1      12.420 -10.176  22.300  1.00  0.00     0.179 C 
ATOM      7  C   UNL     1      10.901  -9.917  22.369  1.00  0.00     0.202 C 
BRANCH   3   8
ATOM      8  C   UNL     1      13.136  -8.706  25.842  1.00  0.00     0.191 C 
BRANCH   8   9
ATOM      9  O   UNL     1      14.467  -8.414  25.507  1.00  0.00    -0.394 OA
ATOM     10  H   UNL     1      14.451  -7.965  24.623  1.00  0.00     0.210 HD
ENDBRANCH   8   9
ENDBRANCH   3   8
BRANCH   4  11
ATOM     11  O   UNL     1      13.077  -7.965  23.015  1.00  0.00    -0.387 OA
ATOM     12  H   UNL     1      13.562  -7.464  23.722  1.00  0.00     0.211 HD
ENDBRANCH   4  11
BRANCH   6  13
ATOM     13  O   UNL     1      12.693 -11.540  22.511  1.00  0.00    -0.387 OA
ATOM     14  H   UNL     1      13.014 -11.627  23.446  1.00  0.00     0.211 HD
ENDBRANCH   6  13
BRANCH   7  15
ATOM     15  O   UNL     1      10.191 -10.738  21.473  1.00  0.00    -0.385 OA
ATOM     16  H   UNL     1      10.809 -11.012  20.748  1.00  0.00     0.211 HD
ENDBRANCH   7  15
ENDBRANCH   1   2
BRANCH   1  17
ATOM     17  C   UNL     1       9.132 -12.020  24.395  1.00  0.00     0.224 C 
ATOM     18  C   UNL     1       9.157 -13.458  23.836  1.00  0.00     0.208 C 
ATOM     19  O   UNL     1       8.095 -11.298  23.746  1.00  0.00    -0.337 OA
ATOM     20  C   UNL     1       7.750 -13.640  23.316  1.00  0.00     0.180 C 
ATOM     21  C   UNL     1       7.278 -12.208  23.036  1.00  0.00     0.179 C 
BRANCH  17  22
ATOM     22  C   UNL     1       8.832 -12.027  25.908  1.00  0.00     0.225 C 
BRANCH  22  23
ATOM     23  O   UNL     1       7.958 -10.988  26.256  1.00  0.00    -0.391 OA
ATOM     24  H   UNL     1       7.846 -10.435  25.439  1.00  0.00     0.210 HD
ENDBRANCH  22  23
ENDBRANCH  17  22
BRANCH  18  25
ATOM     25  O   UNL     1      10.080 -13.580  22.783  1.00  0.00    -0.385 OA
ATOM     26  H   UNL     1      10.778 -14.216  23.087  1.00  0.00     0.211 HD
ENDBRANCH  18  25
BRANCH  20  27
ATOM     27  O   UNL     1       7.701 -14.468  22.180  1.00  0.00    -0.387 OA
ATOM     28  H   UNL     1       6.746 -14.699  22.040  1.00  0.00     0.211 HD
ENDBRANCH  20  27
BRANCH  21  29
ATOM     29  C   UNL     1       7.280 -11.838  21.540  1.00  0.00     0.191 C 
BRANCH  29  30
ATOM     30  O   UNL     1       7.214 -10.447  21.378  1.00  0.00    -0.394 OA
ATOM     31  H   UNL     1       7.130 -10.279  20.403  1.00  0.00     0.210 HD
ENDBRANCH  29  30
ENDBRANCH  21  29
ENDBRANCH   1  17
TORSDOF 13
ENDMDL
MODEL 6
REMARK VINA RESULT:    -3.312      1.883      5.577
REMARK INTER + INTRA:          -7.049
REMARK INTER:                  -4.899
REMARK INTRA:                  -2.150
REMARK UNBOUND:                -1.993
REMARK SMILES OC[C@@H]1O[C@](CO)(O[C@H]2O[C@H](CO)[C@H](O)[C@@H](O)[C@H]2O)[C@H](O)[C@@H]1O
REMARK SMILES IDX 8 1 9 2 11 3 14 4 10 5 16 6 18 7 12 8 13 9 15 11 17 13 19 15
REMARK SMILES IDX 5 17 20 18 4 19 22 20 3 21 6 22 7 23 21 25 23 27 2 29 1 30
REMARK H PARENT 13 10 15 12 17 14 19 16 7 24 21 26 23 28 1 31
REMARK Flexibility Score: inf
ROOT
ATOM      1  O   UNL     1      11.283 -12.253  22.773  1.00  0.00    -0.313 OA
ENDROOT
BRANCH   1   2
ATOM      2  C   UNL     1      11.017 -11.093  23.551  1.00  0.00     0.285 C 
ATOM      3  C   UNL     1      13.115 -11.167  24.613  1.00  0.00     0.178 C 
ATOM      4  C   UNL     1      13.613  -9.862  23.946  1.00  0.00     0.177 C 
ATOM      5  O   UNL     1      11.707 -11.131  24.794  1.00  0.00    -0.341 OA
ATOM      6  C   UNL     1      12.911  -9.676  22.586  1.00  0.00     0.179 C 
ATOM      7  C   UNL     1      11.385  -9.812  22.768  1.00  0.00     0.202 C 
BRANCH   3   8
ATOM      8  C   UNL     1      13.772 -11.394  25.982  1.00  0.00     0.191 C 
BRANCH   8   9
ATOM      9  O   UNL     1      13.089 -10.690  26.986  1.00  0.00    -0.394 OA
ATOM     10  H   UNL     1      13.618  -9.874  27.178  1.00  0.00     0.210 HD
ENDBRANCH   8   9
ENDBRANCH   3   8
BRANCH   4  11
ATOM     11  O   UNL     1      13.339  -8.764  24.781  1.00  0.00    -0.387 OA
ATOM     12  H   UNL     1      13.828  -8.921  25.630  1.00  0.00     0.211 HD
ENDBRANCH   4  11
BRANCH   6  13
ATOM     13  O   UNL     1      13.380 -10.635  21.669  1.00  0.00    -0.387 OA
ATOM     14  H   UNL     1      13.184 -11.526  22.060  1.00  0.00     0.211 HD
ENDBRANCH   6  13
BRANCH   7  15
ATOM     15  O   UNL     1      10.704  -9.738  21.538  1.00  0.00    -0.385 OA
ATOM     16  H   UNL     1      10.583 -10.660  21.196  1.00  0.00     0.211 HD
ENDBRANCH   7  15
ENDBRANCH   1   2
BRANCH   1  17
ATOM     17  C   UNL     1      10.231 -13.221  22.774  1.00  0.00     0.224 C 
ATOM     18  C   UNL     1       9.896 -13.658  21.333  1.00  0.00     0.208 C 
ATOM     19  O   UNL     1       9.044 -12.742  23.392  1.00  0.00    -0.337 OA
ATOM     20  C   UNL     1       8.414 -13.946  21.407  1.00  0.00     0.180 C 
ATOM     21  C   UNL     1       7.935 -13.091  22.587  1.00  0.00     0.179 C 
BRANCH  17  22
ATOM     22  C   UNL     1      10.748 -14.415  23.602  1.00  0.00     0.225 C 
BRANCH  22  23
ATOM     23  O   UNL     1      10.773 -14.112  24.970  1.00  0.00    -0.391 OA
ATOM     24  H   UNL     1       9.839 -14.209  25.291  1.00  0.00     0.210 HD
ENDBRANCH  22  23
ENDBRANCH  17  22
BRANCH  18  25
ATOM     25  O   UNL     1      10.141 -12.623  20.415  1.00  0.00    -0.385 OA
ATOM     26  H   UNL     1      10.498 -11.858  20.936  1.00  0.00     0.211 HD
ENDBRANCH  18  25
BRANCH  20  27
ATOM     27  O   UNL     1       7.749 -13.645  20.205  1.00  0.00    -0.387 OA
ATOM     28  H   UNL     1       7.387 -14.502  19.859  1.00  0.00     0.211 HD
ENDBRANCH  20  27
BRANCH  21  29
ATOM     29  C   UNL     1       7.189 -11.812  22.162  1.00  0.00     0.191 C 
BRANCH  29  30
ATOM     30  O   UNL     1       8.062 -10.927  21.514  1.00  0.00    -0.394 OA
ATOM     31  H   UNL     1       8.685 -10.584  22.207  1.00  0.00     0.210 HD
ENDBRANCH  29  30
ENDBRANCH  21  29
ENDBRANCH   1  17
TORSDOF 13
ENDMDL
MODEL 7
REMARK VINA RESULT:    -3.260      2.053      6.626
REMARK INTER + INTRA:          -6.968
REMARK INTER:                  -5.195
REMARK INTRA:                  -1.773
REMARK UNBOUND:                -1.993
REMARK SMILES OC[C@@H]1O[C@](CO)(O[C@H]2O[C@H](CO)[C@H](O)[C@@H](O)[C@H]2O)[C@H](O)[C@@H]1O
REMARK SMILES IDX 8 1 9 2 11 3 14 4 10 5 16 6 18 7 12 8 13 9 15 11 17 13 19 15
REMARK SMILES IDX 5 17 20 18 4 19 22 20 3 21 6 22 7 23 21 25 23 27 2 29 1 30
REMARK H PARENT 13 10 15 12 17 14 19 16 7 24 21 26 23 28 1 31
REMARK Flexibility Score: inf
ROOT
ATOM      1  O   UNL     1      12.052 -10.893  22.467  1.00  0.00    -0.313 OA
ENDROOT
BRANCH   1   2
ATOM      2  C   UNL     1      13.165 -11.015  23.343  1.00  0.00     0.285 C 
ATOM      3  C   UNL     1      14.590  -9.816  21.906  1.00  0.00     0.178 C 
ATOM      4  C   UNL     1      14.731  -8.620  22.878  1.00  0.00     0.177 C 
ATOM      5  O   UNL     1      14.393 -11.024  22.625  1.00  0.00    -0.341 OA
ATOM      6  C   UNL     1      13.466  -8.512  23.753  1.00  0.00     0.179 C 
ATOM      7  C   UNL     1      13.162  -9.882  24.394  1.00  0.00     0.202 C 
BRANCH   3   8
ATOM      8  C   UNL     1      15.833  -9.979  21.019  1.00  0.00     0.191 C 
BRANCH   8   9
ATOM      9  O   UNL     1      16.650  -8.840  21.091  1.00  0.00    -0.394 OA
ATOM     10  H   UNL     1      17.111  -8.870  21.968  1.00  0.00     0.210 HD
ENDBRANCH   8   9
ENDBRANCH   3   8
BRANCH   4  11
ATOM     11  O   UNL     1      15.864  -8.798  23.692  1.00  0.00    -0.387 OA
ATOM     12  H   UNL     1      16.642  -8.459  23.179  1.00  0.00     0.211 HD
ENDBRANCH   4  11
BRANCH   6  13
ATOM     13  O   UNL     1      12.377  -8.087  22.970  1.00  0.00    -0.387 OA
ATOM     14  H   UNL     1      12.654  -8.175  22.021  1.00  0.00     0.211 HD
ENDBRANCH   6  13
BRANCH   7  15
ATOM     15  O   UNL     1      11.964  -9.858  25.133  1.00  0.00    -0.385 OA
ATOM     16  H   UNL     1      11.930  -9.006  25.639  1.00  0.00     0.211 HD
ENDBRANCH   7  15
ENDBRANCH   1   2
BRANCH   1  17
ATOM     17  C   UNL     1      11.100 -11.955  22.566  1.00  0.00     0.224 C 
ATOM     18  C   UNL     1       9.773 -11.560  21.887  1.00  0.00     0.208 C 
ATOM     19  O   UNL     1      10.830 -12.328  23.911  1.00  0.00    -0.337 OA
ATOM     20  C   UNL     1       8.742 -12.288  22.717  1.00  0.00     0.180 C 
ATOM     21  C   UNL     1       9.433 -12.478  24.073  1.00  0.00     0.179 C 
BRANCH  17  22
ATOM     22  C   UNL     1      11.737 -13.168  21.857  1.00  0.00     0.225 C 
BRANCH  22  23
ATOM     23  O   UNL     1      11.410 -13.189  20.494  1.00  0.00    -0.391 OA
ATOM     24  H   UNL     1      10.612 -13.772  20.410  1.00  0.00     0.210 HD
ENDBRANCH  22  23
ENDBRANCH  17  22
BRANCH  18  25
ATOM     25  O   UNL     1       9.556 -10.173  21.958  1.00  0.00    -0.385 OA
ATOM     26  H   UNL     1       8.946 -10.018  22.724  1.00  0.00     0.211 HD
ENDBRANCH  18  25
BRANCH  20  27
ATOM     27  O   UNL     1       7.531 -11.579  22.812  1.00  0.00    -0.387 OA
ATOM     28  H   UNL     1       7.553 -11.097  23.680  1.00  0.00     0.211 HD
ENDBRANCH  20  27
BRANCH  21  29
ATOM     29  C   UNL     1       8.938 -11.506  25.161  1.00  0.00     0.191 C 
BRANCH  29  30
ATOM     30  O   UNL     1       9.207 -10.180  24.795  1.00  0.00    -0.394 OA
ATOM     31  H   UNL     1      10.143  -9.993  25.068  1.00  0.00     0.210 HD
ENDBRANCH  29  30
ENDBRANCH  21  29
ENDBRANCH   1  17
TORSDOF 13
ENDMDL
MODEL 8
REMARK VINA RESULT:    -3.227      1.859      4.302
REMARK INTER + INTRA:          -6.919
REMARK INTER:                  -4.859
REMARK INTRA:                  -2.059
REMARK UNBOUND:                -1.993
REMARK SMILES OC[C@@H]1O[C@](CO)(O[C@H]2O[C@H](CO)[C@H](O)[C@@H](O)[C@H]2O)[C@H](O)[C@@H]1O
REMARK SMILES IDX 8 1 9 2 11 3 14 4 10 5 16 6 18 7 12 8 13 9 15 11 17 13 19 15
REMARK SMILES IDX 5 17 20 18 4 19 22 20 3 21 6 22 7 23 21 25 23 27 2 29 1 30
REMARK H PARENT 13 10 15 12 17 14 19 16 7 24 21 26 23 28 1 31
REMARK Flexibility Score: inf
ROOT
ATOM      1  O   UNL     1      11.968 -11.384  23.238  1.00  0.00    -0.313 OA
ENDROOT
BRANCH   1   2
ATOM      2  C   UNL     1      10.897 -10.501  22.927  1.00  0.00     0.285 C 
ATOM      3  C   UNL     1       9.563 -12.226  22.044  1.00  0.00     0.178 C 
ATOM      4  C   UNL     1       8.509 -12.128  23.173  1.00  0.00     0.177 C 
ATOM      5  O   UNL     1      10.156 -10.959  21.802  1.00  0.00    -0.341 OA
ATOM      6  C   UNL     1       9.179 -11.606  24.461  1.00  0.00     0.179 C 
ATOM      7  C   UNL     1       9.966 -10.317  24.148  1.00  0.00     0.202 C 
BRANCH   3   8
ATOM      8  C   UNL     1       8.945 -12.728  20.731  1.00  0.00     0.191 C 
BRANCH   8   9
ATOM      9  O   UNL     1       8.134 -11.740  20.151  1.00  0.00    -0.394 OA
ATOM     10  H   UNL     1       7.629 -12.174  19.417  1.00  0.00     0.210 HD
ENDBRANCH   8   9
ENDBRANCH   3   8
BRANCH   4  11
ATOM     11  O   UNL     1       7.472 -11.261  22.786  1.00  0.00    -0.387 OA
ATOM     12  H   UNL     1       7.828 -10.338  22.859  1.00  0.00     0.211 HD
ENDBRANCH   4  11
BRANCH   6  13
ATOM     13  O   UNL     1      10.038 -12.588  24.987  1.00  0.00    -0.387 OA
ATOM     14  H   UNL     1      10.741 -12.749  24.305  1.00  0.00     0.211 HD
ENDBRANCH   6  13
BRANCH   7  15
ATOM     15  O   UNL     1      10.669  -9.849  25.274  1.00  0.00    -0.385 OA
ATOM     16  H   UNL     1      10.028  -9.763  26.025  1.00  0.00     0.211 HD
ENDBRANCH   7  15
ENDBRANCH   1   2
BRANCH   1  17
ATOM     17  C   UNL     1      13.265 -10.875  22.920  1.00  0.00     0.224 C 
ATOM     18  C   UNL     1      14.161 -10.852  24.177  1.00  0.00     0.208 C 
ATOM     19  O   UNL     1      13.223  -9.566  22.368  1.00  0.00    -0.337 OA
ATOM     20  C   UNL     1      15.047  -9.652  23.934  1.00  0.00     0.180 C 
ATOM     21  C   UNL     1      14.223  -8.777  22.982  1.00  0.00     0.179 C 
BRANCH  17  22
ATOM     22  C   UNL     1      13.847 -11.822  21.851  1.00  0.00     0.225 C 
BRANCH  22  23
ATOM     23  O   UNL     1      12.831 -12.523  21.187  1.00  0.00    -0.391 OA
ATOM     24  H   UNL     1      12.332 -13.017  21.888  1.00  0.00     0.210 HD
ENDBRANCH  22  23
ENDBRANCH  17  22
BRANCH  18  25
ATOM     25  O   UNL     1      13.400 -10.661  25.342  1.00  0.00    -0.385 OA
ATOM     26  H   UNL     1      13.926 -11.040  26.093  1.00  0.00     0.211 HD
ENDBRANCH  18  25
BRANCH  20  27
ATOM     27  O   UNL     1      15.394  -8.992  25.127  1.00  0.00    -0.387 OA
ATOM     28  H   UNL     1      15.573  -9.699  25.800  1.00  0.00     0.211 HD
ENDBRANCH  20  27
BRANCH  21  29
ATOM     29  C   UNL     1      13.566  -7.564  23.670  1.00  0.00     0.191 C 
BRANCH  29  30
ATOM     30  O   UNL     1      12.693  -7.986  24.682  1.00  0.00    -0.394 OA
ATOM     31  H   UNL     1      13.120  -8.771  25.116  1.00  0.00     0.210 HD
ENDBRANCH  29  30
ENDBRANCH  21  29
ENDBRANCH   1  17
TORSDOF 13
ENDMDL
MODEL 9
REMARK VINA RESULT:    -3.205      9.615     11.622
REMARK INTER + INTRA:          -6.884
REMARK INTER:                  -4.731
REMARK INTRA:                  -2.153
REMARK UNBOUND:                -1.993
REMARK SMILES OC[C@@H]1O[C@](CO)(O[C@H]2O[C@H](CO)[C@H](O)[C@@H](O)[C@H]2O)[C@H](O)[C@@H]1O
REMARK SMILES IDX 8 1 9 2 11 3 14 4 10 5 16 6 18 7 12 8 13 9 15 11 17 13 19 15
REMARK SMILES IDX 5 17 20 18 4 19 22 20 3 21 6 22 7 23 21 25 23 27 2 29 1 30
REMARK H PARENT 13 10 15 12 17 14 19 16 7 24 21 26 23 28 1 31
REMARK Flexibility Score: inf
ROOT
ATOM      1  O   UNL     1       5.067  -3.390  18.813  1.00  0.00    -0.313 OA
ENDROOT
BRANCH   1   2
ATOM      2  C   UNL     1       4.662  -2.064  19.126  1.00  0.00     0.285 C 
ATOM      3  C   UNL     1       5.203  -2.298  21.403  1.00  0.00     0.178 C 
ATOM      4  C   UNL     1       6.364  -1.278  21.338  1.00  0.00     0.177 C 
ATOM      5  O   UNL     1       4.191  -1.966  20.465  1.00  0.00    -0.341 OA
ATOM      6  C   UNL     1       6.953  -1.255  19.913  1.00  0.00     0.179 C 
ATOM      7  C   UNL     1       5.818  -1.066  18.886  1.00  0.00     0.202 C 
BRANCH   3   8
ATOM      8  C   UNL     1       4.569  -2.350  22.800  1.00  0.00     0.191 C 
BRANCH   8   9
ATOM      9  O   UNL     1       5.501  -1.989  23.785  1.00  0.00    -0.394 OA
ATOM     10  H   UNL     1       5.046  -2.080  24.662  1.00  0.00     0.210 HD
ENDBRANCH   8   9
ENDBRANCH   3   8
BRANCH   4  11
ATOM     11  O   UNL     1       5.895   0.002  21.683  1.00  0.00    -0.387 OA
ATOM     12  H   UNL     1       6.561   0.654  21.339  1.00  0.00     0.211 HD
ENDBRANCH   4  11
BRANCH   6  13
ATOM     13  O   UNL     1       7.644  -2.455  19.660  1.00  0.00    -0.387 OA
ATOM     14  H   UNL     1       8.604  -2.220  19.573  1.00  0.00     0.211 HD
ENDBRANCH   6  13
BRANCH   7  15
ATOM     15  O   UNL     1       6.294  -1.127  17.563  1.00  0.00    -0.385 OA
ATOM     16  H   UNL     1       6.395  -0.200  17.228  1.00  0.00     0.211 HD
ENDBRANCH   7  15
ENDBRANCH   1   2
BRANCH   1  17
ATOM     17  C   UNL     1       4.169  -4.097  17.954  1.00  0.00     0.224 C 
ATOM     18  C   UNL     1       4.911  -4.620  16.707  1.00  0.00     0.208 C 
ATOM     19  O   UNL     1       3.072  -3.299  17.530  1.00  0.00    -0.337 OA
ATOM     20  C   UNL     1       3.846  -4.566  15.636  1.00  0.00     0.180 C 
ATOM     21  C   UNL     1       2.875  -3.492  16.143  1.00  0.00     0.179 C 
BRANCH  17  22
ATOM     22  C   UNL     1       3.610  -5.267  18.789  1.00  0.00     0.225 C 
BRANCH  22  23
ATOM     23  O   UNL     1       2.942  -4.803  19.931  1.00  0.00    -0.391 OA
ATOM     24  H   UNL     1       3.252  -5.372  20.682  1.00  0.00     0.210 HD
ENDBRANCH  22  23
ENDBRANCH  17  22
BRANCH  18  25
ATOM     25  O   UNL     1       5.984  -3.781  16.362  1.00  0.00    -0.385 OA
ATOM     26  H   UNL     1       6.816  -4.276  16.580  1.00  0.00     0.211 HD
ENDBRANCH  18  25
BRANCH  20  27
ATOM     27  O   UNL     1       4.376  -4.273  14.367  1.00  0.00    -0.387 OA
ATOM     28  H   UNL     1       5.266  -3.861  14.520  1.00  0.00     0.211 HD
ENDBRANCH  20  27
BRANCH  21  29
ATOM     29  C   UNL     1       3.013  -2.141  15.415  1.00  0.00     0.191 C 
BRANCH  29  30
ATOM     30  O   UNL     1       4.294  -1.606  15.609  1.00  0.00    -0.394 OA
ATOM     31  H   UNL     1       4.182  -0.793  16.166  1.00  0.00     0.210 HD
ENDBRANCH  29  30
ENDBRANCH  21  29
ENDBRANCH   1  17
TORSDOF 13
ENDMDL
