MODEL 1
REMARK VINA RESULT:    -4.419      0.000      0.000
REMARK INTER + INTRA:         -12.803
REMARK INTER:                  -9.587
REMARK INTRA:                  -3.217
REMARK UNBOUND:                -3.217
REMARK SMILES CCCCCCCCCCCCCCCCCCCCCC(=O)[O-]
REMARK SMILES IDX 12 1 11 2 10 3 9 4 8 5 7 6 6 7 5 8 4 9 3 10 2 11 1 12 13 13
REMARK SMILES IDX 14 14 15 15 16 16 17 17 18 18 19 19 20 20 21 21 22 22 23 23
REMARK SMILES IDX 24 24
REMARK H PARENT
REMARK Flexibility Score: inf
ROOT
ATOM      1  C   UNL     1      62.991 -27.734  -2.513  1.00  0.00     0.000 C 
ENDROOT
BRANCH   1   2
ATOM      2  C   UNL     1      63.240 -26.233  -2.735  1.00  0.00     0.000 C 
BRANCH   2   3
ATOM      3  C   UNL     1      62.023 -25.512  -3.339  1.00  0.00     0.000 C 
BRANCH   3   4
ATOM      4  C   UNL     1      60.719 -26.336  -3.271  1.00  0.00    -0.000 C 
BRANCH   4   5
ATOM      5  C   UNL     1      59.831 -25.925  -2.084  1.00  0.00    -0.000 C 
BRANCH   5   6
ATOM      6  C   UNL     1      58.359 -25.706  -2.497  1.00  0.00    -0.000 C 
BRANCH   6   7
ATOM      7  C   UNL     1      57.956 -26.451  -3.784  1.00  0.00    -0.000 C 
BRANCH   7   8
ATOM      8  C   UNL     1      57.496 -25.548  -4.942  1.00  0.00    -0.000 C 
BRANCH   8   9
ATOM      9  C   UNL     1      57.935 -24.075  -4.829  1.00  0.00    -0.000 C 
BRANCH   9  10
ATOM     10  C   UNL     1      59.287 -23.777  -5.510  1.00  0.00    -0.000 C 
BRANCH  10  11
ATOM     11  C   UNL     1      59.525 -24.657  -6.747  1.00  0.00    -0.003 C 
ATOM     12  C   UNL     1      60.969 -25.149  -6.803  1.00  0.00     0.004 C 
ENDBRANCH  10  11
ENDBRANCH   9  10
ENDBRANCH   8   9
ENDBRANCH   7   8
ENDBRANCH   6   7
ENDBRANCH   5   6
ENDBRANCH   4   5
ENDBRANCH   3   4
ENDBRANCH   2   3
ENDBRANCH   1   2
BRANCH   1  13
ATOM     13  C   UNL     1      63.605 -28.245  -1.200  1.00  0.00     0.000 C 
BRANCH  13  14
ATOM     14  C   UNL     1      62.685 -29.234  -0.464  1.00  0.00     0.000 C 
BRANCH  14  15
ATOM     15  C   UNL     1      61.198 -29.037  -0.813  1.00  0.00     0.000 C 
BRANCH  15  16
ATOM     16  C   UNL     1      60.220 -29.230   0.364  1.00  0.00     0.000 C 
BRANCH  16  17
ATOM     17  C   UNL     1      58.881 -29.903  -0.001  1.00  0.00     0.000 C 
BRANCH  17  18
ATOM     18  C   UNL     1      57.929 -29.037  -0.846  1.00  0.00     0.000 C 
BRANCH  18  19
ATOM     19  C   UNL     1      56.728 -28.516  -0.043  1.00  0.00     0.000 C 
BRANCH  19  20
ATOM     20  C   UNL     1      57.044 -27.158   0.601  1.00  0.00     0.006 C 
BRANCH  20  21
ATOM     21  C   UNL     1      56.600 -27.094   2.069  1.00  0.00     0.053 C 
BRANCH  21  22
ATOM     22  C   UNL     1      57.236 -28.173   2.891  1.00  0.00     0.041 C 
ATOM     23  O   UNL     1      58.469 -28.133   3.145  1.00  0.00    -0.550 OA
ATOM     24  O   UNL     1      56.461 -29.205   3.406  1.00  0.00    -0.550 OA
ENDBRANCH  21  22
ENDBRANCH  20  21
ENDBRANCH  19  20
ENDBRANCH  18  19
ENDBRANCH  17  18
ENDBRANCH  16  17
ENDBRANCH  15  16
ENDBRANCH  14  15
ENDBRANCH  13  14
ENDBRANCH   1  13
TORSDOF 20
ENDMDL
MODEL 2
REMARK VINA RESULT:    -4.371      2.281      6.617
REMARK INTER + INTRA:         -12.698
REMARK INTER:                  -9.686
REMARK INTRA:                  -3.012
REMARK UNBOUND:                -3.217
REMARK SMILES CCCCCCCCCCCCCCCCCCCCCC(=O)[O-]
REMARK SMILES IDX 12 1 11 2 10 3 9 4 8 5 7 6 6 7 5 8 4 9 3 10 2 11 1 12 13 13
REMARK SMILES IDX 14 14 15 15 16 16 17 17 18 18 19 19 20 20 21 21 22 22 23 23
REMARK SMILES IDX 24 24
REMARK H PARENT
REMARK Flexibility Score: inf
ROOT
ATOM      1  C   UNL     1      60.938 -28.937  -1.127  1.00  0.00     0.000 C 
ENDROOT
BRANCH   1   2
ATOM      2  C   UNL     1      59.851 -28.814  -0.046  1.00  0.00     0.000 C 
BRANCH   2   3
ATOM      3  C   UNL     1      59.102 -30.135   0.197  1.00  0.00     0.000 C 
BRANCH   3   4
ATOM      4  C   UNL     1      57.595 -29.950   0.478  1.00  0.00    -0.000 C 
BRANCH   4   5
ATOM      5  C   UNL     1      57.109 -28.530   0.137  1.00  0.00    -0.000 C 
BRANCH   5   6
ATOM      6  C   UNL     1      56.124 -27.976   1.189  1.00  0.00    -0.000 C 
BRANCH   6   7
ATOM      7  C   UNL     1      56.809 -27.251   2.363  1.00  0.00    -0.000 C 
BRANCH   7   8
ATOM      8  C   UNL     1      56.770 -28.005   3.704  1.00  0.00    -0.000 C 
BRANCH   8   9
ATOM      9  C   UNL     1      58.037 -28.822   4.026  1.00  0.00    -0.000 C 
BRANCH   9  10
ATOM     10  C   UNL     1      59.344 -28.146   3.564  1.00  0.00    -0.000 C 
BRANCH  10  11
ATOM     11  C   UNL     1      60.523 -29.129   3.509  1.00  0.00    -0.003 C 
ATOM     12  C   UNL     1      60.269 -30.343   4.397  1.00  0.00     0.004 C 
ENDBRANCH  10  11
ENDBRANCH   9  10
ENDBRANCH   8   9
ENDBRANCH   7   8
ENDBRANCH   6   7
ENDBRANCH   5   6
ENDBRANCH   4   5
ENDBRANCH   3   4
ENDBRANCH   2   3
ENDBRANCH   1   2
BRANCH   1  13
ATOM     13  C   UNL     1      62.324 -29.242  -0.537  1.00  0.00     0.000 C 
BRANCH  13  14
ATOM     14  C   UNL     1      63.469 -28.860  -1.491  1.00  0.00     0.000 C 
BRANCH  14  15
ATOM     15  C   UNL     1      63.679 -27.338  -1.589  1.00  0.00     0.000 C 
BRANCH  15  16
ATOM     16  C   UNL     1      63.432 -26.734  -2.985  1.00  0.00     0.000 C 
BRANCH  16  17
ATOM     17  C   UNL     1      62.405 -25.583  -3.029  1.00  0.00     0.000 C 
BRANCH  17  18
ATOM     18  C   UNL     1      61.017 -25.972  -3.572  1.00  0.00     0.000 C 
BRANCH  18  19
ATOM     19  C   UNL     1      59.867 -25.393  -2.734  1.00  0.00     0.000 C 
BRANCH  19  20
ATOM     20  C   UNL     1      58.761 -26.438  -2.521  1.00  0.00     0.006 C 
BRANCH  20  21
ATOM     21  C   UNL     1      57.369 -25.888  -2.861  1.00  0.00     0.053 C 
BRANCH  21  22
ATOM     22  C   UNL     1      56.878 -24.930  -1.819  1.00  0.00     0.041 C 
ATOM     23  O   UNL     1      57.231 -25.066  -0.618  1.00  0.00    -0.550 OA
ATOM     24  O   UNL     1      56.060 -23.867  -2.180  1.00  0.00    -0.550 OA
ENDBRANCH  21  22
ENDBRANCH  20  21
ENDBRANCH  19  20
ENDBRANCH  18  19
ENDBRANCH  17  18
ENDBRANCH  16  17
ENDBRANCH  15  16
ENDBRANCH  14  15
ENDBRANCH  13  14
ENDBRANCH   1  13
TORSDOF 20
ENDMDL
MODEL 3
REMARK VINA RESULT:    -4.370      3.305      6.656
REMARK INTER + INTRA:         -12.696
REMARK INTER:                  -9.678
REMARK INTRA:                  -3.018
REMARK UNBOUND:                -3.217
REMARK SMILES CCCCCCCCCCCCCCCCCCCCCC(=O)[O-]
REMARK SMILES IDX 12 1 11 2 10 3 9 4 8 5 7 6 6 7 5 8 4 9 3 10 2 11 1 12 13 13
REMARK SMILES IDX 14 14 15 15 16 16 17 17 18 18 19 19 20 20 21 21 22 22 23 23
REMARK SMILES IDX 24 24
REMARK H PARENT
REMARK Flexibility Score: inf
ROOT
ATOM      1  C   UNL     1      63.444 -28.163  -0.966  1.00  0.00     0.000 C 
ENDROOT
BRANCH   1   2
ATOM      2  C   UNL     1      62.492 -29.241  -0.421  1.00  0.00     0.000 C 
BRANCH   2   3
ATOM      3  C   UNL     1      61.049 -29.070  -0.925  1.00  0.00     0.000 C 
BRANCH   3   4
ATOM      4  C   UNL     1      59.994 -29.079   0.203  1.00  0.00    -0.000 C 
BRANCH   4   5
ATOM      5  C   UNL     1      60.631 -29.253   1.593  1.00  0.00    -0.000 C 
BRANCH   5   6
ATOM      6  C   UNL     1      59.603 -29.093   2.736  1.00  0.00    -0.000 C 
BRANCH   6   7
ATOM      7  C   UNL     1      58.138 -29.082   2.258  1.00  0.00    -0.000 C 
BRANCH   7   8
ATOM      8  C   UNL     1      57.307 -27.880   2.739  1.00  0.00    -0.000 C 
BRANCH   8   9
ATOM      9  C   UNL     1      56.174 -27.451   1.787  1.00  0.00    -0.000 C 
BRANCH   9  10
ATOM     10  C   UNL     1      56.551 -26.269   0.869  1.00  0.00    -0.000 C 
BRANCH  10  11
ATOM     11  C   UNL     1      57.230 -26.730  -0.429  1.00  0.00    -0.003 C 
ATOM     12  C   UNL     1      56.567 -27.989  -0.981  1.00  0.00     0.004 C 
ENDBRANCH  10  11
ENDBRANCH   9  10
ENDBRANCH   8   9
ENDBRANCH   7   8
ENDBRANCH   6   7
ENDBRANCH   5   6
ENDBRANCH   4   5
ENDBRANCH   3   4
ENDBRANCH   2   3
ENDBRANCH   1   2
BRANCH   1  13
ATOM     13  C   UNL     1      63.085 -27.730  -2.397  1.00  0.00     0.000 C 
BRANCH  13  14
ATOM     14  C   UNL     1      62.919 -26.206  -2.528  1.00  0.00     0.000 C 
BRANCH  14  15
ATOM     15  C   UNL     1      61.704 -25.811  -3.388  1.00  0.00     0.000 C 
BRANCH  15  16
ATOM     16  C   UNL     1      60.333 -26.006  -2.710  1.00  0.00     0.000 C 
BRANCH  16  17
ATOM     17  C   UNL     1      59.398 -27.018  -3.403  1.00  0.00     0.000 C 
BRANCH  17  18
ATOM     18  C   UNL     1      58.118 -26.411  -4.007  1.00  0.00     0.000 C 
BRANCH  18  19
ATOM     19  C   UNL     1      57.945 -24.924  -3.663  1.00  0.00     0.000 C 
BRANCH  19  20
ATOM     20  C   UNL     1      57.931 -24.063  -4.936  1.00  0.00     0.006 C 
BRANCH  20  21
ATOM     21  C   UNL     1      59.346 -23.766  -5.451  1.00  0.00     0.053 C 
BRANCH  21  22
ATOM     22  C   UNL     1      59.686 -24.592  -6.654  1.00  0.00     0.041 C 
ATOM     23  O   UNL     1      58.921 -24.599  -7.655  1.00  0.00    -0.550 OA
ATOM     24  O   UNL     1      60.864 -25.328  -6.683  1.00  0.00    -0.550 OA
ENDBRANCH  21  22
ENDBRANCH  20  21
ENDBRANCH  19  20
ENDBRANCH  18  19
ENDBRANCH  17  18
ENDBRANCH  16  17
ENDBRANCH  15  16
ENDBRANCH  14  15
ENDBRANCH  13  14
ENDBRANCH   1  13
TORSDOF 20
ENDMDL
MODEL 4
REMARK VINA RESULT:    -4.358      1.629      3.748
REMARK INTER + INTRA:         -12.669
REMARK INTER:                  -9.408
REMARK INTRA:                  -3.262
REMARK UNBOUND:                -3.217
REMARK SMILES CCCCCCCCCCCCCCCCCCCCCC(=O)[O-]
REMARK SMILES IDX 12 1 11 2 10 3 9 4 8 5 7 6 6 7 5 8 4 9 3 10 2 11 1 12 13 13
REMARK SMILES IDX 14 14 15 15 16 16 17 17 18 18 19 19 20 20 21 21 22 22 23 23
REMARK SMILES IDX 24 24
REMARK H PARENT
REMARK Flexibility Score: inf
ROOT
ATOM      1  C   UNL     1      61.520 -25.621  -3.771  1.00  0.00     0.000 C 
ENDROOT
BRANCH   1   2
ATOM      2  C   UNL     1      60.174 -25.320  -3.091  1.00  0.00     0.000 C 
BRANCH   2   3
ATOM      3  C   UNL     1      59.478 -26.588  -2.565  1.00  0.00     0.000 C 
BRANCH   3   4
ATOM      4  C   UNL     1      58.410 -27.151  -3.527  1.00  0.00    -0.000 C 
BRANCH   4   5
ATOM      5  C   UNL     1      58.048 -26.156  -4.643  1.00  0.00    -0.000 C 
BRANCH   5   6
ATOM      6  C   UNL     1      56.649 -25.531  -4.444  1.00  0.00    -0.000 C 
BRANCH   6   7
ATOM      7  C   UNL     1      56.636 -24.326  -3.483  1.00  0.00    -0.000 C 
BRANCH   7   8
ATOM      8  C   UNL     1      55.859 -24.548  -2.173  1.00  0.00    -0.000 C 
BRANCH   8   9
ATOM      9  C   UNL     1      56.729 -24.928  -0.959  1.00  0.00    -0.000 C 
BRANCH   9  10
ATOM     10  C   UNL     1      56.379 -26.304  -0.354  1.00  0.00    -0.000 C 
BRANCH  10  11
ATOM     11  C   UNL     1      55.460 -27.129  -1.269  1.00  0.00    -0.003 C 
ATOM     12  C   UNL     1      55.854 -28.603  -1.260  1.00  0.00     0.004 C 
ENDBRANCH  10  11
ENDBRANCH   9  10
ENDBRANCH   8   9
ENDBRANCH   7   8
ENDBRANCH   6   7
ENDBRANCH   5   6
ENDBRANCH   4   5
ENDBRANCH   3   4
ENDBRANCH   2   3
ENDBRANCH   1   2
BRANCH   1  13
ATOM     13  C   UNL     1      62.653 -25.851  -2.757  1.00  0.00     0.000 C 
BRANCH  13  14
ATOM     14  C   UNL     1      63.164 -27.302  -2.763  1.00  0.00     0.000 C 
BRANCH  14  15
ATOM     15  C   UNL     1      63.766 -27.728  -1.411  1.00  0.00     0.000 C 
BRANCH  15  16
ATOM     16  C   UNL     1      63.050 -28.906  -0.721  1.00  0.00     0.000 C 
BRANCH  16  17
ATOM     17  C   UNL     1      61.548 -29.043  -1.047  1.00  0.00     0.000 C 
BRANCH  17  18
ATOM     18  C   UNL     1      60.614 -29.024   0.177  1.00  0.00     0.000 C 
BRANCH  18  19
ATOM     19  C   UNL     1      59.281 -29.742  -0.081  1.00  0.00     0.000 C 
BRANCH  19  20
ATOM     20  C   UNL     1      58.438 -29.816   1.202  1.00  0.00     0.006 C 
BRANCH  20  21
ATOM     21  C   UNL     1      58.308 -28.450   1.890  1.00  0.00     0.053 C 
BRANCH  21  22
ATOM     22  C   UNL     1      58.993 -28.430   3.223  1.00  0.00     0.041 C 
ATOM     23  O   UNL     1      59.070 -27.357   3.878  1.00  0.00    -0.550 OA
ATOM     24  O   UNL     1      59.515 -29.601   3.756  1.00  0.00    -0.550 OA
ENDBRANCH  21  22
ENDBRANCH  20  21
ENDBRANCH  19  20
ENDBRANCH  18  19
ENDBRANCH  17  18
ENDBRANCH  16  17
ENDBRANCH  15  16
ENDBRANCH  14  15
ENDBRANCH  13  14
ENDBRANCH   1  13
TORSDOF 20
ENDMDL
MODEL 5
REMARK VINA RESULT:    -4.329      1.612      3.080
REMARK INTER + INTRA:         -12.608
REMARK INTER:                  -9.787
REMARK INTRA:                  -2.821
REMARK UNBOUND:                -3.217
REMARK SMILES CCCCCCCCCCCCCCCCCCCCCC(=O)[O-]
REMARK SMILES IDX 12 1 11 2 10 3 9 4 8 5 7 6 6 7 5 8 4 9 3 10 2 11 1 12 13 13
REMARK SMILES IDX 14 14 15 15 16 16 17 17 18 18 19 19 20 20 21 21 22 22 23 23
REMARK SMILES IDX 24 24
REMARK H PARENT
REMARK Flexibility Score: inf
ROOT
ATOM      1  C   UNL     1      61.011 -25.130  -3.206  1.00  0.00     0.000 C 
ENDROOT
BRANCH   1   2
ATOM      2  C   UNL     1      59.997 -25.938  -2.377  1.00  0.00     0.000 C 
BRANCH   2   3
ATOM      3  C   UNL     1      59.534 -27.220  -3.090  1.00  0.00     0.000 C 
BRANCH   3   4
ATOM      4  C   UNL     1      57.999 -27.346  -3.200  1.00  0.00    -0.000 C 
BRANCH   4   5
ATOM      5  C   UNL     1      57.289 -25.995  -3.009  1.00  0.00    -0.000 C 
BRANCH   5   6
ATOM      6  C   UNL     1      56.919 -25.329  -4.353  1.00  0.00    -0.000 C 
BRANCH   6   7
ATOM      7  C   UNL     1      57.770 -24.089  -4.689  1.00  0.00    -0.000 C 
BRANCH   7   8
ATOM      8  C   UNL     1      58.545 -24.172  -6.015  1.00  0.00    -0.000 C 
BRANCH   8   9
ATOM      9  C   UNL     1      59.185 -25.542  -6.308  1.00  0.00    -0.000 C 
BRANCH   9  10
ATOM     10  C   UNL     1      60.518 -25.451  -7.081  1.00  0.00    -0.000 C 
BRANCH  10  11
ATOM     11  C   UNL     1      60.382 -25.915  -8.539  1.00  0.00    -0.003 C 
ATOM     12  C   UNL     1      61.741 -26.279  -9.130  1.00  0.00     0.004 C 
ENDBRANCH  10  11
ENDBRANCH   9  10
ENDBRANCH   8   9
ENDBRANCH   7   8
ENDBRANCH   6   7
ENDBRANCH   5   6
ENDBRANCH   4   5
ENDBRANCH   3   4
ENDBRANCH   2   3
ENDBRANCH   1   2
BRANCH   1  13
ATOM     13  C   UNL     1      62.287 -25.930  -3.518  1.00  0.00     0.000 C 
BRANCH  13  14
ATOM     14  C   UNL     1      63.076 -26.299  -2.250  1.00  0.00     0.000 C 
BRANCH  14  15
ATOM     15  C   UNL     1      63.732 -27.689  -2.340  1.00  0.00     0.000 C 
BRANCH  15  16
ATOM     16  C   UNL     1      63.330 -28.674  -1.224  1.00  0.00     0.000 C 
BRANCH  16  17
ATOM     17  C   UNL     1      61.857 -29.131  -1.254  1.00  0.00     0.000 C 
BRANCH  17  18
ATOM     18  C   UNL     1      61.083 -28.913   0.059  1.00  0.00     0.000 C 
BRANCH  18  19
ATOM     19  C   UNL     1      59.614 -29.353  -0.036  1.00  0.00     0.000 C 
BRANCH  19  20
ATOM     20  C   UNL     1      59.006 -29.546   1.362  1.00  0.00     0.006 C 
BRANCH  20  21
ATOM     21  C   UNL     1      60.080 -29.748   2.440  1.00  0.00     0.053 C 
BRANCH  21  22
ATOM     22  C   UNL     1      60.010 -28.693   3.501  1.00  0.00     0.041 C 
ATOM     23  O   UNL     1      59.002 -27.943   3.582  1.00  0.00    -0.550 OA
ATOM     24  O   UNL     1      61.042 -28.561   4.422  1.00  0.00    -0.550 OA
ENDBRANCH  21  22
ENDBRANCH  20  21
ENDBRANCH  19  20
ENDBRANCH  18  19
ENDBRANCH  17  18
ENDBRANCH  16  17
ENDBRANCH  15  16
ENDBRANCH  14  15
ENDBRANCH  13  14
ENDBRANCH   1  13
TORSDOF 20
ENDMDL
MODEL 6
REMARK VINA RESULT:    -4.314      2.186      3.124
REMARK INTER + INTRA:         -12.575
REMARK INTER:                  -9.981
REMARK INTRA:                  -2.594
REMARK UNBOUND:                -3.217
REMARK SMILES CCCCCCCCCCCCCCCCCCCCCC(=O)[O-]
REMARK SMILES IDX 12 1 11 2 10 3 9 4 8 5 7 6 6 7 5 8 4 9 3 10 2 11 1 12 13 13
REMARK SMILES IDX 14 14 15 15 16 16 17 17 18 18 19 19 20 20 21 21 22 22 23 23
REMARK SMILES IDX 24 24
REMARK H PARENT
REMARK Flexibility Score: inf
ROOT
ATOM      1  C   UNL     1      62.872 -28.926  -0.462  1.00  0.00     0.000 C 
ENDROOT
BRANCH   1   2
ATOM      2  C   UNL     1      62.778 -28.368  -1.893  1.00  0.00     0.000 C 
BRANCH   2   3
ATOM      3  C   UNL     1      63.584 -27.071  -2.078  1.00  0.00     0.000 C 
BRANCH   3   4
ATOM      4  C   UNL     1      62.809 -25.962  -2.823  1.00  0.00    -0.000 C 
BRANCH   4   5
ATOM      5  C   UNL     1      61.366 -26.382  -3.153  1.00  0.00    -0.000 C 
BRANCH   5   6
ATOM      6  C   UNL     1      60.325 -25.358  -2.647  1.00  0.00    -0.000 C 
BRANCH   6   7
ATOM      7  C   UNL     1      58.960 -25.980  -2.295  1.00  0.00    -0.000 C 
BRANCH   7   8
ATOM      8  C   UNL     1      57.839 -25.710  -3.315  1.00  0.00    -0.000 C 
BRANCH   8   9
ATOM      9  C   UNL     1      58.252 -24.836  -4.515  1.00  0.00    -0.000 C 
BRANCH   9  10
ATOM     10  C   UNL     1      58.494 -25.639  -5.811  1.00  0.00    -0.000 C 
BRANCH  10  11
ATOM     11  C   UNL     1      59.384 -24.883  -6.809  1.00  0.00    -0.003 C 
ATOM     12  C   UNL     1      60.863 -25.106  -6.507  1.00  0.00     0.004 C 
ENDBRANCH  10  11
ENDBRANCH   9  10
ENDBRANCH   8   9
ENDBRANCH   7   8
ENDBRANCH   6   7
ENDBRANCH   5   6
ENDBRANCH   4   5
ENDBRANCH   3   4
ENDBRANCH   2   3
ENDBRANCH   1   2
BRANCH   1  13
ATOM     13  C   UNL     1      61.491 -29.206   0.153  1.00  0.00     0.000 C 
BRANCH  13  14
ATOM     14  C   UNL     1      60.356 -29.113  -0.881  1.00  0.00     0.000 C 
BRANCH  14  15
ATOM     15  C   UNL     1      58.983 -29.488  -0.293  1.00  0.00     0.000 C 
BRANCH  15  16
ATOM     16  C   UNL     1      58.400 -28.468   0.706  1.00  0.00     0.000 C 
BRANCH  16  17
ATOM     17  C   UNL     1      58.196 -28.998   2.140  1.00  0.00     0.000 C 
BRANCH  17  18
ATOM     18  C   UNL     1      58.847 -28.147   3.246  1.00  0.00     0.000 C 
BRANCH  18  19
ATOM     19  C   UNL     1      60.201 -28.705   3.708  1.00  0.00     0.000 C 
BRANCH  19  20
ATOM     20  C   UNL     1      60.176 -30.241   3.755  1.00  0.00     0.006 C 
BRANCH  20  21
ATOM     21  C   UNL     1      60.498 -30.784   5.154  1.00  0.00     0.053 C 
BRANCH  21  22
ATOM     22  C   UNL     1      59.515 -30.305   6.178  1.00  0.00     0.041 C 
ATOM     23  O   UNL     1      59.911 -29.647   7.176  1.00  0.00    -0.550 OA
ATOM     24  O   UNL     1      58.159 -30.554   6.012  1.00  0.00    -0.550 OA
ENDBRANCH  21  22
ENDBRANCH  20  21
ENDBRANCH  19  20
ENDBRANCH  18  19
ENDBRANCH  17  18
ENDBRANCH  16  17
ENDBRANCH  15  16
ENDBRANCH  14  15
ENDBRANCH  13  14
ENDBRANCH   1  13
TORSDOF 20
ENDMDL
MODEL 7
REMARK VINA RESULT:    -4.305      1.230      2.057
REMARK INTER + INTRA:         -12.555
REMARK INTER:                  -9.367
REMARK INTRA:                  -3.188
REMARK UNBOUND:                -3.217
REMARK SMILES CCCCCCCCCCCCCCCCCCCCCC(=O)[O-]
REMARK SMILES IDX 12 1 11 2 10 3 9 4 8 5 7 6 6 7 5 8 4 9 3 10 2 11 1 12 13 13
REMARK SMILES IDX 14 14 15 15 16 16 17 17 18 18 19 19 20 20 21 21 22 22 23 23
REMARK SMILES IDX 24 24
REMARK H PARENT
REMARK Flexibility Score: inf
ROOT
ATOM      1  C   UNL     1      62.781 -25.936  -2.740  1.00  0.00     0.000 C 
ENDROOT
BRANCH   1   2
ATOM      2  C   UNL     1      61.378 -25.518  -3.212  1.00  0.00     0.000 C 
BRANCH   2   3
ATOM      3  C   UNL     1      60.348 -26.654  -3.094  1.00  0.00     0.000 C 
BRANCH   3   4
ATOM      4  C   UNL     1      59.049 -26.239  -2.370  1.00  0.00    -0.000 C 
BRANCH   4   5
ATOM      5  C   UNL     1      57.843 -27.090  -2.805  1.00  0.00    -0.000 C 
BRANCH   5   6
ATOM      6  C   UNL     1      56.580 -26.237  -3.056  1.00  0.00    -0.000 C 
BRANCH   6   7
ATOM      7  C   UNL     1      56.876 -24.748  -3.317  1.00  0.00    -0.000 C 
BRANCH   7   8
ATOM      8  C   UNL     1      57.143 -24.385  -4.788  1.00  0.00    -0.000 C 
BRANCH   8   9
ATOM      9  C   UNL     1      56.859 -25.516  -5.797  1.00  0.00    -0.000 C 
BRANCH   9  10
ATOM     10  C   UNL     1      58.121 -26.027  -6.524  1.00  0.00    -0.000 C 
BRANCH  10  11
ATOM     11  C   UNL     1      59.356 -25.164  -6.229  1.00  0.00    -0.003 C 
ATOM     12  C   UNL     1      60.477 -25.447  -7.226  1.00  0.00     0.004 C 
ENDBRANCH  10  11
ENDBRANCH   9  10
ENDBRANCH   8   9
ENDBRANCH   7   8
ENDBRANCH   6   7
ENDBRANCH   5   6
ENDBRANCH   4   5
ENDBRANCH   3   4
ENDBRANCH   2   3
ENDBRANCH   1   2
BRANCH   1  13
ATOM     13  C   UNL     1      62.911 -27.458  -2.558  1.00  0.00     0.000 C 
BRANCH  13  14
ATOM     14  C   UNL     1      63.632 -27.836  -1.253  1.00  0.00     0.000 C 
BRANCH  14  15
ATOM     15  C   UNL     1      62.941 -28.989  -0.503  1.00  0.00     0.000 C 
BRANCH  15  16
ATOM     16  C   UNL     1      61.467 -29.227  -0.887  1.00  0.00     0.000 C 
BRANCH  16  17
ATOM     17  C   UNL     1      60.440 -28.878   0.211  1.00  0.00     0.000 C 
BRANCH  17  18
ATOM     18  C   UNL     1      59.352 -29.942   0.444  1.00  0.00     0.000 C 
BRANCH  18  19
ATOM     19  C   UNL     1      58.043 -29.626  -0.294  1.00  0.00     0.000 C 
BRANCH  19  20
ATOM     20  C   UNL     1      56.849 -29.638   0.674  1.00  0.00     0.006 C 
BRANCH  20  21
ATOM     21  C   UNL     1      56.049 -28.329   0.625  1.00  0.00     0.053 C 
BRANCH  21  22
ATOM     22  C   UNL     1      56.853 -27.165   1.120  1.00  0.00     0.041 C 
ATOM     23  O   UNL     1      56.881 -26.091   0.464  1.00  0.00    -0.550 OA
ATOM     24  O   UNL     1      57.541 -27.255   2.323  1.00  0.00    -0.550 OA
ENDBRANCH  21  22
ENDBRANCH  20  21
ENDBRANCH  19  20
ENDBRANCH  18  19
ENDBRANCH  17  18
ENDBRANCH  16  17
ENDBRANCH  15  16
ENDBRANCH  14  15
ENDBRANCH  13  14
ENDBRANCH   1  13
TORSDOF 20
ENDMDL
MODEL 8
REMARK VINA RESULT:    -4.296      2.309      3.404
REMARK INTER + INTRA:         -12.536
REMARK INTER:                  -9.800
REMARK INTRA:                  -2.736
REMARK UNBOUND:                -3.217
REMARK SMILES CCCCCCCCCCCCCCCCCCCCCC(=O)[O-]
REMARK SMILES IDX 12 1 11 2 10 3 9 4 8 5 7 6 6 7 5 8 4 9 3 10 2 11 1 12 13 13
REMARK SMILES IDX 14 14 15 15 16 16 17 17 18 18 19 19 20 20 21 21 22 22 23 23
REMARK SMILES IDX 24 24
REMARK H PARENT
REMARK Flexibility Score: inf
ROOT
ATOM      1  C   UNL     1      62.581 -28.977  -0.438  1.00  0.00     0.000 C 
ENDROOT
BRANCH   1   2
ATOM      2  C   UNL     1      63.188 -28.592  -1.797  1.00  0.00     0.000 C 
BRANCH   2   3
ATOM      3  C   UNL     1      63.704 -27.143  -1.828  1.00  0.00     0.000 C 
BRANCH   3   4
ATOM      4  C   UNL     1      63.041 -26.273  -2.918  1.00  0.00    -0.000 C 
BRANCH   4   5
ATOM      5  C   UNL     1      61.505 -26.305  -2.835  1.00  0.00    -0.000 C 
BRANCH   5   6
ATOM      6  C   UNL     1      60.850 -25.120  -3.578  1.00  0.00    -0.000 C 
BRANCH   6   7
ATOM      7  C   UNL     1      60.671 -25.355  -5.090  1.00  0.00    -0.000 C 
BRANCH   7   8
ATOM      8  C   UNL     1      59.755 -24.343  -5.801  1.00  0.00    -0.000 C 
BRANCH   8   9
ATOM      9  C   UNL     1      58.267 -24.738  -5.850  1.00  0.00    -0.000 C 
BRANCH   9  10
ATOM     10  C   UNL     1      58.033 -26.255  -6.006  1.00  0.00    -0.000 C 
BRANCH  10  11
ATOM     11  C   UNL     1      57.933 -26.683  -7.478  1.00  0.00    -0.003 C 
ATOM     12  C   UNL     1      56.506 -26.539  -7.998  1.00  0.00     0.004 C 
ENDBRANCH  10  11
ENDBRANCH   9  10
ENDBRANCH   8   9
ENDBRANCH   7   8
ENDBRANCH   6   7
ENDBRANCH   5   6
ENDBRANCH   4   5
ENDBRANCH   3   4
ENDBRANCH   2   3
ENDBRANCH   1   2
BRANCH   1  13
ATOM     13  C   UNL     1      61.043 -28.989  -0.462  1.00  0.00     0.000 C 
BRANCH  13  14
ATOM     14  C   UNL     1      60.434 -29.269   0.922  1.00  0.00     0.000 C 
BRANCH  14  15
ATOM     15  C   UNL     1      59.033 -29.904   0.839  1.00  0.00     0.000 C 
BRANCH  15  16
ATOM     16  C   UNL     1      57.876 -28.996   1.302  1.00  0.00     0.000 C 
BRANCH  16  17
ATOM     17  C   UNL     1      57.145 -28.241   0.173  1.00  0.00     0.000 C 
BRANCH  17  18
ATOM     18  C   UNL     1      57.284 -28.870  -1.226  1.00  0.00     0.000 C 
BRANCH  18  19
ATOM     19  C   UNL     1      57.896 -27.907  -2.253  1.00  0.00     0.000 C 
BRANCH  19  20
ATOM     20  C   UNL     1      58.105 -26.512  -1.644  1.00  0.00     0.006 C 
BRANCH  20  21
ATOM     21  C   UNL     1      57.308 -25.429  -2.385  1.00  0.00     0.053 C 
BRANCH  21  22
ATOM     22  C   UNL     1      56.073 -25.034  -1.635  1.00  0.00     0.041 C 
ATOM     23  O   UNL     1      56.050 -23.962  -0.973  1.00  0.00    -0.550 OA
ATOM     24  O   UNL     1      54.937 -25.830  -1.694  1.00  0.00    -0.550 OA
ENDBRANCH  21  22
ENDBRANCH  20  21
ENDBRANCH  19  20
ENDBRANCH  18  19
ENDBRANCH  17  18
ENDBRANCH  16  17
ENDBRANCH  15  16
ENDBRANCH  14  15
ENDBRANCH  13  14
ENDBRANCH   1  13
TORSDOF 20
ENDMDL
MODEL 9
REMARK VINA RESULT:    -4.259      3.606      6.730
REMARK INTER + INTRA:         -12.455
REMARK INTER:                  -9.018
REMARK INTRA:                  -3.438
REMARK UNBOUND:                -3.217
REMARK SMILES CCCCCCCCCCCCCCCCCCCCCC(=O)[O-]
REMARK SMILES IDX 12 1 11 2 10 3 9 4 8 5 7 6 6 7 5 8 4 9 3 10 2 11 1 12 13 13
REMARK SMILES IDX 14 14 15 15 16 16 17 17 18 18 19 19 20 20 21 21 22 22 23 23
REMARK SMILES IDX 24 24
REMARK H PARENT
REMARK Flexibility Score: inf
ROOT
ATOM      1  C   UNL     1      61.394 -28.847  -0.603  1.00  0.00     0.000 C 
ENDROOT
BRANCH   1   2
ATOM      2  C   UNL     1      60.306 -28.906  -1.690  1.00  0.00     0.000 C 
BRANCH   2   3
ATOM      3  C   UNL     1      59.423 -27.648  -1.715  1.00  0.00     0.000 C 
BRANCH   3   4
ATOM      4  C   UNL     1      58.457 -27.593  -2.918  1.00  0.00    -0.000 C 
BRANCH   4   5
ATOM      5  C   UNL     1      57.214 -26.734  -2.628  1.00  0.00    -0.000 C 
BRANCH   5   6
ATOM      6  C   UNL     1      57.519 -25.558  -1.674  1.00  0.00    -0.000 C 
BRANCH   6   7
ATOM      7  C   UNL     1      56.700 -25.586  -0.369  1.00  0.00    -0.000 C 
BRANCH   7   8
ATOM      8  C   UNL     1      55.682 -26.735  -0.265  1.00  0.00    -0.000 C 
BRANCH   8   9
ATOM      9  C   UNL     1      56.049 -27.837   0.747  1.00  0.00    -0.000 C 
BRANCH   9  10
ATOM     10  C   UNL     1      57.397 -27.599   1.460  1.00  0.00    -0.000 C 
BRANCH  10  11
ATOM     11  C   UNL     1      58.227 -28.886   1.587  1.00  0.00    -0.003 C 
ATOM     12  C   UNL     1      57.699 -29.975   0.658  1.00  0.00     0.004 C 
ENDBRANCH  10  11
ENDBRANCH   9  10
ENDBRANCH   8   9
ENDBRANCH   7   8
ENDBRANCH   6   7
ENDBRANCH   5   6
ENDBRANCH   4   5
ENDBRANCH   3   4
ENDBRANCH   2   3
ENDBRANCH   1   2
BRANCH   1  13
ATOM     13  C   UNL     1      62.804 -29.083  -1.168  1.00  0.00     0.000 C 
BRANCH  13  14
ATOM     14  C   UNL     1      63.621 -27.784  -1.279  1.00  0.00     0.000 C 
BRANCH  14  15
ATOM     15  C   UNL     1      63.507 -27.126  -2.667  1.00  0.00     0.000 C 
BRANCH  15  16
ATOM     16  C   UNL     1      62.457 -26.002  -2.772  1.00  0.00     0.000 C 
BRANCH  16  17
ATOM     17  C   UNL     1      62.191 -25.487  -4.201  1.00  0.00     0.000 C 
BRANCH  17  18
ATOM     18  C   UNL     1      60.715 -25.526  -4.641  1.00  0.00     0.000 C 
BRANCH  18  19
ATOM     19  C   UNL     1      59.924 -24.293  -4.181  1.00  0.00     0.000 C 
BRANCH  19  20
ATOM     20  C   UNL     1      58.635 -24.129  -5.000  1.00  0.00     0.006 C 
BRANCH  20  21
ATOM     21  C   UNL     1      58.529 -25.163  -6.129  1.00  0.00     0.053 C 
BRANCH  21  22
ATOM     22  C   UNL     1      57.750 -24.636  -7.297  1.00  0.00     0.041 C 
ATOM     23  O   UNL     1      56.525 -24.373  -7.173  1.00  0.00    -0.550 OA
ATOM     24  O   UNL     1      58.385 -24.405  -8.510  1.00  0.00    -0.550 OA
ENDBRANCH  21  22
ENDBRANCH  20  21
ENDBRANCH  19  20
ENDBRANCH  18  19
ENDBRANCH  17  18
ENDBRANCH  16  17
ENDBRANCH  15  16
ENDBRANCH  14  15
ENDBRANCH  13  14
ENDBRANCH   1  13
TORSDOF 20
ENDMDL
