MODEL 1
REMARK VINA RESULT:    -8.473      0.000      0.000
REMARK INTER + INTRA:         -12.899
REMARK INTER:                 -12.188
REMARK INTRA:                  -0.711
REMARK UNBOUND:                -0.711
REMARK SMILES O=c1cc(-c2ccc(O)c(O)c2)oc2cc(O[C@@H]3O[C@@H](CO)[C@H](O)[C@H](O)[C@H]3O)cc(O)c12
REMARK SMILES IDX 17 1 16 2 4 3 3 4 13 5 2 6 14 7 1 8 32 9 15 10 30 11 29 12
REMARK SMILES IDX 5 13 6 14 7 15 8 16 12 17 10 18 9 19 11 21 31 23 18 25 27 26
REMARK SMILES IDX 19 27 25 28 20 29 23 30 28 31 26 33 21 35 22 36 24 38
REMARK H PARENT 9 20 11 22 31 24 28 32 26 34 22 37 24 39
REMARK Flexibility Score: inf
ROOT
ATOM      1  O   UNL     1      -9.010 -16.263  29.790  1.00  0.00    -0.462 OA
ENDROOT
BRANCH   1   2
ATOM      2  C   UNL     1      -8.197 -15.246  30.316  1.00  0.00     0.130 A 
ATOM      3  C   UNL     1      -4.274 -12.621  29.659  1.00  0.00     0.138 A 
ATOM      4  C   UNL     1      -4.492 -11.872  30.823  1.00  0.00     0.100 A 
ATOM      5  O   UNL     1      -5.131 -13.583  29.334  1.00  0.00    -0.456 OA
ATOM      6  C   UNL     1      -5.615 -12.133  31.611  1.00  0.00     0.197 A 
ATOM      7  C   UNL     1      -6.204 -13.886  30.059  1.00  0.00     0.146 A 
ATOM      8  O   UNL     1      -5.835 -11.386  32.602  1.00  0.00    -0.289 OA
ATOM      9  C   UNL     1      -6.489 -13.191  31.263  1.00  0.00     0.107 A 
ATOM     10  C   UNL     1      -7.049 -14.901  29.607  1.00  0.00     0.094 A 
ATOM     11  C   UNL     1      -7.622 -13.598  32.028  1.00  0.00     0.134 A 
ATOM     12  C   UNL     1      -8.479 -14.588  31.524  1.00  0.00     0.093 A 
BRANCH   3  13
ATOM     13  C   UNL     1      -3.108 -12.375  28.775  1.00  0.00     0.021 A 
ATOM     14  C   UNL     1      -2.502 -13.458  28.115  1.00  0.00     0.016 A 
ATOM     15  C   UNL     1      -1.412 -13.252  27.266  1.00  0.00     0.051 A 
ATOM     16  C   UNL     1      -0.915 -11.963  27.052  1.00  0.00     0.157 A 
ATOM     17  C   UNL     1      -2.615 -11.075  28.543  1.00  0.00     0.062 A 
ATOM     18  C   UNL     1      -1.522 -10.868  27.687  1.00  0.00     0.158 A 
BRANCH  16  19
ATOM     19  O   UNL     1       0.178 -11.791  26.203  1.00  0.00    -0.504 OA
ATOM     20  H   UNL     1       0.883 -12.510  26.081  1.00  0.00     0.293 HD
ENDBRANCH  16  19
BRANCH  18  21
ATOM     21  O   UNL     1      -1.043  -9.578  27.464  1.00  0.00    -0.504 OA
ATOM     22  H   UNL     1      -1.397  -8.782  27.983  1.00  0.00     0.293 HD
ENDBRANCH  18  21
ENDBRANCH   3  13
BRANCH  11  23
ATOM     23  O   UNL     1      -7.916 -13.110  33.301  1.00  0.00    -0.507 OA
ATOM     24  H   UNL     1      -7.554 -12.251  33.691  1.00  0.00     0.293 HD
ENDBRANCH  11  23
ENDBRANCH   1   2
BRANCH   1  25
ATOM     25  C   UNL     1     -10.271 -16.696  30.309  1.00  0.00     0.339 C 
ATOM     26  C   UNL     1     -11.328 -16.707  29.169  1.00  0.00     0.214 C 
ATOM     27  O   UNL     1     -10.084 -17.996  30.842  1.00  0.00    -0.332 OA
ATOM     28  C   UNL     1     -12.276 -17.921  29.281  1.00  0.00     0.180 C 
ATOM     29  C   UNL     1     -11.239 -18.481  31.524  1.00  0.00     0.179 C 
ATOM     30  C   UNL     1     -12.569 -18.209  30.765  1.00  0.00     0.177 C 
BRANCH  26  31
ATOM     31  O   UNL     1     -12.067 -15.512  29.216  1.00  0.00    -0.384 OA
ATOM     32  H   UNL     1     -12.049 -15.118  28.302  1.00  0.00     0.211 HD
ENDBRANCH  26  31
BRANCH  28  33
ATOM     33  O   UNL     1     -11.672 -19.039  28.676  1.00  0.00    -0.387 OA
ATOM     34  H   UNL     1     -11.115 -19.481  29.371  1.00  0.00     0.211 HD
ENDBRANCH  28  33
BRANCH  29  35
ATOM     35  C   UNL     1     -11.270 -17.974  32.977  1.00  0.00     0.191 C 
BRANCH  35  36
ATOM     36  O   UNL     1     -11.280 -19.061  33.863  1.00  0.00    -0.394 OA
ATOM     37  H   UNL     1     -12.234 -19.225  34.082  1.00  0.00     0.210 HD
ENDBRANCH  35  36
ENDBRANCH  29  35
BRANCH  30  38
ATOM     38  O   UNL     1     -13.422 -19.321  30.889  1.00  0.00    -0.387 OA
ATOM     39  H   UNL     1     -14.329 -19.025  30.610  1.00  0.00     0.211 HD
ENDBRANCH  30  38
ENDBRANCH   1  25
TORSDOF 11
ENDMDL
MODEL 2
REMARK VINA RESULT:    -8.387      2.764     10.492
REMARK INTER + INTRA:         -12.775
REMARK INTER:                 -12.398
REMARK INTRA:                  -0.377
REMARK UNBOUND:                -0.711
REMARK SMILES O=c1cc(-c2ccc(O)c(O)c2)oc2cc(O[C@@H]3O[C@@H](CO)[C@H](O)[C@H](O)[C@H]3O)cc(O)c12
REMARK SMILES IDX 17 1 16 2 4 3 3 4 13 5 2 6 14 7 1 8 32 9 15 10 30 11 29 12
REMARK SMILES IDX 5 13 6 14 7 15 8 16 12 17 10 18 9 19 11 21 31 23 18 25 27 26
REMARK SMILES IDX 19 27 25 28 20 29 23 30 28 31 26 33 21 35 22 36 24 38
REMARK H PARENT 9 20 11 22 31 24 28 32 26 34 22 37 24 39
REMARK Flexibility Score: inf
ROOT
ATOM      1  O   UNL     1      -6.776 -15.987  31.901  1.00  0.00    -0.462 OA
ENDROOT
BRANCH   1   2
ATOM      2  C   UNL     1      -8.077 -16.361  31.528  1.00  0.00     0.130 A 
ATOM      3  C   UNL     1     -11.712 -19.321  32.392  1.00  0.00     0.138 A 
ATOM      4  C   UNL     1     -12.526 -18.720  31.423  1.00  0.00     0.100 A 
ATOM      5  O   UNL     1     -10.480 -18.861  32.583  1.00  0.00    -0.456 OA
ATOM      6  C   UNL     1     -12.040 -17.637  30.688  1.00  0.00     0.197 A 
ATOM      7  C   UNL     1      -9.961 -17.846  31.898  1.00  0.00     0.146 A 
ATOM      8  O   UNL     1     -12.824 -17.059  29.888  1.00  0.00    -0.289 OA
ATOM      9  C   UNL     1     -10.710 -17.193  30.884  1.00  0.00     0.107 A 
ATOM     10  C   UNL     1      -8.663 -17.431  32.201  1.00  0.00     0.094 A 
ATOM     11  C   UNL     1     -10.081 -16.149  30.143  1.00  0.00     0.134 A 
ATOM     12  C   UNL     1      -8.794 -15.723  30.503  1.00  0.00     0.093 A 
BRANCH   3  13
ATOM     13  C   UNL     1     -12.182 -20.464  33.214  1.00  0.00     0.021 A 
ATOM     14  C   UNL     1     -13.534 -20.841  33.161  1.00  0.00     0.016 A 
ATOM     15  C   UNL     1     -14.000 -21.921  33.915  1.00  0.00     0.051 A 
ATOM     16  C   UNL     1     -13.123 -22.651  34.723  1.00  0.00     0.157 A 
ATOM     17  C   UNL     1     -11.298 -21.212  34.017  1.00  0.00     0.062 A 
ATOM     18  C   UNL     1     -11.764 -22.300  34.771  1.00  0.00     0.158 A 
BRANCH  16  19
ATOM     19  O   UNL     1     -13.620 -23.720  35.467  1.00  0.00    -0.504 OA
ATOM     20  H   UNL     1     -14.508 -24.160  35.252  1.00  0.00     0.293 HD
ENDBRANCH  16  19
BRANCH  18  21
ATOM     21  O   UNL     1     -10.881 -23.034  35.561  1.00  0.00    -0.504 OA
ATOM     22  H   UNL     1     -10.313 -22.592  36.275  1.00  0.00     0.293 HD
ENDBRANCH  18  21
ENDBRANCH   3  13
BRANCH  11  23
ATOM     23  O   UNL     1     -10.647 -15.543  29.021  1.00  0.00    -0.507 OA
ATOM     24  H   UNL     1     -10.128 -15.187  28.231  1.00  0.00     0.293 HD
ENDBRANCH  11  23
ENDBRANCH   1   2
BRANCH   1  25
ATOM     25  C   UNL     1      -6.093 -14.791  31.514  1.00  0.00     0.339 C 
ATOM     26  C   UNL     1      -5.650 -14.903  30.027  1.00  0.00     0.214 C 
ATOM     27  O   UNL     1      -6.995 -13.713  31.695  1.00  0.00    -0.332 OA
ATOM     28  C   UNL     1      -5.817 -13.562  29.280  1.00  0.00     0.180 C 
ATOM     29  C   UNL     1      -6.383 -12.443  31.482  1.00  0.00     0.179 C 
ATOM     30  C   UNL     1      -5.467 -12.398  30.225  1.00  0.00     0.177 C 
BRANCH  26  31
ATOM     31  O   UNL     1      -4.307 -15.317  29.978  1.00  0.00    -0.384 OA
ATOM     32  H   UNL     1      -3.744 -14.504  30.085  1.00  0.00     0.211 HD
ENDBRANCH  26  31
BRANCH  28  33
ATOM     33  O   UNL     1      -7.146 -13.443  28.831  1.00  0.00    -0.387 OA
ATOM     34  H   UNL     1      -7.677 -13.072  29.585  1.00  0.00     0.211 HD
ENDBRANCH  28  33
BRANCH  29  35
ATOM     35  C   UNL     1      -5.667 -11.959  32.755  1.00  0.00     0.191 C 
BRANCH  35  36
ATOM     36  O   UNL     1      -4.295 -11.809  32.506  1.00  0.00    -0.394 OA
ATOM     37  H   UNL     1      -3.853 -12.583  32.944  1.00  0.00     0.210 HD
ENDBRANCH  35  36
ENDBRANCH  29  35
BRANCH  30  38
ATOM     38  O   UNL     1      -5.626 -11.166  29.565  1.00  0.00    -0.387 OA
ATOM     39  H   UNL     1      -4.821 -11.035  28.996  1.00  0.00     0.211 HD
ENDBRANCH  30  38
ENDBRANCH   1  25
TORSDOF 11
ENDMDL
MODEL 3
REMARK VINA RESULT:    -8.351      2.055      3.314
REMARK INTER + INTRA:         -12.723
REMARK INTER:                 -11.936
REMARK INTRA:                  -0.787
REMARK UNBOUND:                -0.711
REMARK SMILES O=c1cc(-c2ccc(O)c(O)c2)oc2cc(O[C@@H]3O[C@@H](CO)[C@H](O)[C@H](O)[C@H]3O)cc(O)c12
REMARK SMILES IDX 17 1 16 2 4 3 3 4 13 5 2 6 14 7 1 8 32 9 15 10 30 11 29 12
REMARK SMILES IDX 5 13 6 14 7 15 8 16 12 17 10 18 9 19 11 21 31 23 18 25 27 26
REMARK SMILES IDX 19 27 25 28 20 29 23 30 28 31 26 33 21 35 22 36 24 38
REMARK H PARENT 9 20 11 22 31 24 28 32 26 34 22 37 24 39
REMARK Flexibility Score: inf
ROOT
ATOM      1  O   UNL     1      -8.918 -15.011  31.817  1.00  0.00    -0.462 OA
ENDROOT
BRANCH   1   2
ATOM      2  C   UNL     1      -7.767 -14.267  31.511  1.00  0.00     0.130 A 
ATOM      3  C   UNL     1      -3.741 -14.134  28.964  1.00  0.00     0.138 A 
ATOM      4  C   UNL     1      -3.406 -12.855  29.426  1.00  0.00     0.100 A 
ATOM      5  O   UNL     1      -4.857 -14.710  29.397  1.00  0.00    -0.456 OA
ATOM      6  C   UNL     1      -4.257 -12.197  30.316  1.00  0.00     0.197 A 
ATOM      7  C   UNL     1      -5.692 -14.138  30.260  1.00  0.00     0.146 A 
ATOM      8  O   UNL     1      -3.977 -11.013  30.645  1.00  0.00    -0.289 OA
ATOM      9  C   UNL     1      -5.419 -12.852  30.793  1.00  0.00     0.107 A 
ATOM     10  C   UNL     1      -6.849 -14.827  30.626  1.00  0.00     0.094 A 
ATOM     11  C   UNL     1      -6.320 -12.312  31.757  1.00  0.00     0.134 A 
ATOM     12  C   UNL     1      -7.498 -13.008  32.069  1.00  0.00     0.093 A 
BRANCH   3  13
ATOM     13  C   UNL     1      -2.883 -14.872  28.004  1.00  0.00     0.021 A 
ATOM     14  C   UNL     1      -2.309 -16.095  28.390  1.00  0.00     0.016 A 
ATOM     15  C   UNL     1      -1.509 -16.816  27.500  1.00  0.00     0.051 A 
ATOM     16  C   UNL     1      -1.278 -16.337  26.208  1.00  0.00     0.157 A 
ATOM     17  C   UNL     1      -2.662 -14.400  26.694  1.00  0.00     0.062 A 
ATOM     18  C   UNL     1      -1.861 -15.126  25.799  1.00  0.00     0.158 A 
BRANCH  16  19
ATOM     19  O   UNL     1      -0.470 -17.077  25.346  1.00  0.00    -0.504 OA
ATOM     20  H   UNL     1       0.005 -16.654  24.556  1.00  0.00     0.293 HD
ENDBRANCH  16  19
BRANCH  18  21
ATOM     21  O   UNL     1      -1.650 -14.651  24.506  1.00  0.00    -0.504 OA
ATOM     22  H   UNL     1      -1.704 -13.663  24.287  1.00  0.00     0.293 HD
ENDBRANCH  18  21
ENDBRANCH   3  13
BRANCH  11  23
ATOM     23  O   UNL     1      -6.082 -11.139  32.474  1.00  0.00    -0.507 OA
ATOM     24  H   UNL     1      -6.524 -10.249  32.293  1.00  0.00     0.293 HD
ENDBRANCH  11  23
ENDBRANCH   1   2
BRANCH   1  25
ATOM     25  C   UNL     1      -9.398 -16.160  31.113  1.00  0.00     0.339 C 
ATOM     26  C   UNL     1      -9.576 -17.343  32.107  1.00  0.00     0.214 C 
ATOM     27  O   UNL     1     -10.635 -15.805  30.520  1.00  0.00    -0.332 OA
ATOM     28  C   UNL     1     -10.843 -18.168  31.791  1.00  0.00     0.180 C 
ATOM     29  C   UNL     1     -11.147 -16.825  29.665  1.00  0.00     0.179 C 
ATOM     30  C   UNL     1     -11.033 -18.255  30.266  1.00  0.00     0.177 C 
BRANCH  26  31
ATOM     31  O   UNL     1      -8.438 -18.166  32.050  1.00  0.00    -0.384 OA
ATOM     32  H   UNL     1      -8.036 -18.051  31.147  1.00  0.00     0.211 HD
ENDBRANCH  26  31
BRANCH  28  33
ATOM     33  O   UNL     1     -11.959 -17.552  32.388  1.00  0.00    -0.387 OA
ATOM     34  H   UNL     1     -12.769 -17.993  32.019  1.00  0.00     0.211 HD
ENDBRANCH  28  33
BRANCH  29  35
ATOM     35  C   UNL     1     -10.530 -16.722  28.259  1.00  0.00     0.191 C 
BRANCH  35  36
ATOM     36  O   UNL     1     -10.974 -15.552  27.625  1.00  0.00    -0.394 OA
ATOM     37  H   UNL     1     -10.912 -15.729  26.650  1.00  0.00     0.210 HD
ENDBRANCH  35  36
ENDBRANCH  29  35
BRANCH  30  38
ATOM     38  O   UNL     1     -12.191 -18.993  29.958  1.00  0.00    -0.387 OA
ATOM     39  H   UNL     1     -11.947 -19.629  29.233  1.00  0.00     0.211 HD
ENDBRANCH  30  38
ENDBRANCH   1  25
TORSDOF 11
ENDMDL
MODEL 4
REMARK VINA RESULT:    -8.348      2.112      9.289
REMARK INTER + INTRA:         -12.719
REMARK INTER:                 -11.914
REMARK INTRA:                  -0.805
REMARK UNBOUND:                -0.711
REMARK SMILES O=c1cc(-c2ccc(O)c(O)c2)oc2cc(O[C@@H]3O[C@@H](CO)[C@H](O)[C@H](O)[C@H]3O)cc(O)c12
REMARK SMILES IDX 17 1 16 2 4 3 3 4 13 5 2 6 14 7 1 8 32 9 15 10 30 11 29 12
REMARK SMILES IDX 5 13 6 14 7 15 8 16 12 17 10 18 9 19 11 21 31 23 18 25 27 26
REMARK SMILES IDX 19 27 25 28 20 29 23 30 28 31 26 33 21 35 22 36 24 38
REMARK H PARENT 9 20 11 22 31 24 28 32 26 34 22 37 24 39
REMARK Flexibility Score: inf
ROOT
ATOM      1  O   UNL     1      -4.507 -14.138  27.611  1.00  0.00    -0.462 OA
ENDROOT
BRANCH   1   2
ATOM      2  C   UNL     1      -5.382 -14.015  28.703  1.00  0.00     0.130 A 
ATOM      3  C   UNL     1      -9.380 -15.631  30.733  1.00  0.00     0.138 A 
ATOM      4  C   UNL     1      -9.238 -14.793  31.848  1.00  0.00     0.100 A 
ATOM      5  O   UNL     1      -8.472 -15.583  29.765  1.00  0.00    -0.456 OA
ATOM      6  C   UNL     1      -8.138 -13.937  31.933  1.00  0.00     0.197 A 
ATOM      7  C   UNL     1      -7.416 -14.773  29.786  1.00  0.00     0.146 A 
ATOM      8  O   UNL     1      -7.988 -13.262  32.986  1.00  0.00    -0.289 OA
ATOM      9  C   UNL     1      -7.208 -13.878  30.867  1.00  0.00     0.107 A 
ATOM     10  C   UNL     1      -6.513 -14.827  28.723  1.00  0.00     0.094 A 
ATOM     11  C   UNL     1      -6.091 -12.994  30.808  1.00  0.00     0.134 A 
ATOM     12  C   UNL     1      -5.175 -13.104  29.751  1.00  0.00     0.093 A 
BRANCH   3  13
ATOM     13  C   UNL     1     -10.519 -16.572  30.598  1.00  0.00     0.021 A 
ATOM     14  C   UNL     1     -11.665 -16.387  31.390  1.00  0.00     0.016 A 
ATOM     15  C   UNL     1     -12.756 -17.251  31.273  1.00  0.00     0.051 A 
ATOM     16  C   UNL     1     -12.729 -18.305  30.356  1.00  0.00     0.157 A 
ATOM     17  C   UNL     1     -10.501 -17.627  29.663  1.00  0.00     0.062 A 
ATOM     18  C   UNL     1     -11.599 -18.492  29.542  1.00  0.00     0.158 A 
BRANCH  16  19
ATOM     19  O   UNL     1     -13.832 -19.154  30.267  1.00  0.00    -0.504 OA
ATOM     20  H   UNL     1     -13.778 -20.061  29.817  1.00  0.00     0.293 HD
ENDBRANCH  16  19
BRANCH  18  21
ATOM     21  O   UNL     1     -11.572 -19.531  28.613  1.00  0.00    -0.504 OA
ATOM     22  H   UNL     1     -10.937 -19.522  27.823  1.00  0.00     0.293 HD
ENDBRANCH  18  21
ENDBRANCH   3  13
BRANCH  11  23
ATOM     23  O   UNL     1      -5.868 -11.961  31.720  1.00  0.00    -0.507 OA
ATOM     24  H   UNL     1      -5.003 -11.449  31.816  1.00  0.00     0.293 HD
ENDBRANCH  11  23
ENDBRANCH   1   2
BRANCH   1  25
ATOM     25  C   UNL     1      -3.150 -14.589  27.657  1.00  0.00     0.339 C 
ATOM     26  C   UNL     1      -2.223 -13.409  28.065  1.00  0.00     0.214 C 
ATOM     27  O   UNL     1      -3.086 -15.637  28.609  1.00  0.00    -0.332 OA
ATOM     28  C   UNL     1      -1.098 -13.869  29.017  1.00  0.00     0.180 C 
ATOM     29  C   UNL     1      -1.810 -16.272  28.642  1.00  0.00     0.179 C 
ATOM     30  C   UNL     1      -0.618 -15.273  28.604  1.00  0.00     0.177 C 
BRANCH  26  31
ATOM     31  O   UNL     1      -1.670 -12.838  26.905  1.00  0.00    -0.384 OA
ATOM     32  H   UNL     1      -2.425 -12.491  26.358  1.00  0.00     0.211 HD
ENDBRANCH  26  31
BRANCH  28  33
ATOM     33  O   UNL     1      -1.585 -13.888  30.337  1.00  0.00    -0.387 OA
ATOM     34  H   UNL     1      -0.797 -13.846  30.940  1.00  0.00     0.211 HD
ENDBRANCH  28  33
BRANCH  29  35
ATOM     35  C   UNL     1      -1.709 -17.356  27.555  1.00  0.00     0.191 C 
BRANCH  35  36
ATOM     36  O   UNL     1      -2.787 -18.247  27.665  1.00  0.00    -0.394 OA
ATOM     37  H   UNL     1      -2.776 -18.793  26.835  1.00  0.00     0.210 HD
ENDBRANCH  35  36
ENDBRANCH  29  35
BRANCH  30  38
ATOM     38  O   UNL     1       0.400 -15.716  29.469  1.00  0.00    -0.387 OA
ATOM     39  H   UNL     1       0.084 -15.554  30.398  1.00  0.00     0.211 HD
ENDBRANCH  30  38
ENDBRANCH   1  25
TORSDOF 11
ENDMDL
MODEL 5
REMARK VINA RESULT:    -8.291      2.099      9.574
REMARK INTER + INTRA:         -12.637
REMARK INTER:                 -12.029
REMARK INTRA:                  -0.608
REMARK UNBOUND:                -0.711
REMARK SMILES O=c1cc(-c2ccc(O)c(O)c2)oc2cc(O[C@@H]3O[C@@H](CO)[C@H](O)[C@H](O)[C@H]3O)cc(O)c12
REMARK SMILES IDX 17 1 16 2 4 3 3 4 13 5 2 6 14 7 1 8 32 9 15 10 30 11 29 12
REMARK SMILES IDX 5 13 6 14 7 15 8 16 12 17 10 18 9 19 11 21 31 23 18 25 27 26
REMARK SMILES IDX 19 27 25 28 20 29 23 30 28 31 26 33 21 35 22 36 24 38
REMARK H PARENT 9 20 11 22 31 24 28 32 26 34 22 37 24 39
REMARK Flexibility Score: inf
ROOT
ATOM      1  O   UNL     1      -4.471 -14.194  27.415  1.00  0.00    -0.462 OA
ENDROOT
BRANCH   1   2
ATOM      2  C   UNL     1      -5.309 -14.061  28.534  1.00  0.00     0.130 A 
ATOM      3  C   UNL     1      -9.253 -15.636  30.698  1.00  0.00     0.138 A 
ATOM      4  C   UNL     1      -9.068 -14.797  31.805  1.00  0.00     0.100 A 
ATOM      5  O   UNL     1      -8.376 -15.599  29.700  1.00  0.00    -0.456 OA
ATOM      6  C   UNL     1      -7.958 -13.951  31.852  1.00  0.00     0.197 A 
ATOM      7  C   UNL     1      -7.314 -14.798  29.685  1.00  0.00     0.146 A 
ATOM      8  O   UNL     1      -7.768 -13.274  32.898  1.00  0.00    -0.289 OA
ATOM      9  C   UNL     1      -7.062 -13.902  30.756  1.00  0.00     0.107 A 
ATOM     10  C   UNL     1      -6.446 -14.862  28.593  1.00  0.00     0.094 A 
ATOM     11  C   UNL     1      -5.940 -13.028  30.658  1.00  0.00     0.134 A 
ATOM     12  C   UNL     1      -5.060 -13.149  29.572  1.00  0.00     0.093 A 
BRANCH   3  13
ATOM     13  C   UNL     1     -10.404 -16.567  30.602  1.00  0.00     0.021 A 
ATOM     14  C   UNL     1     -11.522 -16.370  31.430  1.00  0.00     0.016 A 
ATOM     15  C   UNL     1     -12.624 -17.224  31.351  1.00  0.00     0.051 A 
ATOM     16  C   UNL     1     -12.636 -18.281  30.436  1.00  0.00     0.157 A 
ATOM     17  C   UNL     1     -10.426 -17.624  29.670  1.00  0.00     0.062 A 
ATOM     18  C   UNL     1     -11.535 -18.480  29.587  1.00  0.00     0.158 A 
BRANCH  16  19
ATOM     19  O   UNL     1     -13.749 -19.120  30.386  1.00  0.00    -0.504 OA
ATOM     20  H   UNL     1     -14.230 -19.427  31.223  1.00  0.00     0.293 HD
ENDBRANCH  16  19
BRANCH  18  21
ATOM     21  O   UNL     1     -11.547 -19.522  28.661  1.00  0.00    -0.504 OA
ATOM     22  H   UNL     1     -12.346 -19.691  28.061  1.00  0.00     0.293 HD
ENDBRANCH  18  21
ENDBRANCH   3  13
BRANCH  11  23
ATOM     23  O   UNL     1      -5.678 -11.995  31.560  1.00  0.00    -0.507 OA
ATOM     24  H   UNL     1      -5.246 -12.111  32.465  1.00  0.00     0.293 HD
ENDBRANCH  11  23
ENDBRANCH   1   2
BRANCH   1  25
ATOM     25  C   UNL     1      -3.061 -14.436  27.434  1.00  0.00     0.339 C 
ATOM     26  C   UNL     1      -2.740 -15.567  28.451  1.00  0.00     0.214 C 
ATOM     27  O   UNL     1      -2.680 -14.809  26.121  1.00  0.00    -0.332 OA
ATOM     28  C   UNL     1      -1.633 -16.508  27.928  1.00  0.00     0.180 C 
ATOM     29  C   UNL     1      -1.267 -14.936  25.974  1.00  0.00     0.179 C 
ATOM     30  C   UNL     1      -0.585 -15.687  27.153  1.00  0.00     0.177 C 
BRANCH  26  31
ATOM     31  O   UNL     1      -2.346 -14.990  29.671  1.00  0.00    -0.384 OA
ATOM     32  H   UNL     1      -1.389 -15.226  29.813  1.00  0.00     0.211 HD
ENDBRANCH  26  31
BRANCH  28  33
ATOM     33  O   UNL     1      -2.208 -17.481  27.089  1.00  0.00    -0.387 OA
ATOM     34  H   UNL     1      -2.245 -18.328  27.607  1.00  0.00     0.211 HD
ENDBRANCH  28  33
BRANCH  29  35
ATOM     35  C   UNL     1      -0.621 -13.568  25.690  1.00  0.00     0.191 C 
BRANCH  35  36
ATOM     36  O   UNL     1       0.341 -13.694  24.678  1.00  0.00    -0.394 OA
ATOM     37  H   UNL     1       0.079 -13.048  23.971  1.00  0.00     0.210 HD
ENDBRANCH  35  36
ENDBRANCH  29  35
BRANCH  30  38
ATOM     38  O   UNL     1       0.427 -16.530  26.656  1.00  0.00    -0.387 OA
ATOM     39  H   UNL     1       0.885 -16.034  25.926  1.00  0.00     0.211 HD
ENDBRANCH  30  38
ENDBRANCH   1  25
TORSDOF 11
ENDMDL
MODEL 6
REMARK VINA RESULT:    -8.227      2.556      9.304
REMARK INTER + INTRA:         -12.545
REMARK INTER:                 -11.954
REMARK INTRA:                  -0.591
REMARK UNBOUND:                -0.711
REMARK SMILES O=c1cc(-c2ccc(O)c(O)c2)oc2cc(O[C@@H]3O[C@@H](CO)[C@H](O)[C@H](O)[C@H]3O)cc(O)c12
REMARK SMILES IDX 17 1 16 2 4 3 3 4 13 5 2 6 14 7 1 8 32 9 15 10 30 11 29 12
REMARK SMILES IDX 5 13 6 14 7 15 8 16 12 17 10 18 9 19 11 21 31 23 18 25 27 26
REMARK SMILES IDX 19 27 25 28 20 29 23 30 28 31 26 33 21 35 22 36 24 38
REMARK H PARENT 9 20 11 22 31 24 28 32 26 34 22 37 24 39
REMARK Flexibility Score: inf
ROOT
ATOM      1  O   UNL     1      -3.625 -14.089  27.371  1.00  0.00    -0.462 OA
ENDROOT
BRANCH   1   2
ATOM      2  C   UNL     1      -4.479 -13.810  28.450  1.00  0.00     0.130 A 
ATOM      3  C   UNL     1      -8.345 -15.209  30.861  1.00  0.00     0.138 A 
ATOM      4  C   UNL     1      -8.219 -14.179  31.803  1.00  0.00     0.100 A 
ATOM      5  O   UNL     1      -7.463 -15.297  29.872  1.00  0.00    -0.456 OA
ATOM      6  C   UNL     1      -7.161 -13.273  31.699  1.00  0.00     0.197 A 
ATOM      7  C   UNL     1      -6.449 -14.450  29.715  1.00  0.00     0.146 A 
ATOM      8  O   UNL     1      -7.021 -12.413  32.609  1.00  0.00    -0.289 OA
ATOM      9  C   UNL     1      -6.260 -13.366  30.611  1.00  0.00     0.107 A 
ATOM     10  C   UNL     1      -5.569 -14.654  28.651  1.00  0.00     0.094 A 
ATOM     11  C   UNL     1      -5.189 -12.458  30.359  1.00  0.00     0.134 A 
ATOM     12  C   UNL     1      -4.294 -12.716  29.311  1.00  0.00     0.093 A 
BRANCH   3  13
ATOM     13  C   UNL     1      -9.439 -16.209  30.933  1.00  0.00     0.021 A 
ATOM     14  C   UNL     1     -10.075 -16.621  29.750  1.00  0.00     0.016 A 
ATOM     15  C   UNL     1     -11.099 -17.571  29.788  1.00  0.00     0.051 A 
ATOM     16  C   UNL     1     -11.496 -18.135  31.004  1.00  0.00     0.157 A 
ATOM     17  C   UNL     1      -9.831 -16.791  32.155  1.00  0.00     0.062 A 
ATOM     18  C   UNL     1     -10.856 -17.749  32.193  1.00  0.00     0.158 A 
BRANCH  16  19
ATOM     19  O   UNL     1     -12.525 -19.076  31.010  1.00  0.00    -0.504 OA
ATOM     20  H   UNL     1     -13.476 -18.833  31.264  1.00  0.00     0.293 HD
ENDBRANCH  16  19
BRANCH  18  21
ATOM     21  O   UNL     1     -11.236 -18.320  33.407  1.00  0.00    -0.504 OA
ATOM     22  H   UNL     1     -10.664 -18.229  34.239  1.00  0.00     0.293 HD
ENDBRANCH  18  21
ENDBRANCH   3  13
BRANCH  11  23
ATOM     23  O   UNL     1      -4.997 -11.269  31.064  1.00  0.00    -0.507 OA
ATOM     24  H   UNL     1      -4.107 -10.936  31.405  1.00  0.00     0.293 HD
ENDBRANCH  11  23
ENDBRANCH   1   2
BRANCH   1  25
ATOM     25  C   UNL     1      -2.392 -14.812  27.430  1.00  0.00     0.339 C 
ATOM     26  C   UNL     1      -2.415 -15.783  28.644  1.00  0.00     0.214 C 
ATOM     27  O   UNL     1      -2.262 -15.524  26.211  1.00  0.00    -0.332 OA
ATOM     28  C   UNL     1      -1.748 -17.135  28.305  1.00  0.00     0.180 C 
ATOM     29  C   UNL     1      -0.997 -16.171  26.086  1.00  0.00     0.179 C 
ATOM     30  C   UNL     1      -0.538 -16.895  27.383  1.00  0.00     0.177 C 
BRANCH  26  31
ATOM     31  O   UNL     1      -1.755 -15.179  29.728  1.00  0.00    -0.384 OA
ATOM     32  H   UNL     1      -2.446 -14.970  30.414  1.00  0.00     0.211 HD
ENDBRANCH  26  31
BRANCH  28  33
ATOM     33  O   UNL     1      -2.687 -17.970  27.672  1.00  0.00    -0.387 OA
ATOM     34  H   UNL     1      -2.698 -18.829  28.171  1.00  0.00     0.211 HD
ENDBRANCH  28  33
BRANCH  29  35
ATOM     35  C   UNL     1       0.065 -15.199  25.542  1.00  0.00     0.191 C 
BRANCH  35  36
ATOM     36  O   UNL     1       0.404 -15.547  24.226  1.00  0.00    -0.394 OA
ATOM     37  H   UNL     1       1.243 -16.075  24.292  1.00  0.00     0.210 HD
ENDBRANCH  35  36
ENDBRANCH  29  35
BRANCH  30  38
ATOM     38  O   UNL     1       0.076 -18.118  27.053  1.00  0.00    -0.387 OA
ATOM     39  H   UNL     1      -0.253 -18.374  26.150  1.00  0.00     0.211 HD
ENDBRANCH  30  38
ENDBRANCH   1  25
TORSDOF 11
ENDMDL
MODEL 7
REMARK VINA RESULT:    -8.056      3.267      9.067
REMARK INTER + INTRA:         -12.299
REMARK INTER:                 -11.313
REMARK INTRA:                  -0.987
REMARK UNBOUND:                -0.711
REMARK SMILES O=c1cc(-c2ccc(O)c(O)c2)oc2cc(O[C@@H]3O[C@@H](CO)[C@H](O)[C@H](O)[C@H]3O)cc(O)c12
REMARK SMILES IDX 17 1 16 2 4 3 3 4 13 5 2 6 14 7 1 8 32 9 15 10 30 11 29 12
REMARK SMILES IDX 5 13 6 14 7 15 8 16 12 17 10 18 9 19 11 21 31 23 18 25 27 26
REMARK SMILES IDX 19 27 25 28 20 29 23 30 28 31 26 33 21 35 22 36 24 38
REMARK H PARENT 9 20 11 22 31 24 28 32 26 34 22 37 24 39
REMARK Flexibility Score: inf
ROOT
ATOM      1  O   UNL     1      -1.240 -14.371  27.269  1.00  0.00    -0.462 OA
ENDROOT
BRANCH   1   2
ATOM      2  C   UNL     1      -2.218 -13.740  28.054  1.00  0.00     0.130 A 
ATOM      3  C   UNL     1      -6.258 -14.326  30.515  1.00  0.00     0.138 A 
ATOM      4  C   UNL     1      -6.282 -12.989  30.933  1.00  0.00     0.100 A 
ATOM      5  O   UNL     1      -5.270 -14.745  29.731  1.00  0.00    -0.456 OA
ATOM      6  C   UNL     1      -5.260 -12.123  30.538  1.00  0.00     0.197 A 
ATOM      7  C   UNL     1      -4.283 -13.958  29.309  1.00  0.00     0.146 A 
ATOM      8  O   UNL     1      -5.258 -10.952  31.002  1.00  0.00    -0.289 OA
ATOM      9  C   UNL     1      -4.242 -12.586  29.669  1.00  0.00     0.107 A 
ATOM     10  C   UNL     1      -3.284 -14.513  28.508  1.00  0.00     0.094 A 
ATOM     11  C   UNL     1      -3.192 -11.779  29.140  1.00  0.00     0.134 A 
ATOM     12  C   UNL     1      -2.177 -12.374  28.377  1.00  0.00     0.093 A 
BRANCH   3  13
ATOM     13  C   UNL     1      -7.307 -15.294  30.919  1.00  0.00     0.021 A 
ATOM     14  C   UNL     1      -7.022 -16.247  31.911  1.00  0.00     0.016 A 
ATOM     15  C   UNL     1      -7.997 -17.161  32.319  1.00  0.00     0.051 A 
ATOM     16  C   UNL     1      -9.275 -17.132  31.754  1.00  0.00     0.157 A 
ATOM     17  C   UNL     1      -8.602 -15.258  30.363  1.00  0.00     0.062 A 
ATOM     18  C   UNL     1      -9.582 -16.173  30.776  1.00  0.00     0.158 A 
BRANCH  16  19
ATOM     19  O   UNL     1     -10.223 -18.062  32.179  1.00  0.00    -0.504 OA
ATOM     20  H   UNL     1     -11.214 -17.847  32.205  1.00  0.00     0.293 HD
ENDBRANCH  16  19
BRANCH  18  21
ATOM     21  O   UNL     1     -10.860 -16.127  30.221  1.00  0.00    -0.504 OA
ATOM     22  H   UNL     1     -11.436 -15.295  30.279  1.00  0.00     0.293 HD
ENDBRANCH  18  21
ENDBRANCH   3  13
BRANCH  11  23
ATOM     23  O   UNL     1      -3.131 -10.392  29.283  1.00  0.00    -0.507 OA
ATOM     24  H   UNL     1      -2.640  -9.766  28.662  1.00  0.00     0.293 HD
ENDBRANCH  11  23
ENDBRANCH   1   2
BRANCH   1  25
ATOM     25  C   UNL     1      -1.387 -15.605  26.560  1.00  0.00     0.339 C 
ATOM     26  C   UNL     1      -0.843 -15.442  25.112  1.00  0.00     0.214 C 
ATOM     27  O   UNL     1      -0.654 -16.589  27.270  1.00  0.00    -0.332 OA
ATOM     28  C   UNL     1      -0.086 -16.703  24.641  1.00  0.00     0.180 C 
ATOM     29  C   UNL     1      -0.842 -17.901  26.742  1.00  0.00     0.179 C 
ATOM     30  C   UNL     1      -0.789 -17.959  25.189  1.00  0.00     0.177 C 
BRANCH  26  31
ATOM     31  O   UNL     1      -1.918 -15.173  24.246  1.00  0.00    -0.384 OA
ATOM     32  H   UNL     1      -1.789 -15.733  23.434  1.00  0.00     0.211 HD
ENDBRANCH  26  31
BRANCH  28  33
ATOM     33  O   UNL     1       1.242 -16.646  25.102  1.00  0.00    -0.387 OA
ATOM     34  H   UNL     1       1.279 -15.939  25.800  1.00  0.00     0.211 HD
ENDBRANCH  28  33
BRANCH  29  35
ATOM     35  C   UNL     1      -2.116 -18.545  27.317  1.00  0.00     0.191 C 
BRANCH  35  36
ATOM     36  O   UNL     1      -2.523 -19.611  26.501  1.00  0.00    -0.394 OA
ATOM     37  H   UNL     1      -2.209 -19.389  25.585  1.00  0.00     0.210 HD
ENDBRANCH  35  36
ENDBRANCH  29  35
BRANCH  30  38
ATOM     38  O   UNL     1      -0.105 -19.119  24.780  1.00  0.00    -0.387 OA
ATOM     39  H   UNL     1      -0.374 -19.849  25.401  1.00  0.00     0.211 HD
ENDBRANCH  30  38
ENDBRANCH   1  25
TORSDOF 11
ENDMDL
MODEL 8
REMARK VINA RESULT:    -7.888      2.266      9.871
REMARK INTER + INTRA:         -12.057
REMARK INTER:                 -11.286
REMARK INTRA:                  -0.771
REMARK UNBOUND:                -0.711
REMARK SMILES O=c1cc(-c2ccc(O)c(O)c2)oc2cc(O[C@@H]3O[C@@H](CO)[C@H](O)[C@H](O)[C@H]3O)cc(O)c12
REMARK SMILES IDX 17 1 16 2 4 3 3 4 13 5 2 6 14 7 1 8 32 9 15 10 30 11 29 12
REMARK SMILES IDX 5 13 6 14 7 15 8 16 12 17 10 18 9 19 11 21 31 23 18 25 27 26
REMARK SMILES IDX 19 27 25 28 20 29 23 30 28 31 26 33 21 35 22 36 24 38
REMARK H PARENT 9 20 11 22 31 24 28 32 26 34 22 37 24 39
REMARK Flexibility Score: inf
ROOT
ATOM      1  O   UNL     1      -2.956 -14.843  27.222  1.00  0.00    -0.462 OA
ENDROOT
BRANCH   1   2
ATOM      2  C   UNL     1      -3.698 -14.169  28.205  1.00  0.00     0.130 A 
ATOM      3  C   UNL     1      -7.459 -14.388  31.124  1.00  0.00     0.138 A 
ATOM      4  C   UNL     1      -7.180 -13.139  31.695  1.00  0.00     0.100 A 
ATOM      5  O   UNL     1      -6.667 -14.857  30.166  1.00  0.00    -0.456 OA
ATOM      6  C   UNL     1      -6.066 -12.416  31.264  1.00  0.00     0.197 A 
ATOM      7  C   UNL     1      -5.606 -14.201  29.704  1.00  0.00     0.146 A 
ATOM      8  O   UNL     1      -5.787 -11.340  31.857  1.00  0.00    -0.289 OA
ATOM      9  C   UNL     1      -5.263 -12.921  30.212  1.00  0.00     0.107 A 
ATOM     10  C   UNL     1      -4.831 -14.802  28.711  1.00  0.00     0.094 A 
ATOM     11  C   UNL     1      -4.148 -12.241  29.639  1.00  0.00     0.134 A 
ATOM     12  C   UNL     1      -3.361 -12.890  28.677  1.00  0.00     0.093 A 
BRANCH   3  13
ATOM     13  C   UNL     1      -8.619 -15.207  31.556  1.00  0.00     0.021 A 
ATOM     14  C   UNL     1      -9.799 -14.567  31.971  1.00  0.00     0.016 A 
ATOM     15  C   UNL     1     -10.910 -15.315  32.369  1.00  0.00     0.051 A 
ATOM     16  C   UNL     1     -10.867 -16.712  32.348  1.00  0.00     0.157 A 
ATOM     17  C   UNL     1      -8.585 -16.616  31.520  1.00  0.00     0.062 A 
ATOM     18  C   UNL     1      -9.702 -17.367  31.916  1.00  0.00     0.158 A 
BRANCH  16  19
ATOM     19  O   UNL     1     -11.990 -17.430  32.757  1.00  0.00    -0.504 OA
ATOM     20  H   UNL     1     -12.917 -17.020  32.767  1.00  0.00     0.293 HD
ENDBRANCH  16  19
BRANCH  18  21
ATOM     21  O   UNL     1      -9.658 -18.760  31.875  1.00  0.00    -0.504 OA
ATOM     22  H   UNL     1      -9.294 -19.303  32.650  1.00  0.00     0.293 HD
ENDBRANCH  18  21
ENDBRANCH   3  13
BRANCH  11  23
ATOM     23  O   UNL     1      -3.808 -10.920  29.933  1.00  0.00    -0.507 OA
ATOM     24  H   UNL     1      -3.990 -10.457  30.812  1.00  0.00     0.293 HD
ENDBRANCH  11  23
ENDBRANCH   1   2
BRANCH   1  25
ATOM     25  C   UNL     1      -1.642 -14.504  26.768  1.00  0.00     0.339 C 
ATOM     26  C   UNL     1      -0.838 -15.803  26.482  1.00  0.00     0.214 C 
ATOM     27  O   UNL     1      -1.790 -13.728  25.591  1.00  0.00    -0.332 OA
ATOM     28  C   UNL     1       0.045 -15.662  25.222  1.00  0.00     0.180 C 
ATOM     29  C   UNL     1      -0.551 -13.202  25.121  1.00  0.00     0.179 C 
ATOM     30  C   UNL     1       0.613 -14.233  25.150  1.00  0.00     0.177 C 
BRANCH  26  31
ATOM     31  O   UNL     1      -0.039 -16.105  27.598  1.00  0.00    -0.384 OA
ATOM     32  H   UNL     1       0.790 -16.539  27.260  1.00  0.00     0.211 HD
ENDBRANCH  26  31
BRANCH  28  33
ATOM     33  O   UNL     1      -0.730 -15.939  24.080  1.00  0.00    -0.387 OA
ATOM     34  H   UNL     1      -0.160 -15.749  23.288  1.00  0.00     0.211 HD
ENDBRANCH  28  33
BRANCH  29  35
ATOM     35  C   UNL     1      -0.201 -11.892  25.849  1.00  0.00     0.191 C 
BRANCH  35  36
ATOM     36  O   UNL     1      -1.355 -11.111  26.012  1.00  0.00    -0.394 OA
ATOM     37  H   UNL     1      -1.089 -10.181  25.789  1.00  0.00     0.210 HD
ENDBRANCH  35  36
ENDBRANCH  29  35
BRANCH  30  38
ATOM     38  O   UNL     1       1.410 -14.081  24.000  1.00  0.00    -0.387 OA
ATOM     39  H   UNL     1       2.087 -13.382  24.206  1.00  0.00     0.211 HD
ENDBRANCH  30  38
ENDBRANCH   1  25
TORSDOF 11
ENDMDL
MODEL 9
REMARK VINA RESULT:    -7.849      4.980      8.713
REMARK INTER + INTRA:         -12.001
REMARK INTER:                 -10.931
REMARK INTRA:                  -1.070
REMARK UNBOUND:                -0.711
REMARK SMILES O=c1cc(-c2ccc(O)c(O)c2)oc2cc(O[C@@H]3O[C@@H](CO)[C@H](O)[C@H](O)[C@H]3O)cc(O)c12
REMARK SMILES IDX 17 1 16 2 4 3 3 4 13 5 2 6 14 7 1 8 32 9 15 10 30 11 29 12
REMARK SMILES IDX 5 13 6 14 7 15 8 16 12 17 10 18 9 19 11 21 31 23 18 25 27 26
REMARK SMILES IDX 19 27 25 28 20 29 23 30 28 31 26 33 21 35 22 36 24 38
REMARK H PARENT 9 20 11 22 31 24 28 32 26 34 22 37 24 39
REMARK Flexibility Score: inf
ROOT
ATOM      1  O   UNL     1      -3.612 -13.218  28.378  1.00  0.00    -0.462 OA
ENDROOT
BRANCH   1   2
ATOM      2  C   UNL     1      -2.894 -14.260  27.768  1.00  0.00     0.130 A 
ATOM      3  C   UNL     1      -1.508 -18.806  28.125  1.00  0.00     0.138 A 
ATOM      4  C   UNL     1      -0.870 -18.785  26.877  1.00  0.00     0.100 A 
ATOM      5  O   UNL     1      -2.105 -17.706  28.569  1.00  0.00    -0.456 OA
ATOM      6  C   UNL     1      -0.888 -17.617  26.112  1.00  0.00     0.197 A 
ATOM      7  C   UNL     1      -2.136 -16.562  27.890  1.00  0.00     0.146 A 
ATOM      8  O   UNL     1      -0.386 -17.653  24.957  1.00  0.00    -0.289 OA
ATOM      9  C   UNL     1      -1.497 -16.447  26.628  1.00  0.00     0.107 A 
ATOM     10  C   UNL     1      -2.815 -15.476  28.444  1.00  0.00     0.094 A 
ATOM     11  C   UNL     1      -1.514 -15.181  25.973  1.00  0.00     0.134 A 
ATOM     12  C   UNL     1      -2.244 -14.122  26.531  1.00  0.00     0.093 A 
BRANCH   3  13
ATOM     13  C   UNL     1      -1.535 -20.024  28.972  1.00  0.00     0.021 A 
ATOM     14  C   UNL     1      -1.137 -21.255  28.424  1.00  0.00     0.016 A 
ATOM     15  C   UNL     1      -1.140 -22.414  29.204  1.00  0.00     0.051 A 
ATOM     16  C   UNL     1      -1.528 -22.363  30.546  1.00  0.00     0.157 A 
ATOM     17  C   UNL     1      -1.910 -19.974  30.330  1.00  0.00     0.062 A 
ATOM     18  C   UNL     1      -1.909 -21.137  31.115  1.00  0.00     0.158 A 
BRANCH  16  19
ATOM     19  O   UNL     1      -1.526 -23.538  31.297  1.00  0.00    -0.504 OA
ATOM     20  H   UNL     1      -1.010 -23.621  32.166  1.00  0.00     0.293 HD
ENDBRANCH  16  19
BRANCH  18  21
ATOM     21  O   UNL     1      -2.281 -21.075  32.457  1.00  0.00    -0.504 OA
ATOM     22  H   UNL     1      -1.895 -21.711  33.145  1.00  0.00     0.293 HD
ENDBRANCH  18  21
ENDBRANCH   3  13
BRANCH  11  23
ATOM     23  O   UNL     1      -0.789 -14.895  24.815  1.00  0.00    -0.507 OA
ATOM     24  H   UNL     1      -0.856 -15.408  23.948  1.00  0.00     0.293 HD
ENDBRANCH  11  23
ENDBRANCH   1   2
BRANCH   1  25
ATOM     25  C   UNL     1      -4.273 -13.272  29.646  1.00  0.00     0.339 C 
ATOM     26  C   UNL     1      -3.943 -11.988  30.459  1.00  0.00     0.214 C 
ATOM     27  O   UNL     1      -5.664 -13.369  29.392  1.00  0.00    -0.332 OA
ATOM     28  C   UNL     1      -5.172 -11.478  31.243  1.00  0.00     0.180 C 
ATOM     29  C   UNL     1      -6.426 -13.578  30.579  1.00  0.00     0.179 C 
ATOM     30  C   UNL     1      -5.982 -12.678  31.768  1.00  0.00     0.177 C 
BRANCH  26  31
ATOM     31  O   UNL     1      -2.888 -12.265  31.346  1.00  0.00    -0.384 OA
ATOM     32  H   UNL     1      -3.184 -11.984  32.253  1.00  0.00     0.211 HD
ENDBRANCH  26  31
BRANCH  28  33
ATOM     33  O   UNL     1      -5.968 -10.686  30.394  1.00  0.00    -0.387 OA
ATOM     34  H   UNL     1      -5.805  -9.737  30.642  1.00  0.00     0.211 HD
ENDBRANCH  28  33
BRANCH  29  35
ATOM     35  C   UNL     1      -6.466 -15.071  30.949  1.00  0.00     0.191 C 
BRANCH  35  36
ATOM     36  O   UNL     1      -6.400 -15.221  32.342  1.00  0.00    -0.394 OA
ATOM     37  H   UNL     1      -6.856 -16.080  32.545  1.00  0.00     0.210 HD
ENDBRANCH  35  36
ENDBRANCH  29  35
BRANCH  30  38
ATOM     38  O   UNL     1      -7.115 -12.233  32.474  1.00  0.00    -0.387 OA
ATOM     39  H   UNL     1      -7.232 -11.269  32.259  1.00  0.00     0.211 HD
ENDBRANCH  30  38
ENDBRANCH   1  25
TORSDOF 11
ENDMDL
