MODEL 1
REMARK VINA RESULT:    -6.788      0.000      0.000
REMARK INTER + INTRA:         -10.944
REMARK INTER:                  -9.962
REMARK INTRA:                  -0.982
REMARK UNBOUND:                -0.982
REMARK SMILES CC(C)COC(=O)c1ccccc1C(=O)OCC(C)C
REMARK SMILES IDX 8 1 9 2 10 3 11 4 12 5 13 6 6 7 7 8 5 9 4 10 2 11 1 12 3 13
REMARK SMILES IDX 14 14 15 15 16 16 17 17 18 18 19 19 20 20
REMARK H PARENT
REMARK Flexibility Score: inf
ROOT
ATOM      1  C   UNL     1      50.691  52.802  23.322  1.00  0.00     0.074 A 
ATOM      2  C   UNL     1      51.153  53.856  24.134  1.00  0.00     0.016 A 
ATOM      3  C   UNL     1      52.497  54.232  24.119  1.00  0.00     0.001 A 
ATOM      4  C   UNL     1      53.401  53.560  23.300  1.00  0.00     0.001 A 
ATOM      5  C   UNL     1      52.963  52.525  22.474  1.00  0.00     0.016 A 
ATOM      6  C   UNL     1      51.610  52.151  22.455  1.00  0.00     0.074 A 
ENDROOT
BRANCH   1   7
ATOM      7  C   UNL     1      49.283  52.356  23.466  1.00  0.00     0.339 C 
ATOM      8  O   UNL     1      48.476  52.509  22.509  1.00  0.00    -0.246 OA
BRANCH   7   9
ATOM      9  O   UNL     1      48.839  51.816  24.681  1.00  0.00    -0.462 OA
BRANCH   9  10
ATOM     10  C   UNL     1      47.469  51.739  25.072  1.00  0.00     0.236 C 
BRANCH  10  11
ATOM     11  C   UNL     1      47.193  52.660  26.274  1.00  0.00     0.021 C 
ATOM     12  C   UNL     1      46.245  53.795  25.866  1.00  0.00     0.011 C 
ATOM     13  C   UNL     1      48.490  53.236  26.854  1.00  0.00     0.011 C 
ENDBRANCH  10  11
ENDBRANCH   9  10
ENDBRANCH   7   9
ENDBRANCH   1   7
BRANCH   6  14
ATOM     14  C   UNL     1      51.192  51.115  21.493  1.00  0.00     0.339 C 
ATOM     15  O   UNL     1      50.907  51.437  20.306  1.00  0.00    -0.246 OA
BRANCH  14  16
ATOM     16  O   UNL     1      51.135  49.779  21.902  1.00  0.00    -0.462 OA
BRANCH  16  17
ATOM     17  C   UNL     1      49.937  49.146  22.351  1.00  0.00     0.236 C 
BRANCH  17  18
ATOM     18  C   UNL     1      50.103  48.569  23.771  1.00  0.00     0.021 C 
ATOM     19  C   UNL     1      51.129  47.428  23.793  1.00  0.00     0.011 C 
ATOM     20  C   UNL     1      48.753  48.082  24.309  1.00  0.00     0.011 C 
ENDBRANCH  17  18
ENDBRANCH  16  17
ENDBRANCH  14  16
ENDBRANCH   6  14
TORSDOF 8
ENDMDL
MODEL 2
REMARK VINA RESULT:    -6.783      0.051      4.509
REMARK INTER + INTRA:         -10.938
REMARK INTER:                  -9.995
REMARK INTRA:                  -0.943
REMARK UNBOUND:                -0.982
REMARK SMILES CC(C)COC(=O)c1ccccc1C(=O)OCC(C)C
REMARK SMILES IDX 8 1 9 2 10 3 11 4 12 5 13 6 6 7 7 8 5 9 4 10 2 11 1 12 3 13
REMARK SMILES IDX 14 14 15 15 16 16 17 17 18 18 19 19 20 20
REMARK H PARENT
REMARK Flexibility Score: inf
ROOT
ATOM      1  C   UNL     1      51.640  52.140  22.485  1.00  0.00     0.074 A 
ATOM      2  C   UNL     1      52.988  52.544  22.522  1.00  0.00     0.016 A 
ATOM      3  C   UNL     1      53.396  53.597  23.341  1.00  0.00     0.001 A 
ATOM      4  C   UNL     1      52.466  54.268  24.133  1.00  0.00     0.001 A 
ATOM      5  C   UNL     1      51.127  53.874  24.126  1.00  0.00     0.016 A 
ATOM      6  C   UNL     1      50.704  52.799  23.329  1.00  0.00     0.074 A 
ENDROOT
BRANCH   1   7
ATOM      7  C   UNL     1      51.233  51.102  21.506  1.00  0.00     0.339 C 
ATOM      8  O   UNL     1      50.925  51.438  20.329  1.00  0.00    -0.246 OA
BRANCH   7   9
ATOM      9  O   UNL     1      51.141  49.761  21.902  1.00  0.00    -0.462 OA
BRANCH   9  10
ATOM     10  C   UNL     1      49.934  49.130  22.325  1.00  0.00     0.236 C 
BRANCH  10  11
ATOM     11  C   UNL     1      50.090  48.551  23.742  1.00  0.00     0.021 C 
ATOM     12  C   UNL     1      51.132  47.425  23.744  1.00  0.00     0.011 C 
ATOM     13  C   UNL     1      48.754  48.036  24.292  1.00  0.00     0.011 C 
ENDBRANCH  10  11
ENDBRANCH   9  10
ENDBRANCH   7   9
ENDBRANCH   1   7
BRANCH   6  14
ATOM     14  C   UNL     1      49.298  52.370  23.437  1.00  0.00     0.339 C 
ATOM     15  O   UNL     1      48.524  52.493  22.447  1.00  0.00    -0.246 OA
BRANCH  14  16
ATOM     16  O   UNL     1      48.839  51.809  24.633  1.00  0.00    -0.462 OA
BRANCH  16  17
ATOM     17  C   UNL     1      47.462  51.767  25.003  1.00  0.00     0.236 C 
BRANCH  17  18
ATOM     18  C   UNL     1      47.186  52.636  26.247  1.00  0.00     0.021 C 
ATOM     19  C   UNL     1      46.189  53.759  25.931  1.00  0.00     0.011 C 
ATOM     20  C   UNL     1      48.495  53.221  26.788  1.00  0.00     0.011 C 
ENDBRANCH  17  18
ENDBRANCH  16  17
ENDBRANCH  14  16
ENDBRANCH   6  14
TORSDOF 8
ENDMDL
MODEL 3
REMARK VINA RESULT:    -6.508      1.482      4.586
REMARK INTER + INTRA:         -10.534
REMARK INTER:                  -9.722
REMARK INTRA:                  -0.812
REMARK UNBOUND:                -0.982
REMARK SMILES CC(C)COC(=O)c1ccccc1C(=O)OCC(C)C
REMARK SMILES IDX 8 1 9 2 10 3 11 4 12 5 13 6 6 7 7 8 5 9 4 10 2 11 1 12 3 13
REMARK SMILES IDX 14 14 15 15 16 16 17 17 18 18 19 19 20 20
REMARK H PARENT
REMARK Flexibility Score: inf
ROOT
ATOM      1  C   UNL     1      48.876  52.545  24.543  1.00  0.00     0.074 A 
ATOM      2  C   UNL     1      49.242  53.290  25.681  1.00  0.00     0.016 A 
ATOM      3  C   UNL     1      48.409  53.340  26.799  1.00  0.00     0.001 A 
ATOM      4  C   UNL     1      47.196  52.655  26.799  1.00  0.00     0.001 A 
ATOM      5  C   UNL     1      46.820  51.896  25.690  1.00  0.00     0.016 A 
ATOM      6  C   UNL     1      47.658  51.811  24.567  1.00  0.00     0.074 A 
ENDROOT
BRANCH   1   7
ATOM      7  C   UNL     1      49.732  52.625  23.334  1.00  0.00     0.339 C 
ATOM      8  O   UNL     1      49.219  52.929  22.222  1.00  0.00    -0.246 OA
BRANCH   7   9
ATOM      9  O   UNL     1      51.095  52.312  23.417  1.00  0.00    -0.462 OA
BRANCH   9  10
ATOM     10  C   UNL     1      52.137  53.282  23.500  1.00  0.00     0.236 C 
BRANCH  10  11
ATOM     11  C   UNL     1      52.804  53.484  22.127  1.00  0.00     0.021 C 
ATOM     12  C   UNL     1      52.151  54.659  21.387  1.00  0.00     0.011 C 
ATOM     13  C   UNL     1      52.731  52.214  21.271  1.00  0.00     0.011 C 
ENDBRANCH  10  11
ENDBRANCH   9  10
ENDBRANCH   7   9
ENDBRANCH   1   7
BRANCH   6  14
ATOM     14  C   UNL     1      47.251  50.919  23.466  1.00  0.00     0.339 C 
ATOM     15  O   UNL     1      46.131  51.079  22.908  1.00  0.00    -0.246 OA
BRANCH  14  16
ATOM     16  O   UNL     1      48.123  49.913  23.038  1.00  0.00    -0.462 OA
BRANCH  16  17
ATOM     17  C   UNL     1      48.774  49.006  23.927  1.00  0.00     0.236 C 
BRANCH  17  18
ATOM     18  C   UNL     1      50.280  48.897  23.618  1.00  0.00     0.021 C 
ATOM     19  C   UNL     1      50.577  49.265  22.158  1.00  0.00     0.011 C 
ATOM     20  C   UNL     1      50.786  47.483  23.925  1.00  0.00     0.011 C 
ENDBRANCH  17  18
ENDBRANCH  16  17
ENDBRANCH  14  16
ENDBRANCH   6  14
TORSDOF 8
ENDMDL
MODEL 4
REMARK VINA RESULT:    -6.502      1.476      4.969
REMARK INTER + INTRA:         -10.525
REMARK INTER:                  -9.695
REMARK INTRA:                  -0.830
REMARK UNBOUND:                -0.982
REMARK SMILES CC(C)COC(=O)c1ccccc1C(=O)OCC(C)C
REMARK SMILES IDX 8 1 9 2 10 3 11 4 12 5 13 6 6 7 7 8 5 9 4 10 2 11 1 12 3 13
REMARK SMILES IDX 14 14 15 15 16 16 17 17 18 18 19 19 20 20
REMARK H PARENT
REMARK Flexibility Score: inf
ROOT
ATOM      1  C   UNL     1      47.629  51.848  24.539  1.00  0.00     0.074 A 
ATOM      2  C   UNL     1      46.804  51.937  25.677  1.00  0.00     0.016 A 
ATOM      3  C   UNL     1      47.194  52.691  26.785  1.00  0.00     0.001 A 
ATOM      4  C   UNL     1      48.414  53.363  26.778  1.00  0.00     0.001 A 
ATOM      5  C   UNL     1      49.240  53.305  25.656  1.00  0.00     0.016 A 
ATOM      6  C   UNL     1      48.852  52.574  24.521  1.00  0.00     0.074 A 
ENDROOT
BRANCH   1   7
ATOM      7  C   UNL     1      47.232  50.934  23.440  1.00  0.00     0.339 C 
ATOM      8  O   UNL     1      46.089  51.043  22.917  1.00  0.00    -0.246 OA
BRANCH   7   9
ATOM      9  O   UNL     1      48.104  49.920  23.022  1.00  0.00    -0.462 OA
BRANCH   9  10
ATOM     10  C   UNL     1      48.733  48.989  23.902  1.00  0.00     0.236 C 
BRANCH  10  11
ATOM     11  C   UNL     1      50.242  48.900  23.611  1.00  0.00     0.021 C 
ATOM     12  C   UNL     1      50.526  49.280  22.153  1.00  0.00     0.011 C 
ATOM     13  C   UNL     1      50.793  47.501  23.910  1.00  0.00     0.011 C 
ENDBRANCH  10  11
ENDBRANCH   9  10
ENDBRANCH   7   9
ENDBRANCH   1   7
BRANCH   6  14
ATOM     14  C   UNL     1      49.722  52.627  23.333  1.00  0.00     0.339 C 
ATOM     15  O   UNL     1      49.241  52.961  22.215  1.00  0.00    -0.246 OA
BRANCH  14  16
ATOM     16  O   UNL     1      51.082  52.325  23.462  1.00  0.00    -0.462 OA
BRANCH  16  17
ATOM     17  C   UNL     1      52.102  53.319  23.550  1.00  0.00     0.236 C 
BRANCH  17  18
ATOM     18  C   UNL     1      52.816  53.515  22.198  1.00  0.00     0.021 C 
ATOM     19  C   UNL     1      52.185  54.660  21.395  1.00  0.00     0.011 C 
ATOM     20  C   UNL     1      52.785  52.215  21.386  1.00  0.00     0.011 C 
ENDBRANCH  17  18
ENDBRANCH  16  17
ENDBRANCH  14  16
ENDBRANCH   6  14
TORSDOF 8
ENDMDL
MODEL 5
REMARK VINA RESULT:    -6.494      1.372      5.231
REMARK INTER + INTRA:         -10.513
REMARK INTER:                  -9.772
REMARK INTRA:                  -0.742
REMARK UNBOUND:                -0.982
REMARK SMILES CC(C)COC(=O)c1ccccc1C(=O)OCC(C)C
REMARK SMILES IDX 8 1 9 2 10 3 11 4 12 5 13 6 6 7 7 8 5 9 4 10 2 11 1 12 3 13
REMARK SMILES IDX 14 14 15 15 16 16 17 17 18 18 19 19 20 20
REMARK H PARENT
REMARK Flexibility Score: inf
ROOT
ATOM      1  C   UNL     1      48.628  51.697  23.859  1.00  0.00     0.074 A 
ATOM      2  C   UNL     1      47.440  51.069  24.281  1.00  0.00     0.016 A 
ATOM      3  C   UNL     1      46.777  51.496  25.432  1.00  0.00     0.001 A 
ATOM      4  C   UNL     1      47.290  52.550  26.184  1.00  0.00     0.001 A 
ATOM      5  C   UNL     1      48.456  53.199  25.776  1.00  0.00     0.016 A 
ATOM      6  C   UNL     1      49.122  52.802  24.605  1.00  0.00     0.074 A 
ENDROOT
BRANCH   1   7
ATOM      7  C   UNL     1      49.364  51.127  22.703  1.00  0.00     0.339 C 
ATOM      8  O   UNL     1      48.990  51.395  21.528  1.00  0.00    -0.246 OA
BRANCH   7   9
ATOM      9  O   UNL     1      50.438  50.253  22.918  1.00  0.00    -0.462 OA
BRANCH   9  10
ATOM     10  C   UNL     1      50.384  48.846  22.688  1.00  0.00     0.236 C 
BRANCH  10  11
ATOM     11  C   UNL     1      50.418  48.074  24.019  1.00  0.00     0.021 C 
ATOM     12  C   UNL     1      51.427  46.922  23.941  1.00  0.00     0.011 C 
ATOM     13  C   UNL     1      49.032  47.539  24.397  1.00  0.00     0.011 C 
ENDBRANCH  10  11
ENDBRANCH   9  10
ENDBRANCH   7   9
ENDBRANCH   1   7
BRANCH   6  14
ATOM     14  C   UNL     1      50.294  53.586  24.176  1.00  0.00     0.339 C 
ATOM     15  O   UNL     1      51.123  53.999  25.033  1.00  0.00    -0.246 OA
BRANCH  14  16
ATOM     16  O   UNL     1      50.485  53.849  22.816  1.00  0.00    -0.462 OA
BRANCH  16  17
ATOM     17  C   UNL     1      51.771  54.021  22.223  1.00  0.00     0.236 C 
BRANCH  17  18
ATOM     18  C   UNL     1      52.670  52.791  22.460  1.00  0.00     0.021 C 
ATOM     19  C   UNL     1      53.957  53.176  23.201  1.00  0.00     0.011 C 
ATOM     20  C   UNL     1      53.005  52.112  21.127  1.00  0.00     0.011 C 
ENDBRANCH  17  18
ENDBRANCH  16  17
ENDBRANCH  14  16
ENDBRANCH   6  14
TORSDOF 8
ENDMDL
MODEL 6
REMARK VINA RESULT:    -6.472      1.402      4.424
REMARK INTER + INTRA:         -10.481
REMARK INTER:                  -9.633
REMARK INTRA:                  -0.848
REMARK UNBOUND:                -0.982
REMARK SMILES CC(C)COC(=O)c1ccccc1C(=O)OCC(C)C
REMARK SMILES IDX 8 1 9 2 10 3 11 4 12 5 13 6 6 7 7 8 5 9 4 10 2 11 1 12 3 13
REMARK SMILES IDX 14 14 15 15 16 16 17 17 18 18 19 19 20 20
REMARK H PARENT
REMARK Flexibility Score: inf
ROOT
ATOM      1  C   UNL     1      48.965  52.538  24.501  1.00  0.00     0.074 A 
ATOM      2  C   UNL     1      48.166  52.846  25.619  1.00  0.00     0.016 A 
ATOM      3  C   UNL     1      46.990  52.140  25.873  1.00  0.00     0.001 A 
ATOM      4  C   UNL     1      46.588  51.119  25.014  1.00  0.00     0.001 A 
ATOM      5  C   UNL     1      47.372  50.784  23.909  1.00  0.00     0.016 A 
ATOM      6  C   UNL     1      48.572  51.466  23.653  1.00  0.00     0.074 A 
ENDROOT
BRANCH   1   7
ATOM      7  C   UNL     1      50.136  53.398  24.202  1.00  0.00     0.339 C 
ATOM      8  O   UNL     1      50.819  53.877  25.149  1.00  0.00    -0.246 OA
BRANCH   7   9
ATOM      9  O   UNL     1      50.449  53.721  22.875  1.00  0.00    -0.462 OA
BRANCH   9  10
ATOM     10  C   UNL     1      51.761  54.047  22.417  1.00  0.00     0.236 C 
BRANCH  10  11
ATOM     11  C   UNL     1      52.696  52.831  22.531  1.00  0.00     0.021 C 
ATOM     12  C   UNL     1      54.005  53.230  23.223  1.00  0.00     0.011 C 
ATOM     13  C   UNL     1      52.991  52.214  21.158  1.00  0.00     0.011 C 
ENDBRANCH  10  11
ENDBRANCH   9  10
ENDBRANCH   7   9
ENDBRANCH   1   7
BRANCH   6  14
ATOM     14  C   UNL     1      49.403  51.003  22.527  1.00  0.00     0.339 C 
ATOM     15  O   UNL     1      49.139  51.383  21.353  1.00  0.00    -0.246 OA
BRANCH  14  16
ATOM     16  O   UNL     1      50.492  50.161  22.775  1.00  0.00    -0.462 OA
BRANCH  16  17
ATOM     17  C   UNL     1      50.432  48.741  22.646  1.00  0.00     0.236 C 
BRANCH  17  18
ATOM     18  C   UNL     1      50.473  48.048  24.022  1.00  0.00     0.021 C 
ATOM     19  C   UNL     1      51.462  46.875  24.026  1.00  0.00     0.011 C 
ATOM     20  C   UNL     1      49.073  47.567  24.418  1.00  0.00     0.011 C 
ENDBRANCH  17  18
ENDBRANCH  16  17
ENDBRANCH  14  16
ENDBRANCH   6  14
TORSDOF 8
ENDMDL
MODEL 7
REMARK VINA RESULT:    -6.422      1.355      4.084
REMARK INTER + INTRA:         -10.408
REMARK INTER:                  -9.696
REMARK INTRA:                  -0.711
REMARK UNBOUND:                -0.982
REMARK SMILES CC(C)COC(=O)c1ccccc1C(=O)OCC(C)C
REMARK SMILES IDX 8 1 9 2 10 3 11 4 12 5 13 6 6 7 7 8 5 9 4 10 2 11 1 12 3 13
REMARK SMILES IDX 14 14 15 15 16 16 17 17 18 18 19 19 20 20
REMARK H PARENT
REMARK Flexibility Score: inf
ROOT
ATOM      1  C   UNL     1      48.596  49.690  23.866  1.00  0.00     0.074 A 
ATOM      2  C   UNL     1      48.689  48.402  24.427  1.00  0.00     0.016 A 
ATOM      3  C   UNL     1      49.779  47.577  24.144  1.00  0.00     0.001 A 
ATOM      4  C   UNL     1      50.788  48.020  23.292  1.00  0.00     0.001 A 
ATOM      5  C   UNL     1      50.726  49.299  22.737  1.00  0.00     0.016 A 
ATOM      6  C   UNL     1      49.651  50.153  23.033  1.00  0.00     0.074 A 
ENDROOT
BRANCH   1   7
ATOM      7  C   UNL     1      47.360  50.479  24.094  1.00  0.00     0.339 C 
ATOM      8  O   UNL     1      46.706  50.919  23.109  1.00  0.00    -0.246 OA
BRANCH   7   9
ATOM      9  O   UNL     1      46.950  50.778  25.401  1.00  0.00    -0.462 OA
BRANCH   9  10
ATOM     10  C   UNL     1      46.032  51.817  25.736  1.00  0.00     0.236 C 
BRANCH  10  11
ATOM     11  C   UNL     1      46.747  52.956  26.484  1.00  0.00     0.021 C 
ATOM     12  C   UNL     1      46.140  54.310  26.096  1.00  0.00     0.011 C 
ATOM     13  C   UNL     1      48.256  52.954  26.207  1.00  0.00     0.011 C 
ENDBRANCH  10  11
ENDBRANCH   9  10
ENDBRANCH   7   9
ENDBRANCH   1   7
BRANCH   6  14
ATOM     14  C   UNL     1      49.689  51.525  22.494  1.00  0.00     0.339 C 
ATOM     15  O   UNL     1      49.291  51.749  21.318  1.00  0.00    -0.246 OA
BRANCH  14  16
ATOM     16  O   UNL     1      50.149  52.569  23.302  1.00  0.00    -0.462 OA
BRANCH  16  17
ATOM     17  C   UNL     1      51.236  53.421  22.941  1.00  0.00     0.236 C 
BRANCH  17  18
ATOM     18  C   UNL     1      52.534  52.616  22.727  1.00  0.00     0.021 C 
ATOM     19  C   UNL     1      53.722  53.274  23.442  1.00  0.00     0.011 C 
ATOM     20  C   UNL     1      52.828  52.469  21.230  1.00  0.00     0.011 C 
ENDBRANCH  17  18
ENDBRANCH  16  17
ENDBRANCH  14  16
ENDBRANCH   6  14
TORSDOF 8
ENDMDL
MODEL 8
REMARK VINA RESULT:    -6.415      1.368      5.544
REMARK INTER + INTRA:         -10.398
REMARK INTER:                  -9.760
REMARK INTRA:                  -0.638
REMARK UNBOUND:                -0.982
REMARK SMILES CC(C)COC(=O)c1ccccc1C(=O)OCC(C)C
REMARK SMILES IDX 8 1 9 2 10 3 11 4 12 5 13 6 6 7 7 8 5 9 4 10 2 11 1 12 3 13
REMARK SMILES IDX 14 14 15 15 16 16 17 17 18 18 19 19 20 20
REMARK H PARENT
REMARK Flexibility Score: inf
ROOT
ATOM      1  C   UNL     1      49.636  50.150  22.972  1.00  0.00     0.074 A 
ATOM      2  C   UNL     1      50.731  49.299  22.722  1.00  0.00     0.016 A 
ATOM      3  C   UNL     1      50.795  48.031  23.300  1.00  0.00     0.001 A 
ATOM      4  C   UNL     1      49.774  47.593  24.140  1.00  0.00     0.001 A 
ATOM      5  C   UNL     1      48.671  48.411  24.388  1.00  0.00     0.016 A 
ATOM      6  C   UNL     1      48.576  49.679  23.794  1.00  0.00     0.074 A 
ENDROOT
BRANCH   1   7
ATOM      7  C   UNL     1      49.674  51.534  22.439  1.00  0.00     0.339 C 
ATOM      8  O   UNL     1      49.284  51.763  21.261  1.00  0.00    -0.246 OA
BRANCH   7   9
ATOM      9  O   UNL     1      50.190  52.574  23.224  1.00  0.00    -0.462 OA
BRANCH   9  10
ATOM     10  C   UNL     1      51.200  53.483  22.789  1.00  0.00     0.236 C 
BRANCH  10  11
ATOM     11  C   UNL     1      52.563  52.775  22.689  1.00  0.00     0.021 C 
ATOM     12  C   UNL     1      53.648  53.610  23.381  1.00  0.00     0.011 C 
ATOM     13  C   UNL     1      52.954  52.504  21.231  1.00  0.00     0.011 C 
ENDBRANCH  10  11
ENDBRANCH   9  10
ENDBRANCH   7   9
ENDBRANCH   1   7
BRANCH   6  14
ATOM     14  C   UNL     1      47.345  50.458  24.018  1.00  0.00     0.339 C 
ATOM     15  O   UNL     1      46.705  50.921  23.034  1.00  0.00    -0.246 OA
BRANCH  14  16
ATOM     16  O   UNL     1      46.886  50.657  25.324  1.00  0.00    -0.462 OA
BRANCH  16  17
ATOM     17  C   UNL     1      45.989  51.706  25.689  1.00  0.00     0.236 C 
BRANCH  17  18
ATOM     18  C   UNL     1      46.723  52.843  26.427  1.00  0.00     0.021 C 
ATOM     19  C   UNL     1      46.120  54.212  26.083  1.00  0.00     0.011 C 
ATOM     20  C   UNL     1      48.218  52.819  26.090  1.00  0.00     0.011 C 
ENDBRANCH  17  18
ENDBRANCH  16  17
ENDBRANCH  14  16
ENDBRANCH   6  14
TORSDOF 8
ENDMDL
MODEL 9
REMARK VINA RESULT:    -5.852      1.427      4.450
REMARK INTER + INTRA:          -9.572
REMARK INTER:                  -9.336
REMARK INTRA:                  -0.236
REMARK UNBOUND:                -0.982
REMARK SMILES CC(C)COC(=O)c1ccccc1C(=O)OCC(C)C
REMARK SMILES IDX 8 1 9 2 10 3 11 4 12 5 13 6 6 7 7 8 5 9 4 10 2 11 1 12 3 13
REMARK SMILES IDX 14 14 15 15 16 16 17 17 18 18 19 19 20 20
REMARK H PARENT
REMARK Flexibility Score: inf
ROOT
ATOM      1  C   UNL     1      50.726  51.692  22.359  1.00  0.00     0.074 A 
ATOM      2  C   UNL     1      51.553  51.330  21.278  1.00  0.00     0.016 A 
ATOM      3  C   UNL     1      52.591  52.165  20.863  1.00  0.00     0.001 A 
ATOM      4  C   UNL     1      52.817  53.375  21.514  1.00  0.00     0.001 A 
ATOM      5  C   UNL     1      52.022  53.747  22.599  1.00  0.00     0.016 A 
ATOM      6  C   UNL     1      50.990  52.907  23.048  1.00  0.00     0.074 A 
ENDROOT
BRANCH   1   7
ATOM      7  C   UNL     1      49.558  50.834  22.680  1.00  0.00     0.339 C 
ATOM      8  O   UNL     1      48.486  50.965  22.029  1.00  0.00    -0.246 OA
BRANCH   7   9
ATOM      9  O   UNL     1      49.631  49.919  23.739  1.00  0.00    -0.462 OA
BRANCH   9  10
ATOM     10  C   UNL     1      48.539  49.113  24.179  1.00  0.00     0.236 C 
BRANCH  10  11
ATOM     11  C   UNL     1      48.919  47.621  24.155  1.00  0.00     0.021 C 
ATOM     12  C   UNL     1      48.214  46.875  25.295  1.00  0.00     0.011 C 
ATOM     13  C   UNL     1      50.436  47.423  24.251  1.00  0.00     0.011 C 
ENDBRANCH  10  11
ENDBRANCH   9  10
ENDBRANCH   7   9
ENDBRANCH   1   7
BRANCH   6  14
ATOM     14  C   UNL     1      50.247  53.309  24.255  1.00  0.00     0.339 C 
ATOM     15  O   UNL     1      50.811  54.016  25.135  1.00  0.00    -0.246 OA
BRANCH  14  16
ATOM     16  O   UNL     1      48.912  52.919  24.403  1.00  0.00    -0.462 OA
BRANCH  16  17
ATOM     17  C   UNL     1      48.290  52.712  25.671  1.00  0.00     0.236 C 
BRANCH  17  18
ATOM     18  C   UNL     1      46.783  52.427  25.519  1.00  0.00     0.021 C 
ATOM     19  C   UNL     1      46.362  52.425  24.044  1.00  0.00     0.011 C 
ATOM     20  C   UNL     1      45.964  53.456  26.306  1.00  0.00     0.011 C 
ENDBRANCH  17  18
ENDBRANCH  16  17
ENDBRANCH  14  16
ENDBRANCH   6  14
TORSDOF 8
ENDMDL
