MODEL 1
REMARK VINA RESULT:    -3.139      0.000      0.000
REMARK INTER + INTRA:          -3.709
REMARK INTER:                  -3.689
REMARK INTRA:                  -0.020
REMARK UNBOUND:                -0.020
REMARK SMILES CCCCC(=O)[O-]
REMARK SMILES IDX 4 1 5 2 6 3 7 4 3 5 2 6 1 7
REMARK H PARENT
REMARK Flexibility Score: inf
ROOT
ATOM      1  C   UNL     1      -4.903   1.932  -0.202  1.00  0.00     0.053 C 
ENDROOT
BRANCH   1   2
ATOM      2  C   UNL     1      -3.517   2.492  -0.198  1.00  0.00     0.041 C 
ATOM      3  O   UNL     1      -2.979   2.859  -1.276  1.00  0.00    -0.550 OA
ATOM      4  O   UNL     1      -2.835   2.655   1.001  1.00  0.00    -0.550 OA
ENDBRANCH   1   2
BRANCH   1   5
ATOM      5  C   UNL     1      -5.062   0.886   0.906  1.00  0.00     0.006 C 
BRANCH   5   6
ATOM      6  C   UNL     1      -5.944  -0.278   0.441  1.00  0.00    -0.003 C 
ATOM      7  C   UNL     1      -5.253  -1.619   0.669  1.00  0.00     0.004 C 
ENDBRANCH   5   6
ENDBRANCH   1   5
TORSDOF 3
ENDMDL
MODEL 2
REMARK VINA RESULT:    -3.072      1.369      2.139
REMARK INTER + INTRA:          -3.631
REMARK INTER:                  -3.564
REMARK INTRA:                  -0.067
REMARK UNBOUND:                -0.020
REMARK SMILES CCCCC(=O)[O-]
REMARK SMILES IDX 4 1 5 2 6 3 7 4 3 5 2 6 1 7
REMARK H PARENT
REMARK Flexibility Score: inf
ROOT
ATOM      1  C   UNL     1      -3.269   2.421   0.235  1.00  0.00     0.053 C 
ENDROOT
BRANCH   1   2
ATOM      2  C   UNL     1      -3.322   3.641   1.098  1.00  0.00     0.041 C 
ATOM      3  O   UNL     1      -2.924   3.590   2.292  1.00  0.00    -0.550 OA
ATOM      4  O   UNL     1      -3.764   4.848   0.571  1.00  0.00    -0.550 OA
ENDBRANCH   1   2
BRANCH   1   5
ATOM      5  C   UNL     1      -4.682   1.975  -0.149  1.00  0.00     0.006 C 
BRANCH   5   6
ATOM      6  C   UNL     1      -5.322   1.146   0.971  1.00  0.00    -0.003 C 
ATOM      7  C   UNL     1      -5.256  -0.346   0.661  1.00  0.00     0.004 C 
ENDBRANCH   5   6
ENDBRANCH   1   5
TORSDOF 3
ENDMDL
MODEL 3
REMARK VINA RESULT:    -3.037      1.331      1.752
REMARK INTER + INTRA:          -3.590
REMARK INTER:                  -3.529
REMARK INTRA:                  -0.061
REMARK UNBOUND:                -0.020
REMARK SMILES CCCCC(=O)[O-]
REMARK SMILES IDX 4 1 5 2 6 3 7 4 3 5 2 6 1 7
REMARK H PARENT
REMARK Flexibility Score: inf
ROOT
ATOM      1  C   UNL     1      -3.342   2.319   0.295  1.00  0.00     0.053 C 
ENDROOT
BRANCH   1   2
ATOM      2  C   UNL     1      -3.386   3.615   1.040  1.00  0.00     0.041 C 
ATOM      3  O   UNL     1      -3.866   4.643   0.494  1.00  0.00    -0.550 OA
ATOM      4  O   UNL     1      -2.942   3.677   2.355  1.00  0.00    -0.550 OA
ENDBRANCH   1   2
BRANCH   1   5
ATOM      5  C   UNL     1      -4.749   1.906  -0.147  1.00  0.00     0.006 C 
BRANCH   5   6
ATOM      6  C   UNL     1      -5.429   1.040   0.919  1.00  0.00    -0.003 C 
ATOM      7  C   UNL     1      -5.248  -0.445   0.622  1.00  0.00     0.004 C 
ENDBRANCH   5   6
ENDBRANCH   1   5
TORSDOF 3
ENDMDL
MODEL 4
REMARK VINA RESULT:    -2.988      0.819      1.494
REMARK INTER + INTRA:          -3.532
REMARK INTER:                  -3.477
REMARK INTRA:                  -0.055
REMARK UNBOUND:                -0.020
REMARK SMILES CCCCC(=O)[O-]
REMARK SMILES IDX 4 1 5 2 6 3 7 4 3 5 2 6 1 7
REMARK H PARENT
REMARK Flexibility Score: inf
ROOT
ATOM      1  C   UNL     1      -4.819   2.153   1.039  1.00  0.00     0.053 C 
ENDROOT
BRANCH   1   2
ATOM      2  C   UNL     1      -3.440   2.588   0.658  1.00  0.00     0.041 C 
ATOM      3  O   UNL     1      -2.634   2.982   1.541  1.00  0.00    -0.550 OA
ATOM      4  O   UNL     1      -3.027   2.513  -0.666  1.00  0.00    -0.550 OA
ENDBRANCH   1   2
BRANCH   1   5
ATOM      5  C   UNL     1      -5.496   1.433  -0.131  1.00  0.00     0.006 C 
BRANCH   5   6
ATOM      6  C   UNL     1      -6.267   0.200   0.354  1.00  0.00    -0.003 C 
ATOM      7  C   UNL     1      -5.318  -0.935   0.722  1.00  0.00     0.004 C 
ENDBRANCH   5   6
ENDBRANCH   1   5
TORSDOF 3
ENDMDL
MODEL 5
REMARK VINA RESULT:    -2.971      2.215      2.758
REMARK INTER + INTRA:          -3.512
REMARK INTER:                  -3.439
REMARK INTRA:                  -0.073
REMARK UNBOUND:                -0.020
REMARK SMILES CCCCC(=O)[O-]
REMARK SMILES IDX 4 1 5 2 6 3 7 4 3 5 2 6 1 7
REMARK H PARENT
REMARK Flexibility Score: inf
ROOT
ATOM      1  C   UNL     1      -3.832   3.752   0.139  1.00  0.00     0.053 C 
ENDROOT
BRANCH   1   2
ATOM      2  C   UNL     1      -3.381   4.424   1.396  1.00  0.00     0.041 C 
ATOM      3  O   UNL     1      -3.122   5.657   1.397  1.00  0.00    -0.550 OA
ATOM      4  O   UNL     1      -3.292   3.702   2.579  1.00  0.00    -0.550 OA
ENDBRANCH   1   2
BRANCH   1   5
ATOM      5  C   UNL     1      -3.386   2.287   0.124  1.00  0.00     0.006 C 
BRANCH   5   6
ATOM      6  C   UNL     1      -4.583   1.346   0.301  1.00  0.00    -0.003 C 
ATOM      7  C   UNL     1      -5.808   1.865  -0.444  1.00  0.00     0.004 C 
ENDBRANCH   5   6
ENDBRANCH   1   5
TORSDOF 3
ENDMDL
MODEL 6
REMARK VINA RESULT:    -2.863      2.820      3.994
REMARK INTER + INTRA:          -3.385
REMARK INTER:                  -3.345
REMARK INTRA:                  -0.040
REMARK UNBOUND:                -0.020
REMARK SMILES CCCCC(=O)[O-]
REMARK SMILES IDX 4 1 5 2 6 3 7 4 3 5 2 6 1 7
REMARK H PARENT
REMARK Flexibility Score: inf
ROOT
ATOM      1  C   UNL     1      -4.913   0.640   0.680  1.00  0.00     0.053 C 
ENDROOT
BRANCH   1   2
ATOM      2  C   UNL     1      -5.629  -0.672   0.676  1.00  0.00     0.041 C 
ATOM      3  O   UNL     1      -6.853  -0.728   0.969  1.00  0.00    -0.550 OA
ATOM      4  O   UNL     1      -4.959  -1.830   0.302  1.00  0.00    -0.550 OA
ENDBRANCH   1   2
BRANCH   1   5
ATOM      5  C   UNL     1      -5.608   1.633  -0.256  1.00  0.00     0.006 C 
BRANCH   5   6
ATOM      6  C   UNL     1      -4.645   2.741  -0.697  1.00  0.00    -0.003 C 
ATOM      7  C   UNL     1      -3.235   2.486  -0.174  1.00  0.00     0.004 C 
ENDBRANCH   5   6
ENDBRANCH   1   5
TORSDOF 3
ENDMDL
MODEL 7
REMARK VINA RESULT:    -2.736      8.732      9.196
REMARK INTER + INTRA:          -3.235
REMARK INTER:                  -3.209
REMARK INTRA:                  -0.026
REMARK UNBOUND:                -0.020
REMARK SMILES CCCCC(=O)[O-]
REMARK SMILES IDX 4 1 5 2 6 3 7 4 3 5 2 6 1 7
REMARK H PARENT
REMARK Flexibility Score: inf
ROOT
ATOM      1  C   UNL     1       4.374   1.800  -1.838  1.00  0.00     0.053 C 
ENDROOT
BRANCH   1   2
ATOM      2  C   UNL     1       3.673   1.906  -3.154  1.00  0.00     0.041 C 
ATOM      3  O   UNL     1       2.699   1.151  -3.415  1.00  0.00    -0.550 OA
ATOM      4  O   UNL     1       4.061   2.871  -4.074  1.00  0.00    -0.550 OA
ENDBRANCH   1   2
BRANCH   1   5
ATOM      5  C   UNL     1       4.299   0.367  -1.303  1.00  0.00     0.006 C 
BRANCH   5   6
ATOM      6  C   UNL     1       4.472   0.338   0.220  1.00  0.00    -0.003 C 
ATOM      7  C   UNL     1       5.921   0.057   0.604  1.00  0.00     0.004 C 
ENDBRANCH   5   6
ENDBRANCH   1   5
TORSDOF 3
ENDMDL
MODEL 8
REMARK VINA RESULT:    -2.720      8.404      9.333
REMARK INTER + INTRA:          -3.217
REMARK INTER:                  -3.119
REMARK INTRA:                  -0.098
REMARK UNBOUND:                -0.020
REMARK SMILES CCCCC(=O)[O-]
REMARK SMILES IDX 4 1 5 2 6 3 7 4 3 5 2 6 1 7
REMARK H PARENT
REMARK Flexibility Score: inf
ROOT
ATOM      1  C   UNL     1      -1.350  -5.332   4.626  1.00  0.00     0.053 C 
ENDROOT
BRANCH   1   2
ATOM      2  C   UNL     1      -0.957  -6.313   5.683  1.00  0.00     0.041 C 
ATOM      3  O   UNL     1       0.202  -6.806   5.691  1.00  0.00    -0.550 OA
ATOM      4  O   UNL     1      -1.853  -6.648   6.691  1.00  0.00    -0.550 OA
ENDBRANCH   1   2
BRANCH   1   5
ATOM      5  C   UNL     1      -2.868  -5.128   4.621  1.00  0.00     0.006 C 
BRANCH   5   6
ATOM      6  C   UNL     1      -3.224  -3.644   4.771  1.00  0.00    -0.003 C 
ATOM      7  C   UNL     1      -2.757  -3.098   6.116  1.00  0.00     0.004 C 
ENDBRANCH   5   6
ENDBRANCH   1   5
TORSDOF 3
ENDMDL
MODEL 9
REMARK VINA RESULT:    -2.679      7.568      8.864
REMARK INTER + INTRA:          -3.169
REMARK INTER:                  -3.138
REMARK INTRA:                  -0.031
REMARK UNBOUND:                -0.020
REMARK SMILES CCCCC(=O)[O-]
REMARK SMILES IDX 4 1 5 2 6 3 7 4 3 5 2 6 1 7
REMARK H PARENT
REMARK Flexibility Score: inf
ROOT
ATOM      1  C   UNL     1      -0.394  -5.821   5.007  1.00  0.00     0.053 C 
ENDROOT
BRANCH   1   2
ATOM      2  C   UNL     1       0.684  -5.604   3.994  1.00  0.00     0.041 C 
ATOM      3  O   UNL     1       1.856  -5.330   4.364  1.00  0.00    -0.550 OA
ATOM      4  O   UNL     1       0.408  -5.751   2.640  1.00  0.00    -0.550 OA
ENDBRANCH   1   2
BRANCH   1   5
ATOM      5  C   UNL     1      -1.759  -5.441   4.427  1.00  0.00     0.006 C 
BRANCH   5   6
ATOM      6  C   UNL     1      -2.358  -4.241   5.170  1.00  0.00    -0.003 C 
ATOM      7  C   UNL     1      -3.574  -3.687   4.434  1.00  0.00     0.004 C 
ENDBRANCH   5   6
ENDBRANCH   1   5
TORSDOF 3
ENDMDL
