MODEL 1
REMARK VINA RESULT:    -3.606      0.000      0.000
REMARK INTER + INTRA:          -4.394
REMARK INTER:                  -4.238
REMARK INTRA:                  -0.156
REMARK UNBOUND:                -0.156
REMARK SMILES O=C([O-])CCC(=O)[O-]
REMARK SMILES IDX 4 1 2 2 1 3 3 4 5 5 6 6 7 7 8 8
REMARK H PARENT
REMARK Flexibility Score: inf
ROOT
ATOM      1  C   UNL     1     157.490 151.082 148.875  1.00  0.00     0.059 C 
ENDROOT
BRANCH   1   2
ATOM      2  C   UNL     1     156.450 150.922 149.938  1.00  0.00     0.042 C 
ATOM      3  O   UNL     1     156.037 149.776 150.254  1.00  0.00    -0.550 OA
ATOM      4  O   UNL     1     155.900 152.044 150.546  1.00  0.00    -0.550 OA
ENDBRANCH   1   2
BRANCH   1   5
ATOM      5  C   UNL     1     158.733 150.258 149.215  1.00  0.00     0.059 C 
BRANCH   5   6
ATOM      6  C   UNL     1     159.539 150.939 150.276  1.00  0.00     0.042 C 
ATOM      7  O   UNL     1     159.674 150.406 151.409  1.00  0.00    -0.550 OA
ATOM      8  O   UNL     1     160.099 152.185 150.031  1.00  0.00    -0.550 OA
ENDBRANCH   5   6
ENDBRANCH   1   5
TORSDOF 3
ENDMDL
MODEL 2
REMARK VINA RESULT:    -3.586     15.545     16.559
REMARK INTER + INTRA:          -4.371
REMARK INTER:                  -4.225
REMARK INTRA:                  -0.146
REMARK UNBOUND:                -0.156
REMARK SMILES O=C([O-])CCC(=O)[O-]
REMARK SMILES IDX 4 1 2 2 1 3 3 4 5 5 6 6 7 7 8 8
REMARK H PARENT
REMARK Flexibility Score: inf
ROOT
ATOM      1  C   UNL     1     160.556 166.759 148.926  1.00  0.00     0.059 C 
ENDROOT
BRANCH   1   2
ATOM      2  C   UNL     1     161.588 167.019 149.977  1.00  0.00     0.042 C 
ATOM      3  O   UNL     1     161.911 168.200 150.269  1.00  0.00    -0.550 OA
ATOM      4  O   UNL     1     162.230 165.956 150.599  1.00  0.00    -0.550 OA
ENDBRANCH   1   2
BRANCH   1   5
ATOM      5  C   UNL     1     159.310 167.610 149.176  1.00  0.00     0.059 C 
BRANCH   5   6
ATOM      6  C   UNL     1     158.454 166.988 150.234  1.00  0.00     0.042 C 
ATOM      7  O   UNL     1     158.294 167.567 151.341  1.00  0.00    -0.550 OA
ATOM      8  O   UNL     1     157.874 165.746 150.017  1.00  0.00    -0.550 OA
ENDBRANCH   5   6
ENDBRANCH   1   5
TORSDOF 3
ENDMDL
MODEL 3
REMARK VINA RESULT:    -3.584     17.225     18.056
REMARK INTER + INTRA:          -4.368
REMARK INTER:                  -4.217
REMARK INTRA:                  -0.151
REMARK UNBOUND:                -0.156
REMARK SMILES O=C([O-])CCC(=O)[O-]
REMARK SMILES IDX 4 1 2 2 1 3 3 4 5 5 6 6 7 7 8 8
REMARK H PARENT
REMARK Flexibility Score: inf
ROOT
ATOM      1  C   UNL     1     159.298 150.318 168.802  1.00  0.00     0.059 C 
ENDROOT
BRANCH   1   2
ATOM      2  C   UNL     1     158.468 150.898 167.702  1.00  0.00     0.042 C 
ATOM      3  O   UNL     1     158.440 150.346 166.570  1.00  0.00    -0.550 OA
ATOM      4  O   UNL     1     157.762 152.077 167.910  1.00  0.00    -0.550 OA
ENDBRANCH   1   2
BRANCH   1   5
ATOM      5  C   UNL     1     160.507 151.211 169.088  1.00  0.00     0.059 C 
BRANCH   5   6
ATOM      6  C   UNL     1     161.582 150.977 168.073  1.00  0.00     0.042 C 
ATOM      7  O   UNL     1     162.099 151.950 167.462  1.00  0.00    -0.550 OA
ATOM      8  O   UNL     1     161.978 149.682 167.767  1.00  0.00    -0.550 OA
ENDBRANCH   5   6
ENDBRANCH   1   5
TORSDOF 3
ENDMDL
MODEL 4
REMARK VINA RESULT:    -3.540     15.638     16.299
REMARK INTER + INTRA:          -4.317
REMARK INTER:                  -4.142
REMARK INTRA:                  -0.175
REMARK UNBOUND:                -0.156
REMARK SMILES O=C([O-])CCC(=O)[O-]
REMARK SMILES IDX 4 1 2 2 1 3 3 4 5 5 6 6 7 7 8 8
REMARK H PARENT
REMARK Flexibility Score: inf
ROOT
ATOM      1  C   UNL     1     159.202 167.703 149.204  1.00  0.00     0.059 C 
ENDROOT
BRANCH   1   2
ATOM      2  C   UNL     1     158.488 166.968 150.294  1.00  0.00     0.042 C 
ATOM      3  O   UNL     1     158.099 165.785 150.112  1.00  0.00    -0.550 OA
ATOM      4  O   UNL     1     158.208 167.609 151.495  1.00  0.00    -0.550 OA
ENDBRANCH   1   2
BRANCH   1   5
ATOM      5  C   UNL     1     160.529 167.016 148.876  1.00  0.00     0.059 C 
BRANCH   5   6
ATOM      6  C   UNL     1     161.496 167.176 150.007  1.00  0.00     0.042 C 
ATOM      7  O   UNL     1     161.872 168.324 150.362  1.00  0.00    -0.550 OA
ATOM      8  O   UNL     1     162.019 166.055 150.637  1.00  0.00    -0.550 OA
ENDBRANCH   5   6
ENDBRANCH   1   5
TORSDOF 3
ENDMDL
MODEL 5
REMARK VINA RESULT:    -3.499      1.148      3.358
REMARK INTER + INTRA:          -4.268
REMARK INTER:                  -4.111
REMARK INTRA:                  -0.157
REMARK UNBOUND:                -0.156
REMARK SMILES O=C([O-])CCC(=O)[O-]
REMARK SMILES IDX 4 1 2 2 1 3 3 4 5 5 6 6 7 7 8 8
REMARK H PARENT
REMARK Flexibility Score: inf
ROOT
ATOM      1  C   UNL     1     158.178 150.242 149.449  1.00  0.00     0.059 C 
ENDROOT
BRANCH   1   2
ATOM      2  C   UNL     1     159.161 150.708 150.475  1.00  0.00     0.042 C 
ATOM      3  O   UNL     1     160.048 151.548 150.169  1.00  0.00    -0.550 OA
ATOM      4  O   UNL     1     159.129 150.178 151.759  1.00  0.00    -0.550 OA
ENDBRANCH   1   2
BRANCH   1   5
ATOM      5  C   UNL     1     156.750 150.362 149.982  1.00  0.00     0.059 C 
BRANCH   5   6
ATOM      6  C   UNL     1     156.381 151.799 150.175  1.00  0.00     0.042 C 
ATOM      7  O   UNL     1     155.753 152.159 151.206  1.00  0.00    -0.550 OA
ATOM      8  O   UNL     1     156.687 152.733 149.194  1.00  0.00    -0.550 OA
ENDBRANCH   5   6
ENDBRANCH   1   5
TORSDOF 3
ENDMDL
MODEL 6
REMARK VINA RESULT:    -3.488     23.272     23.982
REMARK INTER + INTRA:          -4.255
REMARK INTER:                  -4.096
REMARK INTRA:                  -0.160
REMARK UNBOUND:                -0.156
REMARK SMILES O=C([O-])CCC(=O)[O-]
REMARK SMILES IDX 4 1 2 2 1 3 3 4 5 5 6 6 7 7 8 8
REMARK H PARENT
REMARK Flexibility Score: inf
ROOT
ATOM      1  C   UNL     1     158.183 167.894 168.438  1.00  0.00     0.059 C 
ENDROOT
BRANCH   1   2
ATOM      2  C   UNL     1     159.125 167.332 167.421  1.00  0.00     0.042 C 
ATOM      3  O   UNL     1     160.020 166.518 167.767  1.00  0.00    -0.550 OA
ATOM      4  O   UNL     1     159.046 167.747 166.097  1.00  0.00    -0.550 OA
ENDBRANCH   1   2
BRANCH   1   5
ATOM      5  C   UNL     1     156.734 167.694 167.993  1.00  0.00     0.059 C 
BRANCH   5   6
ATOM      6  C   UNL     1     156.405 166.236 167.916  1.00  0.00     0.042 C 
ATOM      7  O   UNL     1     155.778 165.780 166.924  1.00  0.00    -0.550 OA
ATOM      8  O   UNL     1     156.748 165.391 168.963  1.00  0.00    -0.550 OA
ENDBRANCH   5   6
ENDBRANCH   1   5
TORSDOF 3
ENDMDL
MODEL 7
REMARK VINA RESULT:    -3.478     16.992     18.103
REMARK INTER + INTRA:          -4.244
REMARK INTER:                  -4.099
REMARK INTRA:                  -0.145
REMARK UNBOUND:                -0.156
REMARK SMILES O=C([O-])CCC(=O)[O-]
REMARK SMILES IDX 4 1 2 2 1 3 3 4 5 5 6 6 7 7 8 8
REMARK H PARENT
REMARK Flexibility Score: inf
ROOT
ATOM      1  C   UNL     1     161.280 150.448 168.022  1.00  0.00     0.059 C 
ENDROOT
BRANCH   1   2
ATOM      2  C   UNL     1     161.636 151.888 167.831  1.00  0.00     0.042 C 
ATOM      3  O   UNL     1     161.360 152.734 168.722  1.00  0.00    -0.550 OA
ATOM      4  O   UNL     1     162.228 152.306 166.645  1.00  0.00    -0.550 OA
ENDBRANCH   1   2
BRANCH   1   5
ATOM      5  C   UNL     1     159.854 150.316 168.560  1.00  0.00     0.059 C 
BRANCH   5   6
ATOM      6  C   UNL     1     158.861 150.730 167.520  1.00  0.00     0.042 C 
ATOM      7  O   UNL     1     157.936 151.533 167.812  1.00  0.00    -0.550 OA
ATOM      8  O   UNL     1     158.927 150.190 166.243  1.00  0.00    -0.550 OA
ENDBRANCH   5   6
ENDBRANCH   1   5
TORSDOF 3
ENDMDL
MODEL 8
REMARK VINA RESULT:    -3.467     23.213     23.723
REMARK INTER + INTRA:          -4.231
REMARK INTER:                  -4.068
REMARK INTRA:                  -0.162
REMARK UNBOUND:                -0.156
REMARK SMILES O=C([O-])CCC(=O)[O-]
REMARK SMILES IDX 4 1 2 2 1 3 3 4 5 5 6 6 7 7 8 8
REMARK H PARENT
REMARK Flexibility Score: inf
ROOT
ATOM      1  C   UNL     1     156.734 167.590 167.993  1.00  0.00     0.059 C 
ENDROOT
BRANCH   1   2
ATOM      2  C   UNL     1     156.356 166.151 167.843  1.00  0.00     0.042 C 
ATOM      3  O   UNL     1     155.710 165.766 166.833  1.00  0.00    -0.550 OA
ATOM      4  O   UNL     1     156.675 165.240 168.843  1.00  0.00    -0.550 OA
ENDBRANCH   1   2
BRANCH   1   5
ATOM      5  C   UNL     1     158.171 167.717 168.500  1.00  0.00     0.059 C 
BRANCH   5   6
ATOM      6  C   UNL     1     159.140 167.305 167.437  1.00  0.00     0.042 C 
ATOM      7  O   UNL     1     160.091 166.526 167.713  1.00  0.00    -0.550 OA
ATOM      8  O   UNL     1     159.023 167.821 166.153  1.00  0.00    -0.550 OA
ENDBRANCH   5   6
ENDBRANCH   1   5
TORSDOF 3
ENDMDL
MODEL 9
REMARK VINA RESULT:    -3.414      1.460      2.141
REMARK INTER + INTRA:          -4.169
REMARK INTER:                  -4.011
REMARK INTRA:                  -0.158
REMARK UNBOUND:                -0.156
REMARK SMILES O=C([O-])CCC(=O)[O-]
REMARK SMILES IDX 4 1 2 2 1 3 3 4 5 5 6 6 7 7 8 8
REMARK H PARENT
REMARK Flexibility Score: inf
ROOT
ATOM      1  C   UNL     1     158.022 150.668 148.875  1.00  0.00     0.059 C 
ENDROOT
BRANCH   1   2
ATOM      2  C   UNL     1     157.454 149.917 150.037  1.00  0.00     0.042 C 
ATOM      3  O   UNL     1     156.208 149.791 150.164  1.00  0.00    -0.550 OA
ATOM      4  O   UNL     1     158.301 149.397 151.009  1.00  0.00    -0.550 OA
ENDBRANCH   1   2
BRANCH   1   5
ATOM      5  C   UNL     1     157.799 152.171 149.048  1.00  0.00     0.059 C 
BRANCH   5   6
ATOM      6  C   UNL     1     158.755 152.730 150.055  1.00  0.00     0.042 C 
ATOM      7  O   UNL     1     159.987 152.489 149.960  1.00  0.00    -0.550 OA
ATOM      8  O   UNL     1     158.279 153.476 151.125  1.00  0.00    -0.550 OA
ENDBRANCH   5   6
ENDBRANCH   1   5
TORSDOF 3
ENDMDL
