MODEL 1
REMARK VINA RESULT:     4.672      0.000      0.000
REMARK INTER + INTRA:           7.207
REMARK INTER:                   7.403
REMARK INTRA:                  -0.196
REMARK UNBOUND:                -0.196
REMARK SMILES CCCCCCCCCCCC(=O)[O-]
REMARK SMILES IDX 7 1 8 2 9 3 10 4 11 5 12 6 13 7 14 8 6 9 5 10 4 11 3 12 2 13
REMARK SMILES IDX 1 14
REMARK H PARENT
REMARK Flexibility Score: inf
ROOT
ATOM      1  C   UNL     1     -34.389  15.114  17.466  1.00  0.00     0.000 C 
ENDROOT
BRANCH   1   2
ATOM      2  C   UNL     1     -33.997  13.907  16.594  1.00  0.00     0.000 C 
BRANCH   2   3
ATOM      3  C   UNL     1     -32.869  13.028  17.165  1.00  0.00     0.000 C 
BRANCH   3   4
ATOM      4  C   UNL     1     -32.875  12.964  18.699  1.00  0.00     0.006 C 
BRANCH   4   5
ATOM      5  C   UNL     1     -33.023  11.520  19.187  1.00  0.00     0.053 C 
BRANCH   5   6
ATOM      6  C   UNL     1     -33.725  11.482  20.507  1.00  0.00     0.041 C 
ATOM      7  O   UNL     1     -34.065  10.380  21.013  1.00  0.00    -0.550 OA
ATOM      8  O   UNL     1     -33.960  12.661  21.204  1.00  0.00    -0.550 OA
ENDBRANCH   5   6
ENDBRANCH   4   5
ENDBRANCH   3   4
ENDBRANCH   2   3
ENDBRANCH   1   2
BRANCH   1   9
ATOM      9  C   UNL     1     -34.851  16.326  16.639  1.00  0.00     0.000 C 
BRANCH   9  10
ATOM     10  C   UNL     1     -35.276  17.513  17.518  1.00  0.00    -0.000 C 
BRANCH  10  11
ATOM     11  C   UNL     1     -36.788  17.523  17.803  1.00  0.00    -0.000 C 
BRANCH  11  12
ATOM     12  C   UNL     1     -37.407  16.117  17.758  1.00  0.00    -0.000 C 
BRANCH  12  13
ATOM     13  C   UNL     1     -38.810  16.067  18.381  1.00  0.00    -0.003 C 
ATOM     14  C   UNL     1     -39.800  16.899  17.571  1.00  0.00     0.004 C 
ENDBRANCH  12  13
ENDBRANCH  11  12
ENDBRANCH  10  11
ENDBRANCH   9  10
ENDBRANCH   1   9
TORSDOF 10
ENDMDL
MODEL 2
REMARK VINA RESULT:     4.800      2.744      6.102
REMARK INTER + INTRA:           7.411
REMARK INTER:                   7.800
REMARK INTRA:                  -0.389
REMARK UNBOUND:                -0.196
REMARK SMILES CCCCCCCCCCCC(=O)[O-]
REMARK SMILES IDX 7 1 8 2 9 3 10 4 11 5 12 6 13 7 14 8 6 9 5 10 4 11 3 12 2 13
REMARK SMILES IDX 1 14
REMARK H PARENT
REMARK Flexibility Score: inf
ROOT
ATOM      1  C   UNL     1     -34.287  14.873  17.707  1.00  0.00     0.000 C 
ENDROOT
BRANCH   1   2
ATOM      2  C   UNL     1     -34.791  15.977  16.758  1.00  0.00     0.000 C 
BRANCH   2   3
ATOM      3  C   UNL     1     -35.106  17.325  17.433  1.00  0.00     0.000 C 
BRANCH   3   4
ATOM      4  C   UNL     1     -36.586  17.477  17.809  1.00  0.00     0.006 C 
BRANCH   4   5
ATOM      5  C   UNL     1     -37.366  16.196  17.498  1.00  0.00     0.053 C 
BRANCH   5   6
ATOM      6  C   UNL     1     -38.704  16.222  18.166  1.00  0.00     0.041 C 
ATOM      7  O   UNL     1     -38.902  15.553  19.214  1.00  0.00    -0.550 OA
ATOM      8  O   UNL     1     -39.719  17.024  17.659  1.00  0.00    -0.550 OA
ENDBRANCH   5   6
ENDBRANCH   4   5
ENDBRANCH   3   4
ENDBRANCH   2   3
ENDBRANCH   1   2
BRANCH   1   9
ATOM      9  C   UNL     1     -33.733  13.648  16.960  1.00  0.00     0.000 C 
BRANCH   9  10
ATOM     10  C   UNL     1     -32.530  13.016  17.677  1.00  0.00    -0.000 C 
BRANCH  10  11
ATOM     11  C   UNL     1     -32.817  12.717  19.159  1.00  0.00    -0.000 C 
BRANCH  11  12
ATOM     12  C   UNL     1     -33.297  11.275  19.389  1.00  0.00    -0.000 C 
BRANCH  12  13
ATOM     13  C   UNL     1     -34.009  11.095  20.738  1.00  0.00    -0.003 C 
ATOM     14  C   UNL     1     -33.986  12.390  21.546  1.00  0.00     0.004 C 
ENDBRANCH  12  13
ENDBRANCH  11  12
ENDBRANCH  10  11
ENDBRANCH   9  10
ENDBRANCH   1   9
TORSDOF 10
ENDMDL
MODEL 3
REMARK VINA RESULT:     5.422      1.213      2.401
REMARK INTER + INTRA:           8.396
REMARK INTER:                   8.873
REMARK INTRA:                  -0.477
REMARK UNBOUND:                -0.196
REMARK SMILES CCCCCCCCCCCC(=O)[O-]
REMARK SMILES IDX 7 1 8 2 9 3 10 4 11 5 12 6 13 7 14 8 6 9 5 10 4 11 3 12 2 13
REMARK SMILES IDX 1 14
REMARK H PARENT
REMARK Flexibility Score: inf
ROOT
ATOM      1  C   UNL     1     -35.077  17.310  17.825  1.00  0.00     0.000 C 
ENDROOT
BRANCH   1   2
ATOM      2  C   UNL     1     -34.712  16.096  16.950  1.00  0.00     0.000 C 
BRANCH   2   3
ATOM      3  C   UNL     1     -34.248  14.849  17.725  1.00  0.00     0.000 C 
BRANCH   3   4
ATOM      4  C   UNL     1     -33.513  13.831  16.842  1.00  0.00     0.006 C 
BRANCH   4   5
ATOM      5  C   UNL     1     -33.479  12.451  17.506  1.00  0.00     0.053 C 
BRANCH   5   6
ATOM      6  C   UNL     1     -32.758  12.518  18.815  1.00  0.00     0.041 C 
ATOM      7  O   UNL     1     -31.538  12.828  18.852  1.00  0.00    -0.550 OA
ATOM      8  O   UNL     1     -33.447  12.287  20.000  1.00  0.00    -0.550 OA
ENDBRANCH   5   6
ENDBRANCH   4   5
ENDBRANCH   3   4
ENDBRANCH   2   3
ENDBRANCH   1   2
BRANCH   1   9
ATOM      9  C   UNL     1     -36.570  17.672  17.753  1.00  0.00     0.000 C 
BRANCH   9  10
ATOM     10  C   UNL     1     -37.450  16.470  17.376  1.00  0.00    -0.000 C 
BRANCH  10  11
ATOM     11  C   UNL     1     -38.386  16.043  18.520  1.00  0.00    -0.000 C 
BRANCH  11  12
ATOM     12  C   UNL     1     -39.854  16.410  18.250  1.00  0.00    -0.000 C 
BRANCH  12  13
ATOM     13  C   UNL     1     -40.003  17.530  17.209  1.00  0.00    -0.003 C 
ATOM     14  C   UNL     1     -41.125  17.216  16.223  1.00  0.00     0.004 C 
ENDBRANCH  12  13
ENDBRANCH  11  12
ENDBRANCH  10  11
ENDBRANCH   9  10
ENDBRANCH   1   9
TORSDOF 10
ENDMDL
MODEL 4
REMARK VINA RESULT:     5.918      3.184      6.817
REMARK INTER + INTRA:           9.182
REMARK INTER:                   9.446
REMARK INTRA:                  -0.264
REMARK UNBOUND:                -0.196
REMARK SMILES CCCCCCCCCCCC(=O)[O-]
REMARK SMILES IDX 7 1 8 2 9 3 10 4 11 5 12 6 13 7 14 8 6 9 5 10 4 11 3 12 2 13
REMARK SMILES IDX 1 14
REMARK H PARENT
REMARK Flexibility Score: inf
ROOT
ATOM      1  C   UNL     1     -34.192  15.022  17.732  1.00  0.00     0.000 C 
ENDROOT
BRANCH   1   2
ATOM      2  C   UNL     1     -34.763  16.081  16.771  1.00  0.00     0.000 C 
BRANCH   2   3
ATOM      3  C   UNL     1     -35.173  17.410  17.433  1.00  0.00     0.000 C 
BRANCH   3   4
ATOM      4  C   UNL     1     -36.685  17.520  17.673  1.00  0.00     0.006 C 
BRANCH   4   5
ATOM      5  C   UNL     1     -37.350  16.141  17.620  1.00  0.00     0.053 C 
BRANCH   5   6
ATOM      6  C   UNL     1     -38.724  16.200  18.210  1.00  0.00     0.041 C 
ATOM      7  O   UNL     1     -38.995  15.544  19.250  1.00  0.00    -0.550 OA
ATOM      8  O   UNL     1     -39.691  17.018  17.639  1.00  0.00    -0.550 OA
ENDBRANCH   5   6
ENDBRANCH   4   5
ENDBRANCH   3   4
ENDBRANCH   2   3
ENDBRANCH   1   2
BRANCH   1   9
ATOM      9  C   UNL     1     -33.666  13.773  17.003  1.00  0.00     0.000 C 
BRANCH   9  10
ATOM     10  C   UNL     1     -33.108  12.718  17.970  1.00  0.00    -0.000 C 
BRANCH  10  11
ATOM     11  C   UNL     1     -31.575  12.778  18.089  1.00  0.00    -0.000 C 
BRANCH  11  12
ATOM     12  C   UNL     1     -30.906  13.333  16.821  1.00  0.00    -0.000 C 
BRANCH  12  13
ATOM     13  C   UNL     1     -29.383  13.135  16.820  1.00  0.00    -0.003 C 
ATOM     14  C   UNL     1     -28.711  14.056  15.805  1.00  0.00     0.004 C 
ENDBRANCH  12  13
ENDBRANCH  11  12
ENDBRANCH  10  11
ENDBRANCH   9  10
ENDBRANCH   1   9
TORSDOF 10
ENDMDL
MODEL 5
REMARK VINA RESULT:     6.516      3.186      7.154
REMARK INTER + INTRA:          10.129
REMARK INTER:                  10.407
REMARK INTRA:                  -0.278
REMARK UNBOUND:                -0.196
REMARK SMILES CCCCCCCCCCCC(=O)[O-]
REMARK SMILES IDX 7 1 8 2 9 3 10 4 11 5 12 6 13 7 14 8 6 9 5 10 4 11 3 12 2 13
REMARK SMILES IDX 1 14
REMARK H PARENT
REMARK Flexibility Score: inf
ROOT
ATOM      1  C   UNL     1     -33.174  12.955  18.971  1.00  0.00     0.000 C 
ENDROOT
BRANCH   1   2
ATOM      2  C   UNL     1     -32.922  13.106  17.459  1.00  0.00     0.000 C 
BRANCH   2   3
ATOM      3  C   UNL     1     -33.933  13.998  16.714  1.00  0.00     0.000 C 
BRANCH   3   4
ATOM      4  C   UNL     1     -34.369  15.223  17.530  1.00  0.00     0.006 C 
BRANCH   4   5
ATOM      5  C   UNL     1     -35.125  16.225  16.653  1.00  0.00     0.053 C 
BRANCH   5   6
ATOM      6  C   UNL     1     -35.771  17.277  17.498  1.00  0.00     0.041 C 
ATOM      7  O   UNL     1     -36.989  17.184  17.805  1.00  0.00    -0.550 OA
ATOM      8  O   UNL     1     -35.016  18.336  17.989  1.00  0.00    -0.550 OA
ENDBRANCH   5   6
ENDBRANCH   4   5
ENDBRANCH   3   4
ENDBRANCH   2   3
ENDBRANCH   1   2
BRANCH   1   9
ATOM      9  C   UNL     1     -33.185  11.488  19.432  1.00  0.00     0.000 C 
BRANCH   9  10
ATOM     10  C   UNL     1     -33.746  11.322  20.854  1.00  0.00    -0.000 C 
BRANCH  10  11
ATOM     11  C   UNL     1     -34.363   9.932  21.085  1.00  0.00    -0.000 C 
BRANCH  11  12
ATOM     12  C   UNL     1     -33.536   9.072  22.054  1.00  0.00    -0.000 C 
BRANCH  12  13
ATOM     13  C   UNL     1     -34.075   7.639  22.181  1.00  0.00    -0.003 C 
ATOM     14  C   UNL     1     -34.550   7.356  23.603  1.00  0.00     0.004 C 
ENDBRANCH  12  13
ENDBRANCH  11  12
ENDBRANCH  10  11
ENDBRANCH   9  10
ENDBRANCH   1   9
TORSDOF 10
ENDMDL
MODEL 6
REMARK VINA RESULT:     6.810      2.805      6.104
REMARK INTER + INTRA:          10.596
REMARK INTER:                  11.162
REMARK INTRA:                  -0.567
REMARK UNBOUND:                -0.196
REMARK SMILES CCCCCCCCCCCC(=O)[O-]
REMARK SMILES IDX 7 1 8 2 9 3 10 4 11 5 12 6 13 7 14 8 6 9 5 10 4 11 3 12 2 13
REMARK SMILES IDX 1 14
REMARK H PARENT
REMARK Flexibility Score: inf
ROOT
ATOM      1  C   UNL     1     -33.448  13.621  16.672  1.00  0.00     0.000 C 
ENDROOT
BRANCH   1   2
ATOM      2  C   UNL     1     -34.412  14.523  17.465  1.00  0.00     0.000 C 
BRANCH   2   3
ATOM      3  C   UNL     1     -34.484  15.984  16.983  1.00  0.00     0.000 C 
BRANCH   3   4
ATOM      4  C   UNL     1     -35.918  16.447  16.686  1.00  0.00     0.006 C 
BRANCH   4   5
ATOM      5  C   UNL     1     -36.584  17.010  17.946  1.00  0.00     0.053 C 
BRANCH   5   6
ATOM      6  C   UNL     1     -38.024  16.609  18.000  1.00  0.00     0.041 C 
ATOM      7  O   UNL     1     -38.418  15.774  18.857  1.00  0.00    -0.550 OA
ATOM      8  O   UNL     1     -38.942  17.195  17.137  1.00  0.00    -0.550 OA
ENDBRANCH   5   6
ENDBRANCH   4   5
ENDBRANCH   3   4
ENDBRANCH   2   3
ENDBRANCH   1   2
BRANCH   1   9
ATOM      9  C   UNL     1     -32.337  13.016  17.547  1.00  0.00     0.000 C 
BRANCH   9  10
ATOM     10  C   UNL     1     -32.776  12.824  19.007  1.00  0.00    -0.000 C 
BRANCH  10  11
ATOM     11  C   UNL     1     -33.311  11.407  19.280  1.00  0.00    -0.000 C 
BRANCH  11  12
ATOM     12  C   UNL     1     -33.870  11.250  20.703  1.00  0.00    -0.000 C 
BRANCH  12  13
ATOM     13  C   UNL     1     -33.954  12.586  21.457  1.00  0.00    -0.003 C 
ATOM     14  C   UNL     1     -34.296  12.366  22.927  1.00  0.00     0.004 C 
ENDBRANCH  12  13
ENDBRANCH  11  12
ENDBRANCH  10  11
ENDBRANCH   9  10
ENDBRANCH   1   9
TORSDOF 10
ENDMDL
