MODEL 1
REMARK VINA RESULT:    -5.392      0.000      0.000
REMARK INTER + INTRA:          -6.424
REMARK INTER:                  -6.180
REMARK INTRA:                  -0.244
REMARK UNBOUND:                -0.244
REMARK SMILES COC(=O)c1ccccc1O
REMARK SMILES IDX 5 1 6 2 7 3 8 4 9 5 10 6 3 7 4 8 2 9 1 10 11 11
REMARK H PARENT 11 12
REMARK Flexibility Score: inf
ROOT
ATOM      1  C   UNL     1      19.080 -10.180  67.844  1.00  0.00     0.101 A 
ATOM      2  C   UNL     1      17.690 -10.275  67.640  1.00  0.00     0.019 A 
ATOM      3  C   UNL     1      17.145 -10.104  66.365  1.00  0.00     0.001 A 
ATOM      4  C   UNL     1      17.975  -9.840  65.278  1.00  0.00     0.004 A 
ATOM      5  C   UNL     1      19.357  -9.764  65.458  1.00  0.00     0.047 A 
ATOM      6  C   UNL     1      19.924  -9.952  66.726  1.00  0.00     0.130 A 
ENDROOT
BRANCH   1   7
ATOM      7  C   UNL     1      19.594 -10.292  69.227  1.00  0.00     0.341 C 
ATOM      8  O   UNL     1      19.304  -9.419  70.089  1.00  0.00    -0.246 OA
BRANCH   7   9
ATOM      9  O   UNL     1      20.356 -11.409  69.588  1.00  0.00    -0.465 OA
ATOM     10  C   UNL     1      19.826 -12.728  69.600  1.00  0.00     0.282 C 
ENDBRANCH   7   9
ENDBRANCH   1   7
BRANCH   6  11
ATOM     11  O   UNL     1      21.317  -9.940  66.823  1.00  0.00    -0.507 OA
ATOM     12  H   UNL     1      21.932 -10.086  66.035  1.00  0.00     0.293 HD
ENDBRANCH   6  11
TORSDOF 3
ENDMDL
MODEL 2
REMARK VINA RESULT:    -5.195      1.668      2.498
REMARK INTER + INTRA:          -6.198
REMARK INTER:                  -5.868
REMARK INTRA:                  -0.330
REMARK UNBOUND:                -0.244
REMARK SMILES COC(=O)c1ccccc1O
REMARK SMILES IDX 5 1 6 2 7 3 8 4 9 5 10 6 3 7 4 8 2 9 1 10 11 11
REMARK H PARENT 11 12
REMARK Flexibility Score: inf
ROOT
ATOM      1  C   UNL     1      18.739 -11.812  69.008  1.00  0.00     0.101 A 
ATOM      2  C   UNL     1      17.936 -12.454  68.048  1.00  0.00     0.019 A 
ATOM      3  C   UNL     1      17.296 -11.719  67.047  1.00  0.00     0.001 A 
ATOM      4  C   UNL     1      17.450 -10.335  66.990  1.00  0.00     0.004 A 
ATOM      5  C   UNL     1      18.260  -9.684  67.921  1.00  0.00     0.047 A 
ATOM      6  C   UNL     1      18.926 -10.408  68.919  1.00  0.00     0.130 A 
ENDROOT
BRANCH   1   7
ATOM      7  C   UNL     1      19.328 -12.631  70.090  1.00  0.00     0.341 C 
ATOM      8  O   UNL     1      18.599 -13.385  70.791  1.00  0.00    -0.246 OA
BRANCH   7   9
ATOM      9  O   UNL     1      20.713 -12.611  70.292  1.00  0.00    -0.465 OA
ATOM     10  C   UNL     1      21.631 -13.180  69.367  1.00  0.00     0.282 C 
ENDBRANCH   7   9
ENDBRANCH   1   7
BRANCH   6  11
ATOM     11  O   UNL     1      19.781  -9.705  69.770  1.00  0.00    -0.507 OA
ATOM     12  H   UNL     1      20.009  -8.728  69.649  1.00  0.00     0.293 HD
ENDBRANCH   6  11
TORSDOF 3
ENDMDL
MODEL 3
REMARK VINA RESULT:    -4.925      1.457      2.242
REMARK INTER + INTRA:          -5.889
REMARK INTER:                  -5.570
REMARK INTRA:                  -0.319
REMARK UNBOUND:                -0.244
REMARK SMILES COC(=O)c1ccccc1O
REMARK SMILES IDX 5 1 6 2 7 3 8 4 9 5 10 6 3 7 4 8 2 9 1 10 11 11
REMARK H PARENT 11 12
REMARK Flexibility Score: inf
ROOT
ATOM      1  C   UNL     1      18.735 -10.838  68.109  1.00  0.00     0.101 A 
ATOM      2  C   UNL     1      18.994  -9.867  67.124  1.00  0.00     0.019 A 
ATOM      3  C   UNL     1      18.431  -9.978  65.850  1.00  0.00     0.001 A 
ATOM      4  C   UNL     1      17.604 -11.056  65.542  1.00  0.00     0.004 A 
ATOM      5  C   UNL     1      17.319 -12.017  66.513  1.00  0.00     0.047 A 
ATOM      6  C   UNL     1      17.858 -11.911  67.803  1.00  0.00     0.130 A 
ENDROOT
BRANCH   1   7
ATOM      7  C   UNL     1      19.419 -10.710  69.415  1.00  0.00     0.341 C 
ATOM      8  O   UNL     1      19.446  -9.603  70.017  1.00  0.00    -0.246 OA
BRANCH   7   9
ATOM      9  O   UNL     1      19.985 -11.844  70.009  1.00  0.00    -0.465 OA
ATOM     10  C   UNL     1      21.014 -12.602  69.386  1.00  0.00     0.282 C 
ENDBRANCH   7   9
ENDBRANCH   1   7
BRANCH   6  11
ATOM     11  O   UNL     1      17.471 -12.863  68.748  1.00  0.00    -0.507 OA
ATOM     12  H   UNL     1      16.942 -13.692  68.520  1.00  0.00     0.293 HD
ENDBRANCH   6  11
TORSDOF 3
ENDMDL
MODEL 4
REMARK VINA RESULT:    -4.857      2.033      2.936
REMARK INTER + INTRA:          -5.811
REMARK INTER:                  -5.495
REMARK INTRA:                  -0.316
REMARK UNBOUND:                -0.244
REMARK SMILES COC(=O)c1ccccc1O
REMARK SMILES IDX 5 1 6 2 7 3 8 4 9 5 10 6 3 7 4 8 2 9 1 10 11 11
REMARK H PARENT 11 12
REMARK Flexibility Score: inf
ROOT
ATOM      1  C   UNL     1      18.811 -11.719  69.004  1.00  0.00     0.101 A 
ATOM      2  C   UNL     1      19.225 -10.379  68.889  1.00  0.00     0.019 A 
ATOM      3  C   UNL     1      18.716  -9.562  67.876  1.00  0.00     0.001 A 
ATOM      4  C   UNL     1      17.789 -10.069  66.968  1.00  0.00     0.004 A 
ATOM      5  C   UNL     1      17.351 -11.390  67.081  1.00  0.00     0.047 A 
ATOM      6  C   UNL     1      17.835 -12.217  68.103  1.00  0.00     0.130 A 
ENDROOT
BRANCH   1   7
ATOM      7  C   UNL     1      19.441 -12.559  70.048  1.00  0.00     0.341 C 
ATOM      8  O   UNL     1      18.740 -13.328  70.758  1.00  0.00    -0.246 OA
BRANCH   7   9
ATOM      9  O   UNL     1      20.832 -12.537  70.201  1.00  0.00    -0.465 OA
ATOM     10  C   UNL     1      21.706 -13.297  69.376  1.00  0.00     0.282 C 
ENDBRANCH   7   9
ENDBRANCH   1   7
BRANCH   6  11
ATOM     11  O   UNL     1      17.299 -13.502  68.206  1.00  0.00    -0.507 OA
ATOM     12  H   UNL     1      17.531 -14.256  67.576  1.00  0.00     0.293 HD
ENDBRANCH   6  11
TORSDOF 3
ENDMDL
MODEL 5
REMARK VINA RESULT:    -4.792     15.967     17.272
REMARK INTER + INTRA:          -5.736
REMARK INTER:                  -5.403
REMARK INTRA:                  -0.333
REMARK UNBOUND:                -0.244
REMARK SMILES COC(=O)c1ccccc1O
REMARK SMILES IDX 5 1 6 2 7 3 8 4 9 5 10 6 3 7 4 8 2 9 1 10 11 11
REMARK H PARENT 11 12
REMARK Flexibility Score: inf
ROOT
ATOM      1  C   UNL     1       6.258  -9.156  56.373  1.00  0.00     0.101 A 
ATOM      2  C   UNL     1       5.630  -8.030  55.807  1.00  0.00     0.019 A 
ATOM      3  C   UNL     1       5.247  -6.951  56.608  1.00  0.00     0.001 A 
ATOM      4  C   UNL     1       5.486  -6.980  57.980  1.00  0.00     0.004 A 
ATOM      5  C   UNL     1       6.127  -8.078  58.555  1.00  0.00     0.047 A 
ATOM      6  C   UNL     1       6.536  -9.160  57.764  1.00  0.00     0.130 A 
ENDROOT
BRANCH   1   7
ATOM      7  C   UNL     1       6.571 -10.301  55.489  1.00  0.00     0.341 C 
ATOM      8  O   UNL     1       5.670 -10.826  54.780  1.00  0.00    -0.246 OA
BRANCH   7   9
ATOM      9  O   UNL     1       7.890 -10.759  55.399  1.00  0.00    -0.465 OA
ATOM     10  C   UNL     1       8.976  -9.907  55.056  1.00  0.00     0.282 C 
ENDBRANCH   7   9
ENDBRANCH   1   7
BRANCH   6  11
ATOM     11  O   UNL     1       7.240 -10.192  58.389  1.00  0.00    -0.507 OA
ATOM     12  H   UNL     1       7.178 -10.390  59.377  1.00  0.00     0.293 HD
ENDBRANCH   6  11
TORSDOF 3
ENDMDL
MODEL 6
REMARK VINA RESULT:    -4.713      2.894      4.911
REMARK INTER + INTRA:          -5.645
REMARK INTER:                  -5.342
REMARK INTRA:                  -0.304
REMARK UNBOUND:                -0.244
REMARK SMILES COC(=O)c1ccccc1O
REMARK SMILES IDX 5 1 6 2 7 3 8 4 9 5 10 6 3 7 4 8 2 9 1 10 11 11
REMARK H PARENT 11 12
REMARK Flexibility Score: inf
ROOT
ATOM      1  C   UNL     1      17.950 -12.356  68.069  1.00  0.00     0.101 A 
ATOM      2  C   UNL     1      19.273 -11.911  67.884  1.00  0.00     0.019 A 
ATOM      3  C   UNL     1      20.268 -12.232  68.811  1.00  0.00     0.001 A 
ATOM      4  C   UNL     1      19.958 -13.001  69.932  1.00  0.00     0.004 A 
ATOM      5  C   UNL     1      18.657 -13.468  70.120  1.00  0.00     0.047 A 
ATOM      6  C   UNL     1      17.651 -13.173  69.190  1.00  0.00     0.130 A 
ENDROOT
BRANCH   1   7
ATOM      7  C   UNL     1      16.923 -11.920  67.097  1.00  0.00     0.341 C 
ATOM      8  O   UNL     1      15.772 -11.589  67.489  1.00  0.00    -0.246 OA
BRANCH   7   9
ATOM      9  O   UNL     1      17.258 -11.821  65.742  1.00  0.00    -0.465 OA
ATOM     10  C   UNL     1      17.177 -10.600  65.019  1.00  0.00     0.282 C 
ENDBRANCH   7   9
ENDBRANCH   1   7
BRANCH   6  11
ATOM     11  O   UNL     1      16.390 -13.736  69.397  1.00  0.00    -0.507 OA
ATOM     12  H   UNL     1      15.942 -13.783  70.301  1.00  0.00     0.293 HD
ENDBRANCH   6  11
TORSDOF 3
ENDMDL
MODEL 7
REMARK VINA RESULT:    -4.712     16.271     17.503
REMARK INTER + INTRA:          -5.644
REMARK INTER:                  -5.325
REMARK INTRA:                  -0.319
REMARK UNBOUND:                -0.244
REMARK SMILES COC(=O)c1ccccc1O
REMARK SMILES IDX 5 1 6 2 7 3 8 4 9 5 10 6 3 7 4 8 2 9 1 10 11 11
REMARK H PARENT 11 12
REMARK Flexibility Score: inf
ROOT
ATOM      1  C   UNL     1       6.289  -9.186  56.341  1.00  0.00     0.101 A 
ATOM      2  C   UNL     1       6.362  -9.307  57.741  1.00  0.00     0.019 A 
ATOM      3  C   UNL     1       6.078  -8.216  58.566  1.00  0.00     0.001 A 
ATOM      4  C   UNL     1       5.716  -6.992  58.007  1.00  0.00     0.004 A 
ATOM      5  C   UNL     1       5.617  -6.860  56.621  1.00  0.00     0.047 A 
ATOM      6  C   UNL     1       5.879  -7.950  55.779  1.00  0.00     0.130 A 
ENDROOT
BRANCH   1   7
ATOM      7  C   UNL     1       6.676 -10.353  55.517  1.00  0.00     0.341 C 
ATOM      8  O   UNL     1       5.886 -10.813  54.649  1.00  0.00    -0.246 OA
BRANCH   7   9
ATOM      9  O   UNL     1       7.953 -10.906  55.665  1.00  0.00    -0.465 OA
ATOM     10  C   UNL     1       9.138 -10.205  55.308  1.00  0.00     0.282 C 
ENDBRANCH   7   9
ENDBRANCH   1   7
BRANCH   6  11
ATOM     11  O   UNL     1       5.687  -7.771  54.408  1.00  0.00    -0.507 OA
ATOM     12  H   UNL     1       6.050  -6.983  53.892  1.00  0.00     0.293 HD
ENDBRANCH   6  11
TORSDOF 3
ENDMDL
MODEL 8
REMARK VINA RESULT:    -4.620      1.933      3.874
REMARK INTER + INTRA:          -5.539
REMARK INTER:                  -5.195
REMARK INTRA:                  -0.344
REMARK UNBOUND:                -0.244
REMARK SMILES COC(=O)c1ccccc1O
REMARK SMILES IDX 5 1 6 2 7 3 8 4 9 5 10 6 3 7 4 8 2 9 1 10 11 11
REMARK H PARENT 11 12
REMARK Flexibility Score: inf
ROOT
ATOM      1  C   UNL     1      18.398 -11.533  68.084  1.00  0.00     0.101 A 
ATOM      2  C   UNL     1      17.854 -12.716  67.551  1.00  0.00     0.019 A 
ATOM      3  C   UNL     1      18.148 -13.956  68.123  1.00  0.00     0.001 A 
ATOM      4  C   UNL     1      18.987 -14.032  69.234  1.00  0.00     0.004 A 
ATOM      5  C   UNL     1      19.518 -12.867  69.789  1.00  0.00     0.047 A 
ATOM      6  C   UNL     1      19.217 -11.613  69.240  1.00  0.00     0.130 A 
ENDROOT
BRANCH   1   7
ATOM      7  C   UNL     1      18.114 -10.257  67.390  1.00  0.00     0.341 C 
ATOM      8  O   UNL     1      16.930  -9.936  67.102  1.00  0.00    -0.246 OA
BRANCH   7   9
ATOM      9  O   UNL     1      19.166  -9.378  67.109  1.00  0.00    -0.465 OA
ATOM     10  C   UNL     1      20.185  -9.679  66.163  1.00  0.00     0.282 C 
ENDBRANCH   7   9
ENDBRANCH   1   7
BRANCH   6  11
ATOM     11  O   UNL     1      19.718 -10.483  69.890  1.00  0.00    -0.507 OA
ATOM     12  H   UNL     1      20.107 -10.502  70.822  1.00  0.00     0.293 HD
ENDBRANCH   6  11
TORSDOF 3
ENDMDL
MODEL 9
REMARK VINA RESULT:    -4.394      3.588      4.979
REMARK INTER + INTRA:          -5.280
REMARK INTER:                  -4.986
REMARK INTRA:                  -0.294
REMARK UNBOUND:                -0.244
REMARK SMILES COC(=O)c1ccccc1O
REMARK SMILES IDX 5 1 6 2 7 3 8 4 9 5 10 6 3 7 4 8 2 9 1 10 11 11
REMARK H PARENT 11 12
REMARK Flexibility Score: inf
ROOT
ATOM      1  C   UNL     1      17.451 -10.291  64.606  1.00  0.00     0.101 A 
ATOM      2  C   UNL     1      16.977 -10.304  65.931  1.00  0.00     0.019 A 
ATOM      3  C   UNL     1      17.832 -10.011  66.996  1.00  0.00     0.001 A 
ATOM      4  C   UNL     1      19.168  -9.700  66.754  1.00  0.00     0.004 A 
ATOM      5  C   UNL     1      19.650  -9.660  65.445  1.00  0.00     0.047 A 
ATOM      6  C   UNL     1      18.802  -9.931  64.363  1.00  0.00     0.130 A 
ENDROOT
BRANCH   1   7
ATOM      7  C   UNL     1      16.520 -10.684  63.525  1.00  0.00     0.341 C 
ATOM      8  O   UNL     1      15.361 -10.192  63.469  1.00  0.00    -0.246 OA
BRANCH   7   9
ATOM      9  O   UNL     1      16.956 -11.564  62.529  1.00  0.00    -0.465 OA
ATOM     10  C   UNL     1      16.455 -12.889  62.402  1.00  0.00     0.282 C 
ENDBRANCH   7   9
ENDBRANCH   1   7
BRANCH   6  11
ATOM     11  O   UNL     1      19.328  -9.798  63.077  1.00  0.00    -0.507 OA
ATOM     12  H   UNL     1      20.217  -9.362  62.880  1.00  0.00     0.293 HD
ENDBRANCH   6  11
TORSDOF 3
ENDMDL
