MODEL 1
REMARK VINA RESULT:    -5.810      0.000      0.000
REMARK INTER + INTRA:         -11.588
REMARK INTER:                  -8.867
REMARK INTRA:                  -2.721
REMARK UNBOUND:                -2.721
REMARK SMILES CC(=O)CCC=C(C)CCC=C(C)CCC=C(C)C
REMARK SMILES IDX 10 1 11 2 12 3 13 4 14 5 15 6 16 7 18 8 17 9 19 10 9 11 7 12
REMARK SMILES IDX 6 13 8 14 5 15 4 16 2 17 3 18 1 19
REMARK H PARENT
REMARK Flexibility Score: inf
ROOT
ATOM      1  C   UNL     1     210.757 151.469 181.575  1.00  0.00     0.032 C 
ENDROOT
BRANCH   1   2
ATOM      2  C   UNL     1     210.771 152.257 182.861  1.00  0.00    -0.028 C 
ATOM      3  C   UNL     1     211.456 153.407 183.055  1.00  0.00    -0.077 C 
ATOM      4  C   UNL     1     211.415 154.041 184.422  1.00  0.00     0.039 C 
BRANCH   3   5
ATOM      5  C   UNL     1     212.232 154.102 181.950  1.00  0.00     0.034 C 
BRANCH   5   6
ATOM      6  C   UNL     1     213.700 154.334 182.338  1.00  0.00     0.032 C 
BRANCH   6   7
ATOM      7  C   UNL     1     214.480 153.041 182.387  1.00  0.00    -0.028 C 
ATOM      8  C   UNL     1     214.773 153.117 184.873  1.00  0.00     0.039 C 
ATOM      9  C   UNL     1     215.002 152.506 183.513  1.00  0.00    -0.080 C 
ATOM     10  C   UNL     1     215.793 151.225 183.435  1.00  0.00     0.039 C 
ENDBRANCH   6   7
ENDBRANCH   5   6
ENDBRANCH   3   5
ENDBRANCH   1   2
BRANCH   1  11
ATOM     11  C   UNL     1     211.871 150.415 181.573  1.00  0.00     0.034 C 
BRANCH  11  12
ATOM     12  C   UNL     1     212.811 150.632 180.408  1.00  0.00    -0.077 C 
ATOM     13  C   UNL     1     212.467 151.512 179.440  1.00  0.00    -0.028 C 
ATOM     14  C   UNL     1     214.119 149.876 180.371  1.00  0.00     0.039 C 
BRANCH  13  15
ATOM     15  C   UNL     1     213.294 151.798 178.212  1.00  0.00     0.035 C 
BRANCH  15  16
ATOM     16  C   UNL     1     213.932 153.188 178.297  1.00  0.00     0.079 C 
BRANCH  16  17
ATOM     17  C   UNL     1     212.934 154.255 177.931  1.00  0.00     0.130 C 
ATOM     18  O   UNL     1     212.145 154.052 177.021  1.00  0.00    -0.300 OA
ATOM     19  C   UNL     1     212.879 155.560 178.668  1.00  0.00     0.087 C 
ENDBRANCH  16  17
ENDBRANCH  15  16
ENDBRANCH  13  15
ENDBRANCH  11  12
ENDBRANCH   1  11
TORSDOF 9
ENDMDL
MODEL 2
REMARK VINA RESULT:    -5.777      1.726      2.236
REMARK INTER + INTRA:         -11.537
REMARK INTER:                  -8.746
REMARK INTRA:                  -2.792
REMARK UNBOUND:                -2.721
REMARK SMILES CC(=O)CCC=C(C)CCC=C(C)CCC=C(C)C
REMARK SMILES IDX 10 1 11 2 12 3 13 4 14 5 15 6 16 7 18 8 17 9 19 10 9 11 7 12
REMARK SMILES IDX 6 13 8 14 5 15 4 16 2 17 3 18 1 19
REMARK H PARENT
REMARK Flexibility Score: inf
ROOT
ATOM      1  C   UNL     1     211.444 151.423 182.593  1.00  0.00     0.032 C 
ENDROOT
BRANCH   1   2
ATOM      2  C   UNL     1     211.021 152.735 183.204  1.00  0.00    -0.028 C 
ATOM      3  C   UNL     1     211.800 153.838 183.282  1.00  0.00    -0.077 C 
ATOM      4  C   UNL     1     211.247 155.055 183.979  1.00  0.00     0.039 C 
BRANCH   3   5
ATOM      5  C   UNL     1     213.188 153.914 182.671  1.00  0.00     0.034 C 
BRANCH   5   6
ATOM      6  C   UNL     1     214.287 153.621 183.703  1.00  0.00     0.032 C 
BRANCH   6   7
ATOM      7  C   UNL     1     214.930 152.274 183.474  1.00  0.00    -0.028 C 
ATOM      8  C   UNL     1     213.737 151.190 185.391  1.00  0.00     0.039 C 
ATOM      9  C   UNL     1     214.723 151.185 184.250  1.00  0.00    -0.080 C 
ATOM     10  C   UNL     1     215.447 149.900 183.944  1.00  0.00     0.039 C 
ENDBRANCH   6   7
ENDBRANCH   5   6
ENDBRANCH   3   5
ENDBRANCH   1   2
BRANCH   1  11
ATOM     11  C   UNL     1     210.950 151.313 181.147  1.00  0.00     0.034 C 
BRANCH  11  12
ATOM     12  C   UNL     1     212.082 150.923 180.222  1.00  0.00    -0.077 C 
ATOM     13  C   UNL     1     213.161 150.289 180.734  1.00  0.00    -0.028 C 
ATOM     14  C   UNL     1     211.963 151.232 178.747  1.00  0.00     0.039 C 
BRANCH  13  15
ATOM     15  C   UNL     1     214.369 149.875 179.932  1.00  0.00     0.035 C 
BRANCH  15  16
ATOM     16  C   UNL     1     215.524 150.859 180.141  1.00  0.00     0.079 C 
BRANCH  16  17
ATOM     17  C   UNL     1     215.434 152.002 179.164  1.00  0.00     0.130 C 
ATOM     18  O   UNL     1     215.504 151.774 177.967  1.00  0.00    -0.300 OA
ATOM     19  C   UNL     1     215.248 153.415 179.629  1.00  0.00     0.087 C 
ENDBRANCH  16  17
ENDBRANCH  15  16
ENDBRANCH  13  15
ENDBRANCH  11  12
ENDBRANCH   1  11
TORSDOF 9
ENDMDL
MODEL 3
REMARK VINA RESULT:    -5.494      1.359      2.531
REMARK INTER + INTRA:         -11.106
REMARK INTER:                  -8.984
REMARK INTRA:                  -2.122
REMARK UNBOUND:                -2.721
REMARK SMILES CC(=O)CCC=C(C)CCC=C(C)CCC=C(C)C
REMARK SMILES IDX 10 1 11 2 12 3 13 4 14 5 15 6 16 7 18 8 17 9 19 10 9 11 7 12
REMARK SMILES IDX 6 13 8 14 5 15 4 16 2 17 3 18 1 19
REMARK H PARENT
REMARK Flexibility Score: inf
ROOT
ATOM      1  C   UNL     1     213.082 150.305 182.173  1.00  0.00     0.032 C 
ENDROOT
BRANCH   1   2
ATOM      2  C   UNL     1     211.646 150.228 181.718  1.00  0.00    -0.028 C 
ATOM      3  C   UNL     1     210.787 151.273 181.692  1.00  0.00    -0.077 C 
ATOM      4  C   UNL     1     209.364 151.016 181.267  1.00  0.00     0.039 C 
BRANCH   3   5
ATOM      5  C   UNL     1     211.202 152.692 182.037  1.00  0.00     0.034 C 
BRANCH   5   6
ATOM      6  C   UNL     1     210.974 153.012 183.522  1.00  0.00     0.032 C 
BRANCH   6   7
ATOM      7  C   UNL     1     212.243 152.873 184.329  1.00  0.00    -0.028 C 
ATOM      8  C   UNL     1     213.007 155.208 183.842  1.00  0.00     0.039 C 
ATOM      9  C   UNL     1     213.184 153.838 184.447  1.00  0.00    -0.080 C 
ATOM     10  C   UNL     1     214.429 153.573 185.254  1.00  0.00     0.039 C 
ENDBRANCH   6   7
ENDBRANCH   5   6
ENDBRANCH   3   5
ENDBRANCH   1   2
BRANCH   1  11
ATOM     11  C   UNL     1     214.035 150.242 180.974  1.00  0.00     0.034 C 
BRANCH  11  12
ATOM     12  C   UNL     1     214.293 151.626 180.422  1.00  0.00    -0.077 C 
ATOM     13  C   UNL     1     213.971 151.891 179.135  1.00  0.00    -0.028 C 
ATOM     14  C   UNL     1     214.883 152.679 181.330  1.00  0.00     0.039 C 
BRANCH  13  15
ATOM     15  C   UNL     1     214.205 153.214 178.451  1.00  0.00     0.035 C 
BRANCH  15  16
ATOM     16  C   UNL     1     212.905 153.753 177.847  1.00  0.00     0.079 C 
BRANCH  16  17
ATOM     17  C   UNL     1     212.603 155.132 178.374  1.00  0.00     0.130 C 
ATOM     18  O   UNL     1     211.849 155.860 177.749  1.00  0.00    -0.300 OA
ATOM     19  C   UNL     1     213.200 155.626 179.657  1.00  0.00     0.087 C 
ENDBRANCH  16  17
ENDBRANCH  15  16
ENDBRANCH  13  15
ENDBRANCH  11  12
ENDBRANCH   1  11
TORSDOF 9
ENDMDL
MODEL 4
REMARK VINA RESULT:    -5.429      1.846      3.387
REMARK INTER + INTRA:         -11.006
REMARK INTER:                  -8.882
REMARK INTRA:                  -2.123
REMARK UNBOUND:                -2.721
REMARK SMILES CC(=O)CCC=C(C)CCC=C(C)CCC=C(C)C
REMARK SMILES IDX 10 1 11 2 12 3 13 4 14 5 15 6 16 7 18 8 17 9 19 10 9 11 7 12
REMARK SMILES IDX 6 13 8 14 5 15 4 16 2 17 3 18 1 19
REMARK H PARENT
REMARK Flexibility Score: inf
ROOT
ATOM      1  C   UNL     1     214.228 149.875 182.638  1.00  0.00     0.032 C 
ENDROOT
BRANCH   1   2
ATOM      2  C   UNL     1     213.781 150.217 184.038  1.00  0.00    -0.028 C 
ATOM      3  C   UNL     1     214.124 151.344 184.704  1.00  0.00    -0.077 C 
ATOM      4  C   UNL     1     213.644 151.508 186.123  1.00  0.00     0.039 C 
BRANCH   3   5
ATOM      5  C   UNL     1     214.938 152.461 184.074  1.00  0.00     0.034 C 
BRANCH   5   6
ATOM      6  C   UNL     1     214.065 153.400 183.228  1.00  0.00     0.032 C 
BRANCH   6   7
ATOM      7  C   UNL     1     213.021 154.102 184.064  1.00  0.00    -0.028 C 
ATOM      8  C   UNL     1     211.120 152.789 183.096  1.00  0.00     0.039 C 
ATOM      9  C   UNL     1     211.691 153.866 183.984  1.00  0.00    -0.080 C 
ATOM     10  C   UNL     1     210.739 154.653 184.846  1.00  0.00     0.039 C 
ENDBRANCH   6   7
ENDBRANCH   5   6
ENDBRANCH   3   5
ENDBRANCH   1   2
BRANCH   1  11
ATOM     11  C   UNL     1     213.046 149.933 181.663  1.00  0.00     0.034 C 
BRANCH  11  12
ATOM     12  C   UNL     1     213.351 150.858 180.506  1.00  0.00    -0.077 C 
ATOM     13  C   UNL     1     214.632 151.233 180.284  1.00  0.00    -0.028 C 
ATOM     14  C   UNL     1     212.219 151.318 179.617  1.00  0.00     0.039 C 
BRANCH  13  15
ATOM     15  C   UNL     1     215.068 152.174 179.189  1.00  0.00     0.035 C 
BRANCH  15  16
ATOM     16  C   UNL     1     215.638 151.396 177.999  1.00  0.00     0.079 C 
BRANCH  16  17
ATOM     17  C   UNL     1     214.837 151.668 176.752  1.00  0.00     0.130 C 
ATOM     18  O   UNL     1     215.070 151.030 175.738  1.00  0.00    -0.300 OA
ATOM     19  C   UNL     1     213.747 152.699 176.732  1.00  0.00     0.087 C 
ENDBRANCH  16  17
ENDBRANCH  15  16
ENDBRANCH  13  15
ENDBRANCH  11  12
ENDBRANCH   1  11
TORSDOF 9
ENDMDL
MODEL 5
REMARK VINA RESULT:    -5.413      2.171      5.087
REMARK INTER + INTRA:         -10.981
REMARK INTER:                  -8.685
REMARK INTRA:                  -2.296
REMARK UNBOUND:                -2.721
REMARK SMILES CC(=O)CCC=C(C)CCC=C(C)CCC=C(C)C
REMARK SMILES IDX 10 1 11 2 12 3 13 4 14 5 15 6 16 7 18 8 17 9 19 10 9 11 7 12
REMARK SMILES IDX 6 13 8 14 5 15 4 16 2 17 3 18 1 19
REMARK H PARENT
REMARK Flexibility Score: inf
ROOT
ATOM      1  C   UNL     1     212.018 151.140 180.360  1.00  0.00     0.032 C 
ENDROOT
BRANCH   1   2
ATOM      2  C   UNL     1     213.348 150.457 180.159  1.00  0.00    -0.028 C 
ATOM      3  C   UNL     1     214.552 151.063 180.271  1.00  0.00    -0.077 C 
ATOM      4  C   UNL     1     215.789 150.253 179.978  1.00  0.00     0.039 C 
BRANCH   3   5
ATOM      5  C   UNL     1     214.712 152.507 180.713  1.00  0.00     0.034 C 
BRANCH   5   6
ATOM      6  C   UNL     1     215.073 153.430 179.539  1.00  0.00     0.032 C 
BRANCH   6   7
ATOM      7  C   UNL     1     213.849 153.872 178.773  1.00  0.00    -0.028 C 
ATOM      8  C   UNL     1     214.258 152.290 176.875  1.00  0.00     0.039 C 
ATOM      9  C   UNL     1     213.495 153.398 177.557  1.00  0.00    -0.080 C 
ATOM     10  C   UNL     1     212.267 153.940 176.872  1.00  0.00     0.039 C 
ENDBRANCH   6   7
ENDBRANCH   5   6
ENDBRANCH   3   5
ENDBRANCH   1   2
BRANCH   1  11
ATOM     11  C   UNL     1     211.354 150.661 181.655  1.00  0.00     0.034 C 
BRANCH  11  12
ATOM     12  C   UNL     1     211.888 151.425 182.846  1.00  0.00    -0.077 C 
ATOM     13  C   UNL     1     211.346 152.626 183.154  1.00  0.00    -0.028 C 
ATOM     14  C   UNL     1     212.996 150.814 183.672  1.00  0.00     0.039 C 
BRANCH  13  15
ATOM     15  C   UNL     1     211.805 153.504 184.291  1.00  0.00     0.035 C 
BRANCH  15  16
ATOM     16  C   UNL     1     212.929 154.440 183.836  1.00  0.00     0.079 C 
BRANCH  16  17
ATOM     17  C   UNL     1     212.383 155.549 182.974  1.00  0.00     0.130 C 
ATOM     18  O   UNL     1     211.400 156.170 183.348  1.00  0.00    -0.300 OA
ATOM     19  C   UNL     1     213.028 155.916 181.671  1.00  0.00     0.087 C 
ENDBRANCH  16  17
ENDBRANCH  15  16
ENDBRANCH  13  15
ENDBRANCH  11  12
ENDBRANCH   1  11
TORSDOF 9
ENDMDL
MODEL 6
REMARK VINA RESULT:    -5.366      1.462      2.308
REMARK INTER + INTRA:         -10.911
REMARK INTER:                  -8.380
REMARK INTRA:                  -2.531
REMARK UNBOUND:                -2.721
REMARK SMILES CC(=O)CCC=C(C)CCC=C(C)CCC=C(C)C
REMARK SMILES IDX 10 1 11 2 12 3 13 4 14 5 15 6 16 7 18 8 17 9 19 10 9 11 7 12
REMARK SMILES IDX 6 13 8 14 5 15 4 16 2 17 3 18 1 19
REMARK H PARENT
REMARK Flexibility Score: inf
ROOT
ATOM      1  C   UNL     1     211.162 152.317 183.233  1.00  0.00     0.032 C 
ENDROOT
BRANCH   1   2
ATOM      2  C   UNL     1     211.616 153.729 183.506  1.00  0.00    -0.028 C 
ATOM      3  C   UNL     1     212.610 154.069 184.359  1.00  0.00    -0.077 C 
ATOM      4  C   UNL     1     212.902 155.533 184.567  1.00  0.00     0.039 C 
BRANCH   3   5
ATOM      5  C   UNL     1     213.463 153.043 185.084  1.00  0.00     0.034 C 
BRANCH   5   6
ATOM      6  C   UNL     1     214.931 153.098 184.636  1.00  0.00     0.032 C 
BRANCH   6   7
ATOM      7  C   UNL     1     215.325 151.874 183.844  1.00  0.00    -0.028 C 
ATOM      8  C   UNL     1     214.905 152.965 181.629  1.00  0.00     0.039 C 
ATOM      9  C   UNL     1     215.278 151.788 182.495  1.00  0.00    -0.080 C 
ATOM     10  C   UNL     1     215.664 150.500 181.814  1.00  0.00     0.039 C 
ENDBRANCH   6   7
ENDBRANCH   5   6
ENDBRANCH   3   5
ENDBRANCH   1   2
BRANCH   1  11
ATOM     11  C   UNL     1     210.771 152.149 181.760  1.00  0.00     0.034 C 
BRANCH  11  12
ATOM     12  C   UNL     1     211.661 151.132 181.082  1.00  0.00    -0.077 C 
ATOM     13  C   UNL     1     212.074 151.361 179.814  1.00  0.00    -0.028 C 
ATOM     14  C   UNL     1     212.084 149.901 181.849  1.00  0.00     0.039 C 
BRANCH  13  15
ATOM     15  C   UNL     1     212.934 150.417 179.012  1.00  0.00     0.035 C 
BRANCH  15  16
ATOM     16  C   UNL     1     214.187 151.129 178.494  1.00  0.00     0.079 C 
BRANCH  16  17
ATOM     17  C   UNL     1     213.813 152.355 177.701  1.00  0.00     0.130 C 
ATOM     18  O   UNL     1     214.085 153.460 178.142  1.00  0.00    -0.300 OA
ATOM     19  C   UNL     1     213.125 152.247 176.373  1.00  0.00     0.087 C 
ENDBRANCH  16  17
ENDBRANCH  15  16
ENDBRANCH  13  15
ENDBRANCH  11  12
ENDBRANCH   1  11
TORSDOF 9
ENDMDL
MODEL 7
REMARK VINA RESULT:    -5.353      1.740      3.639
REMARK INTER + INTRA:         -10.890
REMARK INTER:                  -8.376
REMARK INTRA:                  -2.514
REMARK UNBOUND:                -2.721
REMARK SMILES CC(=O)CCC=C(C)CCC=C(C)CCC=C(C)C
REMARK SMILES IDX 10 1 11 2 12 3 13 4 14 5 15 6 16 7 18 8 17 9 19 10 9 11 7 12
REMARK SMILES IDX 6 13 8 14 5 15 4 16 2 17 3 18 1 19
REMARK H PARENT
REMARK Flexibility Score: inf
ROOT
ATOM      1  C   UNL     1     211.332 152.856 183.504  1.00  0.00     0.032 C 
ENDROOT
BRANCH   1   2
ATOM      2  C   UNL     1     211.440 154.347 183.303  1.00  0.00    -0.028 C 
ATOM      3  C   UNL     1     212.542 154.986 182.845  1.00  0.00    -0.077 C 
ATOM      4  C   UNL     1     212.509 156.491 182.758  1.00  0.00     0.039 C 
BRANCH   3   5
ATOM      5  C   UNL     1     213.790 154.254 182.384  1.00  0.00     0.034 C 
BRANCH   5   6
ATOM      6  C   UNL     1     214.388 154.883 181.116  1.00  0.00     0.032 C 
BRANCH   6   7
ATOM      7  C   UNL     1     213.623 154.488 179.876  1.00  0.00    -0.028 C 
ATOM      8  C   UNL     1     213.267 156.854 179.137  1.00  0.00     0.039 C 
ATOM      9  C   UNL     1     213.078 155.364 179.001  1.00  0.00    -0.080 C 
ATOM     10  C   UNL     1     212.305 154.852 177.814  1.00  0.00     0.039 C 
ENDBRANCH   6   7
ENDBRANCH   5   6
ENDBRANCH   3   5
ENDBRANCH   1   2
BRANCH   1  11
ATOM     11  C   UNL     1     210.763 152.180 182.252  1.00  0.00     0.034 C 
BRANCH  11  12
ATOM     12  C   UNL     1     211.818 151.338 181.571  1.00  0.00    -0.077 C 
ATOM     13  C   UNL     1     211.898 151.348 180.220  1.00  0.00    -0.028 C 
ATOM     14  C   UNL     1     212.770 150.527 182.420  1.00  0.00     0.039 C 
BRANCH  13  15
ATOM     15  C   UNL     1     212.879 150.533 179.416  1.00  0.00     0.035 C 
BRANCH  15  16
ATOM     16  C   UNL     1     213.252 151.256 178.118  1.00  0.00     0.079 C 
BRANCH  16  17
ATOM     17  C   UNL     1     214.744 151.445 178.025  1.00  0.00     0.130 C 
ATOM     18  O   UNL     1     215.246 151.727 176.948  1.00  0.00    -0.300 OA
ATOM     19  C   UNL     1     215.627 151.308 179.229  1.00  0.00     0.087 C 
ENDBRANCH  16  17
ENDBRANCH  15  16
ENDBRANCH  13  15
ENDBRANCH  11  12
ENDBRANCH   1  11
TORSDOF 9
ENDMDL
MODEL 8
REMARK VINA RESULT:    -5.332      1.608      3.947
REMARK INTER + INTRA:         -10.858
REMARK INTER:                  -8.349
REMARK INTRA:                  -2.509
REMARK UNBOUND:                -2.721
REMARK SMILES CC(=O)CCC=C(C)CCC=C(C)CCC=C(C)C
REMARK SMILES IDX 10 1 11 2 12 3 13 4 14 5 15 6 16 7 18 8 17 9 19 10 9 11 7 12
REMARK SMILES IDX 6 13 8 14 5 15 4 16 2 17 3 18 1 19
REMARK H PARENT
REMARK Flexibility Score: inf
ROOT
ATOM      1  C   UNL     1     211.895 153.277 184.135  1.00  0.00     0.032 C 
ENDROOT
BRANCH   1   2
ATOM      2  C   UNL     1     210.911 152.716 183.139  1.00  0.00    -0.028 C 
ATOM      3  C   UNL     1     211.117 151.608 182.391  1.00  0.00    -0.077 C 
ATOM      4  C   UNL     1     210.057 151.213 181.394  1.00  0.00     0.039 C 
BRANCH   3   5
ATOM      5  C   UNL     1     212.347 150.729 182.536  1.00  0.00     0.034 C 
BRANCH   5   6
ATOM      6  C   UNL     1     212.751 150.082 181.203  1.00  0.00     0.032 C 
BRANCH   6   7
ATOM      7  C   UNL     1     213.982 150.730 180.614  1.00  0.00    -0.028 C 
ATOM      8  C   UNL     1     212.698 151.952 178.845  1.00  0.00     0.039 C 
ATOM      9  C   UNL     1     213.976 151.539 179.530  1.00  0.00    -0.080 C 
ATOM     10  C   UNL     1     215.273 152.102 179.011  1.00  0.00     0.039 C 
ENDBRANCH   6   7
ENDBRANCH   5   6
ENDBRANCH   3   5
ENDBRANCH   1   2
BRANCH   1  11
ATOM     11  C   UNL     1     212.376 154.665 183.699  1.00  0.00     0.034 C 
BRANCH  11  12
ATOM     12  C   UNL     1     213.302 154.562 182.509  1.00  0.00    -0.077 C 
ATOM     13  C   UNL     1     213.049 155.313 181.412  1.00  0.00    -0.028 C 
ATOM     14  C   UNL     1     214.499 153.642 182.588  1.00  0.00     0.039 C 
BRANCH  13  15
ATOM     15  C   UNL     1     213.872 155.282 180.148  1.00  0.00     0.035 C 
BRANCH  15  16
ATOM     16  C   UNL     1     213.046 155.760 178.950  1.00  0.00     0.079 C 
BRANCH  16  17
ATOM     17  C   UNL     1     212.846 157.253 179.002  1.00  0.00     0.130 C 
ATOM     18  O   UNL     1     211.720 157.711 178.889  1.00  0.00    -0.300 OA
ATOM     19  C   UNL     1     214.000 158.189 179.203  1.00  0.00     0.087 C 
ENDBRANCH  16  17
ENDBRANCH  15  16
ENDBRANCH  13  15
ENDBRANCH  11  12
ENDBRANCH   1  11
TORSDOF 9
ENDMDL
