MODEL 1
REMARK VINA RESULT:    -3.346      0.000      0.000
REMARK INTER + INTRA:          -8.703
REMARK INTER:                  -6.475
REMARK INTRA:                  -2.228
REMARK UNBOUND:                -2.228
REMARK SMILES CCCCCCCCCCCCCCCCCC(=O)[O-]
REMARK SMILES IDX 10 1 11 2 12 3 13 4 14 5 15 6 16 7 17 8 18 9 19 10 20 11
REMARK SMILES IDX 9 12 8 13 7 14 6 15 5 16 4 17 3 18 2 19 1 20
REMARK H PARENT
REMARK Flexibility Score: inf
ROOT
ATOM      1  C   UNL     1      60.240  31.440  59.361  1.00  0.00     0.000 C 
ENDROOT
BRANCH   1   2
ATOM      2  C   UNL     1      60.858  31.959  60.671  1.00  0.00     0.000 C 
BRANCH   2   3
ATOM      3  C   UNL     1      60.764  30.937  61.813  1.00  0.00     0.000 C 
BRANCH   3   4
ATOM      4  C   UNL     1      61.943  29.954  61.824  1.00  0.00     0.000 C 
BRANCH   4   5
ATOM      5  C   UNL     1      61.493  28.551  61.388  1.00  0.00     0.000 C 
BRANCH   5   6
ATOM      6  C   UNL     1      62.487  27.874  60.427  1.00  0.00     0.000 C 
BRANCH   6   7
ATOM      7  C   UNL     1      63.807  28.640  60.205  1.00  0.00     0.006 C 
BRANCH   7   8
ATOM      8  C   UNL     1      65.058  27.923  60.734  1.00  0.00     0.053 C 
BRANCH   8   9
ATOM      9  C   UNL     1      66.212  28.862  60.909  1.00  0.00     0.041 C 
ATOM     10  O   UNL     1      66.135  30.045  60.487  1.00  0.00    -0.550 OA
ATOM     11  O   UNL     1      67.360  28.439  61.567  1.00  0.00    -0.550 OA
ENDBRANCH   8   9
ENDBRANCH   7   8
ENDBRANCH   6   7
ENDBRANCH   5   6
ENDBRANCH   4   5
ENDBRANCH   3   4
ENDBRANCH   2   3
ENDBRANCH   1   2
BRANCH   1  12
ATOM     12  C   UNL     1      61.300  30.966  58.350  1.00  0.00     0.000 C 
BRANCH  12  13
ATOM     13  C   UNL     1      62.680  31.639  58.495  1.00  0.00    -0.000 C 
BRANCH  13  14
ATOM     14  C   UNL     1      62.723  33.135  58.124  1.00  0.00    -0.000 C 
BRANCH  14  15
ATOM     15  C   UNL     1      64.014  33.867  58.530  1.00  0.00    -0.000 C 
BRANCH  15  16
ATOM     16  C   UNL     1      64.512  33.465  59.929  1.00  0.00    -0.000 C 
BRANCH  16  17
ATOM     17  C   UNL     1      63.641  34.066  61.053  1.00  0.00    -0.000 C 
BRANCH  17  18
ATOM     18  C   UNL     1      63.830  35.585  61.236  1.00  0.00    -0.000 C 
BRANCH  18  19
ATOM     19  C   UNL     1      62.528  36.401  61.205  1.00  0.00    -0.003 C 
ATOM     20  C   UNL     1      61.356  35.626  60.601  1.00  0.00     0.004 C 
ENDBRANCH  18  19
ENDBRANCH  17  18
ENDBRANCH  16  17
ENDBRANCH  15  16
ENDBRANCH  14  15
ENDBRANCH  13  14
ENDBRANCH  12  13
ENDBRANCH   1  12
TORSDOF 16
ENDMDL
MODEL 2
REMARK VINA RESULT:    -3.303      2.698      6.220
REMARK INTER + INTRA:          -8.620
REMARK INTER:                  -6.393
REMARK INTRA:                  -2.227
REMARK UNBOUND:                -2.228
REMARK SMILES CCCCCCCCCCCCCCCCCC(=O)[O-]
REMARK SMILES IDX 10 1 11 2 12 3 13 4 14 5 15 6 16 7 17 8 18 9 19 10 20 11
REMARK SMILES IDX 9 12 8 13 7 14 6 15 5 16 4 17 3 18 2 19 1 20
REMARK H PARENT
REMARK Flexibility Score: inf
ROOT
ATOM      1  C   UNL     1      62.604  30.093  61.009  1.00  0.00     0.000 C 
ENDROOT
BRANCH   1   2
ATOM      2  C   UNL     1      61.453  30.370  61.992  1.00  0.00     0.000 C 
BRANCH   2   3
ATOM      3  C   UNL     1      60.527  31.499  61.513  1.00  0.00     0.000 C 
BRANCH   3   4
ATOM      4  C   UNL     1      60.509  31.638  59.984  1.00  0.00     0.000 C 
BRANCH   4   5
ATOM      5  C   UNL     1      60.895  33.064  59.559  1.00  0.00     0.000 C 
BRANCH   5   6
ATOM      6  C   UNL     1      61.560  33.868  60.690  1.00  0.00     0.000 C 
BRANCH   6   7
ATOM      7  C   UNL     1      62.752  34.745  60.255  1.00  0.00     0.006 C 
BRANCH   7   8
ATOM      8  C   UNL     1      63.940  34.736  61.228  1.00  0.00     0.053 C 
BRANCH   8   9
ATOM      9  C   UNL     1      65.007  35.704  60.820  1.00  0.00     0.041 C 
ATOM     10  O   UNL     1      65.706  36.282  61.693  1.00  0.00    -0.550 OA
ATOM     11  O   UNL     1      65.251  35.945  59.474  1.00  0.00    -0.550 OA
ENDBRANCH   8   9
ENDBRANCH   7   8
ENDBRANCH   6   7
ENDBRANCH   5   6
ENDBRANCH   4   5
ENDBRANCH   3   4
ENDBRANCH   2   3
ENDBRANCH   1   2
BRANCH   1  12
ATOM     12  C   UNL     1      63.875  30.894  61.342  1.00  0.00     0.000 C 
BRANCH  12  13
ATOM     13  C   UNL     1      64.776  31.213  60.133  1.00  0.00    -0.000 C 
BRANCH  13  14
ATOM     14  C   UNL     1      65.875  30.172  59.839  1.00  0.00    -0.000 C 
BRANCH  14  15
ATOM     15  C   UNL     1      66.038  29.082  60.913  1.00  0.00    -0.000 C 
BRANCH  15  16
ATOM     16  C   UNL     1      65.858  27.661  60.352  1.00  0.00    -0.000 C 
BRANCH  16  17
ATOM     17  C   UNL     1      64.824  27.613  59.206  1.00  0.00    -0.000 C 
BRANCH  17  18
ATOM     18  C   UNL     1      63.590  26.747  59.523  1.00  0.00    -0.000 C 
BRANCH  18  19
ATOM     19  C   UNL     1      63.284  26.590  61.022  1.00  0.00    -0.003 C 
ATOM     20  C   UNL     1      62.804  25.184  61.384  1.00  0.00     0.004 C 
ENDBRANCH  18  19
ENDBRANCH  17  18
ENDBRANCH  16  17
ENDBRANCH  15  16
ENDBRANCH  14  15
ENDBRANCH  13  14
ENDBRANCH  12  13
ENDBRANCH   1  12
TORSDOF 16
ENDMDL
MODEL 3
REMARK VINA RESULT:    -3.302      3.023      6.931
REMARK INTER + INTRA:          -8.619
REMARK INTER:                  -6.238
REMARK INTRA:                  -2.381
REMARK UNBOUND:                -2.228
REMARK SMILES CCCCCCCCCCCCCCCCCC(=O)[O-]
REMARK SMILES IDX 10 1 11 2 12 3 13 4 14 5 15 6 16 7 17 8 18 9 19 10 20 11
REMARK SMILES IDX 9 12 8 13 7 14 6 15 5 16 4 17 3 18 2 19 1 20
REMARK H PARENT
REMARK Flexibility Score: inf
ROOT
ATOM      1  C   UNL     1      63.390  33.251  59.688  1.00  0.00     0.000 C 
ENDROOT
BRANCH   1   2
ATOM      2  C   UNL     1      64.372  34.398  59.989  1.00  0.00     0.000 C 
BRANCH   2   3
ATOM      3  C   UNL     1      64.362  34.809  61.469  1.00  0.00     0.000 C 
BRANCH   3   4
ATOM      4  C   UNL     1      64.301  36.332  61.657  1.00  0.00     0.000 C 
BRANCH   4   5
ATOM      5  C   UNL     1      63.285  36.964  60.694  1.00  0.00     0.000 C 
BRANCH   5   6
ATOM      6  C   UNL     1      61.844  36.935  61.239  1.00  0.00     0.000 C 
BRANCH   6   7
ATOM      7  C   UNL     1      60.838  36.139  60.383  1.00  0.00     0.006 C 
BRANCH   7   8
ATOM      8  C   UNL     1      61.201  36.043  58.894  1.00  0.00     0.053 C 
BRANCH   8   9
ATOM      9  C   UNL     1      60.280  35.127  58.150  1.00  0.00     0.041 C 
ATOM     10  O   UNL     1      59.033  35.238  58.283  1.00  0.00    -0.550 OA
ATOM     11  O   UNL     1      60.797  34.171  57.285  1.00  0.00    -0.550 OA
ENDBRANCH   8   9
ENDBRANCH   7   8
ENDBRANCH   6   7
ENDBRANCH   5   6
ENDBRANCH   4   5
ENDBRANCH   3   4
ENDBRANCH   2   3
ENDBRANCH   1   2
BRANCH   1  12
ATOM     12  C   UNL     1      62.607  32.797  60.934  1.00  0.00     0.000 C 
BRANCH  12  13
ATOM     13  C   UNL     1      61.117  32.490  60.686  1.00  0.00    -0.000 C 
BRANCH  13  14
ATOM     14  C   UNL     1      60.515  31.391  61.585  1.00  0.00    -0.000 C 
BRANCH  14  15
ATOM     15  C   UNL     1      60.834  29.950  61.148  1.00  0.00    -0.000 C 
BRANCH  15  16
ATOM     16  C   UNL     1      62.127  29.408  61.781  1.00  0.00    -0.000 C 
BRANCH  16  17
ATOM     17  C   UNL     1      62.555  28.057  61.168  1.00  0.00    -0.000 C 
BRANCH  17  18
ATOM     18  C   UNL     1      63.792  28.158  60.254  1.00  0.00    -0.000 C 
BRANCH  18  19
ATOM     19  C   UNL     1      64.146  29.586  59.809  1.00  0.00    -0.003 C 
ATOM     20  C   UNL     1      65.417  30.116  60.473  1.00  0.00     0.004 C 
ENDBRANCH  18  19
ENDBRANCH  17  18
ENDBRANCH  16  17
ENDBRANCH  15  16
ENDBRANCH  14  15
ENDBRANCH  13  14
ENDBRANCH  12  13
ENDBRANCH   1  12
TORSDOF 16
ENDMDL
MODEL 4
REMARK VINA RESULT:    -3.261      2.862      4.030
REMARK INTER + INTRA:          -8.540
REMARK INTER:                  -6.537
REMARK INTRA:                  -2.004
REMARK UNBOUND:                -2.228
REMARK SMILES CCCCCCCCCCCCCCCCCC(=O)[O-]
REMARK SMILES IDX 10 1 11 2 12 3 13 4 14 5 15 6 16 7 17 8 18 9 19 10 20 11
REMARK SMILES IDX 9 12 8 13 7 14 6 15 5 16 4 17 3 18 2 19 1 20
REMARK H PARENT
REMARK Flexibility Score: inf
ROOT
ATOM      1  C   UNL     1      61.070  32.355  58.885  1.00  0.00     0.000 C 
ENDROOT
BRANCH   1   2
ATOM      2  C   UNL     1      60.362  31.402  59.863  1.00  0.00     0.000 C 
BRANCH   2   3
ATOM      3  C   UNL     1      60.744  31.669  61.327  1.00  0.00     0.000 C 
BRANCH   3   4
ATOM      4  C   UNL     1      61.428  30.463  61.988  1.00  0.00     0.000 C 
BRANCH   4   5
ATOM      5  C   UNL     1      61.424  29.247  61.048  1.00  0.00     0.000 C 
BRANCH   5   6
ATOM      6  C   UNL     1      62.047  27.992  61.688  1.00  0.00     0.000 C 
BRANCH   6   7
ATOM      7  C   UNL     1      61.389  26.657  61.284  1.00  0.00     0.006 C 
BRANCH   7   8
ATOM      8  C   UNL     1      62.083  25.408  61.847  1.00  0.00     0.053 C 
BRANCH   8   9
ATOM      9  C   UNL     1      61.552  25.034  63.197  1.00  0.00     0.041 C 
ATOM     10  O   UNL     1      62.161  24.189  63.905  1.00  0.00    -0.550 OA
ATOM     11  O   UNL     1      60.402  25.640  63.686  1.00  0.00    -0.550 OA
ENDBRANCH   8   9
ENDBRANCH   7   8
ENDBRANCH   6   7
ENDBRANCH   5   6
ENDBRANCH   4   5
ENDBRANCH   3   4
ENDBRANCH   2   3
ENDBRANCH   1   2
BRANCH   1  12
ATOM     12  C   UNL     1      60.358  33.714  58.759  1.00  0.00     0.000 C 
BRANCH  12  13
ATOM     13  C   UNL     1      61.194  34.929  59.207  1.00  0.00    -0.000 C 
BRANCH  13  14
ATOM     14  C   UNL     1      61.712  34.870  60.659  1.00  0.00    -0.000 C 
BRANCH  14  15
ATOM     15  C   UNL     1      62.989  35.685  60.925  1.00  0.00    -0.000 C 
BRANCH  15  16
ATOM     16  C   UNL     1      64.171  34.811  61.376  1.00  0.00    -0.000 C 
BRANCH  16  17
ATOM     17  C   UNL     1      63.991  33.332  60.970  1.00  0.00    -0.000 C 
BRANCH  17  18
ATOM     18  C   UNL     1      64.557  33.000  59.576  1.00  0.00    -0.000 C 
BRANCH  18  19
ATOM     19  C   UNL     1      64.642  31.499  59.259  1.00  0.00    -0.003 C 
ATOM     20  C   UNL     1      64.834  30.639  60.509  1.00  0.00     0.004 C 
ENDBRANCH  18  19
ENDBRANCH  17  18
ENDBRANCH  16  17
ENDBRANCH  15  16
ENDBRANCH  14  15
ENDBRANCH  13  14
ENDBRANCH  12  13
ENDBRANCH   1  12
TORSDOF 16
ENDMDL
MODEL 5
REMARK VINA RESULT:    -3.252      2.517      5.674
REMARK INTER + INTRA:          -8.523
REMARK INTER:                  -5.288
REMARK INTRA:                  -3.235
REMARK UNBOUND:                -2.228
REMARK SMILES CCCCCCCCCCCCCCCCCC(=O)[O-]
REMARK SMILES IDX 10 1 11 2 12 3 13 4 14 5 15 6 16 7 17 8 18 9 19 10 20 11
REMARK SMILES IDX 9 12 8 13 7 14 6 15 5 16 4 17 3 18 2 19 1 20
REMARK H PARENT
REMARK Flexibility Score: inf
ROOT
ATOM      1  C   UNL     1      62.137  28.883  57.987  1.00  0.00     0.000 C 
ENDROOT
BRANCH   1   2
ATOM      2  C   UNL     1      61.130  29.813  58.686  1.00  0.00     0.000 C 
BRANCH   2   3
ATOM      3  C   UNL     1      60.744  29.318  60.088  1.00  0.00     0.000 C 
BRANCH   3   4
ATOM      4  C   UNL     1      60.842  30.422  61.151  1.00  0.00     0.000 C 
BRANCH   4   5
ATOM      5  C   UNL     1      60.478  31.791  60.556  1.00  0.00     0.000 C 
BRANCH   5   6
ATOM      6  C   UNL     1      61.534  32.872  60.850  1.00  0.00     0.000 C 
BRANCH   6   7
ATOM      7  C   UNL     1      61.817  33.843  59.685  1.00  0.00     0.006 C 
BRANCH   7   8
ATOM      8  C   UNL     1      63.199  34.510  59.732  1.00  0.00     0.053 C 
BRANCH   8   9
ATOM      9  C   UNL     1      63.455  35.178  61.049  1.00  0.00     0.041 C 
ATOM     10  O   UNL     1      64.407  34.798  61.778  1.00  0.00    -0.550 OA
ATOM     11  O   UNL     1      62.659  36.242  61.456  1.00  0.00    -0.550 OA
ENDBRANCH   8   9
ENDBRANCH   7   8
ENDBRANCH   6   7
ENDBRANCH   5   6
ENDBRANCH   4   5
ENDBRANCH   3   4
ENDBRANCH   2   3
ENDBRANCH   1   2
BRANCH   1  12
ATOM     12  C   UNL     1      63.440  29.603  57.597  1.00  0.00     0.000 C 
BRANCH  12  13
ATOM     13  C   UNL     1      63.631  30.992  58.240  1.00  0.00    -0.000 C 
BRANCH  13  14
ATOM     14  C   UNL     1      64.908  31.152  59.089  1.00  0.00    -0.000 C 
BRANCH  14  15
ATOM     15  C   UNL     1      64.679  31.153  60.611  1.00  0.00    -0.000 C 
BRANCH  15  16
ATOM     16  C   UNL     1      64.340  29.758  61.163  1.00  0.00    -0.000 C 
BRANCH  16  17
ATOM     17  C   UNL     1      65.407  28.707  60.789  1.00  0.00    -0.000 C 
BRANCH  17  18
ATOM     18  C   UNL     1      64.815  27.369  60.306  1.00  0.00    -0.000 C 
BRANCH  18  19
ATOM     19  C   UNL     1      63.427  27.039  60.879  1.00  0.00    -0.003 C 
ATOM     20  C   UNL     1      63.181  25.534  61.005  1.00  0.00     0.004 C 
ENDBRANCH  18  19
ENDBRANCH  17  18
ENDBRANCH  16  17
ENDBRANCH  15  16
ENDBRANCH  14  15
ENDBRANCH  13  14
ENDBRANCH  12  13
ENDBRANCH   1  12
TORSDOF 16
ENDMDL
MODEL 6
REMARK VINA RESULT:    -3.226      9.729     12.233
REMARK INTER + INTRA:          -8.471
REMARK INTER:                  -5.793
REMARK INTRA:                  -2.678
REMARK UNBOUND:                -2.228
REMARK SMILES CCCCCCCCCCCCCCCCCC(=O)[O-]
REMARK SMILES IDX 10 1 11 2 12 3 13 4 14 5 15 6 16 7 17 8 18 9 19 10 20 11
REMARK SMILES IDX 9 12 8 13 7 14 6 15 5 16 4 17 3 18 2 19 1 20
REMARK H PARENT
REMARK Flexibility Score: inf
ROOT
ATOM      1  C   UNL     1      57.818  31.022  53.000  1.00  0.00     0.000 C 
ENDROOT
BRANCH   1   2
ATOM      2  C   UNL     1      58.259  29.698  52.351  1.00  0.00     0.000 C 
BRANCH   2   3
ATOM      3  C   UNL     1      58.318  29.784  50.818  1.00  0.00     0.000 C 
BRANCH   3   4
ATOM      4  C   UNL     1      59.676  29.342  50.254  1.00  0.00     0.000 C 
BRANCH   4   5
ATOM      5  C   UNL     1      59.492  28.360  49.087  1.00  0.00     0.000 C 
BRANCH   5   6
ATOM      6  C   UNL     1      59.589  26.886  49.522  1.00  0.00     0.000 C 
BRANCH   6   7
ATOM      7  C   UNL     1      60.145  26.659  50.942  1.00  0.00     0.006 C 
BRANCH   7   8
ATOM      8  C   UNL     1      60.206  25.187  51.376  1.00  0.00     0.053 C 
BRANCH   8   9
ATOM      9  C   UNL     1      61.137  24.388  50.516  1.00  0.00     0.041 C 
ATOM     10  O   UNL     1      60.686  23.485  49.763  1.00  0.00    -0.550 OA
ATOM     11  O   UNL     1      62.499  24.659  50.524  1.00  0.00    -0.550 OA
ENDBRANCH   8   9
ENDBRANCH   7   8
ENDBRANCH   6   7
ENDBRANCH   5   6
ENDBRANCH   4   5
ENDBRANCH   3   4
ENDBRANCH   2   3
ENDBRANCH   1   2
BRANCH   1  12
ATOM     12  C   UNL     1      56.292  31.222  52.966  1.00  0.00     0.000 C 
BRANCH  12  13
ATOM     13  C   UNL     1      55.466  29.962  53.292  1.00  0.00    -0.000 C 
BRANCH  13  14
ATOM     14  C   UNL     1      54.312  29.662  52.314  1.00  0.00    -0.000 C 
BRANCH  14  15
ATOM     15  C   UNL     1      54.721  29.584  50.833  1.00  0.00    -0.000 C 
BRANCH  15  16
ATOM     16  C   UNL     1      53.818  28.646  50.014  1.00  0.00    -0.000 C 
BRANCH  16  17
ATOM     17  C   UNL     1      54.368  27.205  49.961  1.00  0.00    -0.000 C 
BRANCH  17  18
ATOM     18  C   UNL     1      55.903  27.125  50.075  1.00  0.00    -0.000 C 
BRANCH  18  19
ATOM     19  C   UNL     1      56.420  26.028  51.020  1.00  0.00    -0.003 C 
ATOM     20  C   UNL     1      56.386  26.447  52.490  1.00  0.00     0.004 C 
ENDBRANCH  18  19
ENDBRANCH  17  18
ENDBRANCH  16  17
ENDBRANCH  15  16
ENDBRANCH  14  15
ENDBRANCH  13  14
ENDBRANCH  12  13
ENDBRANCH   1  12
TORSDOF 16
ENDMDL
MODEL 7
REMARK VINA RESULT:    -3.216      2.264      4.543
REMARK INTER + INTRA:          -8.452
REMARK INTER:                  -5.513
REMARK INTRA:                  -2.940
REMARK UNBOUND:                -2.228
REMARK SMILES CCCCCCCCCCCCCCCCCC(=O)[O-]
REMARK SMILES IDX 10 1 11 2 12 3 13 4 14 5 15 6 16 7 17 8 18 9 19 10 20 11
REMARK SMILES IDX 9 12 8 13 7 14 6 15 5 16 4 17 3 18 2 19 1 20
REMARK H PARENT
REMARK Flexibility Score: inf
ROOT
ATOM      1  C   UNL     1      61.096  35.091  60.510  1.00  0.00     0.000 C 
ENDROOT
BRANCH   1   2
ATOM      2  C   UNL     1      61.021  35.061  58.974  1.00  0.00     0.000 C 
BRANCH   2   3
ATOM      3  C   UNL     1      61.220  33.650  58.401  1.00  0.00     0.000 C 
BRANCH   3   4
ATOM      4  C   UNL     1      60.258  32.623  59.016  1.00  0.00     0.000 C 
BRANCH   4   5
ATOM      5  C   UNL     1      61.032  31.488  59.704  1.00  0.00     0.000 C 
BRANCH   5   6
ATOM      6  C   UNL     1      60.888  31.507  61.237  1.00  0.00     0.000 C 
BRANCH   6   7
ATOM      7  C   UNL     1      61.696  30.426  61.983  1.00  0.00     0.006 C 
BRANCH   7   8
ATOM      8  C   UNL     1      62.163  29.258  61.102  1.00  0.00     0.053 C 
BRANCH   8   9
ATOM      9  C   UNL     1      61.407  27.998  61.394  1.00  0.00     0.041 C 
ATOM     10  O   UNL     1      60.216  27.869  61.007  1.00  0.00    -0.550 OA
ATOM     11  O   UNL     1      62.028  26.953  62.067  1.00  0.00    -0.550 OA
ENDBRANCH   8   9
ENDBRANCH   7   8
ENDBRANCH   6   7
ENDBRANCH   5   6
ENDBRANCH   4   5
ENDBRANCH   3   4
ENDBRANCH   2   3
ENDBRANCH   1   2
BRANCH   1  12
ATOM     12  C   UNL     1      62.187  36.043  61.033  1.00  0.00     0.000 C 
BRANCH  12  13
ATOM     13  C   UNL     1      63.621  35.479  60.978  1.00  0.00    -0.000 C 
BRANCH  13  14
ATOM     14  C   UNL     1      63.728  33.946  61.092  1.00  0.00    -0.000 C 
BRANCH  14  15
ATOM     15  C   UNL     1      64.483  33.260  59.940  1.00  0.00    -0.000 C 
BRANCH  15  16
ATOM     16  C   UNL     1      64.731  31.764  60.197  1.00  0.00    -0.000 C 
BRANCH  16  17
ATOM     17  C   UNL     1      64.622  30.925  58.905  1.00  0.00    -0.000 C 
BRANCH  17  18
ATOM     18  C   UNL     1      64.933  31.721  57.623  1.00  0.00    -0.000 C 
BRANCH  18  19
ATOM     19  C   UNL     1      63.776  31.787  56.613  1.00  0.00    -0.003 C 
ATOM     20  C   UNL     1      62.871  30.556  56.666  1.00  0.00     0.004 C 
ENDBRANCH  18  19
ENDBRANCH  17  18
ENDBRANCH  16  17
ENDBRANCH  15  16
ENDBRANCH  14  15
ENDBRANCH  13  14
ENDBRANCH  12  13
ENDBRANCH   1  12
TORSDOF 16
ENDMDL
MODEL 8
REMARK VINA RESULT:    -3.204      9.916     12.315
REMARK INTER + INTRA:          -8.430
REMARK INTER:                  -5.685
REMARK INTRA:                  -2.745
REMARK UNBOUND:                -2.228
REMARK SMILES CCCCCCCCCCCCCCCCCC(=O)[O-]
REMARK SMILES IDX 10 1 11 2 12 3 13 4 14 5 15 6 16 7 17 8 18 9 19 10 20 11
REMARK SMILES IDX 9 12 8 13 7 14 6 15 5 16 4 17 3 18 2 19 1 20
REMARK H PARENT
REMARK Flexibility Score: inf
ROOT
ATOM      1  C   UNL     1      59.027  29.370  52.306  1.00  0.00     0.000 C 
ENDROOT
BRANCH   1   2
ATOM      2  C   UNL     1      57.783  29.827  51.524  1.00  0.00     0.000 C 
BRANCH   2   3
ATOM      3  C   UNL     1      57.863  29.475  50.031  1.00  0.00     0.000 C 
BRANCH   3   4
ATOM      4  C   UNL     1      59.283  29.088  49.592  1.00  0.00     0.000 C 
BRANCH   4   5
ATOM      5  C   UNL     1      59.373  27.585  49.286  1.00  0.00     0.000 C 
BRANCH   5   6
ATOM      6  C   UNL     1      60.682  26.948  49.789  1.00  0.00     0.000 C 
BRANCH   6   7
ATOM      7  C   UNL     1      60.503  25.809  50.812  1.00  0.00     0.006 C 
BRANCH   7   8
ATOM      8  C   UNL     1      61.756  24.950  51.037  1.00  0.00     0.053 C 
BRANCH   8   9
ATOM      9  C   UNL     1      61.592  23.565  50.491  1.00  0.00     0.041 C 
ATOM     10  O   UNL     1      60.591  23.277  49.784  1.00  0.00    -0.550 OA
ATOM     11  O   UNL     1      62.561  22.600  50.737  1.00  0.00    -0.550 OA
ENDBRANCH   8   9
ENDBRANCH   7   8
ENDBRANCH   6   7
ENDBRANCH   5   6
ENDBRANCH   4   5
ENDBRANCH   3   4
ENDBRANCH   2   3
ENDBRANCH   1   2
BRANCH   1  12
ATOM     12  C   UNL     1      58.748  28.153  53.206  1.00  0.00     0.000 C 
BRANCH  12  13
ATOM     13  C   UNL     1      57.340  27.543  53.055  1.00  0.00    -0.000 C 
BRANCH  13  14
ATOM     14  C   UNL     1      57.290  26.175  52.347  1.00  0.00    -0.000 C 
BRANCH  14  15
ATOM     15  C   UNL     1      55.971  25.871  51.616  1.00  0.00    -0.000 C 
BRANCH  15  16
ATOM     16  C   UNL     1      55.957  26.393  50.169  1.00  0.00    -0.000 C 
BRANCH  16  17
ATOM     17  C   UNL     1      54.607  27.045  49.797  1.00  0.00    -0.000 C 
BRANCH  17  18
ATOM     18  C   UNL     1      53.794  27.520  51.016  1.00  0.00    -0.000 C 
BRANCH  18  19
ATOM     19  C   UNL     1      54.142  28.935  51.508  1.00  0.00    -0.003 C 
ATOM     20  C   UNL     1      53.978  29.997  50.421  1.00  0.00     0.004 C 
ENDBRANCH  18  19
ENDBRANCH  17  18
ENDBRANCH  16  17
ENDBRANCH  15  16
ENDBRANCH  14  15
ENDBRANCH  13  14
ENDBRANCH  12  13
ENDBRANCH   1  12
TORSDOF 16
ENDMDL
MODEL 9
REMARK VINA RESULT:    -3.183      2.110      3.657
REMARK INTER + INTRA:          -8.388
REMARK INTER:                  -5.987
REMARK INTRA:                  -2.400
REMARK UNBOUND:                -2.228
REMARK SMILES CCCCCCCCCCCCCCCCCC(=O)[O-]
REMARK SMILES IDX 10 1 11 2 12 3 13 4 14 5 15 6 16 7 17 8 18 9 19 10 20 11
REMARK SMILES IDX 9 12 8 13 7 14 6 15 5 16 4 17 3 18 2 19 1 20
REMARK H PARENT
REMARK Flexibility Score: inf
ROOT
ATOM      1  C   UNL     1      61.576  33.281  57.943  1.00  0.00     0.000 C 
ENDROOT
BRANCH   1   2
ATOM      2  C   UNL     1      60.127  32.769  58.026  1.00  0.00     0.000 C 
BRANCH   2   3
ATOM      3  C   UNL     1      59.893  31.857  59.240  1.00  0.00     0.000 C 
BRANCH   3   4
ATOM      4  C   UNL     1      60.744  32.260  60.453  1.00  0.00     0.000 C 
BRANCH   4   5
ATOM      5  C   UNL     1      60.778  31.133  61.497  1.00  0.00     0.000 C 
BRANCH   5   6
ATOM      6  C   UNL     1      60.263  29.790  60.948  1.00  0.00     0.000 C 
BRANCH   6   7
ATOM      7  C   UNL     1      61.349  28.866  60.359  1.00  0.00     0.006 C 
BRANCH   7   8
ATOM      8  C   UNL     1      62.436  28.442  61.358  1.00  0.00     0.053 C 
BRANCH   8   9
ATOM      9  C   UNL     1      62.355  26.983  61.688  1.00  0.00     0.041 C 
ATOM     10  O   UNL     1      61.513  26.568  62.527  1.00  0.00    -0.550 OA
ATOM     11  O   UNL     1      63.190  26.076  61.046  1.00  0.00    -0.550 OA
ENDBRANCH   8   9
ENDBRANCH   7   8
ENDBRANCH   6   7
ENDBRANCH   5   6
ENDBRANCH   4   5
ENDBRANCH   3   4
ENDBRANCH   2   3
ENDBRANCH   1   2
BRANCH   1  12
ATOM     12  C   UNL     1      61.660  34.817  57.878  1.00  0.00     0.000 C 
BRANCH  12  13
ATOM     13  C   UNL     1      60.617  35.560  58.736  1.00  0.00    -0.000 C 
BRANCH  13  14
ATOM     14  C   UNL     1      61.200  36.518  59.795  1.00  0.00    -0.000 C 
BRANCH  14  15
ATOM     15  C   UNL     1      61.882  35.827  60.988  1.00  0.00    -0.000 C 
BRANCH  15  16
ATOM     16  C   UNL     1      63.284  36.390  61.280  1.00  0.00    -0.000 C 
BRANCH  16  17
ATOM     17  C   UNL     1      64.369  35.292  61.258  1.00  0.00    -0.000 C 
BRANCH  17  18
ATOM     18  C   UNL     1      63.801  33.864  61.147  1.00  0.00    -0.000 C 
BRANCH  18  19
ATOM     19  C   UNL     1      64.470  32.989  60.074  1.00  0.00    -0.003 C 
ATOM     20  C   UNL     1      64.376  31.494  60.386  1.00  0.00     0.004 C 
ENDBRANCH  18  19
ENDBRANCH  17  18
ENDBRANCH  16  17
ENDBRANCH  15  16
ENDBRANCH  14  15
ENDBRANCH  13  14
ENDBRANCH  12  13
ENDBRANCH   1  12
TORSDOF 16
ENDMDL
