MODEL 1
REMARK VINA RESULT:    -1.751      0.000      0.000
REMARK INTER + INTRA:          -1.751
REMARK INTER:                  -1.751
REMARK INTRA:                   0.000
REMARK UNBOUND:                 0.000
REMARK SMILES CC(=O)[O-]
REMARK SMILES IDX 1 1 2 2 3 3 4 4
REMARK H PARENT
REMARK Flexibility Score: inf
ROOT
ATOM      1  C   UNL     1      10.144  34.997 150.068  1.00  0.00     0.063 C 
ATOM      2  C   UNL     1       8.858  35.650 149.687  1.00  0.00     0.038 C 
ATOM      3  O   UNL     1       8.795  36.902 149.571  1.00  0.00    -0.550 OA
ATOM      4  O   UNL     1       7.713  34.882 149.514  1.00  0.00    -0.550 OA
ENDROOT
TORSDOF 0
ENDMDL
MODEL 2
REMARK VINA RESULT:    -1.733     14.308     14.838
REMARK INTER + INTRA:          -1.733
REMARK INTER:                  -1.733
REMARK INTRA:                   0.000
REMARK UNBOUND:                 0.000
REMARK SMILES CC(=O)[O-]
REMARK SMILES IDX 1 1 2 2 3 3 4 4
REMARK H PARENT
REMARK Flexibility Score: inf
ROOT
ATOM      1  C   UNL     1      -3.227  34.875 143.570  1.00  0.00     0.063 C 
ATOM      2  C   UNL     1      -4.500  35.582 143.245  1.00  0.00     0.038 C 
ATOM      3  O   UNL     1      -4.624  36.809 143.497  1.00  0.00    -0.550 OA
ATOM      4  O   UNL     1      -5.572  34.876 142.714  1.00  0.00    -0.550 OA
ENDROOT
TORSDOF 0
ENDMDL
MODEL 3
REMARK VINA RESULT:    -1.652     13.918     14.527
REMARK INTER + INTRA:          -1.652
REMARK INTER:                  -1.652
REMARK INTRA:                   0.000
REMARK UNBOUND:                 0.000
REMARK SMILES CC(=O)[O-]
REMARK SMILES IDX 1 1 2 2 3 3 4 4
REMARK H PARENT
REMARK Flexibility Score: inf
ROOT
ATOM      1  C   UNL     1      -4.962  34.875 142.875  1.00  0.00     0.063 C 
ATOM      2  C   UNL     1      -4.108  35.835 143.634  1.00  0.00     0.038 C 
ATOM      3  O   UNL     1      -3.215  35.408 144.411  1.00  0.00    -0.550 OA
ATOM      4  O   UNL     1      -4.333  37.201 143.526  1.00  0.00    -0.550 OA
ENDROOT
TORSDOF 0
ENDMDL
MODEL 4
REMARK VINA RESULT:    -1.652     11.263     11.403
REMARK INTER + INTRA:          -1.652
REMARK INTER:                  -1.652
REMARK INTRA:                   0.000
REMARK UNBOUND:                 0.000
REMARK SMILES CC(=O)[O-]
REMARK SMILES IDX 1 1 2 2 3 3 4 4
REMARK H PARENT
REMARK Flexibility Score: inf
ROOT
ATOM      1  C   UNL     1      11.969  34.925 139.871  1.00  0.00     0.063 C 
ATOM      2  C   UNL     1      11.938  36.013 138.851  1.00  0.00     0.038 C 
ATOM      3  O   UNL     1      10.839  36.402 138.375  1.00  0.00    -0.550 OA
ATOM      4  O   UNL     1      13.125  36.562 138.383  1.00  0.00    -0.550 OA
ENDROOT
TORSDOF 0
ENDMDL
MODEL 5
REMARK VINA RESULT:    -1.607      1.481      2.173
REMARK INTER + INTRA:          -1.607
REMARK INTER:                  -1.607
REMARK INTRA:                   0.000
REMARK UNBOUND:                 0.000
REMARK SMILES CC(=O)[O-]
REMARK SMILES IDX 1 1 2 2 3 3 4 4
REMARK H PARENT
REMARK Flexibility Score: inf
ROOT
ATOM      1  C   UNL     1       8.990  37.257 149.660  1.00  0.00     0.063 C 
ATOM      2  C   UNL     1       9.229  35.787 149.734  1.00  0.00     0.038 C 
ATOM      3  O   UNL     1       8.284  34.981 149.524  1.00  0.00    -0.550 OA
ATOM      4  O   UNL     1      10.482  35.302 150.088  1.00  0.00    -0.550 OA
ENDROOT
TORSDOF 0
ENDMDL
MODEL 6
REMARK VINA RESULT:    -1.596     11.225     11.278
REMARK INTER + INTRA:          -1.596
REMARK INTER:                  -1.596
REMARK INTRA:                   0.000
REMARK UNBOUND:                 0.000
REMARK SMILES CC(=O)[O-]
REMARK SMILES IDX 1 1 2 2 3 3 4 4
REMARK H PARENT
REMARK Flexibility Score: inf
ROOT
ATOM      1  C   UNL     1      12.935  36.747 138.685  1.00  0.00     0.063 C 
ATOM      2  C   UNL     1      11.884  35.736 138.995  1.00  0.00     0.038 C 
ATOM      3  O   UNL     1      12.080  34.876 139.894  1.00  0.00    -0.550 OA
ATOM      4  O   UNL     1      10.709  35.704 138.255  1.00  0.00    -0.550 OA
ENDROOT
TORSDOF 0
ENDMDL
MODEL 7
REMARK VINA RESULT:    -1.561     10.409     10.409
REMARK INTER + INTRA:          -1.561
REMARK INTER:                  -1.561
REMARK INTRA:                   0.000
REMARK UNBOUND:                 0.000
REMARK SMILES CC(=O)[O-]
REMARK SMILES IDX 1 1 2 2 3 3 4 4
REMARK H PARENT
REMARK Flexibility Score: inf
ROOT
ATOM      1  C   UNL     1      12.566  34.911 139.974  1.00  0.00     0.063 C 
ATOM      2  C   UNL     1      11.138  35.087 139.581  1.00  0.00     0.038 C 
ATOM      3  O   UNL     1      10.840  35.372 138.391  1.00  0.00    -0.550 OA
ATOM      4  O   UNL     1      10.136  34.992 140.539  1.00  0.00    -0.550 OA
ENDROOT
TORSDOF 0
ENDMDL
MODEL 8
REMARK VINA RESULT:    -1.550     11.437     11.637
REMARK INTER + INTRA:          -1.550
REMARK INTER:                  -1.550
REMARK INTRA:                   0.000
REMARK UNBOUND:                 0.000
REMARK SMILES CC(=O)[O-]
REMARK SMILES IDX 1 1 2 2 3 3 4 4
REMARK H PARENT
REMARK Flexibility Score: inf
ROOT
ATOM      1  C   UNL     1      10.893  37.515 138.853  1.00  0.00     0.063 C 
ATOM      2  C   UNL     1      11.664  36.254 138.649  1.00  0.00     0.038 C 
ATOM      3  O   UNL     1      11.067  35.146 138.614  1.00  0.00    -0.550 OA
ATOM      4  O   UNL     1      13.050  36.293 138.554  1.00  0.00    -0.550 OA
ENDROOT
TORSDOF 0
ENDMDL
MODEL 9
REMARK VINA RESULT:    -1.530      5.766      6.224
REMARK INTER + INTRA:          -1.530
REMARK INTER:                  -1.530
REMARK INTRA:                   0.000
REMARK UNBOUND:                 0.000
REMARK SMILES CC(=O)[O-]
REMARK SMILES IDX 1 1 2 2 3 3 4 4
REMARK H PARENT
REMARK Flexibility Score: inf
ROOT
ATOM      1  C   UNL     1      12.008  39.908 151.193  1.00  0.00     0.063 C 
ATOM      2  C   UNL     1      11.317  40.703 152.249  1.00  0.00     0.038 C 
ATOM      3  O   UNL     1      11.797  41.804 152.627  1.00  0.00    -0.550 OA
ATOM      4  O   UNL     1      10.172  40.205 152.858  1.00  0.00    -0.550 OA
ENDROOT
TORSDOF 0
ENDMDL
