MODEL 1
REMARK VINA RESULT:    -2.068      0.000      0.000
REMARK INTER + INTRA:          -2.068
REMARK INTER:                  -2.068
REMARK INTRA:                   0.000
REMARK UNBOUND:                 0.000
REMARK SMILES CC(=O)[O-]
REMARK SMILES IDX 1 1 2 2 3 3 4 4
REMARK H PARENT
REMARK Flexibility Score: inf
ROOT
ATOM      1  C   UNL     1      -9.933  17.196  30.478  1.00  0.00     0.063 C 
ATOM      2  C   UNL     1      -9.043  17.658  31.582  1.00  0.00     0.038 C 
ATOM      3  O   UNL     1      -8.781  16.891  32.545  1.00  0.00    -0.550 OA
ATOM      4  O   UNL     1      -8.547  18.954  31.579  1.00  0.00    -0.550 OA
ENDROOT
TORSDOF 0
ENDMDL
MODEL 2
REMARK VINA RESULT:    -1.905      1.391      2.170
REMARK INTER + INTRA:          -1.905
REMARK INTER:                  -1.905
REMARK INTRA:                   0.000
REMARK UNBOUND:                 0.000
REMARK SMILES CC(=O)[O-]
REMARK SMILES IDX 1 1 2 2 3 3 4 4
REMARK H PARENT
REMARK Flexibility Score: inf
ROOT
ATOM      1  C   UNL     1      -8.287  17.051  32.915  1.00  0.00     0.063 C 
ATOM      2  C   UNL     1      -8.711  17.882  31.752  1.00  0.00     0.038 C 
ATOM      3  O   UNL     1      -8.347  19.084  31.669  1.00  0.00    -0.550 OA
ATOM      4  O   UNL     1      -9.556  17.350  30.787  1.00  0.00    -0.550 OA
ENDROOT
TORSDOF 0
ENDMDL
MODEL 3
REMARK VINA RESULT:    -1.878      1.370      2.222
REMARK INTER + INTRA:          -1.878
REMARK INTER:                  -1.878
REMARK INTRA:                   0.000
REMARK UNBOUND:                 0.000
REMARK SMILES CC(=O)[O-]
REMARK SMILES IDX 1 1 2 2 3 3 4 4
REMARK H PARENT
REMARK Flexibility Score: inf
ROOT
ATOM      1  C   UNL     1      -8.163  19.252  32.081  1.00  0.00     0.063 C 
ATOM      2  C   UNL     1      -8.652  17.862  31.857  1.00  0.00     0.038 C 
ATOM      3  O   UNL     1      -9.338  17.590  30.837  1.00  0.00    -0.550 OA
ATOM      4  O   UNL     1      -8.401  16.875  32.801  1.00  0.00    -0.550 OA
ENDROOT
TORSDOF 0
ENDMDL
MODEL 4
REMARK VINA RESULT:    -1.784     14.661     14.882
REMARK INTER + INTRA:          -1.784
REMARK INTER:                  -1.784
REMARK INTRA:                   0.000
REMARK UNBOUND:                 0.000
REMARK SMILES CC(=O)[O-]
REMARK SMILES IDX 1 1 2 2 3 3 4 4
REMARK H PARENT
REMARK Flexibility Score: inf
ROOT
ATOM      1  C   UNL     1     -17.636  20.674  44.286  1.00  0.00     0.063 C 
ATOM      2  C   UNL     1     -17.104  21.649  43.292  1.00  0.00     0.038 C 
ATOM      3  O   UNL     1     -17.882  22.208  42.475  1.00  0.00    -0.550 OA
ATOM      4  O   UNL     1     -15.740  21.902  43.227  1.00  0.00    -0.550 OA
ENDROOT
TORSDOF 0
ENDMDL
MODEL 5
REMARK VINA RESULT:    -1.784     14.611     14.877
REMARK INTER + INTRA:          -1.784
REMARK INTER:                  -1.784
REMARK INTRA:                   0.000
REMARK UNBOUND:                 0.000
REMARK SMILES CC(=O)[O-]
REMARK SMILES IDX 1 1 2 2 3 3 4 4
REMARK H PARENT
REMARK Flexibility Score: inf
ROOT
ATOM      1  C   UNL     1     -17.983  22.548  42.538  1.00  0.00     0.063 C 
ATOM      2  C   UNL     1     -17.080  21.643  43.306  1.00  0.00     0.038 C 
ATOM      3  O   UNL     1     -15.836  21.830  43.289  1.00  0.00    -0.550 OA
ATOM      4  O   UNL     1     -17.605  20.559  43.996  1.00  0.00    -0.550 OA
ENDROOT
TORSDOF 0
ENDMDL
MODEL 6
REMARK VINA RESULT:    -1.737     15.217     15.363
REMARK INTER + INTRA:          -1.737
REMARK INTER:                  -1.737
REMARK INTRA:                   0.000
REMARK UNBOUND:                 0.000
REMARK SMILES CC(=O)[O-]
REMARK SMILES IDX 1 1 2 2 3 3 4 4
REMARK H PARENT
REMARK Flexibility Score: inf
ROOT
ATOM      1  C   UNL     1     -18.012  22.514  42.517  1.00  0.00     0.063 C 
ATOM      2  C   UNL     1     -17.823  23.985  42.369  1.00  0.00     0.038 C 
ATOM      3  O   UNL     1     -16.709  24.509  42.636  1.00  0.00    -0.550 OA
ATOM      4  O   UNL     1     -18.889  24.790  41.991  1.00  0.00    -0.550 OA
ENDROOT
TORSDOF 0
ENDMDL
MODEL 7
REMARK VINA RESULT:    -1.709     15.224     15.377
REMARK INTER + INTRA:          -1.709
REMARK INTER:                  -1.709
REMARK INTRA:                   0.000
REMARK UNBOUND:                 0.000
REMARK SMILES CC(=O)[O-]
REMARK SMILES IDX 1 1 2 2 3 3 4 4
REMARK H PARENT
REMARK Flexibility Score: inf
ROOT
ATOM      1  C   UNL     1     -18.009  22.501  42.486  1.00  0.00     0.063 C 
ATOM      2  C   UNL     1     -17.853  23.982  42.422  1.00  0.00     0.038 C 
ATOM      3  O   UNL     1     -18.802  24.699  42.009  1.00  0.00    -0.550 OA
ATOM      4  O   UNL     1     -16.643  24.571  42.763  1.00  0.00    -0.550 OA
ENDROOT
TORSDOF 0
ENDMDL
MODEL 8
REMARK VINA RESULT:    -1.661     14.651     14.938
REMARK INTER + INTRA:          -1.661
REMARK INTER:                  -1.661
REMARK INTRA:                   0.000
REMARK UNBOUND:                 0.000
REMARK SMILES CC(=O)[O-]
REMARK SMILES IDX 1 1 2 2 3 3 4 4
REMARK H PARENT
REMARK Flexibility Score: inf
ROOT
ATOM      1  C   UNL     1     -15.782  22.168  43.360  1.00  0.00     0.063 C 
ATOM      2  C   UNL     1     -17.184  21.682  43.208  1.00  0.00     0.038 C 
ATOM      3  O   UNL     1     -17.978  22.278  42.434  1.00  0.00    -0.550 OA
ATOM      4  O   UNL     1     -17.633  20.607  43.962  1.00  0.00    -0.550 OA
ENDROOT
TORSDOF 0
ENDMDL
MODEL 9
REMARK VINA RESULT:    -1.654      4.555      5.402
REMARK INTER + INTRA:          -1.654
REMARK INTER:                  -1.654
REMARK INTRA:                   0.000
REMARK UNBOUND:                 0.000
REMARK SMILES CC(=O)[O-]
REMARK SMILES IDX 1 1 2 2 3 3 4 4
REMARK H PARENT
REMARK Flexibility Score: inf
ROOT
ATOM      1  C   UNL     1      -8.641  22.906  32.761  1.00  0.00     0.063 C 
ATOM      2  C   UNL     1      -8.453  22.541  31.327  1.00  0.00     0.038 C 
ATOM      3  O   UNL     1      -8.138  23.423  30.487  1.00  0.00    -0.550 OA
ATOM      4  O   UNL     1      -8.680  21.237  30.906  1.00  0.00    -0.550 OA
ENDROOT
TORSDOF 0
ENDMDL
