MODEL 1
REMARK VINA RESULT:    -6.049      0.000      0.000
REMARK INTER + INTRA:          -6.811
REMARK INTER:                  -6.579
REMARK INTRA:                  -0.232
REMARK UNBOUND:                -0.232
REMARK SMILES O=C([O-])c1ccccc1O
REMARK SMILES IDX 4 1 9 2 5 3 8 4 6 5 7 6 2 7 1 8 3 9 10 10
REMARK H PARENT 10 11
REMARK Flexibility Score: inf
ROOT
ATOM      1  C   UNL     1       4.466   8.180  12.548  1.00  0.00     0.039 A 
ATOM      2  C   UNL     1       4.006   9.009  13.600  1.00  0.00     0.124 A 
ATOM      3  C   UNL     1       4.384   8.655  11.225  1.00  0.00     0.014 A 
ATOM      4  C   UNL     1       3.480  10.277  13.312  1.00  0.00     0.047 A 
ATOM      5  C   UNL     1       3.858   9.921  10.953  1.00  0.00     0.001 A 
ATOM      6  C   UNL     1       3.407  10.731  11.994  1.00  0.00     0.004 A 
ENDROOT
BRANCH   1   7
ATOM      7  C   UNL     1       5.031   6.830  12.800  1.00  0.00     0.075 C 
ATOM      8  O   UNL     1       6.063   6.679  13.504  1.00  0.00    -0.545 OA
ATOM      9  O   UNL     1       4.421   5.703  12.260  1.00  0.00    -0.545 OA
ENDBRANCH   1   7
BRANCH   2  10
ATOM     10  O   UNL     1       4.067   8.579  14.926  1.00  0.00    -0.507 OA
ATOM     11  H   UNL     1       4.096   9.235  15.698  1.00  0.00     0.293 HD
ENDBRANCH   2  10
TORSDOF 2
ENDMDL
MODEL 2
REMARK VINA RESULT:    -5.557      2.241      4.040
REMARK INTER + INTRA:          -6.276
REMARK INTER:                  -6.058
REMARK INTRA:                  -0.217
REMARK UNBOUND:                -0.232
REMARK SMILES O=C([O-])c1ccccc1O
REMARK SMILES IDX 4 1 9 2 5 3 8 4 6 5 7 6 2 7 1 8 3 9 10 10
REMARK H PARENT 10 11
REMARK Flexibility Score: inf
ROOT
ATOM      1  C   UNL     1       5.159   7.253  13.456  1.00  0.00     0.039 A 
ATOM      2  C   UNL     1       6.482   7.103  13.936  1.00  0.00     0.124 A 
ATOM      3  C   UNL     1       4.594   6.216  12.690  1.00  0.00     0.014 A 
ATOM      4  C   UNL     1       7.204   5.936  13.643  1.00  0.00     0.047 A 
ATOM      5  C   UNL     1       5.324   5.059  12.406  1.00  0.00     0.001 A 
ATOM      6  C   UNL     1       6.627   4.919  12.883  1.00  0.00     0.004 A 
ENDROOT
BRANCH   1   7
ATOM      7  C   UNL     1       4.354   8.469  13.738  1.00  0.00     0.075 C 
ATOM      8  O   UNL     1       4.012   8.763  14.914  1.00  0.00    -0.545 OA
ATOM      9  O   UNL     1       3.964   9.308  12.700  1.00  0.00    -0.545 OA
ENDBRANCH   1   7
BRANCH   2  10
ATOM     10  O   UNL     1       7.083   8.105  14.699  1.00  0.00    -0.507 OA
ATOM     11  H   UNL     1       6.537   8.820  15.165  1.00  0.00     0.293 HD
ENDBRANCH   2  10
TORSDOF 2
ENDMDL
MODEL 3
REMARK VINA RESULT:    -5.250      2.531      3.724
REMARK INTER + INTRA:          -5.942
REMARK INTER:                  -5.810
REMARK INTRA:                  -0.132
REMARK UNBOUND:                -0.232
REMARK SMILES O=C([O-])c1ccccc1O
REMARK SMILES IDX 4 1 9 2 5 3 8 4 6 5 7 6 2 7 1 8 3 9 10 10
REMARK H PARENT 10 11
REMARK Flexibility Score: inf
ROOT
ATOM      1  C   UNL     1       3.713   9.668  12.048  1.00  0.00     0.039 A 
ATOM      2  C   UNL     1       3.619   9.548  13.456  1.00  0.00     0.124 A 
ATOM      3  C   UNL     1       4.378   8.660  11.325  1.00  0.00     0.014 A 
ATOM      4  C   UNL     1       4.186   8.439  14.103  1.00  0.00     0.047 A 
ATOM      5  C   UNL     1       4.938   7.560  11.982  1.00  0.00     0.001 A 
ATOM      6  C   UNL     1       4.842   7.450  13.368  1.00  0.00     0.004 A 
ENDROOT
BRANCH   1   7
ATOM      7  C   UNL     1       3.130  10.821  11.318  1.00  0.00     0.075 C 
ATOM      8  O   UNL     1       1.894  10.887  11.087  1.00  0.00    -0.545 OA
ATOM      9  O   UNL     1       3.947  11.856  10.875  1.00  0.00    -0.545 OA
ENDBRANCH   1   7
BRANCH   2  10
ATOM     10  O   UNL     1       2.970  10.523  14.214  1.00  0.00    -0.507 OA
ATOM     11  H   UNL     1       2.953  11.495  13.930  1.00  0.00     0.293 HD
ENDBRANCH   2  10
TORSDOF 2
ENDMDL
MODEL 4
REMARK VINA RESULT:    -4.879      2.013      4.251
REMARK INTER + INTRA:          -5.538
REMARK INTER:                  -5.454
REMARK INTRA:                  -0.084
REMARK UNBOUND:                -0.232
REMARK SMILES O=C([O-])c1ccccc1O
REMARK SMILES IDX 4 1 9 2 5 3 8 4 6 5 7 6 2 7 1 8 3 9 10 10
REMARK H PARENT 10 11
REMARK Flexibility Score: inf
ROOT
ATOM      1  C   UNL     1       5.407   7.130  13.213  1.00  0.00     0.039 A 
ATOM      2  C   UNL     1       5.040   5.846  12.740  1.00  0.00     0.124 A 
ATOM      3  C   UNL     1       6.769   7.402  13.446  1.00  0.00     0.014 A 
ATOM      4  C   UNL     1       6.028   4.875  12.515  1.00  0.00     0.047 A 
ATOM      5  C   UNL     1       7.742   6.426  13.216  1.00  0.00     0.001 A 
ATOM      6  C   UNL     1       7.372   5.165  12.751  1.00  0.00     0.004 A 
ENDROOT
BRANCH   1   7
ATOM      7  C   UNL     1       4.400   8.191  13.467  1.00  0.00     0.075 C 
ATOM      8  O   UNL     1       3.863   8.320  14.599  1.00  0.00    -0.545 OA
ATOM      9  O   UNL     1       4.033   9.067  12.451  1.00  0.00    -0.545 OA
ENDBRANCH   1   7
BRANCH   2  10
ATOM     10  O   UNL     1       3.703   5.531  12.496  1.00  0.00    -0.507 OA
ATOM     11  H   UNL     1       2.969   6.225  12.572  1.00  0.00     0.293 HD
ENDBRANCH   2  10
TORSDOF 2
ENDMDL
MODEL 5
REMARK VINA RESULT:    -4.814      1.418      2.485
REMARK INTER + INTRA:          -5.468
REMARK INTER:                  -5.229
REMARK INTRA:                  -0.238
REMARK UNBOUND:                -0.232
REMARK SMILES O=C([O-])c1ccccc1O
REMARK SMILES IDX 4 1 9 2 5 3 8 4 6 5 7 6 2 7 1 8 3 9 10 10
REMARK H PARENT 10 11
REMARK Flexibility Score: inf
ROOT
ATOM      1  C   UNL     1       4.765   7.882  13.307  1.00  0.00     0.039 A 
ATOM      2  C   UNL     1       4.375   8.582  12.140  1.00  0.00     0.124 A 
ATOM      3  C   UNL     1       4.366   8.381  14.562  1.00  0.00     0.014 A 
ATOM      4  C   UNL     1       3.606   9.751  12.249  1.00  0.00     0.047 A 
ATOM      5  C   UNL     1       3.599   9.545  14.656  1.00  0.00     0.001 A 
ATOM      6  C   UNL     1       3.219  10.229  13.502  1.00  0.00     0.004 A 
ENDROOT
BRANCH   1   7
ATOM      7  C   UNL     1       5.579   6.642  13.244  1.00  0.00     0.075 C 
ATOM      8  O   UNL     1       5.177   5.632  12.608  1.00  0.00    -0.545 OA
ATOM      9  O   UNL     1       6.808   6.577  13.891  1.00  0.00    -0.545 OA
ENDBRANCH   1   7
BRANCH   2  10
ATOM     10  O   UNL     1       4.749   8.126  10.875  1.00  0.00    -0.507 OA
ATOM     11  H   UNL     1       4.589   8.678  10.040  1.00  0.00     0.293 HD
ENDBRANCH   2  10
TORSDOF 2
ENDMDL
MODEL 6
REMARK VINA RESULT:    -4.810      2.235      2.754
REMARK INTER + INTRA:          -5.463
REMARK INTER:                  -5.314
REMARK INTRA:                  -0.149
REMARK UNBOUND:                -0.232
REMARK SMILES O=C([O-])c1ccccc1O
REMARK SMILES IDX 4 1 9 2 5 3 8 4 6 5 7 6 2 7 1 8 3 9 10 10
REMARK H PARENT 10 11
REMARK Flexibility Score: inf
ROOT
ATOM      1  C   UNL     1       6.097   6.924  12.951  1.00  0.00     0.039 A 
ATOM      2  C   UNL     1       6.290   7.659  14.146  1.00  0.00     0.124 A 
ATOM      3  C   UNL     1       4.884   7.073  12.253  1.00  0.00     0.014 A 
ATOM      4  C   UNL     1       5.279   8.514  14.613  1.00  0.00     0.047 A 
ATOM      5  C   UNL     1       3.886   7.928  12.728  1.00  0.00     0.001 A 
ATOM      6  C   UNL     1       4.084   8.648  13.906  1.00  0.00     0.004 A 
ENDROOT
BRANCH   1   7
ATOM      7  C   UNL     1       7.135   6.007  12.417  1.00  0.00     0.075 C 
ATOM      8  O   UNL     1       7.331   4.876  12.933  1.00  0.00    -0.545 OA
ATOM      9  O   UNL     1       7.912   6.387  11.327  1.00  0.00    -0.545 OA
ENDBRANCH   1   7
BRANCH   2  10
ATOM     10  O   UNL     1       7.476   7.543  14.873  1.00  0.00    -0.507 OA
ATOM     11  H   UNL     1       7.740   6.676  15.327  1.00  0.00     0.293 HD
ENDBRANCH   2  10
TORSDOF 2
ENDMDL
MODEL 7
REMARK VINA RESULT:    -4.600      2.705      3.923
REMARK INTER + INTRA:          -5.235
REMARK INTER:                  -4.994
REMARK INTRA:                  -0.241
REMARK UNBOUND:                -0.232
REMARK SMILES O=C([O-])c1ccccc1O
REMARK SMILES IDX 4 1 9 2 5 3 8 4 6 5 7 6 2 7 1 8 3 9 10 10
REMARK H PARENT 10 11
REMARK Flexibility Score: inf
ROOT
ATOM      1  C   UNL     1       6.488   7.026  13.635  1.00  0.00     0.039 A 
ATOM      2  C   UNL     1       5.148   7.428  13.422  1.00  0.00     0.124 A 
ATOM      3  C   UNL     1       6.884   5.740  13.219  1.00  0.00     0.014 A 
ATOM      4  C   UNL     1       4.243   6.549  12.807  1.00  0.00     0.047 A 
ATOM      5  C   UNL     1       5.973   4.875  12.607  1.00  0.00     0.001 A 
ATOM      6  C   UNL     1       4.654   5.279  12.401  1.00  0.00     0.004 A 
ENDROOT
BRANCH   1   7
ATOM      7  C   UNL     1       7.483   7.918  14.281  1.00  0.00     0.075 C 
ATOM      8  O   UNL     1       7.156   8.677  15.231  1.00  0.00    -0.545 OA
ATOM      9  O   UNL     1       8.804   7.929  13.843  1.00  0.00    -0.545 OA
ENDBRANCH   1   7
BRANCH   2  10
ATOM     10  O   UNL     1       4.710   8.692  13.818  1.00  0.00    -0.507 OA
ATOM     11  H   UNL     1       4.987   9.532  13.322  1.00  0.00     0.293 HD
ENDBRANCH   2  10
TORSDOF 2
ENDMDL
MODEL 8
REMARK VINA RESULT:    -4.447      1.111      2.610
REMARK INTER + INTRA:          -5.069
REMARK INTER:                  -4.829
REMARK INTRA:                  -0.240
REMARK UNBOUND:                -0.232
REMARK SMILES O=C([O-])c1ccccc1O
REMARK SMILES IDX 4 1 9 2 5 3 8 4 6 5 7 6 2 7 1 8 3 9 10 10
REMARK H PARENT 10 11
REMARK Flexibility Score: inf
ROOT
ATOM      1  C   UNL     1       4.150   9.152  13.318  1.00  0.00     0.039 A 
ATOM      2  C   UNL     1       4.489   8.555  12.079  1.00  0.00     0.124 A 
ATOM      3  C   UNL     1       3.427  10.360  13.313  1.00  0.00     0.014 A 
ATOM      4  C   UNL     1       4.105   9.171  10.878  1.00  0.00     0.047 A 
ATOM      5  C   UNL     1       3.051  10.962  12.110  1.00  0.00     0.001 A 
ATOM      6  C   UNL     1       3.389  10.368  10.894  1.00  0.00     0.004 A 
ENDROOT
BRANCH   1   7
ATOM      7  C   UNL     1       4.533   8.540  14.615  1.00  0.00     0.075 C 
ATOM      8  O   UNL     1       3.780   8.623  15.621  1.00  0.00    -0.545 OA
ATOM      9  O   UNL     1       5.739   7.858  14.740  1.00  0.00    -0.545 OA
ENDBRANCH   1   7
BRANCH   2  10
ATOM     10  O   UNL     1       5.205   7.358  12.035  1.00  0.00    -0.507 OA
ATOM     11  H   UNL     1       5.803   7.066  12.800  1.00  0.00     0.293 HD
ENDBRANCH   2  10
TORSDOF 2
ENDMDL
MODEL 9
REMARK VINA RESULT:    -4.404      2.632      4.086
REMARK INTER + INTRA:          -5.022
REMARK INTER:                  -4.852
REMARK INTRA:                  -0.170
REMARK UNBOUND:                -0.232
REMARK SMILES O=C([O-])c1ccccc1O
REMARK SMILES IDX 4 1 9 2 5 3 8 4 6 5 7 6 2 7 1 8 3 9 10 10
REMARK H PARENT 10 11
REMARK Flexibility Score: inf
ROOT
ATOM      1  C   UNL     1       3.410   9.974  12.515  1.00  0.00     0.039 A 
ATOM      2  C   UNL     1       4.244   8.875  12.196  1.00  0.00     0.124 A 
ATOM      3  C   UNL     1       3.064  10.195  13.861  1.00  0.00     0.014 A 
ATOM      4  C   UNL     1       4.708   8.031  13.216  1.00  0.00     0.047 A 
ATOM      5  C   UNL     1       3.534   9.347  14.867  1.00  0.00     0.001 A 
ATOM      6  C   UNL     1       4.355   8.266  14.546  1.00  0.00     0.004 A 
ENDROOT
BRANCH   1   7
ATOM      7  C   UNL     1       2.893  10.896  11.472  1.00  0.00     0.075 C 
ATOM      8  O   UNL     1       3.648  11.733  10.912  1.00  0.00    -0.545 OA
ATOM      9  O   UNL     1       1.555  10.847  11.094  1.00  0.00    -0.545 OA
ENDBRANCH   1   7
BRANCH   2  10
ATOM     10  O   UNL     1       4.612   8.617  10.875  1.00  0.00    -0.507 OA
ATOM     11  H   UNL     1       5.209   9.249  10.355  1.00  0.00     0.293 HD
ENDBRANCH   2  10
TORSDOF 2
ENDMDL
