MODEL 1
REMARK VINA RESULT:    -3.678      0.000      0.000
REMARK INTER + INTRA:          -5.061
REMARK INTER:                  -4.753
REMARK INTRA:                  -0.308
REMARK UNBOUND:                -0.308
REMARK SMILES C=CC(=O)CCCCC
REMARK SMILES IDX 6 1 7 2 8 3 9 4 5 5 3 6 4 7 2 8 1 9
REMARK H PARENT
REMARK Flexibility Score: inf
ROOT
ATOM      1  C   UNL     1      44.137  57.198  29.121  1.00  0.00     0.008 C 
ENDROOT
BRANCH   1   2
ATOM      2  C   UNL     1      42.802  56.666  28.573  1.00  0.00     0.000 C 
BRANCH   2   3
ATOM      3  C   UNL     1      42.995  55.591  27.491  1.00  0.00    -0.003 C 
ATOM      4  C   UNL     1      42.187  54.323  27.765  1.00  0.00     0.004 C 
ENDBRANCH   2   3
ENDBRANCH   1   2
BRANCH   1   5
ATOM      5  C   UNL     1      45.285  57.031  28.115  1.00  0.00     0.080 C 
BRANCH   5   6
ATOM      6  C   UNL     1      45.728  58.348  27.544  1.00  0.00     0.155 C 
ATOM      7  O   UNL     1      46.842  58.826  27.891  1.00  0.00    -0.295 OA
BRANCH   6   8
ATOM      8  C   UNL     1      44.877  59.059  26.569  1.00  0.00     0.039 C 
ATOM      9  C   UNL     1      45.340  59.487  25.396  1.00  0.00     0.012 C 
ENDBRANCH   6   8
ENDBRANCH   5   6
ENDBRANCH   1   5
TORSDOF 5
ENDMDL
MODEL 2
REMARK VINA RESULT:    -3.668      1.334      1.810
REMARK INTER + INTRA:          -5.048
REMARK INTER:                  -4.525
REMARK INTRA:                  -0.523
REMARK UNBOUND:                -0.308
REMARK SMILES C=CC(=O)CCCCC
REMARK SMILES IDX 6 1 7 2 8 3 9 4 5 5 3 6 4 7 2 8 1 9
REMARK H PARENT
REMARK Flexibility Score: inf
ROOT
ATOM      1  C   UNL     1      44.267  57.165  29.024  1.00  0.00     0.008 C 
ENDROOT
BRANCH   1   2
ATOM      2  C   UNL     1      42.855  56.731  28.594  1.00  0.00     0.000 C 
BRANCH   2   3
ATOM      3  C   UNL     1      42.855  55.391  27.840  1.00  0.00    -0.003 C 
ATOM      4  C   UNL     1      42.664  55.560  26.333  1.00  0.00     0.004 C 
ENDBRANCH   2   3
ENDBRANCH   1   2
BRANCH   1   5
ATOM      5  C   UNL     1      44.879  58.189  28.057  1.00  0.00     0.080 C 
BRANCH   5   6
ATOM      6  C   UNL     1      46.320  57.889  27.759  1.00  0.00     0.155 C 
ATOM      7  O   UNL     1      47.189  58.782  27.953  1.00  0.00    -0.295 OA
BRANCH   6   8
ATOM      8  C   UNL     1      46.716  56.552  27.270  1.00  0.00     0.039 C 
ATOM      9  C   UNL     1      46.325  56.080  26.088  1.00  0.00     0.012 C 
ENDBRANCH   6   8
ENDBRANCH   5   6
ENDBRANCH   1   5
TORSDOF 5
ENDMDL
MODEL 3
REMARK VINA RESULT:    -3.651      1.629      1.973
REMARK INTER + INTRA:          -5.025
REMARK INTER:                  -4.468
REMARK INTRA:                  -0.557
REMARK UNBOUND:                -0.308
REMARK SMILES C=CC(=O)CCCCC
REMARK SMILES IDX 6 1 7 2 8 3 9 4 5 5 3 6 4 7 2 8 1 9
REMARK H PARENT
REMARK Flexibility Score: inf
ROOT
ATOM      1  C   UNL     1      45.136  57.217  28.283  1.00  0.00     0.008 C 
ENDROOT
BRANCH   1   2
ATOM      2  C   UNL     1      43.916  57.076  29.210  1.00  0.00     0.000 C 
BRANCH   2   3
ATOM      3  C   UNL     1      42.640  56.683  28.449  1.00  0.00    -0.003 C 
ATOM      4  C   UNL     1      42.673  55.241  27.943  1.00  0.00     0.004 C 
ENDBRANCH   2   3
ENDBRANCH   1   2
BRANCH   1   5
ATOM      5  C   UNL     1      45.246  58.625  27.680  1.00  0.00     0.080 C 
BRANCH   5   6
ATOM      6  C   UNL     1      45.008  58.621  26.197  1.00  0.00     0.155 C 
ATOM      7  O   UNL     1      44.911  59.720  25.586  1.00  0.00    -0.295 OA
BRANCH   6   8
ATOM      8  C   UNL     1      44.917  57.344  25.462  1.00  0.00     0.039 C 
ATOM      9  C   UNL     1      43.810  56.964  24.825  1.00  0.00     0.012 C 
ENDBRANCH   6   8
ENDBRANCH   5   6
ENDBRANCH   1   5
TORSDOF 5
ENDMDL
MODEL 4
REMARK VINA RESULT:    -3.583      1.169      1.517
REMARK INTER + INTRA:          -4.939
REMARK INTER:                  -4.633
REMARK INTRA:                  -0.305
REMARK UNBOUND:                -0.308
REMARK SMILES C=CC(=O)CCCCC
REMARK SMILES IDX 6 1 7 2 8 3 9 4 5 5 3 6 4 7 2 8 1 9
REMARK H PARENT
REMARK Flexibility Score: inf
ROOT
ATOM      1  C   UNL     1      44.870  58.299  28.299  1.00  0.00     0.008 C 
ENDROOT
BRANCH   1   2
ATOM      2  C   UNL     1      44.250  57.199  29.178  1.00  0.00     0.000 C 
BRANCH   2   3
ATOM      3  C   UNL     1      43.028  56.539  28.520  1.00  0.00    -0.003 C 
ATOM      4  C   UNL     1      43.380  55.793  27.233  1.00  0.00     0.004 C 
ENDBRANCH   2   3
ENDBRANCH   1   2
BRANCH   1   5
ATOM      5  C   UNL     1      46.315  57.972  27.893  1.00  0.00     0.080 C 
BRANCH   5   6
ATOM      6  C   UNL     1      46.691  58.615  26.589  1.00  0.00     0.155 C 
ATOM      7  O   UNL     1      47.890  58.948  26.389  1.00  0.00    -0.295 OA
BRANCH   6   8
ATOM      8  C   UNL     1      45.669  58.829  25.544  1.00  0.00     0.039 C 
ATOM      9  C   UNL     1      45.670  59.901  24.753  1.00  0.00     0.012 C 
ENDBRANCH   6   8
ENDBRANCH   5   6
ENDBRANCH   1   5
TORSDOF 5
ENDMDL
MODEL 5
REMARK VINA RESULT:    -3.578      2.571      4.182
REMARK INTER + INTRA:          -4.931
REMARK INTER:                  -4.404
REMARK INTRA:                  -0.528
REMARK UNBOUND:                -0.308
REMARK SMILES C=CC(=O)CCCCC
REMARK SMILES IDX 6 1 7 2 8 3 9 4 5 5 3 6 4 7 2 8 1 9
REMARK H PARENT
REMARK Flexibility Score: inf
ROOT
ATOM      1  C   UNL     1      43.485  57.057  28.776  1.00  0.00     0.008 C 
ENDROOT
BRANCH   1   2
ATOM      2  C   UNL     1      44.956  57.160  28.339  1.00  0.00     0.000 C 
BRANCH   2   3
ATOM      3  C   UNL     1      45.343  58.584  27.905  1.00  0.00    -0.003 C 
ATOM      4  C   UNL     1      44.718  58.985  26.568  1.00  0.00     0.004 C 
ENDBRANCH   2   3
ENDBRANCH   1   2
BRANCH   1   5
ATOM      5  C   UNL     1      42.808  55.788  28.237  1.00  0.00     0.080 C 
BRANCH   5   6
ATOM      6  C   UNL     1      41.808  56.100  27.161  1.00  0.00     0.155 C 
ATOM      7  O   UNL     1      40.581  56.134  27.450  1.00  0.00    -0.295 OA
BRANCH   6   8
ATOM      8  C   UNL     1      42.262  56.388  25.785  1.00  0.00     0.039 C 
ATOM      9  C   UNL     1      43.290  55.753  25.224  1.00  0.00     0.012 C 
ENDBRANCH   6   8
ENDBRANCH   5   6
ENDBRANCH   1   5
TORSDOF 5
ENDMDL
MODEL 6
REMARK VINA RESULT:    -3.577      1.556      2.398
REMARK INTER + INTRA:          -4.931
REMARK INTER:                  -4.454
REMARK INTRA:                  -0.477
REMARK UNBOUND:                -0.308
REMARK SMILES C=CC(=O)CCCCC
REMARK SMILES IDX 6 1 7 2 8 3 9 4 5 5 3 6 4 7 2 8 1 9
REMARK H PARENT
REMARK Flexibility Score: inf
ROOT
ATOM      1  C   UNL     1      44.806  58.078  27.829  1.00  0.00     0.008 C 
ENDROOT
BRANCH   1   2
ATOM      2  C   UNL     1      44.241  57.318  29.042  1.00  0.00     0.000 C 
BRANCH   2   3
ATOM      3  C   UNL     1      43.154  56.306  28.649  1.00  0.00    -0.003 C 
ATOM      4  C   UNL     1      43.345  55.750  27.237  1.00  0.00     0.004 C 
ENDBRANCH   2   3
ENDBRANCH   1   2
BRANCH   1   5
ATOM      5  C   UNL     1      46.250  58.547  28.060  1.00  0.00     0.080 C 
BRANCH   5   6
ATOM      6  C   UNL     1      47.200  57.946  27.064  1.00  0.00     0.155 C 
ATOM      7  O   UNL     1      48.297  58.525  26.833  1.00  0.00    -0.295 OA
BRANCH   6   8
ATOM      8  C   UNL     1      46.864  56.679  26.385  1.00  0.00     0.039 C 
ATOM      9  C   UNL     1      47.356  55.505  26.778  1.00  0.00     0.012 C 
ENDBRANCH   6   8
ENDBRANCH   5   6
ENDBRANCH   1   5
TORSDOF 5
ENDMDL
MODEL 7
REMARK VINA RESULT:    -3.544      1.799      2.694
REMARK INTER + INTRA:          -4.888
REMARK INTER:                  -4.641
REMARK INTRA:                  -0.247
REMARK UNBOUND:                -0.308
REMARK SMILES C=CC(=O)CCCCC
REMARK SMILES IDX 6 1 7 2 8 3 9 4 5 5 3 6 4 7 2 8 1 9
REMARK H PARENT
REMARK Flexibility Score: inf
ROOT
ATOM      1  C   UNL     1      45.404  58.678  27.784  1.00  0.00     0.008 C 
ENDROOT
BRANCH   1   2
ATOM      2  C   UNL     1      45.133  57.224  28.209  1.00  0.00     0.000 C 
BRANCH   2   3
ATOM      3  C   UNL     1      43.882  57.093  29.094  1.00  0.00    -0.003 C 
ATOM      4  C   UNL     1      42.761  56.302  28.420  1.00  0.00     0.004 C 
ENDBRANCH   2   3
ENDBRANCH   1   2
BRANCH   1   5
ATOM      5  C   UNL     1      44.754  59.019  26.436  1.00  0.00     0.080 C 
BRANCH   5   6
ATOM      6  C   UNL     1      45.779  59.315  25.378  1.00  0.00     0.155 C 
ATOM      7  O   UNL     1      45.395  59.678  24.233  1.00  0.00    -0.295 OA
BRANCH   6   8
ATOM      8  C   UNL     1      47.219  59.206  25.686  1.00  0.00     0.039 C 
ATOM      9  C   UNL     1      48.161  59.324  24.752  1.00  0.00     0.012 C 
ENDBRANCH   6   8
ENDBRANCH   5   6
ENDBRANCH   1   5
TORSDOF 5
ENDMDL
MODEL 8
REMARK VINA RESULT:    -3.417      1.846      4.600
REMARK INTER + INTRA:          -4.724
REMARK INTER:                  -4.398
REMARK INTRA:                  -0.326
REMARK UNBOUND:                -0.308
REMARK SMILES C=CC(=O)CCCCC
REMARK SMILES IDX 6 1 7 2 8 3 9 4 5 5 3 6 4 7 2 8 1 9
REMARK H PARENT
REMARK Flexibility Score: inf
ROOT
ATOM      1  C   UNL     1      47.174  57.062  27.178  1.00  0.00     0.008 C 
ENDROOT
BRANCH   1   2
ATOM      2  C   UNL     1      47.699  57.570  25.824  1.00  0.00     0.000 C 
BRANCH   2   3
ATOM      3  C   UNL     1      47.969  59.083  25.829  1.00  0.00    -0.003 C 
ATOM      4  C   UNL     1      47.137  59.836  24.791  1.00  0.00     0.004 C 
ENDBRANCH   2   3
ENDBRANCH   1   2
BRANCH   1   5
ATOM      5  C   UNL     1      46.551  58.186  28.019  1.00  0.00     0.080 C 
BRANCH   5   6
ATOM      6  C   UNL     1      45.052  58.180  27.941  1.00  0.00     0.155 C 
ATOM      7  O   UNL     1      44.481  58.785  26.992  1.00  0.00    -0.295 OA
BRANCH   6   8
ATOM      8  C   UNL     1      44.257  57.451  28.950  1.00  0.00     0.039 C 
ATOM      9  C   UNL     1      43.340  56.543  28.618  1.00  0.00     0.012 C 
ENDBRANCH   6   8
ENDBRANCH   5   6
ENDBRANCH   1   5
TORSDOF 5
ENDMDL
MODEL 9
REMARK VINA RESULT:    -3.409      1.815      3.193
REMARK INTER + INTRA:          -4.713
REMARK INTER:                  -4.089
REMARK INTRA:                  -0.623
REMARK UNBOUND:                -0.308
REMARK SMILES C=CC(=O)CCCCC
REMARK SMILES IDX 6 1 7 2 8 3 9 4 5 5 3 6 4 7 2 8 1 9
REMARK H PARENT
REMARK Flexibility Score: inf
ROOT
ATOM      1  C   UNL     1      45.059  58.229  25.488  1.00  0.00     0.008 C 
ENDROOT
BRANCH   1   2
ATOM      2  C   UNL     1      44.259  56.963  25.139  1.00  0.00     0.000 C 
BRANCH   2   3
ATOM      3  C   UNL     1      45.159  55.732  24.944  1.00  0.00    -0.003 C 
ATOM      4  C   UNL     1      44.943  54.665  26.017  1.00  0.00     0.004 C 
ENDBRANCH   2   3
ENDBRANCH   1   2
BRANCH   1   5
ATOM      5  C   UNL     1      44.737  58.750  26.896  1.00  0.00     0.080 C 
BRANCH   5   6
ATOM      6  C   UNL     1      45.211  57.808  27.965  1.00  0.00     0.155 C 
ATOM      7  O   UNL     1      46.422  57.457  27.984  1.00  0.00    -0.295 OA
BRANCH   6   8
ATOM      8  C   UNL     1      44.273  57.321  28.997  1.00  0.00     0.039 C 
ATOM      9  C   UNL     1      43.196  56.597  28.698  1.00  0.00     0.012 C 
ENDBRANCH   6   8
ENDBRANCH   5   6
ENDBRANCH   1   5
TORSDOF 5
ENDMDL
