MODEL 1
REMARK VINA RESULT:    -6.725      0.000      0.000
REMARK INTER + INTRA:          -6.921
REMARK INTER:                  -6.921
REMARK INTRA:                   0.000
REMARK UNBOUND:                 0.000
REMARK SMILES C[C@H]1CC[C@]2(OC1)O[C@H]1C[C@H]3[C@@H]4CC=C5C[C@@H](O)CC[C@]5(C)[C@@H]4CC[C@@]3(C)[C@H]1[C@H]2C
REMARK SMILES IDX 1 1 2 2 3 3 4 4 5 5 29 6 28 7 9 8 8 9 10 10 11 11 26 12
REMARK SMILES IDX 25 13 24 14 23 15 12 16 13 17 14 18 15 19 21 20 20 21 19 22
REMARK SMILES IDX 17 23 16 24 22 25 27 26 30 27 6 28 7 29 18 30
REMARK H PARENT 18 31
REMARK Flexibility Score: inf
ROOT
ATOM      1  C   UNL     1       1.879   9.374  11.665  1.00  0.00     0.010 C 
ATOM      2  C   UNL     1       1.076   9.530  12.963  1.00  0.00     0.012 C 
ATOM      3  C   UNL     1       0.990  11.014  13.386  1.00  0.00     0.011 C 
ATOM      4  C   UNL     1      -0.370  11.320  14.007  1.00  0.00     0.066 C 
ATOM      5  C   UNL     1      -1.501  10.979  12.989  1.00  0.00     0.171 C 
ATOM      6  C   UNL     1      -2.877  10.890  13.702  1.00  0.00     0.052 C 
ATOM      7  C   UNL     1      -3.793  11.827  12.910  1.00  0.00     0.033 C 
ATOM      8  C   UNL     1      -2.787  12.730  12.225  1.00  0.00     0.126 C 
ATOM      9  O   UNL     1      -1.559  12.051  12.070  1.00  0.00    -0.346 OA
ATOM     10  C   UNL     1      -3.358  13.107  10.864  1.00  0.00     0.037 C 
ATOM     11  C   UNL     1      -4.797  12.583  10.838  1.00  0.00     0.002 C 
ATOM     12  C   UNL     1      -4.811  11.363  11.807  1.00  0.00    -0.024 C 
ATOM     13  C   UNL     1      -4.393  10.063  11.065  1.00  0.00     0.008 C 
ATOM     14  C   UNL     1      -5.076   9.862   9.703  1.00  0.00     0.005 C 
ATOM     15  C   UNL     1      -4.787  11.038   8.749  1.00  0.00     0.003 C 
ATOM     16  C   UNL     1      -5.301  12.357   9.380  1.00  0.00     0.000 C 
ATOM     17  C   UNL     1      -6.833  12.468   9.294  1.00  0.00     0.031 C 
ATOM     18  C   UNL     1      -7.366  12.151   7.930  1.00  0.00    -0.027 C 
ATOM     19  C   UNL     1      -6.742  11.336   7.055  1.00  0.00    -0.065 C 
ATOM     20  C   UNL     1      -5.294  10.868   7.253  1.00  0.00    -0.008 C 
ATOM     21  C   UNL     1      -5.194   9.382   6.778  1.00  0.00     0.014 C 
ATOM     22  C   UNL     1      -5.785   9.134   5.381  1.00  0.00     0.033 C 
ATOM     23  C   UNL     1      -7.261   9.573   5.331  1.00  0.00     0.118 C 
ATOM     24  C   UNL     1      -7.423  11.047   5.727  1.00  0.00     0.063 C 
ATOM     25  C   UNL     1      -4.380  11.741   6.347  1.00  0.00     0.016 C 
ATOM     26  C   UNL     1      -6.204  11.169  12.460  1.00  0.00     0.012 C 
ATOM     27  C   UNL     1      -3.376   9.476  14.047  1.00  0.00     0.014 C 
ATOM     28  O   UNL     1      -1.240   9.801  12.217  1.00  0.00    -0.349 OA
ATOM     29  C   UNL     1      -0.329   8.903  12.827  1.00  0.00     0.167 C 
ENDROOT
BRANCH  23  30
ATOM     30  O   UNL     1      -7.815   9.350   4.058  1.00  0.00    -0.393 OA
ATOM     31  H   UNL     1      -7.995   8.380   3.975  1.00  0.00     0.210 HD
ENDBRANCH  23  30
TORSDOF 1
ENDMDL
MODEL 2
REMARK VINA RESULT:    -6.130      2.860      4.301
REMARK INTER + INTRA:          -6.310
REMARK INTER:                  -6.310
REMARK INTRA:                   0.000
REMARK UNBOUND:                 0.000
REMARK SMILES C[C@H]1CC[C@]2(OC1)O[C@H]1C[C@H]3[C@@H]4CC=C5C[C@@H](O)CC[C@]5(C)[C@@H]4CC[C@@]3(C)[C@H]1[C@H]2C
REMARK SMILES IDX 1 1 2 2 3 3 4 4 5 5 29 6 28 7 9 8 8 9 10 10 11 11 26 12
REMARK SMILES IDX 25 13 24 14 23 15 12 16 13 17 14 18 15 19 21 20 20 21 19 22
REMARK SMILES IDX 17 23 16 24 22 25 27 26 30 27 6 28 7 29 18 30
REMARK H PARENT 18 31
REMARK Flexibility Score: inf
ROOT
ATOM      1  C   UNL     1      -3.712   8.243  12.862  1.00  0.00     0.010 C 
ATOM      2  C   UNL     1      -4.989   8.974  13.298  1.00  0.00     0.012 C 
ATOM      3  C   UNL     1      -4.706  10.469  13.569  1.00  0.00     0.011 C 
ATOM      4  C   UNL     1      -5.887  11.329  13.130  1.00  0.00     0.066 C 
ATOM      5  C   UNL     1      -6.172  11.096  11.615  1.00  0.00     0.171 C 
ATOM      6  C   UNL     1      -7.580  11.625  11.231  1.00  0.00     0.052 C 
ATOM      7  C   UNL     1      -7.341  12.554  10.038  1.00  0.00     0.033 C 
ATOM      8  C   UNL     1      -5.873  12.891  10.204  1.00  0.00     0.126 C 
ATOM      9  O   UNL     1      -5.217  11.853  10.899  1.00  0.00    -0.346 OA
ATOM     10  C   UNL     1      -5.277  13.053   8.811  1.00  0.00     0.037 C 
ATOM     11  C   UNL     1      -6.452  13.008   7.830  1.00  0.00     0.002 C 
ATOM     12  C   UNL     1      -7.547  12.151   8.533  1.00  0.00    -0.024 C 
ATOM     13  C   UNL     1      -7.334  10.639   8.246  1.00  0.00     0.008 C 
ATOM     14  C   UNL     1      -7.048  10.306   6.774  1.00  0.00     0.005 C 
ATOM     15  C   UNL     1      -5.792  11.043   6.264  1.00  0.00     0.003 C 
ATOM     16  C   UNL     1      -5.995  12.573   6.404  1.00  0.00     0.000 C 
ATOM     17  C   UNL     1      -6.940  13.121   5.321  1.00  0.00     0.031 C 
ATOM     18  C   UNL     1      -6.597  12.636   3.946  1.00  0.00    -0.027 C 
ATOM     19  C   UNL     1      -5.967  11.469   3.701  1.00  0.00    -0.065 C 
ATOM     20  C   UNL     1      -5.291  10.649   4.809  1.00  0.00    -0.008 C 
ATOM     21  C   UNL     1      -5.533   9.134   4.508  1.00  0.00     0.014 C 
ATOM     22  C   UNL     1      -5.182   8.721   3.070  1.00  0.00     0.033 C 
ATOM     23  C   UNL     1      -5.978   9.562   2.054  1.00  0.00     0.118 C 
ATOM     24  C   UNL     1      -5.735  11.064   2.255  1.00  0.00     0.063 C 
ATOM     25  C   UNL     1      -3.763  10.929   4.749  1.00  0.00     0.016 C 
ATOM     26  C   UNL     1      -8.972  12.573   8.092  1.00  0.00     0.012 C 
ATOM     27  C   UNL     1      -8.702  10.576  11.144  1.00  0.00     0.014 C 
ATOM     28  O   UNL     1      -5.999   9.735  11.203  1.00  0.00    -0.349 OA
ATOM     29  C   UNL     1      -6.114   8.796  12.257  1.00  0.00     0.167 C 
ENDROOT
BRANCH  23  30
ATOM     30  O   UNL     1      -5.667   9.192   0.734  1.00  0.00    -0.393 OA
ATOM     31  H   UNL     1      -5.937   9.939   0.142  1.00  0.00     0.210 HD
ENDBRANCH  23  30
TORSDOF 1
ENDMDL
MODEL 3
REMARK VINA RESULT:    -6.004      1.000      1.149
REMARK INTER + INTRA:          -6.179
REMARK INTER:                  -6.179
REMARK INTRA:                   0.000
REMARK UNBOUND:                 0.000
REMARK SMILES C[C@H]1CC[C@]2(OC1)O[C@H]1C[C@H]3[C@@H]4CC=C5C[C@@H](O)CC[C@]5(C)[C@@H]4CC[C@@]3(C)[C@H]1[C@H]2C
REMARK SMILES IDX 1 1 2 2 3 3 4 4 5 5 29 6 28 7 9 8 8 9 10 10 11 11 26 12
REMARK SMILES IDX 25 13 24 14 23 15 12 16 13 17 14 18 15 19 21 20 20 21 19 22
REMARK SMILES IDX 17 23 16 24 22 25 27 26 30 27 6 28 7 29 18 30
REMARK H PARENT 18 31
REMARK Flexibility Score: inf
ROOT
ATOM      1  C   UNL     1       0.617   9.091  12.270  1.00  0.00     0.010 C 
ATOM      2  C   UNL     1      -0.383   9.363  13.401  1.00  0.00     0.012 C 
ATOM      3  C   UNL     1      -0.430  10.868  13.749  1.00  0.00     0.011 C 
ATOM      4  C   UNL     1      -1.850  11.294  14.111  1.00  0.00     0.066 C 
ATOM      5  C   UNL     1      -2.811  10.980  12.924  1.00  0.00     0.171 C 
ATOM      6  C   UNL     1      -4.292  11.019  13.388  1.00  0.00     0.052 C 
ATOM      7  C   UNL     1      -4.986  11.975  12.416  1.00  0.00     0.033 C 
ATOM      8  C   UNL     1      -3.813  12.774  11.884  1.00  0.00     0.126 C 
ATOM      9  O   UNL     1      -2.631  12.008  11.970  1.00  0.00    -0.346 OA
ATOM     10  C   UNL     1      -4.113  13.122  10.431  1.00  0.00     0.037 C 
ATOM     11  C   UNL     1      -5.560  12.695  10.174  1.00  0.00     0.002 C 
ATOM     12  C   UNL     1      -5.831  11.527  11.168  1.00  0.00    -0.024 C 
ATOM     13  C   UNL     1      -5.390  10.168  10.558  1.00  0.00     0.008 C 
ATOM     14  C   UNL     1      -5.842   9.947   9.107  1.00  0.00     0.005 C 
ATOM     15  C   UNL     1      -5.307  11.053   8.176  1.00  0.00     0.003 C 
ATOM     16  C   UNL     1      -5.822  12.433   8.659  1.00  0.00     0.000 C 
ATOM     17  C   UNL     1      -7.304  12.641   8.303  1.00  0.00     0.031 C 
ATOM     18  C   UNL     1      -7.617  12.295   6.879  1.00  0.00    -0.027 C 
ATOM     19  C   UNL     1      -6.915  11.399   6.157  1.00  0.00    -0.065 C 
ATOM     20  C   UNL     1      -5.561  10.845   6.622  1.00  0.00    -0.008 C 
ATOM     21  C   UNL     1      -5.491   9.334   6.225  1.00  0.00     0.014 C 
ATOM     22  C   UNL     1      -5.851   9.059   4.756  1.00  0.00     0.033 C 
ATOM     23  C   UNL     1      -7.259   9.593   4.433  1.00  0.00     0.118 C 
ATOM     24  C   UNL     1      -7.376  11.091   4.742  1.00  0.00     0.063 C 
ATOM     25  C   UNL     1      -4.442  11.610   5.858  1.00  0.00     0.016 C 
ATOM     26  C   UNL     1      -7.326  11.459  11.575  1.00  0.00     0.012 C 
ATOM     27  C   UNL     1      -4.947   9.660  13.692  1.00  0.00     0.014 C 
ATOM     28  O   UNL     1      -2.510   9.751  12.253  1.00  0.00    -0.349 OA
ATOM     29  C   UNL     1      -1.786   8.826  13.045  1.00  0.00     0.167 C 
ENDROOT
BRANCH  23  30
ATOM     30  O   UNL     1      -7.601   9.345   3.093  1.00  0.00    -0.393 OA
ATOM     31  H   UNL     1      -6.805   9.545   2.538  1.00  0.00     0.210 HD
ENDBRANCH  23  30
TORSDOF 1
ENDMDL
MODEL 4
REMARK VINA RESULT:    -5.464     11.728     16.512
REMARK INTER + INTRA:          -5.624
REMARK INTER:                  -5.624
REMARK INTRA:                   0.000
REMARK UNBOUND:                 0.000
REMARK SMILES C[C@H]1CC[C@]2(OC1)O[C@H]1C[C@H]3[C@@H]4CC=C5C[C@@H](O)CC[C@]5(C)[C@@H]4CC[C@@]3(C)[C@H]1[C@H]2C
REMARK SMILES IDX 1 1 2 2 3 3 4 4 5 5 29 6 28 7 9 8 8 9 10 10 11 11 26 12
REMARK SMILES IDX 25 13 24 14 23 15 12 16 13 17 14 18 15 19 21 20 20 21 19 22
REMARK SMILES IDX 17 23 16 24 22 25 27 26 30 27 6 28 7 29 18 30
REMARK H PARENT 18 31
REMARK Flexibility Score: inf
ROOT
ATOM      1  C   UNL     1       2.636  -5.226   9.946  1.00  0.00     0.010 C 
ATOM      2  C   UNL     1       3.755  -5.809  10.818  1.00  0.00     0.012 C 
ATOM      3  C   UNL     1       5.064  -5.959  10.010  1.00  0.00     0.011 C 
ATOM      4  C   UNL     1       6.276  -5.657  10.887  1.00  0.00     0.066 C 
ATOM      5  C   UNL     1       6.159  -4.215  11.468  1.00  0.00     0.171 C 
ATOM      6  C   UNL     1       7.136  -4.018  12.658  1.00  0.00     0.052 C 
ATOM      7  C   UNL     1       7.932  -2.757  12.310  1.00  0.00     0.033 C 
ATOM      8  C   UNL     1       7.748  -2.685  10.808  1.00  0.00     0.126 C 
ATOM      9  O   UNL     1       6.547  -3.327  10.439  1.00  0.00    -0.346 OA
ATOM     10  C   UNL     1       7.702  -1.213  10.420  1.00  0.00     0.037 C 
ATOM     11  C   UNL     1       8.062  -0.421  11.680  1.00  0.00     0.002 C 
ATOM     12  C   UNL     1       7.627  -1.322  12.874  1.00  0.00    -0.024 C 
ATOM     13  C   UNL     1       6.133  -1.084  13.230  1.00  0.00     0.008 C 
ATOM     14  C   UNL     1       5.727   0.396  13.307  1.00  0.00     0.005 C 
ATOM     15  C   UNL     1       5.994   1.123  11.974  1.00  0.00     0.003 C 
ATOM     16  C   UNL     1       7.501   1.033  11.625  1.00  0.00     0.000 C 
ATOM     17  C   UNL     1       8.341   1.989  12.489  1.00  0.00     0.031 C 
ATOM     18  C   UNL     1       7.772   3.374  12.549  1.00  0.00    -0.027 C 
ATOM     19  C   UNL     1       6.461   3.650  12.395  1.00  0.00    -0.065 C 
ATOM     20  C   UNL     1       5.457   2.615  11.870  1.00  0.00    -0.008 C 
ATOM     21  C   UNL     1       4.115   2.799  12.651  1.00  0.00     0.014 C 
ATOM     22  C   UNL     1       3.612   4.251  12.690  1.00  0.00     0.033 C 
ATOM     23  C   UNL     1       4.676   5.178  13.306  1.00  0.00     0.118 C 
ATOM     24  C   UNL     1       6.005   5.092  12.543  1.00  0.00     0.063 C 
ATOM     25  C   UNL     1       5.200   2.916  10.366  1.00  0.00     0.016 C 
ATOM     26  C   UNL     1       8.509  -1.077  14.125  1.00  0.00     0.012 C 
ATOM     27  C   UNL     1       6.531  -4.152  14.067  1.00  0.00     0.014 C 
ATOM     28  O   UNL     1       4.821  -3.851  11.829  1.00  0.00    -0.349 OA
ATOM     29  C   UNL     1       3.974  -4.958  12.087  1.00  0.00     0.167 C 
ENDROOT
BRANCH  23  30
ATOM     30  O   UNL     1       4.226   6.509  13.348  1.00  0.00    -0.393 OA
ATOM     31  H   UNL     1       4.605   6.979  12.563  1.00  0.00     0.210 HD
ENDBRANCH  23  30
TORSDOF 1
ENDMDL
MODEL 5
REMARK VINA RESULT:    -4.692      5.675     10.055
REMARK INTER + INTRA:          -4.830
REMARK INTER:                  -4.830
REMARK INTRA:                   0.000
REMARK UNBOUND:                 0.000
REMARK SMILES C[C@H]1CC[C@]2(OC1)O[C@H]1C[C@H]3[C@@H]4CC=C5C[C@@H](O)CC[C@]5(C)[C@@H]4CC[C@@]3(C)[C@H]1[C@H]2C
REMARK SMILES IDX 1 1 2 2 3 3 4 4 5 5 29 6 28 7 9 8 8 9 10 10 11 11 26 12
REMARK SMILES IDX 25 13 24 14 23 15 12 16 13 17 14 18 15 19 21 20 20 21 19 22
REMARK SMILES IDX 17 23 16 24 22 25 27 26 30 27 6 28 7 29 18 30
REMARK H PARENT 18 31
REMARK Flexibility Score: inf
ROOT
ATOM      1  C   UNL     1     -10.124   8.245  -0.854  1.00  0.00     0.010 C 
ATOM      2  C   UNL     1      -8.608   8.309  -1.083  1.00  0.00     0.012 C 
ATOM      3  C   UNL     1      -8.178   9.721  -1.543  1.00  0.00     0.011 C 
ATOM      4  C   UNL     1      -6.821  10.090  -0.951  1.00  0.00     0.066 C 
ATOM      5  C   UNL     1      -6.891  10.024   0.606  1.00  0.00     0.171 C 
ATOM      6  C   UNL     1      -5.467   9.995   1.221  1.00  0.00     0.052 C 
ATOM      7  C   UNL     1      -5.457  11.130   2.248  1.00  0.00     0.033 C 
ATOM      8  C   UNL     1      -6.596  11.999   1.753  1.00  0.00     0.126 C 
ATOM      9  O   UNL     1      -7.523  11.213   1.036  1.00  0.00    -0.346 OA
ATOM     10  C   UNL     1      -7.262  12.623   2.972  1.00  0.00     0.037 C 
ATOM     11  C   UNL     1      -6.380  12.275   4.174  1.00  0.00     0.002 C 
ATOM     12  C   UNL     1      -5.669  10.942   3.794  1.00  0.00    -0.024 C 
ATOM     13  C   UNL     1      -6.550   9.719   4.169  1.00  0.00     0.008 C 
ATOM     14  C   UNL     1      -7.166   9.787   5.575  1.00  0.00     0.005 C 
ATOM     15  C   UNL     1      -8.044  11.043   5.745  1.00  0.00     0.003 C 
ATOM     16  C   UNL     1      -7.185  12.313   5.509  1.00  0.00     0.000 C 
ATOM     17  C   UNL     1      -6.267  12.607   6.708  1.00  0.00     0.031 C 
ATOM     18  C   UNL     1      -6.986  12.545   8.022  1.00  0.00    -0.027 C 
ATOM     19  C   UNL     1      -8.084  11.794   8.238  1.00  0.00    -0.065 C 
ATOM     20  C   UNL     1      -8.874  11.141   7.095  1.00  0.00    -0.008 C 
ATOM     21  C   UNL     1      -9.354   9.733   7.578  1.00  0.00     0.014 C 
ATOM     22  C   UNL     1     -10.057   9.751   8.945  1.00  0.00     0.033 C 
ATOM     23  C   UNL     1      -9.137  10.357  10.021  1.00  0.00     0.118 C 
ATOM     24  C   UNL     1      -8.678  11.770   9.637  1.00  0.00     0.063 C 
ATOM     25  C   UNL     1     -10.125  12.021   6.813  1.00  0.00     0.016 C 
ATOM     26  C   UNL     1      -4.283  10.819   4.479  1.00  0.00     0.012 C 
ATOM     27  C   UNL     1      -4.930   8.613   1.634  1.00  0.00     0.014 C 
ATOM     28  O   UNL     1      -7.691   8.942   1.097  1.00  0.00    -0.349 OA
ATOM     29  C   UNL     1      -7.836   7.871   0.180  1.00  0.00     0.167 C 
ENDROOT
BRANCH  23  30
ATOM     30  O   UNL     1      -9.768  10.377  11.277  1.00  0.00    -0.393 OA
ATOM     31  H   UNL     1      -9.200   9.865  11.906  1.00  0.00     0.210 HD
ENDBRANCH  23  30
TORSDOF 1
ENDMDL
MODEL 6
REMARK VINA RESULT:    -4.602     13.306     18.034
REMARK INTER + INTRA:          -4.737
REMARK INTER:                  -4.737
REMARK INTRA:                   0.000
REMARK UNBOUND:                 0.000
REMARK SMILES C[C@H]1CC[C@]2(OC1)O[C@H]1C[C@H]3[C@@H]4CC=C5C[C@@H](O)CC[C@]5(C)[C@@H]4CC[C@@]3(C)[C@H]1[C@H]2C
REMARK SMILES IDX 1 1 2 2 3 3 4 4 5 5 29 6 28 7 9 8 8 9 10 10 11 11 26 12
REMARK SMILES IDX 25 13 24 14 23 15 12 16 13 17 14 18 15 19 21 20 20 21 19 22
REMARK SMILES IDX 17 23 16 24 22 25 27 26 30 27 6 28 7 29 18 30
REMARK H PARENT 18 31
REMARK Flexibility Score: inf
ROOT
ATOM      1  C   UNL     1       2.300  -5.756   8.508  1.00  0.00     0.010 C 
ATOM      2  C   UNL     1       3.160  -6.660   9.400  1.00  0.00     0.012 C 
ATOM      3  C   UNL     1       4.483  -7.037   8.695  1.00  0.00     0.011 C 
ATOM      4  C   UNL     1       5.629  -7.106   9.701  1.00  0.00     0.066 C 
ATOM      5  C   UNL     1       5.773  -5.735  10.429  1.00  0.00     0.171 C 
ATOM      6  C   UNL     1       6.634  -5.880  11.712  1.00  0.00     0.052 C 
ATOM      7  C   UNL     1       7.723  -4.813  11.579  1.00  0.00     0.033 C 
ATOM      8  C   UNL     1       7.725  -4.564  10.084  1.00  0.00     0.126 C 
ATOM      9  O   UNL     1       6.459  -4.873   9.544  1.00  0.00    -0.346 OA
ATOM     10  C   UNL     1       8.051  -3.092   9.863  1.00  0.00     0.037 C 
ATOM     11  C   UNL     1       8.439  -2.524  11.230  1.00  0.00     0.002 C 
ATOM     12  C   UNL     1       7.686  -3.403  12.273  1.00  0.00    -0.024 C 
ATOM     13  C   UNL     1       6.254  -2.857  12.525  1.00  0.00     0.008 C 
ATOM     14  C   UNL     1       6.181  -1.337  12.735  1.00  0.00     0.005 C 
ATOM     15  C   UNL     1       6.747  -0.574  11.521  1.00  0.00     0.003 C 
ATOM     16  C   UNL     1       8.225  -0.980  11.294  1.00  0.00     0.000 C 
ATOM     17  C   UNL     1       9.158  -0.329  12.329  1.00  0.00     0.031 C 
ATOM     18  C   UNL     1       8.908   1.140  12.497  1.00  0.00    -0.027 C 
ATOM     19  C   UNL     1       7.717   1.726  12.264  1.00  0.00    -0.065 C 
ATOM     20  C   UNL     1       6.571   1.005  11.541  1.00  0.00    -0.008 C 
ATOM     21  C   UNL     1       5.226   1.425  12.221  1.00  0.00     0.014 C 
ATOM     22  C   UNL     1       5.058   2.944  12.380  1.00  0.00     0.033 C 
ATOM     23  C   UNL     1       6.228   3.538  13.186  1.00  0.00     0.118 C 
ATOM     24  C   UNL     1       7.580   3.215  12.535  1.00  0.00     0.063 C 
ATOM     25  C   UNL     1       6.553   1.493  10.064  1.00  0.00     0.016 C 
ATOM     26  C   UNL     1       8.460  -3.485  13.615  1.00  0.00     0.012 C 
ATOM     27  C   UNL     1       5.864  -5.997  13.040  1.00  0.00     0.014 C 
ATOM     28  O   UNL     1       4.518  -5.104  10.714  1.00  0.00    -0.349 OA
ATOM     29  C   UNL     1       3.423  -6.002  10.772  1.00  0.00     0.167 C 
ENDROOT
BRANCH  23  30
ATOM     30  O   UNL     1       6.085   4.928  13.341  1.00  0.00    -0.393 OA
ATOM     31  H   UNL     1       5.134   5.151  13.179  1.00  0.00     0.210 HD
ENDBRANCH  23  30
TORSDOF 1
ENDMDL
MODEL 7
REMARK VINA RESULT:    -4.381      2.897      5.475
REMARK INTER + INTRA:          -4.510
REMARK INTER:                  -4.510
REMARK INTRA:                   0.000
REMARK UNBOUND:                 0.000
REMARK SMILES C[C@H]1CC[C@]2(OC1)O[C@H]1C[C@H]3[C@@H]4CC=C5C[C@@H](O)CC[C@]5(C)[C@@H]4CC[C@@]3(C)[C@H]1[C@H]2C
REMARK SMILES IDX 1 1 2 2 3 3 4 4 5 5 29 6 28 7 9 8 8 9 10 10 11 11 26 12
REMARK SMILES IDX 25 13 24 14 23 15 12 16 13 17 14 18 15 19 21 20 20 21 19 22
REMARK SMILES IDX 17 23 16 24 22 25 27 26 30 27 6 28 7 29 18 30
REMARK H PARENT 18 31
REMARK Flexibility Score: inf
ROOT
ATOM      1  C   UNL     1      -3.153  10.379  11.471  1.00  0.00     0.010 C 
ATOM      2  C   UNL     1      -4.620  10.500  11.904  1.00  0.00     0.012 C 
ATOM      3  C   UNL     1      -5.072  11.978  11.919  1.00  0.00     0.011 C 
ATOM      4  C   UNL     1      -6.523  12.102  11.463  1.00  0.00     0.066 C 
ATOM      5  C   UNL     1      -6.676  11.502  10.031  1.00  0.00     0.171 C 
ATOM      6  C   UNL     1      -8.170  11.243   9.699  1.00  0.00     0.052 C 
ATOM      7  C   UNL     1      -8.406  11.952   8.363  1.00  0.00     0.033 C 
ATOM      8  C   UNL     1      -7.268  12.953   8.344  1.00  0.00     0.126 C 
ATOM      9  O   UNL     1      -6.195  12.476   9.127  1.00  0.00    -0.346 OA
ATOM     10  C   UNL     1      -6.829  13.125   6.895  1.00  0.00     0.037 C 
ATOM     11  C   UNL     1      -7.852  12.370   6.041  1.00  0.00     0.002 C 
ATOM     12  C   UNL     1      -8.409  11.243   6.960  1.00  0.00    -0.024 C 
ATOM     13  C   UNL     1      -7.511   9.977   6.887  1.00  0.00     0.008 C 
ATOM     14  C   UNL     1      -7.113   9.562   5.463  1.00  0.00     0.005 C 
ATOM     15  C   UNL     1      -6.356  10.692   4.738  1.00  0.00     0.003 C 
ATOM     16  C   UNL     1      -7.255  11.954   4.662  1.00  0.00     0.000 C 
ATOM     17  C   UNL     1      -8.355  11.803   3.598  1.00  0.00     0.031 C 
ATOM     18  C   UNL     1      -7.833  11.298   2.286  1.00  0.00    -0.027 C 
ATOM     19  C   UNL     1      -6.730  10.533   2.166  1.00  0.00    -0.065 C 
ATOM     20  C   UNL     1      -5.740  10.327   3.320  1.00  0.00    -0.008 C 
ATOM     21  C   UNL     1      -5.242   8.845   3.275  1.00  0.00     0.014 C 
ATOM     22  C   UNL     1      -4.748   8.397   1.890  1.00  0.00     0.033 C 
ATOM     23  C   UNL     1      -5.855   8.581   0.834  1.00  0.00     0.118 C 
ATOM     24  C   UNL     1      -6.346  10.034   0.783  1.00  0.00     0.063 C 
ATOM     25  C   UNL     1      -4.524  11.266   3.082  1.00  0.00     0.016 C 
ATOM     26  C   UNL     1      -9.868  10.873   6.589  1.00  0.00     0.012 C 
ATOM     27  C   UNL     1      -8.667   9.797   9.872  1.00  0.00     0.014 C 
ATOM     28  O   UNL     1      -5.885  10.327   9.816  1.00  0.00    -0.349 OA
ATOM     29  C   UNL     1      -5.537   9.642  11.006  1.00  0.00     0.167 C 
ENDROOT
BRANCH  23  30
ATOM     30  O   UNL     1      -5.416   8.173  -0.438  1.00  0.00    -0.393 OA
ATOM     31  H   UNL     1      -6.052   7.490  -0.770  1.00  0.00     0.210 HD
ENDBRANCH  23  30
TORSDOF 1
ENDMDL
MODEL 8
REMARK VINA RESULT:    -4.142      3.045      8.671
REMARK INTER + INTRA:          -4.263
REMARK INTER:                  -4.263
REMARK INTRA:                   0.000
REMARK UNBOUND:                 0.000
REMARK SMILES C[C@H]1CC[C@]2(OC1)O[C@H]1C[C@H]3[C@@H]4CC=C5C[C@@H](O)CC[C@]5(C)[C@@H]4CC[C@@]3(C)[C@H]1[C@H]2C
REMARK SMILES IDX 1 1 2 2 3 3 4 4 5 5 29 6 28 7 9 8 8 9 10 10 11 11 26 12
REMARK SMILES IDX 25 13 24 14 23 15 12 16 13 17 14 18 15 19 21 20 20 21 19 22
REMARK SMILES IDX 17 23 16 24 22 25 27 26 30 27 6 28 7 29 18 30
REMARK H PARENT 18 31
REMARK Flexibility Score: inf
ROOT
ATOM      1  C   UNL     1      -4.903   9.154   2.271  1.00  0.00     0.010 C 
ATOM      2  C   UNL     1      -6.198   9.907   1.940  1.00  0.00     0.012 C 
ATOM      3  C   UNL     1      -7.432   8.999   2.139  1.00  0.00     0.011 C 
ATOM      4  C   UNL     1      -8.609   9.801   2.688  1.00  0.00     0.066 C 
ATOM      5  C   UNL     1      -8.204  10.471   4.037  1.00  0.00     0.171 C 
ATOM      6  C   UNL     1      -9.204  11.596   4.416  1.00  0.00     0.052 C 
ATOM      7  C   UNL     1      -9.648  11.264   5.843  1.00  0.00     0.033 C 
ATOM      8  C   UNL     1      -9.327   9.786   5.927  1.00  0.00     0.126 C 
ATOM      9  O   UNL     1      -8.284   9.469   5.031  1.00  0.00    -0.346 OA
ATOM     10  C   UNL     1      -8.903   9.487   7.359  1.00  0.00     0.037 C 
ATOM     11  C   UNL     1      -9.171  10.761   8.165  1.00  0.00     0.002 C 
ATOM     12  C   UNL     1      -9.062  11.930   7.141  1.00  0.00    -0.024 C 
ATOM     13  C   UNL     1      -7.590  12.406   7.001  1.00  0.00     0.008 C 
ATOM     14  C   UNL     1      -6.855  12.598   8.336  1.00  0.00     0.005 C 
ATOM     15  C   UNL     1      -6.829  11.293   9.157  1.00  0.00     0.003 C 
ATOM     16  C   UNL     1      -8.281  10.831   9.444  1.00  0.00     0.000 C 
ATOM     17  C   UNL     1      -8.942  11.685  10.539  1.00  0.00     0.031 C 
ATOM     18  C   UNL     1      -8.069  11.866  11.744  1.00  0.00    -0.027 C 
ATOM     19  C   UNL     1      -6.723  11.823  11.704  1.00  0.00    -0.065 C 
ATOM     20  C   UNL     1      -5.950  11.314  10.480  1.00  0.00    -0.008 C 
ATOM     21  C   UNL     1      -4.673  12.200  10.307  1.00  0.00     0.014 C 
ATOM     22  C   UNL     1      -3.847  12.358  11.593  1.00  0.00     0.033 C 
ATOM     23  C   UNL     1      -4.711  12.947  12.724  1.00  0.00     0.118 C 
ATOM     24  C   UNL     1      -5.954  12.087  12.988  1.00  0.00     0.063 C 
ATOM     25  C   UNL     1      -5.504   9.852  10.768  1.00  0.00     0.016 C 
ATOM     26  C   UNL     1      -9.965  13.125   7.542  1.00  0.00     0.012 C 
ATOM     27  C   UNL     1      -8.769  13.035   4.087  1.00  0.00     0.014 C 
ATOM     28  O   UNL     1      -6.853  10.949   4.056  1.00  0.00    -0.349 OA
ATOM     29  C   UNL     1      -6.315  11.203   2.770  1.00  0.00     0.167 C 
ENDROOT
BRANCH  23  30
ATOM     30  O   UNL     1      -3.966  13.099  13.906  1.00  0.00    -0.393 OA
ATOM     31  H   UNL     1      -4.512  13.628  14.540  1.00  0.00     0.210 HD
ENDBRANCH  23  30
TORSDOF 1
ENDMDL
MODEL 9
REMARK VINA RESULT:    -3.911     12.506     16.514
REMARK INTER + INTRA:          -4.025
REMARK INTER:                  -4.025
REMARK INTRA:                   0.000
REMARK UNBOUND:                 0.000
REMARK SMILES C[C@H]1CC[C@]2(OC1)O[C@H]1C[C@H]3[C@@H]4CC=C5C[C@@H](O)CC[C@]5(C)[C@@H]4CC[C@@]3(C)[C@H]1[C@H]2C
REMARK SMILES IDX 1 1 2 2 3 3 4 4 5 5 29 6 28 7 9 8 8 9 10 10 11 11 26 12
REMARK SMILES IDX 25 13 24 14 23 15 12 16 13 17 14 18 15 19 21 20 20 21 19 22
REMARK SMILES IDX 17 23 16 24 22 25 27 26 30 27 6 28 7 29 18 30
REMARK H PARENT 18 31
REMARK Flexibility Score: inf
ROOT
ATOM      1  C   UNL     1       9.171  -5.778  10.371  1.00  0.00     0.010 C 
ATOM      2  C   UNL     1       7.829  -6.510  10.238  1.00  0.00     0.012 C 
ATOM      3  C   UNL     1       7.378  -7.090  11.598  1.00  0.00     0.011 C 
ATOM      4  C   UNL     1       5.863  -6.996  11.748  1.00  0.00     0.066 C 
ATOM      5  C   UNL     1       5.413  -5.508  11.618  1.00  0.00     0.171 C 
ATOM      6  C   UNL     1       3.885  -5.414  11.364  1.00  0.00     0.052 C 
ATOM      7  C   UNL     1       3.365  -4.453  12.436  1.00  0.00     0.033 C 
ATOM      8  C   UNL     1       4.465  -4.532  13.475  1.00  0.00     0.126 C 
ATOM      9  O   UNL     1       5.683  -4.890  12.859  1.00  0.00    -0.346 OA
ATOM     10  C   UNL     1       4.584  -3.159  14.125  1.00  0.00     0.037 C 
ATOM     11  C   UNL     1       3.409  -2.329  13.601  1.00  0.00     0.002 C 
ATOM     12  C   UNL     1       3.069  -2.927  12.203  1.00  0.00    -0.024 C 
ATOM     13  C   UNL     1       3.941  -2.273  11.096  1.00  0.00     0.008 C 
ATOM     14  C   UNL     1       4.030  -0.742  11.180  1.00  0.00     0.005 C 
ATOM     15  C   UNL     1       4.606  -0.285  12.535  1.00  0.00     0.003 C 
ATOM     16  C   UNL     1       3.702  -0.800  13.684  1.00  0.00     0.000 C 
ATOM     17  C   UNL     1       2.402   0.015  13.791  1.00  0.00     0.031 C 
ATOM     18  C   UNL     1       2.637   1.495  13.765  1.00  0.00    -0.027 C 
ATOM     19  C   UNL     1       3.695   2.073  13.162  1.00  0.00    -0.065 C 
ATOM     20  C   UNL     1       4.910   1.268  12.680  1.00  0.00    -0.008 C 
ATOM     21  C   UNL     1       5.399   1.886  11.329  1.00  0.00     0.014 C 
ATOM     22  C   UNL     1       5.590   3.411  11.376  1.00  0.00     0.033 C 
ATOM     23  C   UNL     1       4.283   4.109  11.798  1.00  0.00     0.118 C 
ATOM     24  C   UNL     1       3.780   3.590  13.152  1.00  0.00     0.063 C 
ATOM     25  C   UNL     1       6.040   1.427  13.736  1.00  0.00     0.016 C 
ATOM     26  C   UNL     1       1.567  -2.755  11.859  1.00  0.00     0.012 C 
ATOM     27  C   UNL     1       3.448  -5.207   9.903  1.00  0.00     0.014 C 
ATOM     28  O   UNL     1       6.150  -4.773  10.633  1.00  0.00    -0.349 OA
ATOM     29  C   UNL     1       6.748  -5.585   9.638  1.00  0.00     0.167 C 
ENDROOT
BRANCH  23  30
ATOM     30  O   UNL     1       4.444   5.504  11.843  1.00  0.00    -0.393 OA
ATOM     31  H   UNL     1       5.062   5.712  12.588  1.00  0.00     0.210 HD
ENDBRANCH  23  30
TORSDOF 1
ENDMDL
