MODEL 1
REMARK VINA RESULT:    -3.954      0.000      0.000
REMARK INTER + INTRA:          -5.680
REMARK INTER:                  -4.994
REMARK INTRA:                  -0.685
REMARK UNBOUND:                -0.685
REMARK SMILES CC(C)=CCCC(C)=CCO
REMARK SMILES IDX 7 1 9 2 8 3 6 4 5 5 4 6 1 7 2 8 3 9 10 10 11 11
REMARK H PARENT 11 12
REMARK Flexibility Score: inf
ROOT
ATOM      1  C   UNL     1       2.407 -12.852 -31.808  1.00  0.00    -0.075 C 
ATOM      2  C   UNL     1       3.250 -11.845 -32.132  1.00  0.00    -0.000 C 
ATOM      3  C   UNL     1       2.882 -14.282 -31.708  1.00  0.00     0.039 C 
ENDROOT
BRANCH   1   4
ATOM      4  C   UNL     1       0.954 -12.536 -31.530  1.00  0.00     0.034 C 
BRANCH   4   5
ATOM      5  C   UNL     1       0.812 -11.708 -30.249  1.00  0.00     0.032 C 
BRANCH   5   6
ATOM      6  C   UNL     1       1.022 -12.570 -29.030  1.00  0.00    -0.028 C 
ATOM      7  C   UNL     1       3.182 -11.459 -28.419  1.00  0.00     0.039 C 
ATOM      8  C   UNL     1       2.094 -12.487 -28.210  1.00  0.00    -0.080 C 
ATOM      9  C   UNL     1       2.187 -13.443 -27.050  1.00  0.00     0.039 C 
ENDBRANCH   5   6
ENDBRANCH   4   5
ENDBRANCH   1   4
BRANCH   2  10
ATOM     10  C   UNL     1       4.714 -12.037 -32.420  1.00  0.00     0.183 C 
BRANCH  10  11
ATOM     11  O   UNL     1       5.002 -11.618 -33.724  1.00  0.00    -0.392 OA
ATOM     12  H   UNL     1       4.749 -10.660 -33.767  1.00  0.00     0.210 HD
ENDBRANCH  10  11
ENDBRANCH   2  10
TORSDOF 5
ENDMDL
MODEL 2
REMARK VINA RESULT:    -3.927      2.395      3.328
REMARK INTER + INTRA:          -5.646
REMARK INTER:                  -5.384
REMARK INTRA:                  -0.261
REMARK UNBOUND:                -0.685
REMARK SMILES CC(C)=CCCC(C)=CCO
REMARK SMILES IDX 7 1 9 2 8 3 6 4 5 5 4 6 1 7 2 8 3 9 10 10 11 11
REMARK H PARENT 11 12
REMARK Flexibility Score: inf
ROOT
ATOM      1  C   UNL     1       1.977 -12.845 -30.357  1.00  0.00    -0.075 C 
ATOM      2  C   UNL     1       0.862 -12.152 -30.681  1.00  0.00    -0.000 C 
ATOM      3  C   UNL     1       2.649 -13.771 -31.345  1.00  0.00     0.039 C 
ENDROOT
BRANCH   1   4
ATOM      4  C   UNL     1       2.572 -12.683 -28.977  1.00  0.00     0.034 C 
BRANCH   4   5
ATOM      5  C   UNL     1       1.566 -13.097 -27.898  1.00  0.00     0.032 C 
BRANCH   5   6
ATOM      6  C   UNL     1       2.279 -13.562 -26.652  1.00  0.00    -0.028 C 
ATOM      7  C   UNL     1       1.997 -11.369 -25.477  1.00  0.00     0.039 C 
ATOM      8  C   UNL     1       2.502 -12.790 -25.565  1.00  0.00    -0.080 C 
ATOM      9  C   UNL     1       3.265 -13.381 -24.408  1.00  0.00     0.039 C 
ENDBRANCH   5   6
ENDBRANCH   4   5
ENDBRANCH   1   4
BRANCH   2  10
ATOM     10  C   UNL     1       0.187 -12.227 -32.024  1.00  0.00     0.183 C 
BRANCH  10  11
ATOM     11  O   UNL     1      -1.043 -11.562 -31.977  1.00  0.00    -0.392 OA
ATOM     12  H   UNL     1      -1.460 -11.815 -31.113  1.00  0.00     0.210 HD
ENDBRANCH  10  11
ENDBRANCH   2  10
TORSDOF 5
ENDMDL
MODEL 3
REMARK VINA RESULT:    -3.898      2.815      5.412
REMARK INTER + INTRA:          -5.609
REMARK INTER:                  -5.081
REMARK INTRA:                  -0.528
REMARK UNBOUND:                -0.685
REMARK SMILES CC(C)=CCCC(C)=CCO
REMARK SMILES IDX 7 1 9 2 8 3 6 4 5 5 4 6 1 7 2 8 3 9 10 10 11 11
REMARK H PARENT 11 12
REMARK Flexibility Score: inf
ROOT
ATOM      1  C   UNL     1       3.316 -13.215 -31.268  1.00  0.00    -0.075 C 
ATOM      2  C   UNL     1       2.877 -12.507 -30.202  1.00  0.00    -0.000 C 
ATOM      3  C   UNL     1       2.631 -14.488 -31.709  1.00  0.00     0.039 C 
ENDROOT
BRANCH   1   4
ATOM      4  C   UNL     1       4.514 -12.714 -32.043  1.00  0.00     0.034 C 
BRANCH   4   5
ATOM      5  C   UNL     1       4.195 -11.391 -32.746  1.00  0.00     0.032 C 
BRANCH   5   6
ATOM      6  C   UNL     1       4.380 -11.520 -34.237  1.00  0.00    -0.028 C 
ATOM      7  C   UNL     1       2.033 -12.304 -34.624  1.00  0.00     0.039 C 
ATOM      8  C   UNL     1       3.426 -11.952 -35.092  1.00  0.00    -0.080 C 
ATOM      9  C   UNL     1       3.770 -12.067 -36.555  1.00  0.00     0.039 C 
ENDBRANCH   5   6
ENDBRANCH   4   5
ENDBRANCH   1   4
BRANCH   2  10
ATOM     10  C   UNL     1       1.692 -12.902 -29.363  1.00  0.00     0.183 C 
BRANCH  10  11
ATOM     11  O   UNL     1       2.123 -13.606 -28.233  1.00  0.00    -0.392 OA
ATOM     12  H   UNL     1       3.041 -13.920 -28.437  1.00  0.00     0.210 HD
ENDBRANCH  10  11
ENDBRANCH   2  10
TORSDOF 5
ENDMDL
MODEL 4
REMARK VINA RESULT:    -3.893      2.213      3.468
REMARK INTER + INTRA:          -5.603
REMARK INTER:                  -5.225
REMARK INTRA:                  -0.378
REMARK UNBOUND:                -0.685
REMARK SMILES CC(C)=CCCC(C)=CCO
REMARK SMILES IDX 7 1 9 2 8 3 6 4 5 5 4 6 1 7 2 8 3 9 10 10 11 11
REMARK H PARENT 11 12
REMARK Flexibility Score: inf
ROOT
ATOM      1  C   UNL     1       2.086 -12.411 -29.380  1.00  0.00    -0.075 C 
ATOM      2  C   UNL     1       1.821 -13.382 -30.284  1.00  0.00    -0.000 C 
ATOM      3  C   UNL     1       3.271 -11.487 -29.534  1.00  0.00     0.039 C 
ENDROOT
BRANCH   1   4
ATOM      4  C   UNL     1       1.167 -12.241 -28.190  1.00  0.00     0.034 C 
BRANCH   4   5
ATOM      5  C   UNL     1       1.305 -13.420 -27.222  1.00  0.00     0.032 C 
BRANCH   5   6
ATOM      6  C   UNL     1       2.438 -13.186 -26.253  1.00  0.00    -0.028 C 
ATOM      7  C   UNL     1       0.913 -12.504 -24.386  1.00  0.00     0.039 C 
ATOM      8  C   UNL     1       2.280 -12.751 -24.983  1.00  0.00    -0.080 C 
ATOM      9  C   UNL     1       3.509 -12.524 -24.142  1.00  0.00     0.039 C 
ENDBRANCH   5   6
ENDBRANCH   4   5
ENDBRANCH   1   4
BRANCH   2  10
ATOM     10  C   UNL     1       2.658 -13.639 -31.508  1.00  0.00     0.183 C 
BRANCH  10  11
ATOM     11  O   UNL     1       2.938 -15.006 -31.615  1.00  0.00    -0.392 OA
ATOM     12  H   UNL     1       2.392 -15.340 -32.373  1.00  0.00     0.210 HD
ENDBRANCH  10  11
ENDBRANCH   2  10
TORSDOF 5
ENDMDL
MODEL 5
REMARK VINA RESULT:    -3.869      2.414      3.635
REMARK INTER + INTRA:          -5.572
REMARK INTER:                  -5.083
REMARK INTRA:                  -0.489
REMARK UNBOUND:                -0.685
REMARK SMILES CC(C)=CCCC(C)=CCO
REMARK SMILES IDX 7 1 9 2 8 3 6 4 5 5 4 6 1 7 2 8 3 9 10 10 11 11
REMARK H PARENT 11 12
REMARK Flexibility Score: inf
ROOT
ATOM      1  C   UNL     1       3.805 -11.434 -34.501  1.00  0.00    -0.075 C 
ATOM      2  C   UNL     1       4.856 -11.252 -35.333  1.00  0.00    -0.000 C 
ATOM      3  C   UNL     1       2.634 -12.309 -34.884  1.00  0.00     0.039 C 
ENDROOT
BRANCH   1   4
ATOM      4  C   UNL     1       3.808 -10.754 -33.150  1.00  0.00     0.034 C 
BRANCH   4   5
ATOM      5  C   UNL     1       4.451 -11.653 -32.089  1.00  0.00     0.032 C 
BRANCH   5   6
ATOM      6  C   UNL     1       3.513 -11.864 -30.927  1.00  0.00    -0.028 C 
ATOM      7  C   UNL     1       2.850 -14.162 -31.671  1.00  0.00     0.039 C 
ATOM      8  C   UNL     1       2.768 -12.976 -30.738  1.00  0.00    -0.080 C 
ATOM      9  C   UNL     1       1.844 -13.029 -29.550  1.00  0.00     0.039 C 
ENDBRANCH   5   6
ENDBRANCH   4   5
ENDBRANCH   1   4
BRANCH   2  10
ATOM     10  C   UNL     1       4.967 -11.882 -36.695  1.00  0.00     0.183 C 
BRANCH  10  11
ATOM     11  O   UNL     1       4.263 -11.119 -37.632  1.00  0.00    -0.392 OA
ATOM     12  H   UNL     1       4.368 -10.173 -37.352  1.00  0.00     0.210 HD
ENDBRANCH  10  11
ENDBRANCH   2  10
TORSDOF 5
ENDMDL
MODEL 6
REMARK VINA RESULT:    -3.857      1.151      1.911
REMARK INTER + INTRA:          -5.557
REMARK INTER:                  -5.218
REMARK INTRA:                  -0.339
REMARK UNBOUND:                -0.685
REMARK SMILES CC(C)=CCCC(C)=CCO
REMARK SMILES IDX 7 1 9 2 8 3 6 4 5 5 4 6 1 7 2 8 3 9 10 10 11 11
REMARK H PARENT 11 12
REMARK Flexibility Score: inf
ROOT
ATOM      1  C   UNL     1       3.157 -12.676 -32.540  1.00  0.00    -0.075 C 
ATOM      2  C   UNL     1       4.401 -12.161 -32.668  1.00  0.00    -0.000 C 
ATOM      3  C   UNL     1       1.993 -12.148 -33.347  1.00  0.00     0.039 C 
ENDROOT
BRANCH   1   4
ATOM      4  C   UNL     1       2.926 -13.815 -31.572  1.00  0.00     0.034 C 
BRANCH   4   5
ATOM      5  C   UNL     1       1.961 -13.397 -30.458  1.00  0.00     0.032 C 
BRANCH   5   6
ATOM      6  C   UNL     1       2.570 -12.318 -29.600  1.00  0.00    -0.028 C 
ATOM      7  C   UNL     1       1.965 -13.459 -27.454  1.00  0.00     0.039 C 
ATOM      8  C   UNL     1       2.559 -12.318 -28.248  1.00  0.00    -0.080 C 
ATOM      9  C   UNL     1       3.173 -11.149 -27.523  1.00  0.00     0.039 C 
ENDBRANCH   5   6
ENDBRANCH   4   5
ENDBRANCH   1   4
BRANCH   2  10
ATOM     10  C   UNL     1       4.750 -11.036 -33.603  1.00  0.00     0.183 C 
BRANCH  10  11
ATOM     11  O   UNL     1       5.250 -11.551 -34.804  1.00  0.00    -0.392 OA
ATOM     12  H   UNL     1       4.576 -12.205 -35.125  1.00  0.00     0.210 HD
ENDBRANCH  10  11
ENDBRANCH   2  10
TORSDOF 5
ENDMDL
MODEL 7
REMARK VINA RESULT:    -3.853      2.848      4.137
REMARK INTER + INTRA:          -5.552
REMARK INTER:                  -5.110
REMARK INTRA:                  -0.442
REMARK UNBOUND:                -0.685
REMARK SMILES CC(C)=CCCC(C)=CCO
REMARK SMILES IDX 7 1 9 2 8 3 6 4 5 5 4 6 1 7 2 8 3 9 10 10 11 11
REMARK H PARENT 11 12
REMARK Flexibility Score: inf
ROOT
ATOM      1  C   UNL     1       2.673 -12.280 -28.776  1.00  0.00    -0.075 C 
ATOM      2  C   UNL     1       2.593 -12.426 -30.118  1.00  0.00    -0.000 C 
ATOM      3  C   UNL     1       2.048 -13.280 -27.831  1.00  0.00     0.039 C 
ENDROOT
BRANCH   1   4
ATOM      4  C   UNL     1       3.415 -11.091 -28.206  1.00  0.00     0.034 C 
BRANCH   4   5
ATOM      5  C   UNL     1       2.914 -10.760 -26.797  1.00  0.00     0.032 C 
BRANCH   5   6
ATOM      6  C   UNL     1       4.072 -10.518 -25.861  1.00  0.00    -0.028 C 
ATOM      7  C   UNL     1       3.402 -12.357 -24.297  1.00  0.00     0.039 C 
ATOM      8  C   UNL     1       4.292 -11.210 -24.721  1.00  0.00    -0.080 C 
ATOM      9  C   UNL     1       5.470 -10.829 -23.864  1.00  0.00     0.039 C 
ENDBRANCH   5   6
ENDBRANCH   4   5
ENDBRANCH   1   4
BRANCH   2  10
ATOM     10  C   UNL     1       1.890 -13.570 -30.797  1.00  0.00     0.183 C 
BRANCH  10  11
ATOM     11  O   UNL     1       2.819 -14.550 -31.164  1.00  0.00    -0.392 OA
ATOM     12  H   UNL     1       3.118 -14.976 -30.320  1.00  0.00     0.210 HD
ENDBRANCH  10  11
ENDBRANCH   2  10
TORSDOF 5
ENDMDL
MODEL 8
REMARK VINA RESULT:    -3.851      2.026      4.491
REMARK INTER + INTRA:          -5.549
REMARK INTER:                  -5.080
REMARK INTRA:                  -0.469
REMARK UNBOUND:                -0.685
REMARK SMILES CC(C)=CCCC(C)=CCO
REMARK SMILES IDX 7 1 9 2 8 3 6 4 5 5 4 6 1 7 2 8 3 9 10 10 11 11
REMARK H PARENT 11 12
REMARK Flexibility Score: inf
ROOT
ATOM      1  C   UNL     1       2.326 -12.630 -28.993  1.00  0.00    -0.075 C 
ATOM      2  C   UNL     1       3.003 -11.462 -29.079  1.00  0.00    -0.000 C 
ATOM      3  C   UNL     1       2.137 -13.340 -27.672  1.00  0.00     0.039 C 
ENDROOT
BRANCH   1   4
ATOM      4  C   UNL     1       1.735 -13.235 -30.247  1.00  0.00     0.034 C 
BRANCH   4   5
ATOM      5  C   UNL     1       2.840 -13.676 -31.211  1.00  0.00     0.032 C 
BRANCH   5   6
ATOM      6  C   UNL     1       2.628 -13.076 -32.579  1.00  0.00    -0.028 C 
ATOM      7  C   UNL     1       4.679 -11.645 -32.446  1.00  0.00     0.039 C 
ATOM      8  C   UNL     1       3.431 -12.144 -33.138  1.00  0.00    -0.080 C 
ATOM      9  C   UNL     1       3.070 -11.605 -34.498  1.00  0.00     0.039 C 
ENDBRANCH   5   6
ENDBRANCH   4   5
ENDBRANCH   1   4
BRANCH   2  10
ATOM     10  C   UNL     1       3.625 -10.764 -27.901  1.00  0.00     0.183 C 
BRANCH  10  11
ATOM     11  O   UNL     1       4.692  -9.966 -28.328  1.00  0.00    -0.392 OA
ATOM     12  H   UNL     1       5.510 -10.363 -27.932  1.00  0.00     0.210 HD
ENDBRANCH  10  11
ENDBRANCH   2  10
TORSDOF 5
ENDMDL
MODEL 9
REMARK VINA RESULT:    -3.802      4.578      6.859
REMARK INTER + INTRA:          -5.488
REMARK INTER:                  -4.941
REMARK INTRA:                  -0.547
REMARK UNBOUND:                -0.685
REMARK SMILES CC(C)=CCCC(C)=CCO
REMARK SMILES IDX 7 1 9 2 8 3 6 4 5 5 4 6 1 7 2 8 3 9 10 10 11 11
REMARK H PARENT 11 12
REMARK Flexibility Score: inf
ROOT
ATOM      1  C   UNL     1       3.652 -11.796 -24.089  1.00  0.00    -0.075 C 
ATOM      2  C   UNL     1       4.966 -11.476 -24.046  1.00  0.00    -0.000 C 
ATOM      3  C   UNL     1       2.591 -10.854 -23.569  1.00  0.00     0.039 C 
ENDROOT
BRANCH   1   4
ATOM      4  C   UNL     1       3.236 -13.124 -24.680  1.00  0.00     0.034 C 
BRANCH   4   5
ATOM      5  C   UNL     1       1.913 -12.990 -25.441  1.00  0.00     0.032 C 
BRANCH   5   6
ATOM      6  C   UNL     1       2.091 -13.356 -26.893  1.00  0.00    -0.028 C 
ATOM      7  C   UNL     1       2.600 -11.005 -27.590  1.00  0.00     0.039 C 
ATOM      8  C   UNL     1       2.376 -12.472 -27.875  1.00  0.00    -0.080 C 
ATOM      9  C   UNL     1       2.487 -12.979 -29.290  1.00  0.00     0.039 C 
ENDBRANCH   5   6
ENDBRANCH   4   5
ENDBRANCH   1   4
BRANCH   2  10
ATOM     10  C   UNL     1       5.497 -10.183 -23.489  1.00  0.00     0.183 C 
BRANCH  10  11
ATOM     11  O   UNL     1       6.197 -10.426 -22.303  1.00  0.00    -0.392 OA
ATOM     12  H   UNL     1       5.820  -9.805 -21.628  1.00  0.00     0.210 HD
ENDBRANCH  10  11
ENDBRANCH   2  10
TORSDOF 5
ENDMDL
