MODEL 1
REMARK VINA RESULT:    -5.905      0.000      0.000
REMARK INTER + INTRA:         -10.481
REMARK INTER:                  -9.011
REMARK INTRA:                  -1.470
REMARK UNBOUND:                -1.470
REMARK SMILES OC[C@@H]1O[C@H](O[C@]2(CO)O[C@H](CO)[C@H](O)[C@H]2O)[C@@H](O)[C@H](O)[C@@H]1O
REMARK SMILES IDX 6 1 5 2 3 3 22 4 4 5 20 6 18 7 2 8 1 9 23 11 21 13 19 15
REMARK SMILES IDX 7 17 16 18 10 19 14 20 11 21 8 22 9 23 17 25 15 27 12 29
REMARK SMILES IDX 13 30
REMARK H PARENT 1 10 23 12 21 14 19 16 9 24 17 26 15 28 13 31
REMARK Flexibility Score: inf
ROOT
ATOM      1  O   UNL     1     149.047 151.735 127.242  1.00  0.00    -0.313 OA
ENDROOT
BRANCH   1   2
ATOM      2  C   UNL     1     148.466 152.903 127.820  1.00  0.00     0.285 C 
ATOM      3  C   UNL     1     147.035 153.776 129.450  1.00  0.00     0.178 C 
ATOM      4  C   UNL     1     148.020 154.896 129.848  1.00  0.00     0.177 C 
ATOM      5  O   UNL     1     147.741 152.627 129.011  1.00  0.00    -0.341 OA
ATOM      6  C   UNL     1     148.896 155.252 128.628  1.00  0.00     0.179 C 
ATOM      7  C   UNL     1     149.546 153.980 128.057  1.00  0.00     0.202 C 
BRANCH   3   8
ATOM      8  C   UNL     1     146.136 153.387 130.632  1.00  0.00     0.191 C 
BRANCH   8   9
ATOM      9  O   UNL     1     145.871 154.508 131.432  1.00  0.00    -0.394 OA
ATOM     10  H   UNL     1     145.210 154.221 132.114  1.00  0.00     0.210 HD
ENDBRANCH   8   9
ENDBRANCH   3   8
BRANCH   4  11
ATOM     11  O   UNL     1     148.828 154.465 130.916  1.00  0.00    -0.387 OA
ATOM     12  H   UNL     1     149.251 153.613 130.634  1.00  0.00     0.211 HD
ENDBRANCH   4  11
BRANCH   6  13
ATOM     13  O   UNL     1     149.894 156.169 128.992  1.00  0.00    -0.387 OA
ATOM     14  H   UNL     1     149.897 156.879 128.297  1.00  0.00     0.211 HD
ENDBRANCH   6  13
BRANCH   7  15
ATOM     15  O   UNL     1     150.188 154.270 126.842  1.00  0.00    -0.385 OA
ATOM     16  H   UNL     1     151.116 153.927 126.918  1.00  0.00     0.211 HD
ENDBRANCH   7  15
ENDBRANCH   1   2
BRANCH   1  17
ATOM     17  C   UNL     1     148.711 151.445 125.885  1.00  0.00     0.224 C 
ATOM     18  C   UNL     1     147.823 150.187 125.901  1.00  0.00     0.208 C 
ATOM     19  O   UNL     1     147.947 152.482 125.288  1.00  0.00    -0.337 OA
ATOM     20  C   UNL     1     146.919 150.381 124.714  1.00  0.00     0.180 C 
ATOM     21  C   UNL     1     146.859 151.909 124.586  1.00  0.00     0.179 C 
BRANCH  17  22
ATOM     22  C   UNL     1     150.026 151.228 125.079  1.00  0.00     0.225 C 
BRANCH  22  23
ATOM     23  O   UNL     1     151.056 152.071 125.524  1.00  0.00    -0.391 OA
ATOM     24  H   UNL     1     151.713 152.133 124.783  1.00  0.00     0.210 HD
ENDBRANCH  22  23
ENDBRANCH  17  22
BRANCH  18  25
ATOM     25  O   UNL     1     148.547 148.988 125.791  1.00  0.00    -0.385 OA
ATOM     26  H   UNL     1     149.414 149.223 125.369  1.00  0.00     0.211 HD
ENDBRANCH  18  25
BRANCH  20  27
ATOM     27  O   UNL     1     145.658 149.797 124.921  1.00  0.00    -0.387 OA
ATOM     28  H   UNL     1     145.008 150.338 124.402  1.00  0.00     0.211 HD
ENDBRANCH  20  27
BRANCH  21  29
ATOM     29  C   UNL     1     145.545 152.537 125.082  1.00  0.00     0.191 C 
BRANCH  29  30
ATOM     30  O   UNL     1     144.513 152.346 124.148  1.00  0.00    -0.394 OA
ATOM     31  H   UNL     1     144.876 151.785 123.413  1.00  0.00     0.210 HD
ENDBRANCH  29  30
ENDBRANCH  21  29
ENDBRANCH   1  17
TORSDOF 13
ENDMDL
MODEL 2
REMARK VINA RESULT:    -5.689      1.392      2.584
REMARK INTER + INTRA:         -10.152
REMARK INTER:                  -9.109
REMARK INTRA:                  -1.044
REMARK UNBOUND:                -1.470
REMARK SMILES OC[C@@H]1O[C@H](O[C@]2(CO)O[C@H](CO)[C@H](O)[C@H]2O)[C@@H](O)[C@H](O)[C@@H]1O
REMARK SMILES IDX 6 1 5 2 3 3 22 4 4 5 20 6 18 7 2 8 1 9 23 11 21 13 19 15
REMARK SMILES IDX 7 17 16 18 10 19 14 20 11 21 8 22 9 23 17 25 15 27 12 29
REMARK SMILES IDX 13 30
REMARK H PARENT 1 10 23 12 21 14 19 16 9 24 17 26 15 28 13 31
REMARK Flexibility Score: inf
ROOT
ATOM      1  O   UNL     1     149.193 151.654 127.147  1.00  0.00    -0.313 OA
ENDROOT
BRANCH   1   2
ATOM      2  C   UNL     1     148.571 152.802 127.722  1.00  0.00     0.285 C 
ATOM      3  C   UNL     1     147.078 153.625 129.322  1.00  0.00     0.178 C 
ATOM      4  C   UNL     1     148.029 154.761 129.760  1.00  0.00     0.177 C 
ATOM      5  O   UNL     1     147.820 152.497 128.890  1.00  0.00    -0.341 OA
ATOM      6  C   UNL     1     148.930 155.149 128.569  1.00  0.00     0.179 C 
ATOM      7  C   UNL     1     149.622 153.899 128.001  1.00  0.00     0.202 C 
BRANCH   3   8
ATOM      8  C   UNL     1     146.156 153.203 130.475  1.00  0.00     0.191 C 
BRANCH   8   9
ATOM      9  O   UNL     1     145.822 154.314 131.263  1.00  0.00    -0.394 OA
ATOM     10  H   UNL     1     146.103 154.101 132.190  1.00  0.00     0.210 HD
ENDBRANCH   8   9
ENDBRANCH   3   8
BRANCH   4  11
ATOM     11  O   UNL     1     148.816 154.333 130.845  1.00  0.00    -0.387 OA
ATOM     12  H   UNL     1     148.253 154.410 131.659  1.00  0.00     0.211 HD
ENDBRANCH   4  11
BRANCH   6  13
ATOM     13  O   UNL     1     149.898 156.083 128.971  1.00  0.00    -0.387 OA
ATOM     14  H   UNL     1     150.631 155.568 129.401  1.00  0.00     0.211 HD
ENDBRANCH   6  13
BRANCH   7  15
ATOM     15  O   UNL     1     150.290 154.217 126.808  1.00  0.00    -0.385 OA
ATOM     16  H   UNL     1     149.721 154.872 126.325  1.00  0.00     0.211 HD
ENDBRANCH   7  15
ENDBRANCH   1   2
BRANCH   1  17
ATOM     17  C   UNL     1     148.485 150.987 126.102  1.00  0.00     0.224 C 
ATOM     18  C   UNL     1     149.531 150.224 125.267  1.00  0.00     0.208 C 
ATOM     19  O   UNL     1     147.573 150.021 126.603  1.00  0.00    -0.337 OA
ATOM     20  C   UNL     1     148.773 149.023 124.768  1.00  0.00     0.180 C 
ATOM     21  C   UNL     1     147.707 148.827 125.854  1.00  0.00     0.179 C 
BRANCH  17  22
ATOM     22  C   UNL     1     147.719 152.049 125.259  1.00  0.00     0.225 C 
BRANCH  22  23
ATOM     23  O   UNL     1     148.575 153.050 124.777  1.00  0.00    -0.391 OA
ATOM     24  H   UNL     1     148.784 153.641 125.547  1.00  0.00     0.210 HD
ENDBRANCH  22  23
ENDBRANCH  17  22
BRANCH  18  25
ATOM     25  O   UNL     1     150.048 150.972 124.196  1.00  0.00    -0.385 OA
ATOM     26  H   UNL     1     150.853 150.486 123.880  1.00  0.00     0.211 HD
ENDBRANCH  18  25
BRANCH  20  27
ATOM     27  O   UNL     1     149.612 147.907 124.614  1.00  0.00    -0.387 OA
ATOM     28  H   UNL     1     150.427 148.090 125.150  1.00  0.00     0.211 HD
ENDBRANCH  20  27
BRANCH  21  29
ATOM     29  C   UNL     1     147.984 147.654 126.812  1.00  0.00     0.191 C 
BRANCH  29  30
ATOM     30  O   UNL     1     147.809 146.422 126.160  1.00  0.00    -0.394 OA
ATOM     31  H   UNL     1     146.843 146.195 126.205  1.00  0.00     0.210 HD
ENDBRANCH  29  30
ENDBRANCH  21  29
ENDBRANCH   1  17
TORSDOF 13
ENDMDL
MODEL 3
REMARK VINA RESULT:    -5.676      2.380      5.242
REMARK INTER + INTRA:         -10.132
REMARK INTER:                  -8.329
REMARK INTRA:                  -1.803
REMARK UNBOUND:                -1.470
REMARK SMILES OC[C@@H]1O[C@H](O[C@]2(CO)O[C@H](CO)[C@H](O)[C@H]2O)[C@@H](O)[C@H](O)[C@@H]1O
REMARK SMILES IDX 6 1 5 2 3 3 22 4 4 5 20 6 18 7 2 8 1 9 23 11 21 13 19 15
REMARK SMILES IDX 7 17 16 18 10 19 14 20 11 21 8 22 9 23 17 25 15 27 12 29
REMARK SMILES IDX 13 30
REMARK H PARENT 1 10 23 12 21 14 19 16 9 24 17 26 15 28 13 31
REMARK Flexibility Score: inf
ROOT
ATOM      1  O   UNL     1     145.696 154.139 129.198  1.00  0.00    -0.313 OA
ENDROOT
BRANCH   1   2
ATOM      2  C   UNL     1     146.886 153.538 128.689  1.00  0.00     0.285 C 
ATOM      3  C   UNL     1     147.916 152.450 126.895  1.00  0.00     0.178 C 
ATOM      4  C   UNL     1     149.201 153.301 126.996  1.00  0.00     0.177 C 
ATOM      5  O   UNL     1     146.789 153.202 127.311  1.00  0.00    -0.341 OA
ATOM      6  C   UNL     1     149.386 153.759 128.458  1.00  0.00     0.179 C 
ATOM      7  C   UNL     1     148.105 154.445 128.962  1.00  0.00     0.202 C 
BRANCH   3   8
ATOM      8  C   UNL     1     147.688 151.966 125.456  1.00  0.00     0.191 C 
BRANCH   8   9
ATOM      9  O   UNL     1     146.691 152.733 124.836  1.00  0.00    -0.394 OA
ATOM     10  H   UNL     1     145.820 152.349 125.120  1.00  0.00     0.210 HD
ENDBRANCH   8   9
ENDBRANCH   3   8
BRANCH   4  11
ATOM     11  O   UNL     1     149.103 154.417 126.146  1.00  0.00    -0.387 OA
ATOM     12  H   UNL     1     150.028 154.673 125.895  1.00  0.00     0.211 HD
ENDBRANCH   4  11
BRANCH   6  13
ATOM     13  O   UNL     1     150.469 154.647 128.560  1.00  0.00    -0.387 OA
ATOM     14  H   UNL     1     151.295 154.103 128.475  1.00  0.00     0.211 HD
ENDBRANCH   6  13
BRANCH   7  15
ATOM     15  O   UNL     1     148.201 154.692 130.341  1.00  0.00    -0.385 OA
ATOM     16  H   UNL     1     147.330 154.432 130.741  1.00  0.00     0.211 HD
ENDBRANCH   7  15
ENDBRANCH   1   2
BRANCH   1  17
ATOM     17  C   UNL     1     144.658 153.260 129.634  1.00  0.00     0.224 C 
ATOM     18  C   UNL     1     143.321 153.919 129.249  1.00  0.00     0.208 C 
ATOM     19  O   UNL     1     144.706 152.005 128.973  1.00  0.00    -0.337 OA
ATOM     20  C   UNL     1     142.414 152.745 128.991  1.00  0.00     0.180 C 
ATOM     21  C   UNL     1     143.399 151.652 128.557  1.00  0.00     0.179 C 
BRANCH  17  22
ATOM     22  C   UNL     1     144.793 153.052 131.171  1.00  0.00     0.225 C 
BRANCH  22  23
ATOM     23  O   UNL     1     145.508 154.094 131.779  1.00  0.00    -0.391 OA
ATOM     24  H   UNL     1     144.921 154.894 131.756  1.00  0.00     0.210 HD
ENDBRANCH  22  23
ENDBRANCH  17  22
BRANCH  18  25
ATOM     25  O   UNL     1     142.795 154.749 130.253  1.00  0.00    -0.385 OA
ATOM     26  H   UNL     1     142.699 154.181 131.062  1.00  0.00     0.211 HD
ENDBRANCH  18  25
BRANCH  20  27
ATOM     27  O   UNL     1     141.452 153.039 128.009  1.00  0.00    -0.387 OA
ATOM     28  H   UNL     1     140.999 152.183 127.794  1.00  0.00     0.211 HD
ENDBRANCH  20  27
BRANCH  21  29
ATOM     29  C   UNL     1     143.406 151.365 127.045  1.00  0.00     0.191 C 
BRANCH  29  30
ATOM     30  O   UNL     1     144.109 152.362 126.349  1.00  0.00    -0.394 OA
ATOM     31  H   UNL     1     144.700 152.822 127.001  1.00  0.00     0.210 HD
ENDBRANCH  29  30
ENDBRANCH  21  29
ENDBRANCH   1  17
TORSDOF 13
ENDMDL
MODEL 4
REMARK VINA RESULT:    -5.622      2.298      5.110
REMARK INTER + INTRA:         -10.050
REMARK INTER:                  -8.398
REMARK INTRA:                  -1.653
REMARK UNBOUND:                -1.470
REMARK SMILES OC[C@@H]1O[C@H](O[C@]2(CO)O[C@H](CO)[C@H](O)[C@H]2O)[C@@H](O)[C@H](O)[C@@H]1O
REMARK SMILES IDX 6 1 5 2 3 3 22 4 4 5 20 6 18 7 2 8 1 9 23 11 21 13 19 15
REMARK SMILES IDX 7 17 16 18 10 19 14 20 11 21 8 22 9 23 17 25 15 27 12 29
REMARK SMILES IDX 13 30
REMARK H PARENT 1 10 23 12 21 14 19 16 9 24 17 26 15 28 13 31
REMARK Flexibility Score: inf
ROOT
ATOM      1  O   UNL     1     146.000 153.205 129.135  1.00  0.00    -0.313 OA
ENDROOT
BRANCH   1   2
ATOM      2  C   UNL     1     147.389 153.384 128.862  1.00  0.00     0.285 C 
ATOM      3  C   UNL     1     149.154 153.023 127.371  1.00  0.00     0.178 C 
ATOM      4  C   UNL     1     149.690 154.464 127.512  1.00  0.00     0.177 C 
ATOM      5  O   UNL     1     147.746 152.999 127.541  1.00  0.00    -0.341 OA
ATOM      6  C   UNL     1     149.320 155.004 128.908  1.00  0.00     0.179 C 
ATOM      7  C   UNL     1     147.810 154.840 129.154  1.00  0.00     0.202 C 
BRANCH   3   8
ATOM      8  C   UNL     1     149.500 152.437 125.995  1.00  0.00     0.191 C 
BRANCH   8   9
ATOM      9  O   UNL     1     150.847 152.680 125.687  1.00  0.00    -0.394 OA
ATOM     10  H   UNL     1     150.887 153.583 125.277  1.00  0.00     0.210 HD
ENDBRANCH   8   9
ENDBRANCH   3   8
BRANCH   4  11
ATOM     11  O   UNL     1     149.131 155.281 126.511  1.00  0.00    -0.387 OA
ATOM     12  H   UNL     1     148.229 155.549 126.826  1.00  0.00     0.211 HD
ENDBRANCH   4  11
BRANCH   6  13
ATOM     13  O   UNL     1     149.671 156.359 129.020  1.00  0.00    -0.387 OA
ATOM     14  H   UNL     1     150.646 156.387 129.208  1.00  0.00     0.211 HD
ENDBRANCH   6  13
BRANCH   7  15
ATOM     15  O   UNL     1     147.501 155.154 130.488  1.00  0.00    -0.385 OA
ATOM     16  H   UNL     1     148.067 154.572 131.059  1.00  0.00     0.211 HD
ENDBRANCH   7  15
ENDBRANCH   1   2
BRANCH   1  17
ATOM     17  C   UNL     1     145.645 152.150 130.030  1.00  0.00     0.224 C 
ATOM     18  C   UNL     1     144.912 151.082 129.198  1.00  0.00     0.208 C 
ATOM     19  O   UNL     1     146.784 151.521 130.598  1.00  0.00    -0.337 OA
ATOM     20  C   UNL     1     145.258 149.795 129.896  1.00  0.00     0.180 C 
ATOM     21  C   UNL     1     146.615 150.117 130.535  1.00  0.00     0.179 C 
BRANCH  17  22
ATOM     22  C   UNL     1     144.747 152.735 131.160  1.00  0.00     0.225 C 
BRANCH  22  23
ATOM     23  O   UNL     1     145.411 153.731 131.892  1.00  0.00    -0.391 OA
ATOM     24  H   UNL     1     146.368 153.686 131.631  1.00  0.00     0.210 HD
ENDBRANCH  22  23
ENDBRANCH  17  22
BRANCH  18  25
ATOM     25  O   UNL     1     143.520 151.268 129.147  1.00  0.00    -0.385 OA
ATOM     26  H   UNL     1     143.119 150.508 129.644  1.00  0.00     0.211 HD
ENDBRANCH  18  25
BRANCH  20  27
ATOM     27  O   UNL     1     145.316 148.716 128.998  1.00  0.00    -0.387 OA
ATOM     28  H   UNL     1     145.104 147.901 129.522  1.00  0.00     0.211 HD
ENDBRANCH  20  27
BRANCH  21  29
ATOM     29  C   UNL     1     147.822 149.490 129.814  1.00  0.00     0.191 C 
BRANCH  29  30
ATOM     30  O   UNL     1     147.927 149.974 128.500  1.00  0.00    -0.394 OA
ATOM     31  H   UNL     1     147.235 150.676 128.383  1.00  0.00     0.210 HD
ENDBRANCH  29  30
ENDBRANCH  21  29
ENDBRANCH   1  17
TORSDOF 13
ENDMDL
MODEL 5
REMARK VINA RESULT:    -5.567      1.674      3.182
REMARK INTER + INTRA:          -9.965
REMARK INTER:                  -8.121
REMARK INTRA:                  -1.844
REMARK UNBOUND:                -1.470
REMARK SMILES OC[C@@H]1O[C@H](O[C@]2(CO)O[C@H](CO)[C@H](O)[C@H]2O)[C@@H](O)[C@H](O)[C@@H]1O
REMARK SMILES IDX 6 1 5 2 3 3 22 4 4 5 20 6 18 7 2 8 1 9 23 11 21 13 19 15
REMARK SMILES IDX 7 17 16 18 10 19 14 20 11 21 8 22 9 23 17 25 15 27 12 29
REMARK SMILES IDX 13 30
REMARK H PARENT 1 10 23 12 21 14 19 16 9 24 17 26 15 28 13 31
REMARK Flexibility Score: inf
ROOT
ATOM      1  O   UNL     1     147.191 151.099 128.599  1.00  0.00    -0.313 OA
ENDROOT
BRANCH   1   2
ATOM      2  C   UNL     1     146.952 152.501 128.713  1.00  0.00     0.285 C 
ATOM      3  C   UNL     1     145.372 154.201 129.002  1.00  0.00     0.178 C 
ATOM      4  C   UNL     1     146.232 154.951 130.042  1.00  0.00     0.177 C 
ATOM      5  O   UNL     1     145.611 152.805 129.075  1.00  0.00    -0.341 OA
ATOM      6  C   UNL     1     147.722 154.657 129.768  1.00  0.00     0.179 C 
ATOM      7  C   UNL     1     147.956 153.139 129.697  1.00  0.00     0.202 C 
BRANCH   3   8
ATOM      8  C   UNL     1     143.877 154.464 129.230  1.00  0.00     0.191 C 
BRANCH   8   9
ATOM      9  O   UNL     1     143.673 155.789 129.641  1.00  0.00    -0.394 OA
ATOM     10  H   UNL     1     144.309 155.957 130.385  1.00  0.00     0.210 HD
ENDBRANCH   8   9
ENDBRANCH   3   8
BRANCH   4  11
ATOM     11  O   UNL     1     145.885 154.532 131.340  1.00  0.00    -0.387 OA
ATOM     12  H   UNL     1     145.860 153.540 131.327  1.00  0.00     0.211 HD
ENDBRANCH   4  11
BRANCH   6  13
ATOM     13  O   UNL     1     148.525 155.212 130.778  1.00  0.00    -0.387 OA
ATOM     14  H   UNL     1     149.264 154.568 130.941  1.00  0.00     0.211 HD
ENDBRANCH   6  13
BRANCH   7  15
ATOM     15  O   UNL     1     149.265 152.872 129.263  1.00  0.00    -0.385 OA
ATOM     16  H   UNL     1     149.362 153.290 128.368  1.00  0.00     0.211 HD
ENDBRANCH   7  15
ENDBRANCH   1   2
BRANCH   1  17
ATOM     17  C   UNL     1     147.567 150.607 127.312  1.00  0.00     0.224 C 
ATOM     18  C   UNL     1     146.899 151.520 126.268  1.00  0.00     0.208 C 
ATOM     19  O   UNL     1     148.968 150.689 127.096  1.00  0.00    -0.337 OA
ATOM     20  C   UNL     1     147.864 151.498 125.114  1.00  0.00     0.180 C 
ATOM     21  C   UNL     1     149.206 151.223 125.806  1.00  0.00     0.179 C 
BRANCH  17  22
ATOM     22  C   UNL     1     147.101 149.127 127.187  1.00  0.00     0.225 C 
BRANCH  22  23
ATOM     23  O   UNL     1     145.845 148.923 127.779  1.00  0.00    -0.391 OA
ATOM     24  H   UNL     1     145.951 149.120 128.746  1.00  0.00     0.210 HD
ENDBRANCH  22  23
ENDBRANCH  17  22
BRANCH  18  25
ATOM     25  O   UNL     1     145.627 151.076 125.868  1.00  0.00    -0.385 OA
ATOM     26  H   UNL     1     145.780 150.364 125.194  1.00  0.00     0.211 HD
ENDBRANCH  18  25
BRANCH  20  27
ATOM     27  O   UNL     1     147.851 152.710 124.403  1.00  0.00    -0.387 OA
ATOM     28  H   UNL     1     148.600 153.254 124.759  1.00  0.00     0.211 HD
ENDBRANCH  20  27
BRANCH  21  29
ATOM     29  C   UNL     1     150.123 152.454 125.926  1.00  0.00     0.191 C 
BRANCH  29  30
ATOM     30  O   UNL     1     149.420 153.555 126.440  1.00  0.00    -0.394 OA
ATOM     31  H   UNL     1     149.868 154.377 126.109  1.00  0.00     0.210 HD
ENDBRANCH  29  30
ENDBRANCH  21  29
ENDBRANCH   1  17
TORSDOF 13
ENDMDL
MODEL 6
REMARK VINA RESULT:    -5.543      2.573      4.725
REMARK INTER + INTRA:          -9.929
REMARK INTER:                  -8.554
REMARK INTRA:                  -1.375
REMARK UNBOUND:                -1.470
REMARK SMILES OC[C@@H]1O[C@H](O[C@]2(CO)O[C@H](CO)[C@H](O)[C@H]2O)[C@@H](O)[C@H](O)[C@@H]1O
REMARK SMILES IDX 6 1 5 2 3 3 22 4 4 5 20 6 18 7 2 8 1 9 23 11 21 13 19 15
REMARK SMILES IDX 7 17 16 18 10 19 14 20 11 21 8 22 9 23 17 25 15 27 12 29
REMARK SMILES IDX 13 30
REMARK H PARENT 1 10 23 12 21 14 19 16 9 24 17 26 15 28 13 31
REMARK Flexibility Score: inf
ROOT
ATOM      1  O   UNL     1     147.002 152.669 130.969  1.00  0.00    -0.313 OA
ENDROOT
BRANCH   1   2
ATOM      2  C   UNL     1     145.766 152.802 130.270  1.00  0.00     0.285 C 
ATOM      3  C   UNL     1     143.599 151.983 129.953  1.00  0.00     0.178 C 
ATOM      4  C   UNL     1     142.966 153.392 129.959  1.00  0.00     0.177 C 
ATOM      5  O   UNL     1     144.748 151.952 130.783  1.00  0.00    -0.341 OA
ATOM      6  C   UNL     1     144.007 154.412 129.454  1.00  0.00     0.179 C 
ATOM      7  C   UNL     1     145.311 154.277 130.257  1.00  0.00     0.202 C 
BRANCH   3   8
ATOM      8  C   UNL     1     142.599 150.928 130.447  1.00  0.00     0.191 C 
BRANCH   8   9
ATOM      9  O   UNL     1     142.751 150.720 131.826  1.00  0.00    -0.394 OA
ATOM     10  H   UNL     1     143.682 150.405 131.965  1.00  0.00     0.210 HD
ENDBRANCH   8   9
ENDBRANCH   3   8
BRANCH   4  11
ATOM     11  O   UNL     1     142.553 153.724 131.263  1.00  0.00    -0.387 OA
ATOM     12  H   UNL     1     141.562 153.773 131.250  1.00  0.00     0.211 HD
ENDBRANCH   4  11
BRANCH   6  13
ATOM     13  O   UNL     1     143.511 155.720 129.576  1.00  0.00    -0.387 OA
ATOM     14  H   UNL     1     142.526 155.644 129.678  1.00  0.00     0.211 HD
ENDBRANCH   6  13
BRANCH   7  15
ATOM     15  O   UNL     1     146.318 155.068 129.680  1.00  0.00    -0.385 OA
ATOM     16  H   UNL     1     146.885 154.460 129.136  1.00  0.00     0.211 HD
ENDBRANCH   7  15
ENDBRANCH   1   2
BRANCH   1  17
ATOM     17  C   UNL     1     148.156 152.344 130.192  1.00  0.00     0.224 C 
ATOM     18  C   UNL     1     147.705 151.340 129.115  1.00  0.00     0.208 C 
ATOM     19  O   UNL     1     148.680 153.474 129.510  1.00  0.00    -0.337 OA
ATOM     20  C   UNL     1     148.620 151.634 127.957  1.00  0.00     0.180 C 
ATOM     21  C   UNL     1     148.964 153.114 128.170  1.00  0.00     0.179 C 
BRANCH  17  22
ATOM     22  C   UNL     1     149.243 151.748 131.136  1.00  0.00     0.225 C 
BRANCH  22  23
ATOM     23  O   UNL     1     149.896 152.745 131.875  1.00  0.00    -0.391 OA
ATOM     24  H   UNL     1     149.458 153.605 131.643  1.00  0.00     0.210 HD
ENDBRANCH  22  23
ENDBRANCH  17  22
BRANCH  18  25
ATOM     25  O   UNL     1     147.818 149.998 129.517  1.00  0.00    -0.385 OA
ATOM     26  H   UNL     1     147.205 149.886 130.290  1.00  0.00     0.211 HD
ENDBRANCH  18  25
BRANCH  20  27
ATOM     27  O   UNL     1     147.992 151.388 126.724  1.00  0.00    -0.387 OA
ATOM     28  H   UNL     1     148.574 151.788 126.027  1.00  0.00     0.211 HD
ENDBRANCH  20  27
BRANCH  21  29
ATOM     29  C   UNL     1     148.236 154.080 127.218  1.00  0.00     0.191 C 
BRANCH  29  30
ATOM     30  O   UNL     1     148.820 154.060 125.941  1.00  0.00    -0.394 OA
ATOM     31  H   UNL     1     149.416 153.267 125.897  1.00  0.00     0.210 HD
ENDBRANCH  29  30
ENDBRANCH  21  29
ENDBRANCH   1  17
TORSDOF 13
ENDMDL
MODEL 7
REMARK VINA RESULT:    -5.537      2.480      5.615
REMARK INTER + INTRA:          -9.920
REMARK INTER:                  -8.675
REMARK INTRA:                  -1.245
REMARK UNBOUND:                -1.470
REMARK SMILES OC[C@@H]1O[C@H](O[C@]2(CO)O[C@H](CO)[C@H](O)[C@H]2O)[C@@H](O)[C@H](O)[C@@H]1O
REMARK SMILES IDX 6 1 5 2 3 3 22 4 4 5 20 6 18 7 2 8 1 9 23 11 21 13 19 15
REMARK SMILES IDX 7 17 16 18 10 19 14 20 11 21 8 22 9 23 17 25 15 27 12 29
REMARK SMILES IDX 13 30
REMARK H PARENT 1 10 23 12 21 14 19 16 9 24 17 26 15 28 13 31
REMARK Flexibility Score: inf
ROOT
ATOM      1  O   UNL     1     145.721 153.296 129.018  1.00  0.00    -0.313 OA
ENDROOT
BRANCH   1   2
ATOM      2  C   UNL     1     147.129 153.411 128.819  1.00  0.00     0.285 C 
ATOM      3  C   UNL     1     148.948 152.985 127.413  1.00  0.00     0.178 C 
ATOM      4  C   UNL     1     149.546 154.396 127.606  1.00  0.00     0.177 C 
ATOM      5  O   UNL     1     147.534 153.028 127.511  1.00  0.00    -0.341 OA
ATOM      6  C   UNL     1     149.131 154.933 128.992  1.00  0.00     0.179 C 
ATOM      7  C   UNL     1     147.605 154.840 129.158  1.00  0.00     0.202 C 
BRANCH   3   8
ATOM      8  C   UNL     1     149.336 152.405 126.046  1.00  0.00     0.191 C 
BRANCH   8   9
ATOM      9  O   UNL     1     150.675 152.700 125.753  1.00  0.00    -0.394 OA
ATOM     10  H   UNL     1     150.679 153.171 124.879  1.00  0.00     0.210 HD
ENDBRANCH   8   9
ENDBRANCH   3   8
BRANCH   4  11
ATOM     11  O   UNL     1     149.079 155.255 126.593  1.00  0.00    -0.387 OA
ATOM     12  H   UNL     1     149.541 154.991 125.755  1.00  0.00     0.211 HD
ENDBRANCH   4  11
BRANCH   6  13
ATOM     13  O   UNL     1     149.542 156.267 129.145  1.00  0.00    -0.387 OA
ATOM     14  H   UNL     1     150.415 156.352 128.680  1.00  0.00     0.211 HD
ENDBRANCH   6  13
BRANCH   7  15
ATOM     15  O   UNL     1     147.244 155.148 130.480  1.00  0.00    -0.385 OA
ATOM     16  H   UNL     1     147.246 154.293 130.985  1.00  0.00     0.211 HD
ENDBRANCH   7  15
ENDBRANCH   1   2
BRANCH   1  17
ATOM     17  C   UNL     1     145.280 152.401 130.041  1.00  0.00     0.224 C 
ATOM     18  C   UNL     1     144.594 153.257 131.121  1.00  0.00     0.208 C 
ATOM     19  O   UNL     1     144.309 151.481 129.565  1.00  0.00    -0.337 OA
ATOM     20  C   UNL     1     143.543 152.337 131.682  1.00  0.00     0.180 C 
ATOM     21  C   UNL     1     143.245 151.410 130.497  1.00  0.00     0.179 C 
BRANCH  17  22
ATOM     22  C   UNL     1     146.513 151.628 130.595  1.00  0.00     0.225 C 
BRANCH  22  23
ATOM     23  O   UNL     1     146.471 150.267 130.257  1.00  0.00    -0.391 OA
ATOM     24  H   UNL     1     145.536 150.068 129.990  1.00  0.00     0.210 HD
ENDBRANCH  22  23
ENDBRANCH  17  22
BRANCH  18  25
ATOM     25  O   UNL     1     145.469 153.694 132.130  1.00  0.00    -0.385 OA
ATOM     26  H   UNL     1     144.931 154.263 132.739  1.00  0.00     0.211 HD
ENDBRANCH  18  25
BRANCH  20  27
ATOM     27  O   UNL     1     142.413 153.048 132.121  1.00  0.00    -0.387 OA
ATOM     28  H   UNL     1     141.811 152.384 132.547  1.00  0.00     0.211 HD
ENDBRANCH  20  27
BRANCH  21  29
ATOM     29  C   UNL     1     141.917 151.705 129.777  1.00  0.00     0.191 C 
BRANCH  29  30
ATOM     30  O   UNL     1     140.821 151.354 130.582  1.00  0.00    -0.394 OA
ATOM     31  H   UNL     1     140.028 151.274 129.990  1.00  0.00     0.210 HD
ENDBRANCH  29  30
ENDBRANCH  21  29
ENDBRANCH   1  17
TORSDOF 13
ENDMDL
MODEL 8
REMARK VINA RESULT:    -5.523      2.813      4.547
REMARK INTER + INTRA:          -9.899
REMARK INTER:                  -8.598
REMARK INTRA:                  -1.301
REMARK UNBOUND:                -1.470
REMARK SMILES OC[C@@H]1O[C@H](O[C@]2(CO)O[C@H](CO)[C@H](O)[C@H]2O)[C@@H](O)[C@H](O)[C@@H]1O
REMARK SMILES IDX 6 1 5 2 3 3 22 4 4 5 20 6 18 7 2 8 1 9 23 11 21 13 19 15
REMARK SMILES IDX 7 17 16 18 10 19 14 20 11 21 8 22 9 23 17 25 15 27 12 29
REMARK SMILES IDX 13 30
REMARK H PARENT 1 10 23 12 21 14 19 16 9 24 17 26 15 28 13 31
REMARK Flexibility Score: inf
ROOT
ATOM      1  O   UNL     1     148.481 152.850 128.315  1.00  0.00    -0.313 OA
ENDROOT
BRANCH   1   2
ATOM      2  C   UNL     1     148.241 152.149 129.535  1.00  0.00     0.285 C 
ATOM      3  C   UNL     1     147.891 150.082 130.569  1.00  0.00     0.178 C 
ATOM      4  C   UNL     1     148.860 150.394 131.730  1.00  0.00     0.177 C 
ATOM      5  O   UNL     1     148.310 150.738 129.383  1.00  0.00    -0.341 OA
ATOM      6  C   UNL     1     148.896 151.920 131.958  1.00  0.00     0.179 C 
ATOM      7  C   UNL     1     149.203 152.643 130.636  1.00  0.00     0.202 C 
BRANCH   3   8
ATOM      8  C   UNL     1     147.817 148.572 130.303  1.00  0.00     0.191 C 
BRANCH   8   9
ATOM      9  O   UNL     1     148.236 147.857 131.435  1.00  0.00    -0.394 OA
ATOM     10  H   UNL     1     149.169 147.566 131.259  1.00  0.00     0.210 HD
ENDBRANCH   8   9
ENDBRANCH   3   8
BRANCH   4  11
ATOM     11  O   UNL     1     150.147 149.919 131.419  1.00  0.00    -0.387 OA
ATOM     12  H   UNL     1     150.335 150.184 130.481  1.00  0.00     0.211 HD
ENDBRANCH   4  11
BRANCH   6  13
ATOM     13  O   UNL     1     149.870 152.250 132.914  1.00  0.00    -0.387 OA
ATOM     14  H   UNL     1     149.558 151.876 133.780  1.00  0.00     0.211 HD
ENDBRANCH   6  13
BRANCH   7  15
ATOM     15  O   UNL     1     149.051 154.030 130.799  1.00  0.00    -0.385 OA
ATOM     16  H   UNL     1     149.557 154.463 130.062  1.00  0.00     0.211 HD
ENDBRANCH   7  15
ENDBRANCH   1   2
BRANCH   1  17
ATOM     17  C   UNL     1     147.537 153.856 127.946  1.00  0.00     0.224 C 
ATOM     18  C   UNL     1     146.398 153.148 127.190  1.00  0.00     0.208 C 
ATOM     19  O   UNL     1     146.953 154.484 129.078  1.00  0.00    -0.337 OA
ATOM     20  C   UNL     1     145.189 153.981 127.518  1.00  0.00     0.180 C 
ATOM     21  C   UNL     1     145.553 154.576 128.884  1.00  0.00     0.179 C 
BRANCH  17  22
ATOM     22  C   UNL     1     148.258 154.920 127.067  1.00  0.00     0.225 C 
BRANCH  22  23
ATOM     23  O   UNL     1     149.126 154.328 126.138  1.00  0.00    -0.391 OA
ATOM     24  H   UNL     1     149.931 154.907 126.091  1.00  0.00     0.210 HD
ENDBRANCH  22  23
ENDBRANCH  17  22
BRANCH  18  25
ATOM     25  O   UNL     1     146.603 153.084 125.801  1.00  0.00    -0.385 OA
ATOM     26  H   UNL     1     146.817 152.137 125.594  1.00  0.00     0.211 HD
ENDBRANCH  18  25
BRANCH  20  27
ATOM     27  O   UNL     1     144.017 153.205 127.551  1.00  0.00    -0.387 OA
ATOM     28  H   UNL     1     143.790 153.079 128.508  1.00  0.00     0.211 HD
ENDBRANCH  20  27
BRANCH  21  29
ATOM     29  C   UNL     1     144.830 153.922 130.075  1.00  0.00     0.191 C 
BRANCH  29  30
ATOM     30  O   UNL     1     145.579 154.063 131.255  1.00  0.00    -0.394 OA
ATOM     31  H   UNL     1     145.290 153.348 131.880  1.00  0.00     0.210 HD
ENDBRANCH  29  30
ENDBRANCH  21  29
ENDBRANCH   1  17
TORSDOF 13
ENDMDL
MODEL 9
REMARK VINA RESULT:    -5.521      2.912      5.884
REMARK INTER + INTRA:          -9.895
REMARK INTER:                  -8.551
REMARK INTRA:                  -1.344
REMARK UNBOUND:                -1.470
REMARK SMILES OC[C@@H]1O[C@H](O[C@]2(CO)O[C@H](CO)[C@H](O)[C@H]2O)[C@@H](O)[C@H](O)[C@@H]1O
REMARK SMILES IDX 6 1 5 2 3 3 22 4 4 5 20 6 18 7 2 8 1 9 23 11 21 13 19 15
REMARK SMILES IDX 7 17 16 18 10 19 14 20 11 21 8 22 9 23 17 25 15 27 12 29
REMARK SMILES IDX 13 30
REMARK H PARENT 1 10 23 12 21 14 19 16 9 24 17 26 15 28 13 31
REMARK Flexibility Score: inf
ROOT
ATOM      1  O   UNL     1     146.167 152.534 129.357  1.00  0.00    -0.313 OA
ENDROOT
BRANCH   1   2
ATOM      2  C   UNL     1     144.809 152.688 129.767  1.00  0.00     0.285 C 
ATOM      3  C   UNL     1     142.593 151.991 129.502  1.00  0.00     0.178 C 
ATOM      4  C   UNL     1     142.335 151.925 131.023  1.00  0.00     0.177 C 
ATOM      5  O   UNL     1     143.951 151.697 129.217  1.00  0.00    -0.341 OA
ATOM      6  C   UNL     1     143.253 152.941 131.734  1.00  0.00     0.179 C 
ATOM      7  C   UNL     1     144.714 152.719 131.308  1.00  0.00     0.202 C 
BRANCH   3   8
ATOM      8  C   UNL     1     141.699 150.998 128.747  1.00  0.00     0.191 C 
BRANCH   8   9
ATOM      9  O   UNL     1     142.295 149.728 128.721  1.00  0.00    -0.394 OA
ATOM     10  H   UNL     1     142.495 149.527 127.770  1.00  0.00     0.210 HD
ENDBRANCH   8   9
ENDBRANCH   3   8
BRANCH   4  11
ATOM     11  O   UNL     1     142.593 150.624 131.495  1.00  0.00    -0.387 OA
ATOM     12  H   UNL     1     143.007 150.718 132.392  1.00  0.00     0.211 HD
ENDBRANCH   4  11
BRANCH   6  13
ATOM     13  O   UNL     1     143.144 152.810 133.128  1.00  0.00    -0.387 OA
ATOM     14  H   UNL     1     142.563 153.553 133.440  1.00  0.00     0.211 HD
ENDBRANCH   6  13
BRANCH   7  15
ATOM     15  O   UNL     1     145.524 153.755 131.802  1.00  0.00    -0.385 OA
ATOM     16  H   UNL     1     146.352 153.332 132.150  1.00  0.00     0.211 HD
ENDBRANCH   7  15
ENDBRANCH   1   2
BRANCH   1  17
ATOM     17  C   UNL     1     146.746 153.604 128.609  1.00  0.00     0.224 C 
ATOM     18  C   UNL     1     147.977 154.089 129.397  1.00  0.00     0.208 C 
ATOM     19  O   UNL     1     147.211 153.180 127.336  1.00  0.00    -0.337 OA
ATOM     20  C   UNL     1     148.915 154.568 128.322  1.00  0.00     0.180 C 
ATOM     21  C   UNL     1     148.503 153.715 127.116  1.00  0.00     0.179 C 
BRANCH  17  22
ATOM     22  C   UNL     1     145.679 154.725 128.434  1.00  0.00     0.225 C 
BRANCH  22  23
ATOM     23  O   UNL     1     145.281 154.863 127.096  1.00  0.00    -0.391 OA
ATOM     24  H   UNL     1     144.320 154.615 127.058  1.00  0.00     0.210 HD
ENDBRANCH  22  23
ENDBRANCH  17  22
BRANCH  18  25
ATOM     25  O   UNL     1     147.690 155.118 130.310  1.00  0.00    -0.385 OA
ATOM     26  H   UNL     1     148.402 155.800 130.194  1.00  0.00     0.211 HD
ENDBRANCH  18  25
BRANCH  20  27
ATOM     27  O   UNL     1     150.260 154.389 128.689  1.00  0.00    -0.387 OA
ATOM     28  H   UNL     1     150.268 153.697 129.399  1.00  0.00     0.211 HD
ENDBRANCH  20  27
BRANCH  21  29
ATOM     29  C   UNL     1     149.478 152.570 126.785  1.00  0.00     0.191 C 
BRANCH  29  30
ATOM     30  O   UNL     1     150.588 153.048 126.070  1.00  0.00    -0.394 OA
ATOM     31  H   UNL     1     150.526 154.038 126.047  1.00  0.00     0.210 HD
ENDBRANCH  29  30
ENDBRANCH  21  29
ENDBRANCH   1  17
TORSDOF 13
ENDMDL
