MODEL 1
REMARK VINA RESULT:    -5.364      0.000      0.000
REMARK INTER + INTRA:          -7.934
REMARK INTER:                  -7.246
REMARK INTRA:                  -0.688
REMARK UNBOUND:                -0.688
REMARK SMILES COc1ccc(-c2cc(=O)c3c(OC)c(OC)c(OC)cc3o2)cc1OC
REMARK SMILES IDX 7 1 8 2 9 3 10 4 11 5 12 6 15 7 18 8 21 9 22 10 23 11 6 12
REMARK SMILES IDX 3 13 25 14 4 15 24 16 5 17 2 18 1 19 26 20 27 21 13 22 14 23
REMARK SMILES IDX 19 24 20 25 16 26 17 27
REMARK H PARENT
REMARK Flexibility Score: inf
ROOT
ATOM      1  C   UNL     1     130.708 100.483  91.597  1.00  0.00     0.138 A 
ATOM      2  C   UNL     1     129.667 101.384  91.324  1.00  0.00     0.100 A 
ATOM      3  C   UNL     1     129.801 102.721  91.694  1.00  0.00     0.197 A 
ATOM      4  O   UNL     1     128.876 103.527  91.409  1.00  0.00    -0.289 OA
ATOM      5  C   UNL     1     130.975 103.149  92.354  1.00  0.00     0.111 A 
ATOM      6  C   UNL     1     131.178 104.481  92.796  1.00  0.00     0.179 A 
ATOM      7  C   UNL     1     132.433 104.859  93.340  1.00  0.00     0.204 A 
ATOM      8  C   UNL     1     133.426 103.887  93.543  1.00  0.00     0.168 A 
ATOM      9  C   UNL     1     133.191 102.557  93.165  1.00  0.00     0.098 A 
ATOM     10  C   UNL     1     131.989 102.190  92.562  1.00  0.00     0.146 A 
ATOM     11  O   UNL     1     131.815 100.926  92.187  1.00  0.00    -0.456 OA
ENDROOT
BRANCH   1  12
ATOM     12  C   UNL     1     130.622  99.048  91.226  1.00  0.00     0.021 A 
ATOM     13  C   UNL     1     130.507  96.308  90.553  1.00  0.00     0.160 A 
ATOM     14  C   UNL     1     131.741  96.904  90.852  1.00  0.00     0.161 A 
ATOM     15  C   UNL     1     129.334  97.081  90.601  1.00  0.00     0.051 A 
ATOM     16  C   UNL     1     131.792  98.270  91.190  1.00  0.00     0.062 A 
ATOM     17  C   UNL     1     129.390  98.435  90.937  1.00  0.00     0.016 A 
BRANCH  13  18
ATOM     18  O   UNL     1     130.488  94.944  90.217  1.00  0.00    -0.493 OA
ATOM     19  C   UNL     1     129.720  93.957  90.897  1.00  0.00     0.278 C 
ENDBRANCH  13  18
BRANCH  14  20
ATOM     20  O   UNL     1     132.895  96.105  90.801  1.00  0.00    -0.493 OA
ATOM     21  C   UNL     1     134.202  96.550  91.151  1.00  0.00     0.278 C 
ENDBRANCH  14  20
ENDBRANCH   1  12
BRANCH   6  22
ATOM     22  O   UNL     1     130.137 105.408  92.733  1.00  0.00    -0.492 OA
ATOM     23  C   UNL     1     129.423 105.795  93.903  1.00  0.00     0.278 C 
ENDBRANCH   6  22
BRANCH   8  24
ATOM     24  O   UNL     1     134.641 104.291  94.121  1.00  0.00    -0.493 OA
ATOM     25  C   UNL     1     134.952 104.185  95.507  1.00  0.00     0.278 C 
ENDBRANCH   8  24
BRANCH   7  26
ATOM     26  O   UNL     1     132.757 106.181  93.697  1.00  0.00    -0.490 OA
ATOM     27  C   UNL     1     133.132 107.223  92.801  1.00  0.00     0.278 C 
ENDBRANCH   7  26
TORSDOF 6
ENDMDL
MODEL 2
REMARK VINA RESULT:    -5.321      4.632      6.516
REMARK INTER + INTRA:          -7.875
REMARK INTER:                  -7.420
REMARK INTRA:                  -0.454
REMARK UNBOUND:                -0.688
REMARK SMILES COc1ccc(-c2cc(=O)c3c(OC)c(OC)c(OC)cc3o2)cc1OC
REMARK SMILES IDX 7 1 8 2 9 3 10 4 11 5 12 6 15 7 18 8 21 9 22 10 23 11 6 12
REMARK SMILES IDX 3 13 25 14 4 15 24 16 5 17 2 18 1 19 26 20 27 21 13 22 14 23
REMARK SMILES IDX 19 24 20 25 16 26 17 27
REMARK H PARENT
REMARK Flexibility Score: inf
ROOT
ATOM      1  C   UNL     1     134.778 103.048  94.237  1.00  0.00     0.138 A 
ATOM      2  C   UNL     1     133.635 102.341  94.642  1.00  0.00     0.100 A 
ATOM      3  C   UNL     1     132.383 102.947  94.547  1.00  0.00     0.197 A 
ATOM      4  O   UNL     1     131.362 102.288  94.878  1.00  0.00    -0.289 OA
ATOM      5  C   UNL     1     132.282 104.270  94.062  1.00  0.00     0.111 A 
ATOM      6  C   UNL     1     131.054 104.973  93.966  1.00  0.00     0.179 A 
ATOM      7  C   UNL     1     131.020 106.252  93.353  1.00  0.00     0.204 A 
ATOM      8  C   UNL     1     132.218 106.863  92.949  1.00  0.00     0.168 A 
ATOM      9  C   UNL     1     133.438 106.187  93.110  1.00  0.00     0.098 A 
ATOM     10  C   UNL     1     133.473 104.901  93.643  1.00  0.00     0.146 A 
ATOM     11  O   UNL     1     134.644 104.279  93.750  1.00  0.00    -0.456 OA
ENDROOT
BRANCH   1  12
ATOM     12  C   UNL     1     136.136 102.454  94.314  1.00  0.00     0.021 A 
ATOM     13  C   UNL     1     138.697 101.271  94.445  1.00  0.00     0.160 A 
ATOM     14  C   UNL     1     137.555 100.498  94.700  1.00  0.00     0.161 A 
ATOM     15  C   UNL     1     138.555 102.631  94.116  1.00  0.00     0.051 A 
ATOM     16  C   UNL     1     136.280 101.092  94.629  1.00  0.00     0.062 A 
ATOM     17  C   UNL     1     137.288 103.215  94.047  1.00  0.00     0.016 A 
BRANCH  13  18
ATOM     18  O   UNL     1     139.955 100.652  94.525  1.00  0.00    -0.493 OA
ATOM     19  C   UNL     1     141.167 101.223  94.045  1.00  0.00     0.278 C 
ENDBRANCH  13  18
BRANCH  14  20
ATOM     20  O   UNL     1     137.729  99.142  95.021  1.00  0.00    -0.493 OA
ATOM     21  C   UNL     1     137.181  98.059  94.277  1.00  0.00     0.278 C 
ENDBRANCH  14  20
ENDBRANCH   1  12
BRANCH   6  22
ATOM     22  O   UNL     1     129.889 104.426  94.506  1.00  0.00    -0.492 OA
ATOM     23  C   UNL     1     128.875 103.879  93.669  1.00  0.00     0.278 C 
ENDBRANCH   6  22
BRANCH   8  24
ATOM     24  O   UNL     1     132.150 108.147  92.383  1.00  0.00    -0.493 OA
ATOM     25  C   UNL     1     133.282 108.936  92.030  1.00  0.00     0.278 C 
ENDBRANCH   8  24
BRANCH   7  26
ATOM     26  O   UNL     1     129.832 106.967  93.116  1.00  0.00    -0.490 OA
ATOM     27  C   UNL     1     129.063 107.661  94.093  1.00  0.00     0.278 C 
ENDBRANCH   7  26
TORSDOF 6
ENDMDL
MODEL 3
REMARK VINA RESULT:    -5.162      2.864      4.902
REMARK INTER + INTRA:          -7.661
REMARK INTER:                  -7.067
REMARK INTRA:                  -0.594
REMARK UNBOUND:                -0.688
REMARK SMILES COc1ccc(-c2cc(=O)c3c(OC)c(OC)c(OC)cc3o2)cc1OC
REMARK SMILES IDX 7 1 8 2 9 3 10 4 11 5 12 6 15 7 18 8 21 9 22 10 23 11 6 12
REMARK SMILES IDX 3 13 25 14 4 15 24 16 5 17 2 18 1 19 26 20 27 21 13 22 14 23
REMARK SMILES IDX 19 24 20 25 16 26 17 27
REMARK H PARENT
REMARK Flexibility Score: inf
ROOT
ATOM      1  C   UNL     1     131.342  96.592  90.954  1.00  0.00     0.138 A 
ATOM      2  C   UNL     1     130.590  97.778  90.957  1.00  0.00     0.100 A 
ATOM      3  C   UNL     1     131.246  99.006  91.025  1.00  0.00     0.197 A 
ATOM      4  O   UNL     1     130.562 100.064  90.988  1.00  0.00    -0.289 OA
ATOM      5  C   UNL     1     132.656  99.042  91.106  1.00  0.00     0.111 A 
ATOM      6  C   UNL     1     133.400 100.245  91.212  1.00  0.00     0.179 A 
ATOM      7  C   UNL     1     134.817 100.203  91.164  1.00  0.00     0.204 A 
ATOM      8  C   UNL     1     135.477  98.964  91.127  1.00  0.00     0.168 A 
ATOM      9  C   UNL     1     134.733  97.775  91.090  1.00  0.00     0.098 A 
ATOM     10  C   UNL     1     133.340  97.808  91.063  1.00  0.00     0.146 A 
ATOM     11  O   UNL     1     132.669  96.662  90.994  1.00  0.00    -0.456 OA
ENDROOT
BRANCH   1  12
ATOM     12  C   UNL     1     130.699  95.256  90.884  1.00  0.00     0.021 A 
ATOM     13  C   UNL     1     129.530  92.689  90.745  1.00  0.00     0.160 A 
ATOM     14  C   UNL     1     130.770  92.927  90.135  1.00  0.00     0.161 A 
ATOM     15  C   UNL     1     128.883  93.732  91.432  1.00  0.00     0.051 A 
ATOM     16  C   UNL     1     131.350  94.208  90.210  1.00  0.00     0.062 A 
ATOM     17  C   UNL     1     129.462  95.000  91.503  1.00  0.00     0.016 A 
BRANCH  13  18
ATOM     18  O   UNL     1     128.976  91.402  90.653  1.00  0.00    -0.493 OA
ATOM     19  C   UNL     1     128.896  90.478  91.733  1.00  0.00     0.278 C 
ENDBRANCH  13  18
BRANCH  14  20
ATOM     20  O   UNL     1     131.394  91.865  89.461  1.00  0.00    -0.493 OA
ATOM     21  C   UNL     1     132.690  91.930  88.875  1.00  0.00     0.278 C 
ENDBRANCH  14  20
ENDBRANCH   1  12
BRANCH   6  22
ATOM     22  O   UNL     1     132.743 101.462  91.402  1.00  0.00    -0.492 OA
ATOM     23  C   UNL     1     132.603 102.028  92.702  1.00  0.00     0.278 C 
ENDBRANCH   6  22
BRANCH   8  24
ATOM     24  O   UNL     1     136.882  98.961  91.121  1.00  0.00    -0.493 OA
ATOM     25  C   UNL     1     137.685  98.785  89.958  1.00  0.00     0.278 C 
ENDBRANCH   8  24
BRANCH   7  26
ATOM     26  O   UNL     1     135.626 101.354  91.149  1.00  0.00    -0.490 OA
ATOM     27  C   UNL     1     136.149 102.025  92.292  1.00  0.00     0.278 C 
ENDBRANCH   7  26
TORSDOF 6
ENDMDL
MODEL 4
REMARK VINA RESULT:    -5.145      3.757      7.879
REMARK INTER + INTRA:          -7.638
REMARK INTER:                  -7.094
REMARK INTRA:                  -0.544
REMARK UNBOUND:                -0.688
REMARK SMILES COc1ccc(-c2cc(=O)c3c(OC)c(OC)c(OC)cc3o2)cc1OC
REMARK SMILES IDX 7 1 8 2 9 3 10 4 11 5 12 6 15 7 18 8 21 9 22 10 23 11 6 12
REMARK SMILES IDX 3 13 25 14 4 15 24 16 5 17 2 18 1 19 26 20 27 21 13 22 14 23
REMARK SMILES IDX 19 24 20 25 16 26 17 27
REMARK H PARENT
REMARK Flexibility Score: inf
ROOT
ATOM      1  C   UNL     1     135.951 102.480  94.407  1.00  0.00     0.138 A 
ATOM      2  C   UNL     1     135.307 103.170  95.446  1.00  0.00     0.100 A 
ATOM      3  C   UNL     1     133.918 103.289  95.433  1.00  0.00     0.197 A 
ATOM      4  O   UNL     1     133.349 103.877  96.391  1.00  0.00    -0.289 OA
ATOM      5  C   UNL     1     133.178 102.727  94.369  1.00  0.00     0.111 A 
ATOM      6  C   UNL     1     131.768 102.831  94.260  1.00  0.00     0.179 A 
ATOM      7  C   UNL     1     131.088 102.135  93.228  1.00  0.00     0.204 A 
ATOM      8  C   UNL     1     131.824 101.442  92.253  1.00  0.00     0.168 A 
ATOM      9  C   UNL     1     133.224 101.401  92.329  1.00  0.00     0.098 A 
ATOM     10  C   UNL     1     133.897 102.020  93.381  1.00  0.00     0.146 A 
ATOM     11  O   UNL     1     135.223 101.932  93.439  1.00  0.00    -0.456 OA
ENDROOT
BRANCH   1  12
ATOM     12  C   UNL     1     137.427 102.322  94.367  1.00  0.00     0.021 A 
ATOM     13  C   UNL     1     140.240 102.081  94.292  1.00  0.00     0.160 A 
ATOM     14  C   UNL     1     139.620 103.216  93.749  1.00  0.00     0.161 A 
ATOM     15  C   UNL     1     139.453 101.075  94.880  1.00  0.00     0.051 A 
ATOM     16  C   UNL     1     138.217 103.333  93.793  1.00  0.00     0.062 A 
ATOM     17  C   UNL     1     138.062 101.196  94.921  1.00  0.00     0.016 A 
BRANCH  13  18
ATOM     18  O   UNL     1     141.640 101.993  94.233  1.00  0.00    -0.493 OA
ATOM     19  C   UNL     1     142.357 100.865  93.742  1.00  0.00     0.278 C 
ENDBRANCH  13  18
BRANCH  14  20
ATOM     20  O   UNL     1     140.432 104.206  93.173  1.00  0.00    -0.493 OA
ATOM     21  C   UNL     1     140.468 105.567  93.593  1.00  0.00     0.278 C 
ENDBRANCH  14  20
ENDBRANCH   1  12
BRANCH   6  22
ATOM     22  O   UNL     1     131.055 103.644  95.142  1.00  0.00    -0.492 OA
ATOM     23  C   UNL     1     130.685 104.972  94.782  1.00  0.00     0.278 C 
ENDBRANCH   6  22
BRANCH   8  24
ATOM     24  O   UNL     1     131.118 100.799  91.222  1.00  0.00    -0.493 OA
ATOM     25  C   UNL     1     131.333  99.451  90.815  1.00  0.00     0.278 C 
ENDBRANCH   8  24
BRANCH   7  26
ATOM     26  O   UNL     1     129.686 102.091  93.115  1.00  0.00    -0.490 OA
ATOM     27  C   UNL     1     128.875 103.013  92.393  1.00  0.00     0.278 C 
ENDBRANCH   7  26
TORSDOF 6
ENDMDL
MODEL 5
REMARK VINA RESULT:    -5.130      3.213      4.824
REMARK INTER + INTRA:          -7.617
REMARK INTER:                  -6.991
REMARK INTRA:                  -0.626
REMARK UNBOUND:                -0.688
REMARK SMILES COc1ccc(-c2cc(=O)c3c(OC)c(OC)c(OC)cc3o2)cc1OC
REMARK SMILES IDX 7 1 8 2 9 3 10 4 11 5 12 6 15 7 18 8 21 9 22 10 23 11 6 12
REMARK SMILES IDX 3 13 25 14 4 15 24 16 5 17 2 18 1 19 26 20 27 21 13 22 14 23
REMARK SMILES IDX 19 24 20 25 16 26 17 27
REMARK H PARENT
REMARK Flexibility Score: inf
ROOT
ATOM      1  C   UNL     1     133.482 102.703  93.257  1.00  0.00     0.138 A 
ATOM      2  C   UNL     1     132.105 102.447  93.341  1.00  0.00     0.100 A 
ATOM      3  C   UNL     1     131.203 103.507  93.257  1.00  0.00     0.197 A 
ATOM      4  O   UNL     1     129.968 103.260  93.295  1.00  0.00    -0.289 OA
ATOM      5  C   UNL     1     131.686 104.826  93.104  1.00  0.00     0.111 A 
ATOM      6  C   UNL     1     130.842 105.964  93.044  1.00  0.00     0.179 A 
ATOM      7  C   UNL     1     131.397 107.239  92.765  1.00  0.00     0.204 A 
ATOM      8  C   UNL     1     132.790 107.386  92.665  1.00  0.00     0.168 A 
ATOM      9  C   UNL     1     133.623 106.265  92.792  1.00  0.00     0.098 A 
ATOM     10  C   UNL     1     133.084 104.996  92.993  1.00  0.00     0.146 A 
ATOM     11  O   UNL     1     133.903 103.952  93.076  1.00  0.00    -0.456 OA
ENDROOT
BRANCH   1  12
ATOM     12  C   UNL     1     134.489 101.615  93.341  1.00  0.00     0.021 A 
ATOM     13  C   UNL     1     136.406  99.544  93.440  1.00  0.00     0.160 A 
ATOM     14  C   UNL     1     135.547  99.651  92.336  1.00  0.00     0.161 A 
ATOM     15  C   UNL     1     136.311 100.480  94.485  1.00  0.00     0.051 A 
ATOM     16  C   UNL     1     134.595 100.687  92.290  1.00  0.00     0.062 A 
ATOM     17  C   UNL     1     135.365 101.506  94.435  1.00  0.00     0.016 A 
BRANCH  13  18
ATOM     18  O   UNL     1     137.344  98.499  93.458  1.00  0.00    -0.493 OA
ATOM     19  C   UNL     1     138.020  98.042  94.624  1.00  0.00     0.278 C 
ENDBRANCH  13  18
BRANCH  14  20
ATOM     20  O   UNL     1     135.670  98.705  91.305  1.00  0.00    -0.493 OA
ATOM     21  C   UNL     1     134.829  97.566  91.149  1.00  0.00     0.278 C 
ENDBRANCH  14  20
ENDBRANCH   1  12
BRANCH   6  22
ATOM     22  O   UNL     1     129.475 105.836  93.296  1.00  0.00    -0.492 OA
ATOM     23  C   UNL     1     128.900 106.332  94.501  1.00  0.00     0.278 C 
ENDBRANCH   6  22
BRANCH   8  24
ATOM     24  O   UNL     1     133.306 108.671  92.428  1.00  0.00    -0.493 OA
ATOM     25  C   UNL     1     134.326 108.971  91.481  1.00  0.00     0.278 C 
ENDBRANCH   8  24
BRANCH   7  26
ATOM     26  O   UNL     1     130.621 108.398  92.577  1.00  0.00    -0.490 OA
ATOM     27  C   UNL     1     129.955 108.773  91.375  1.00  0.00     0.278 C 
ENDBRANCH   7  26
TORSDOF 6
ENDMDL
MODEL 6
REMARK VINA RESULT:    -5.123      1.193      2.179
REMARK INTER + INTRA:          -7.608
REMARK INTER:                  -6.935
REMARK INTRA:                  -0.673
REMARK UNBOUND:                -0.688
REMARK SMILES COc1ccc(-c2cc(=O)c3c(OC)c(OC)c(OC)cc3o2)cc1OC
REMARK SMILES IDX 7 1 8 2 9 3 10 4 11 5 12 6 15 7 18 8 21 9 22 10 23 11 6 12
REMARK SMILES IDX 3 13 25 14 4 15 24 16 5 17 2 18 1 19 26 20 27 21 13 22 14 23
REMARK SMILES IDX 19 24 20 25 16 26 17 27
REMARK H PARENT
REMARK Flexibility Score: inf
ROOT
ATOM      1  C   UNL     1     132.021  99.853  91.491  1.00  0.00     0.138 A 
ATOM      2  C   UNL     1     130.740 100.417  91.392  1.00  0.00     0.100 A 
ATOM      3  C   UNL     1     130.525 101.715  91.854  1.00  0.00     0.197 A 
ATOM      4  O   UNL     1     129.380 102.225  91.723  1.00  0.00    -0.289 OA
ATOM      5  C   UNL     1     131.593 102.439  92.430  1.00  0.00     0.111 A 
ATOM      6  C   UNL     1     131.453 103.749  92.955  1.00  0.00     0.179 A 
ATOM      7  C   UNL     1     132.599 104.454  93.404  1.00  0.00     0.204 A 
ATOM      8  C   UNL     1     133.846 103.810  93.433  1.00  0.00     0.168 A 
ATOM      9  C   UNL     1     133.963 102.489  92.973  1.00  0.00     0.098 A 
ATOM     10  C   UNL     1     132.858 101.813  92.462  1.00  0.00     0.146 A 
ATOM     11  O   UNL     1     133.014 100.574  92.005  1.00  0.00    -0.456 OA
ENDROOT
BRANCH   1  12
ATOM     12  C   UNL     1     132.311  98.476  91.017  1.00  0.00     0.021 A 
ATOM     13  C   UNL     1     132.806  95.855  90.089  1.00  0.00     0.160 A 
ATOM     14  C   UNL     1     131.494  96.259  90.376  1.00  0.00     0.161 A 
ATOM     15  C   UNL     1     133.865  96.765  90.257  1.00  0.00     0.051 A 
ATOM     16  C   UNL     1     131.253  97.569  90.835  1.00  0.00     0.062 A 
ATOM     17  C   UNL     1     133.619  98.062  90.712  1.00  0.00     0.016 A 
BRANCH  13  18
ATOM     18  O   UNL     1     133.016  94.543  89.635  1.00  0.00    -0.493 OA
ATOM     19  C   UNL     1     134.167  94.113  88.915  1.00  0.00     0.278 C 
ENDBRANCH  13  18
BRANCH  14  20
ATOM     20  O   UNL     1     130.457  95.330  90.194  1.00  0.00    -0.493 OA
ATOM     21  C   UNL     1     129.620  94.839  91.237  1.00  0.00     0.278 C 
ENDBRANCH  14  20
ENDBRANCH   1  12
BRANCH   6  22
ATOM     22  O   UNL     1     130.188 104.328  93.066  1.00  0.00    -0.492 OA
ATOM     23  C   UNL     1     129.537 104.439  94.328  1.00  0.00     0.278 C 
ENDBRANCH   6  22
BRANCH   8  24
ATOM     24  O   UNL     1     134.951 104.527  93.921  1.00  0.00    -0.493 OA
ATOM     25  C   UNL     1     135.489 104.387  95.233  1.00  0.00     0.278 C 
ENDBRANCH   8  24
BRANCH   7  26
ATOM     26  O   UNL     1     132.566 105.794  93.833  1.00  0.00    -0.490 OA
ATOM     27  C   UNL     1     132.589 106.943  92.992  1.00  0.00     0.278 C 
ENDBRANCH   7  26
TORSDOF 6
ENDMDL
MODEL 7
REMARK VINA RESULT:    -5.107      3.336      5.047
REMARK INTER + INTRA:          -7.586
REMARK INTER:                  -6.901
REMARK INTRA:                  -0.685
REMARK UNBOUND:                -0.688
REMARK SMILES COc1ccc(-c2cc(=O)c3c(OC)c(OC)c(OC)cc3o2)cc1OC
REMARK SMILES IDX 7 1 8 2 9 3 10 4 11 5 12 6 15 7 18 8 21 9 22 10 23 11 6 12
REMARK SMILES IDX 3 13 25 14 4 15 24 16 5 17 2 18 1 19 26 20 27 21 13 22 14 23
REMARK SMILES IDX 19 24 20 25 16 26 17 27
REMARK H PARENT
REMARK Flexibility Score: inf
ROOT
ATOM      1  C   UNL     1     134.256  98.193  91.322  1.00  0.00     0.138 A 
ATOM      2  C   UNL     1     133.671  99.461  91.178  1.00  0.00     0.100 A 
ATOM      3  C   UNL     1     134.263 100.564  91.793  1.00  0.00     0.197 A 
ATOM      4  O   UNL     1     133.749 101.702  91.624  1.00  0.00    -0.289 OA
ATOM      5  C   UNL     1     135.434 100.390  92.564  1.00  0.00     0.111 A 
ATOM      6  C   UNL     1     136.080 101.450  93.249  1.00  0.00     0.179 A 
ATOM      7  C   UNL     1     137.318 101.216  93.901  1.00  0.00     0.204 A 
ATOM      8  C   UNL     1     137.839  99.914  93.961  1.00  0.00     0.168 A 
ATOM      9  C   UNL     1     137.158  98.858  93.336  1.00  0.00     0.098 A 
ATOM     10  C   UNL     1     135.979  99.089  92.632  1.00  0.00     0.146 A 
ATOM     11  O   UNL     1     135.379  98.069  92.025  1.00  0.00    -0.456 OA
ENDROOT
BRANCH   1  12
ATOM     12  C   UNL     1     133.672  96.983  90.692  1.00  0.00     0.021 A 
ATOM     13  C   UNL     1     132.507  94.710  89.486  1.00  0.00     0.160 A 
ATOM     14  C   UNL     1     131.700  95.629  90.173  1.00  0.00     0.161 A 
ATOM     15  C   UNL     1     133.892  94.936  89.395  1.00  0.00     0.051 A 
ATOM     16  C   UNL     1     132.286  96.762  90.769  1.00  0.00     0.062 A 
ATOM     17  C   UNL     1     134.467  96.062  89.988  1.00  0.00     0.016 A 
BRANCH  13  18
ATOM     18  O   UNL     1     131.895  93.589  88.902  1.00  0.00    -0.493 OA
ATOM     19  C   UNL     1     131.820  92.304  89.510  1.00  0.00     0.278 C 
ENDBRANCH  13  18
BRANCH  14  20
ATOM     20  O   UNL     1     130.320  95.379  90.242  1.00  0.00    -0.493 OA
ATOM     21  C   UNL     1     129.603  95.131  91.447  1.00  0.00     0.278 C 
ENDBRANCH  14  20
ENDBRANCH   1  12
BRANCH   6  22
ATOM     22  O   UNL     1     135.481 102.709  93.317  1.00  0.00    -0.492 OA
ATOM     23  C   UNL     1     134.839 103.156  94.507  1.00  0.00     0.278 C 
ENDBRANCH   6  22
BRANCH   8  24
ATOM     24  O   UNL     1     139.048  99.714  94.649  1.00  0.00    -0.493 OA
ATOM     25  C   UNL     1     139.255  98.720  95.647  1.00  0.00     0.278 C 
ENDBRANCH   8  24
BRANCH   7  26
ATOM     26  O   UNL     1     138.080 102.233  94.506  1.00  0.00    -0.490 OA
ATOM     27  C   UNL     1     138.936 103.151  93.833  1.00  0.00     0.278 C 
ENDBRANCH   7  26
TORSDOF 6
ENDMDL
MODEL 8
REMARK VINA RESULT:    -5.035      1.660      3.277
REMARK INTER + INTRA:          -7.489
REMARK INTER:                  -6.786
REMARK INTRA:                  -0.702
REMARK UNBOUND:                -0.688
REMARK SMILES COc1ccc(-c2cc(=O)c3c(OC)c(OC)c(OC)cc3o2)cc1OC
REMARK SMILES IDX 7 1 8 2 9 3 10 4 11 5 12 6 15 7 18 8 21 9 22 10 23 11 6 12
REMARK SMILES IDX 3 13 25 14 4 15 24 16 5 17 2 18 1 19 26 20 27 21 13 22 14 23
REMARK SMILES IDX 19 24 20 25 16 26 17 27
REMARK H PARENT
REMARK Flexibility Score: inf
ROOT
ATOM      1  C   UNL     1     131.610  98.871  91.128  1.00  0.00     0.138 A 
ATOM      2  C   UNL     1     132.984  99.159  91.122  1.00  0.00     0.100 A 
ATOM      3  C   UNL     1     133.418 100.443  91.449  1.00  0.00     0.197 A 
ATOM      4  O   UNL     1     134.655 100.678  91.477  1.00  0.00    -0.289 OA
ATOM      5  C   UNL     1     132.470 101.442  91.766  1.00  0.00     0.111 A 
ATOM      6  C   UNL     1     132.821 102.780  92.075  1.00  0.00     0.179 A 
ATOM      7  C   UNL     1     131.821 103.690  92.502  1.00  0.00     0.204 A 
ATOM      8  C   UNL     1     130.474 103.294  92.506  1.00  0.00     0.168 A 
ATOM      9  C   UNL     1     130.127 101.987  92.133  1.00  0.00     0.098 A 
ATOM     10  C   UNL     1     131.110 101.063  91.782  1.00  0.00     0.146 A 
ATOM     11  O   UNL     1     130.746  99.824  91.466  1.00  0.00    -0.456 OA
ENDROOT
BRANCH   1  12
ATOM     12  C   UNL     1     131.090  97.523  90.788  1.00  0.00     0.021 A 
ATOM     13  C   UNL     1     130.156  94.936  90.146  1.00  0.00     0.160 A 
ATOM     14  C   UNL     1     131.465  95.311  89.809  1.00  0.00     0.161 A 
ATOM     15  C   UNL     1     129.322  95.852  90.812  1.00  0.00     0.051 A 
ATOM     16  C   UNL     1     131.927  96.601  90.135  1.00  0.00     0.062 A 
ATOM     17  C   UNL     1     129.785  97.129  91.133  1.00  0.00     0.016 A 
BRANCH  13  18
ATOM     18  O   UNL     1     129.724  93.643  89.807  1.00  0.00    -0.493 OA
ATOM     19  C   UNL     1     129.638  92.556  90.722  1.00  0.00     0.278 C 
ENDBRANCH  13  18
BRANCH  14  20
ATOM     20  O   UNL     1     132.277  94.374  89.149  1.00  0.00    -0.493 OA
ATOM     21  C   UNL     1     133.692  94.475  89.027  1.00  0.00     0.278 C 
ENDBRANCH  14  20
ENDBRANCH   1  12
BRANCH   6  22
ATOM     22  O   UNL     1     134.140 103.211  91.924  1.00  0.00    -0.492 OA
ATOM     23  C   UNL     1     134.516 104.066  90.849  1.00  0.00     0.278 C 
ENDBRANCH   6  22
BRANCH   8  24
ATOM     24  O   UNL     1     129.507 104.236  92.896  1.00  0.00    -0.493 OA
ATOM     25  C   UNL     1     128.875 104.263  94.172  1.00  0.00     0.278 C 
ENDBRANCH   8  24
BRANCH   7  26
ATOM     26  O   UNL     1     132.099 105.000  92.936  1.00  0.00    -0.490 OA
ATOM     27  C   UNL     1     132.619 105.367  94.210  1.00  0.00     0.278 C 
ENDBRANCH   7  26
TORSDOF 6
ENDMDL
MODEL 9
REMARK VINA RESULT:    -5.031      4.626      5.867
REMARK INTER + INTRA:          -7.484
REMARK INTER:                  -6.915
REMARK INTRA:                  -0.570
REMARK UNBOUND:                -0.688
REMARK SMILES COc1ccc(-c2cc(=O)c3c(OC)c(OC)c(OC)cc3o2)cc1OC
REMARK SMILES IDX 7 1 8 2 9 3 10 4 11 5 12 6 15 7 18 8 21 9 22 10 23 11 6 12
REMARK SMILES IDX 3 13 25 14 4 15 24 16 5 17 2 18 1 19 26 20 27 21 13 22 14 23
REMARK SMILES IDX 19 24 20 25 16 26 17 27
REMARK H PARENT
REMARK Flexibility Score: inf
ROOT
ATOM      1  C   UNL     1     134.472  98.319  91.132  1.00  0.00     0.138 A 
ATOM      2  C   UNL     1     134.857  99.117  90.043  1.00  0.00     0.100 A 
ATOM      3  C   UNL     1     135.996  99.914  90.145  1.00  0.00     0.197 A 
ATOM      4  O   UNL     1     136.352 100.596  89.147  1.00  0.00    -0.289 OA
ATOM      5  C   UNL     1     136.740  99.920  91.346  1.00  0.00     0.111 A 
ATOM      6  C   UNL     1     137.890 100.726  91.546  1.00  0.00     0.179 A 
ATOM      7  C   UNL     1     138.651 100.583  92.734  1.00  0.00     0.204 A 
ATOM      8  C   UNL     1     138.199  99.730  93.754  1.00  0.00     0.168 A 
ATOM      9  C   UNL     1     137.023  98.987  93.575  1.00  0.00     0.098 A 
ATOM     10  C   UNL     1     136.307  99.064  92.382  1.00  0.00     0.146 A 
ATOM     11  O   UNL     1     135.215  98.320  92.235  1.00  0.00    -0.456 OA
ENDROOT
BRANCH   1  12
ATOM     12  C   UNL     1     133.269  97.450  91.082  1.00  0.00     0.021 A 
ATOM     13  C   UNL     1     130.950  95.843  90.961  1.00  0.00     0.160 A 
ATOM     14  C   UNL     1     130.831  97.239  91.037  1.00  0.00     0.161 A 
ATOM     15  C   UNL     1     132.228  95.256  90.935  1.00  0.00     0.051 A 
ATOM     16  C   UNL     1     131.991  98.035  91.094  1.00  0.00     0.062 A 
ATOM     17  C   UNL     1     133.374  96.051  90.991  1.00  0.00     0.016 A 
BRANCH  13  18
ATOM     18  O   UNL     1     129.776  95.075  90.907  1.00  0.00    -0.493 OA
ATOM     19  C   UNL     1     129.646  93.849  90.196  1.00  0.00     0.278 C 
ENDBRANCH  13  18
BRANCH  14  20
ATOM     20  O   UNL     1     129.542  97.796  91.056  1.00  0.00    -0.493 OA
ATOM     21  C   UNL     1     129.071  98.773  90.133  1.00  0.00     0.278 C 
ENDBRANCH  14  20
ENDBRANCH   1  12
BRANCH   6  22
ATOM     22  O   UNL     1     138.250 101.683  90.596  1.00  0.00    -0.492 OA
ATOM     23  C   UNL     1     137.879 103.049  90.749  1.00  0.00     0.278 C 
ENDBRANCH   6  22
BRANCH   8  24
ATOM     24  O   UNL     1     138.959  99.645  94.933  1.00  0.00    -0.493 OA
ATOM     25  C   UNL     1     138.605 100.259  96.168  1.00  0.00     0.278 C 
ENDBRANCH   8  24
BRANCH   7  26
ATOM     26  O   UNL     1     139.865 101.259  92.963  1.00  0.00    -0.490 OA
ATOM     27  C   UNL     1     140.009 102.537  93.575  1.00  0.00     0.278 C 
ENDBRANCH   7  26
TORSDOF 6
ENDMDL
