MODEL 1
REMARK VINA RESULT:    -3.547      0.000      0.000
REMARK INTER + INTRA:          -3.985
REMARK INTER:                  -3.962
REMARK INTRA:                  -0.023
REMARK UNBOUND:                -0.023
REMARK SMILES CCCC(=O)[O-]
REMARK SMILES IDX 3 1 4 2 5 3 6 4 2 5 1 6
REMARK H PARENT
REMARK Flexibility Score: inf
ROOT
ATOM      1  C   UNL     1      13.270  34.375  13.710  1.00  0.00     0.052 C 
ENDROOT
BRANCH   1   2
ATOM      2  C   UNL     1      13.352  32.984  13.160  1.00  0.00     0.041 C 
ATOM      3  O   UNL     1      14.153  32.717  12.226  1.00  0.00    -0.550 OA
ATOM      4  O   UNL     1      12.519  31.990  13.658  1.00  0.00    -0.550 OA
ENDBRANCH   1   2
BRANCH   1   5
ATOM      5  C   UNL     1      14.166  35.346  12.933  1.00  0.00     0.003 C 
ATOM      6  C   UNL     1      13.433  36.630  12.547  1.00  0.00     0.004 C 
ENDBRANCH   1   5
TORSDOF 2
ENDMDL
MODEL 2
REMARK VINA RESULT:    -3.434      2.282      3.331
REMARK INTER + INTRA:          -3.858
REMARK INTER:                  -3.853
REMARK INTRA:                  -0.006
REMARK UNBOUND:                -0.023
REMARK SMILES CCCC(=O)[O-]
REMARK SMILES IDX 3 1 4 2 5 3 6 4 2 5 1 6
REMARK H PARENT
REMARK Flexibility Score: inf
ROOT
ATOM      1  C   UNL     1      13.412  33.823  13.479  1.00  0.00     0.052 C 
ENDROOT
BRANCH   1   2
ATOM      2  C   UNL     1      14.374  34.931  13.177  1.00  0.00     0.041 C 
ATOM      3  O   UNL     1      15.578  34.841  13.536  1.00  0.00    -0.550 OA
ATOM      4  O   UNL     1      13.933  36.077  12.530  1.00  0.00    -0.550 OA
ENDBRANCH   1   2
BRANCH   1   5
ATOM      5  C   UNL     1      13.446  32.732  12.401  1.00  0.00     0.003 C 
ATOM      6  C   UNL     1      14.557  31.711  12.644  1.00  0.00     0.004 C 
ENDBRANCH   1   5
TORSDOF 2
ENDMDL
MODEL 3
REMARK VINA RESULT:    -3.247     15.269     16.205
REMARK INTER + INTRA:          -3.650
REMARK INTER:                  -3.633
REMARK INTRA:                  -0.016
REMARK UNBOUND:                -0.023
REMARK SMILES CCCC(=O)[O-]
REMARK SMILES IDX 3 1 4 2 5 3 6 4 2 5 1 6
REMARK H PARENT
REMARK Flexibility Score: inf
ROOT
ATOM      1  C   UNL     1       5.090  47.492   8.986  1.00  0.00     0.052 C 
ENDROOT
BRANCH   1   2
ATOM      2  C   UNL     1       6.408  48.191   9.130  1.00  0.00     0.041 C 
ATOM      3  O   UNL     1       6.502  49.423   8.888  1.00  0.00    -0.550 OA
ATOM      4  O   UNL     1       7.538  47.472   9.499  1.00  0.00    -0.550 OA
ENDBRANCH   1   2
BRANCH   1   5
ATOM      5  C   UNL     1       4.868  46.463  10.101  1.00  0.00     0.003 C 
ATOM      6  C   UNL     1       4.090  45.241   9.617  1.00  0.00     0.004 C 
ENDBRANCH   1   5
TORSDOF 2
ENDMDL
MODEL 4
REMARK VINA RESULT:    -3.232     13.779     14.500
REMARK INTER + INTRA:          -3.632
REMARK INTER:                  -3.616
REMARK INTRA:                  -0.016
REMARK UNBOUND:                -0.023
REMARK SMILES CCCC(=O)[O-]
REMARK SMILES IDX 3 1 4 2 5 3 6 4 2 5 1 6
REMARK H PARENT
REMARK Flexibility Score: inf
ROOT
ATOM      1  C   UNL     1       4.009  45.721  10.860  1.00  0.00     0.052 C 
ENDROOT
BRANCH   1   2
ATOM      2  C   UNL     1       4.339  44.329  11.306  1.00  0.00     0.041 C 
ATOM      3  O   UNL     1       4.682  44.109  12.497  1.00  0.00    -0.550 OA
ATOM      4  O   UNL     1       4.299  43.281  10.396  1.00  0.00    -0.550 OA
ENDBRANCH   1   2
BRANCH   1   5
ATOM      5  C   UNL     1       4.511  45.995   9.437  1.00  0.00     0.003 C 
ATOM      6  C   UNL     1       5.567  47.098   9.396  1.00  0.00     0.004 C 
ENDBRANCH   1   5
TORSDOF 2
ENDMDL
MODEL 5
REMARK VINA RESULT:    -3.217     10.971     11.712
REMARK INTER + INTRA:          -3.615
REMARK INTER:                  -3.610
REMARK INTRA:                  -0.005
REMARK UNBOUND:                -0.023
REMARK SMILES CCCC(=O)[O-]
REMARK SMILES IDX 3 1 4 2 5 3 6 4 2 5 1 6
REMARK H PARENT
REMARK Flexibility Score: inf
ROOT
ATOM      1  C   UNL     1       2.888  40.270  12.465  1.00  0.00     0.052 C 
ENDROOT
BRANCH   1   2
ATOM      2  C   UNL     1       3.710  39.033  12.663  1.00  0.00     0.041 C 
ATOM      3  O   UNL     1       3.340  37.939  12.162  1.00  0.00    -0.550 OA
ATOM      4  O   UNL     1       4.867  39.084  13.430  1.00  0.00    -0.550 OA
ENDBRANCH   1   2
BRANCH   1   5
ATOM      5  C   UNL     1       3.674  41.363  11.730  1.00  0.00     0.003 C 
ATOM      6  C   UNL     1       2.767  42.281  10.913  1.00  0.00     0.004 C 
ENDBRANCH   1   5
TORSDOF 2
ENDMDL
MODEL 6
REMARK VINA RESULT:    -3.205     15.955     16.671
REMARK INTER + INTRA:          -3.602
REMARK INTER:                  -3.589
REMARK INTRA:                  -0.013
REMARK UNBOUND:                -0.023
REMARK SMILES CCCC(=O)[O-]
REMARK SMILES IDX 3 1 4 2 5 3 6 4 2 5 1 6
REMARK H PARENT
REMARK Flexibility Score: inf
ROOT
ATOM      1  C   UNL     1       4.989  46.873   9.449  1.00  0.00     0.052 C 
ENDROOT
BRANCH   1   2
ATOM      2  C   UNL     1       3.688  47.149   8.759  1.00  0.00     0.041 C 
ATOM      3  O   UNL     1       2.621  46.640   9.192  1.00  0.00    -0.550 OA
ATOM      4  O   UNL     1       3.661  47.941   7.619  1.00  0.00    -0.550 OA
ENDBRANCH   1   2
BRANCH   1   5
ATOM      5  C   UNL     1       5.996  48.011   9.239  1.00  0.00     0.003 C 
ATOM      6  C   UNL     1       7.443  47.535   9.355  1.00  0.00     0.004 C 
ENDBRANCH   1   5
TORSDOF 2
ENDMDL
MODEL 7
REMARK VINA RESULT:    -3.175     15.032     15.562
REMARK INTER + INTRA:          -3.569
REMARK INTER:                  -3.560
REMARK INTRA:                  -0.009
REMARK UNBOUND:                -0.023
REMARK SMILES CCCC(=O)[O-]
REMARK SMILES IDX 3 1 4 2 5 3 6 4 2 5 1 6
REMARK H PARENT
REMARK Flexibility Score: inf
ROOT
ATOM      1  C   UNL     1       4.727  46.923   9.104  1.00  0.00     0.052 C 
ENDROOT
BRANCH   1   2
ATOM      2  C   UNL     1       4.349  45.712   9.901  1.00  0.00     0.041 C 
ATOM      3  O   UNL     1       4.263  45.778  11.155  1.00  0.00    -0.550 OA
ATOM      4  O   UNL     1       4.126  44.500   9.259  1.00  0.00    -0.550 OA
ENDBRANCH   1   2
BRANCH   1   5
ATOM      5  C   UNL     1       6.162  47.373   9.401  1.00  0.00     0.003 C 
ATOM      6  C   UNL     1       6.408  48.829   9.008  1.00  0.00     0.004 C 
ENDBRANCH   1   5
TORSDOF 2
ENDMDL
MODEL 8
REMARK VINA RESULT:    -3.147     13.250     13.718
REMARK INTER + INTRA:          -3.537
REMARK INTER:                  -3.499
REMARK INTRA:                  -0.039
REMARK UNBOUND:                -0.023
REMARK SMILES CCCC(=O)[O-]
REMARK SMILES IDX 3 1 4 2 5 3 6 4 2 5 1 6
REMARK H PARENT
REMARK Flexibility Score: inf
ROOT
ATOM      1  C   UNL     1       2.769  43.427  11.935  1.00  0.00     0.052 C 
ENDROOT
BRANCH   1   2
ATOM      2  C   UNL     1       2.871  42.172  11.123  1.00  0.00     0.041 C 
ATOM      3  O   UNL     1       2.624  42.194   9.889  1.00  0.00    -0.550 OA
ATOM      4  O   UNL     1       3.204  40.973  11.738  1.00  0.00    -0.550 OA
ENDBRANCH   1   2
BRANCH   1   5
ATOM      5  C   UNL     1       4.135  44.103  12.110  1.00  0.00     0.003 C 
ATOM      6  C   UNL     1       4.366  45.218  11.092  1.00  0.00     0.004 C 
ENDBRANCH   1   5
TORSDOF 2
ENDMDL
MODEL 9
REMARK VINA RESULT:    -3.072     13.792     14.545
REMARK INTER + INTRA:          -3.454
REMARK INTER:                  -3.418
REMARK INTRA:                  -0.036
REMARK UNBOUND:                -0.023
REMARK SMILES CCCC(=O)[O-]
REMARK SMILES IDX 3 1 4 2 5 3 6 4 2 5 1 6
REMARK H PARENT
REMARK Flexibility Score: inf
ROOT
ATOM      1  C   UNL     1       3.943  44.068  11.939  1.00  0.00     0.052 C 
ENDROOT
BRANCH   1   2
ATOM      2  C   UNL     1       4.160  44.941  10.740  1.00  0.00     0.041 C 
ATOM      3  O   UNL     1       4.364  46.175  10.883  1.00  0.00    -0.550 OA
ATOM      4  O   UNL     1       4.102  44.395   9.464  1.00  0.00    -0.550 OA
ENDBRANCH   1   2
BRANCH   1   5
ATOM      5  C   UNL     1       2.680  43.210  11.795  1.00  0.00     0.003 C 
ATOM      6  C   UNL     1       3.002  41.738  11.547  1.00  0.00     0.004 C 
ENDBRANCH   1   5
TORSDOF 2
ENDMDL
