MODEL 1
REMARK VINA RESULT:    -6.234      0.000      0.000
REMARK INTER + INTRA:          -7.993
REMARK INTER:                  -7.691
REMARK INTRA:                  -0.301
REMARK UNBOUND:                -0.301
REMARK SMILES CCCCCc1ccccc1
REMARK SMILES IDX 4 1 3 2 2 3 1 4 5 5 6 6 7 7 11 8 8 9 10 10 9 11
REMARK H PARENT
REMARK Flexibility Score: inf
ROOT
ATOM      1  C   UNL     1      18.936 -14.857 -20.355  1.00  0.00     0.005 C 
ENDROOT
BRANCH   1   2
ATOM      2  C   UNL     1      19.341 -16.061 -21.212  1.00  0.00     0.000 C 
BRANCH   2   3
ATOM      3  C   UNL     1      18.825 -17.369 -20.602  1.00  0.00    -0.003 C 
ATOM      4  C   UNL     1      19.177 -18.564 -21.482  1.00  0.00     0.004 C 
ENDBRANCH   2   3
ENDBRANCH   1   2
BRANCH   1   5
ATOM      5  C   UNL     1      17.463 -14.945 -19.940  1.00  0.00     0.035 C 
BRANCH   5   6
ATOM      6  C   UNL     1      16.886 -13.569 -19.742  1.00  0.00    -0.048 A 
ATOM      7  C   UNL     1      17.647 -12.563 -19.124  1.00  0.00     0.004 A 
ATOM      8  C   UNL     1      15.602 -13.263 -20.225  1.00  0.00     0.004 A 
ATOM      9  C   UNL     1      17.121 -11.276 -18.969  1.00  0.00     0.000 A 
ATOM     10  C   UNL     1      15.080 -11.975 -20.069  1.00  0.00     0.000 A 
ATOM     11  C   UNL     1      15.838 -10.983 -19.440  1.00  0.00     0.000 A 
ENDBRANCH   5   6
ENDBRANCH   1   5
TORSDOF 4
ENDMDL
MODEL 2
REMARK VINA RESULT:    -6.207      0.094      1.464
REMARK INTER + INTRA:          -7.960
REMARK INTER:                  -7.661
REMARK INTRA:                  -0.299
REMARK UNBOUND:                -0.301
REMARK SMILES CCCCCc1ccccc1
REMARK SMILES IDX 4 1 3 2 2 3 1 4 5 5 6 6 7 7 11 8 8 9 10 10 9 11
REMARK H PARENT
REMARK Flexibility Score: inf
ROOT
ATOM      1  C   UNL     1      19.016 -14.825 -20.387  1.00  0.00     0.005 C 
ENDROOT
BRANCH   1   2
ATOM      2  C   UNL     1      19.439 -16.025 -21.241  1.00  0.00     0.000 C 
BRANCH   2   3
ATOM      3  C   UNL     1      18.883 -17.333 -20.668  1.00  0.00    -0.003 C 
ATOM      4  C   UNL     1      19.348 -18.534 -21.485  1.00  0.00     0.004 C 
ENDBRANCH   2   3
ENDBRANCH   1   2
BRANCH   1   5
ATOM      5  C   UNL     1      17.544 -14.933 -19.974  1.00  0.00     0.035 C 
BRANCH   5   6
ATOM      6  C   UNL     1      16.945 -13.565 -19.787  1.00  0.00    -0.048 A 
ATOM      7  C   UNL     1      15.628 -13.306 -20.201  1.00  0.00     0.004 A 
ATOM      8  C   UNL     1      17.678 -12.553 -19.144  1.00  0.00     0.004 A 
ATOM      9  C   UNL     1      15.061 -12.043 -19.997  1.00  0.00     0.000 A 
ATOM     10  C   UNL     1      17.107 -11.292 -18.942  1.00  0.00     0.000 A 
ATOM     11  C   UNL     1      15.801 -11.037 -19.370  1.00  0.00     0.000 A 
ENDBRANCH   5   6
ENDBRANCH   1   5
TORSDOF 4
ENDMDL
MODEL 3
REMARK VINA RESULT:    -6.035      1.050      1.705
REMARK INTER + INTRA:          -7.748
REMARK INTER:                  -7.487
REMARK INTRA:                  -0.261
REMARK UNBOUND:                -0.301
REMARK SMILES CCCCCc1ccccc1
REMARK SMILES IDX 4 1 3 2 2 3 1 4 5 5 6 6 7 7 11 8 8 9 10 10 9 11
REMARK H PARENT
REMARK Flexibility Score: inf
ROOT
ATOM      1  C   UNL     1      17.439 -14.516 -19.981  1.00  0.00     0.005 C 
ENDROOT
BRANCH   1   2
ATOM      2  C   UNL     1      18.909 -14.740 -20.348  1.00  0.00     0.000 C 
BRANCH   2   3
ATOM      3  C   UNL     1      19.139 -16.168 -20.856  1.00  0.00    -0.003 C 
ATOM      4  C   UNL     1      20.181 -16.196 -21.970  1.00  0.00     0.004 C 
ENDBRANCH   2   3
ENDBRANCH   1   2
BRANCH   1   5
ATOM      5  C   UNL     1      17.286 -13.345 -19.004  1.00  0.00     0.035 C 
BRANCH   5   6
ATOM      6  C   UNL     1      16.441 -12.257 -19.610  1.00  0.00    -0.048 A 
ATOM      7  C   UNL     1      16.792 -10.907 -19.436  1.00  0.00     0.004 A 
ATOM      8  C   UNL     1      15.327 -12.583 -20.401  1.00  0.00     0.004 A 
ATOM      9  C   UNL     1      16.024  -9.898 -20.026  1.00  0.00     0.000 A 
ATOM     10  C   UNL     1      14.562 -11.570 -20.990  1.00  0.00     0.000 A 
ATOM     11  C   UNL     1      14.909 -10.230 -20.801  1.00  0.00     0.000 A 
ENDBRANCH   5   6
ENDBRANCH   1   5
TORSDOF 4
ENDMDL
MODEL 4
REMARK VINA RESULT:    -5.988      1.488      2.894
REMARK INTER + INTRA:          -7.690
REMARK INTER:                  -7.398
REMARK INTRA:                  -0.292
REMARK UNBOUND:                -0.301
REMARK SMILES CCCCCc1ccccc1
REMARK SMILES IDX 4 1 3 2 2 3 1 4 5 5 6 6 7 7 11 8 8 9 10 10 9 11
REMARK H PARENT
REMARK Flexibility Score: inf
ROOT
ATOM      1  C   UNL     1      17.506 -13.197 -19.245  1.00  0.00     0.005 C 
ENDROOT
BRANCH   1   2
ATOM      2  C   UNL     1      17.385 -14.517 -20.015  1.00  0.00     0.000 C 
BRANCH   2   3
ATOM      3  C   UNL     1      18.762 -15.028 -20.453  1.00  0.00    -0.003 C 
ATOM      4  C   UNL     1      18.773 -16.548 -20.572  1.00  0.00     0.004 C 
ENDBRANCH   2   3
ENDBRANCH   1   2
BRANCH   1   5
ATOM      5  C   UNL     1      16.126 -12.591 -18.969  1.00  0.00     0.035 C 
BRANCH   5   6
ATOM      6  C   UNL     1      15.813 -11.509 -19.967  1.00  0.00    -0.048 A 
ATOM      7  C   UNL     1      14.958 -11.769 -21.051  1.00  0.00     0.004 A 
ATOM      8  C   UNL     1      16.329 -10.213 -19.792  1.00  0.00     0.004 A 
ATOM      9  C   UNL     1      14.643 -10.754 -21.960  1.00  0.00     0.000 A 
ATOM     10  C   UNL     1      16.010  -9.201 -20.703  1.00  0.00     0.000 A 
ATOM     11  C   UNL     1      15.170  -9.471 -21.787  1.00  0.00     0.000 A 
ENDBRANCH   5   6
ENDBRANCH   1   5
TORSDOF 4
ENDMDL
MODEL 5
REMARK VINA RESULT:    -5.969      0.952      5.669
REMARK INTER + INTRA:          -7.666
REMARK INTER:                  -7.370
REMARK INTRA:                  -0.296
REMARK UNBOUND:                -0.301
REMARK SMILES CCCCCc1ccccc1
REMARK SMILES IDX 4 1 3 2 2 3 1 4 5 5 6 6 7 7 11 8 8 9 10 10 9 11
REMARK H PARENT
REMARK Flexibility Score: inf
ROOT
ATOM      1  C   UNL     1      17.406 -14.372 -19.868  1.00  0.00     0.005 C 
ENDROOT
BRANCH   1   2
ATOM      2  C   UNL     1      17.172 -13.042 -19.144  1.00  0.00     0.000 C 
BRANCH   2   3
ATOM      3  C   UNL     1      15.736 -12.547 -19.352  1.00  0.00    -0.003 C 
ATOM      4  C   UNL     1      15.213 -12.936 -20.731  1.00  0.00     0.004 C 
ENDBRANCH   2   3
ENDBRANCH   1   2
BRANCH   1   5
ATOM      5  C   UNL     1      18.875 -14.527 -20.275  1.00  0.00     0.035 C 
BRANCH   5   6
ATOM      6  C   UNL     1      19.124 -15.896 -20.849  1.00  0.00    -0.048 A 
ATOM      7  C   UNL     1      20.106 -16.083 -21.836  1.00  0.00     0.004 A 
ATOM      8  C   UNL     1      18.417 -17.008 -20.361  1.00  0.00     0.004 A 
ATOM      9  C   UNL     1      20.358 -17.362 -22.345  1.00  0.00     0.000 A 
ATOM     10  C   UNL     1      18.673 -18.284 -20.872  1.00  0.00     0.000 A 
ATOM     11  C   UNL     1      19.641 -18.461 -21.864  1.00  0.00     0.000 A 
ENDBRANCH   5   6
ENDBRANCH   1   5
TORSDOF 4
ENDMDL
MODEL 6
REMARK VINA RESULT:    -5.901      3.025      6.605
REMARK INTER + INTRA:          -7.582
REMARK INTER:                  -7.184
REMARK INTRA:                  -0.398
REMARK UNBOUND:                -0.301
REMARK SMILES CCCCCc1ccccc1
REMARK SMILES IDX 4 1 3 2 2 3 1 4 5 5 6 6 7 7 11 8 8 9 10 10 9 11
REMARK H PARENT
REMARK Flexibility Score: inf
ROOT
ATOM      1  C   UNL     1      14.584 -10.056 -22.609  1.00  0.00     0.005 C 
ENDROOT
BRANCH   1   2
ATOM      2  C   UNL     1      13.249  -9.436 -23.035  1.00  0.00     0.000 C 
BRANCH   2   3
ATOM      3  C   UNL     1      12.179  -9.637 -21.957  1.00  0.00    -0.003 C 
ATOM      4  C   UNL     1      10.865  -8.970 -22.352  1.00  0.00     0.004 C 
ENDBRANCH   2   3
ENDBRANCH   1   2
BRANCH   1   5
ATOM      5  C   UNL     1      14.916  -9.705 -21.154  1.00  0.00     0.035 C 
BRANCH   5   6
ATOM      6  C   UNL     1      15.575 -10.869 -20.465  1.00  0.00    -0.048 A 
ATOM      7  C   UNL     1      15.101 -12.176 -20.671  1.00  0.00     0.004 A 
ATOM      8  C   UNL     1      16.706 -10.666 -19.656  1.00  0.00     0.004 A 
ATOM      9  C   UNL     1      15.735 -13.260 -20.055  1.00  0.00     0.000 A 
ATOM     10  C   UNL     1      17.337 -11.754 -19.044  1.00  0.00     0.000 A 
ATOM     11  C   UNL     1      16.851 -13.049 -19.241  1.00  0.00     0.000 A 
ENDBRANCH   5   6
ENDBRANCH   1   5
TORSDOF 4
ENDMDL
MODEL 7
REMARK VINA RESULT:    -5.893      0.943      5.944
REMARK INTER + INTRA:          -7.572
REMARK INTER:                  -7.349
REMARK INTRA:                  -0.222
REMARK UNBOUND:                -0.301
REMARK SMILES CCCCCc1ccccc1
REMARK SMILES IDX 4 1 3 2 2 3 1 4 5 5 6 6 7 7 11 8 8 9 10 10 9 11
REMARK H PARENT
REMARK Flexibility Score: inf
ROOT
ATOM      1  C   UNL     1      17.314 -14.539 -19.953  1.00  0.00     0.005 C 
ENDROOT
BRANCH   1   2
ATOM      2  C   UNL     1      16.909 -13.166 -19.407  1.00  0.00     0.000 C 
BRANCH   2   3
ATOM      3  C   UNL     1      15.510 -12.770 -19.894  1.00  0.00    -0.003 C 
ATOM      4  C   UNL     1      14.770 -11.953 -18.840  1.00  0.00     0.004 C 
ENDBRANCH   2   3
ENDBRANCH   1   2
BRANCH   1   5
ATOM      5  C   UNL     1      18.817 -14.594 -20.247  1.00  0.00     0.035 C 
BRANCH   5   6
ATOM      6  C   UNL     1      19.192 -15.928 -20.836  1.00  0.00    -0.048 A 
ATOM      7  C   UNL     1      18.513 -17.093 -20.442  1.00  0.00     0.004 A 
ATOM      8  C   UNL     1      20.186 -16.010 -21.825  1.00  0.00     0.004 A 
ATOM      9  C   UNL     1      18.841 -18.327 -21.014  1.00  0.00     0.000 A 
ATOM     10  C   UNL     1      20.511 -17.246 -22.395  1.00  0.00     0.000 A 
ATOM     11  C   UNL     1      19.841 -18.403 -21.988  1.00  0.00     0.000 A 
ENDBRANCH   5   6
ENDBRANCH   1   5
TORSDOF 4
ENDMDL
MODEL 8
REMARK VINA RESULT:    -5.178      3.724      5.606
REMARK INTER + INTRA:          -6.691
REMARK INTER:                  -6.050
REMARK INTRA:                  -0.641
REMARK UNBOUND:                -0.301
REMARK SMILES CCCCCc1ccccc1
REMARK SMILES IDX 4 1 3 2 2 3 1 4 5 5 6 6 7 7 11 8 8 9 10 10 9 11
REMARK H PARENT
REMARK Flexibility Score: inf
ROOT
ATOM      1  C   UNL     1      21.065 -20.266 -22.186  1.00  0.00     0.005 C 
ENDROOT
BRANCH   1   2
ATOM      2  C   UNL     1      21.346 -20.512 -20.700  1.00  0.00     0.000 C 
BRANCH   2   3
ATOM      3  C   UNL     1      20.446 -21.621 -20.146  1.00  0.00    -0.003 C 
ATOM      4  C   UNL     1      19.568 -21.103 -19.011  1.00  0.00     0.004 C 
ENDBRANCH   2   3
ENDBRANCH   1   2
BRANCH   1   5
ATOM      5  C   UNL     1      19.669 -19.668 -22.393  1.00  0.00     0.035 C 
BRANCH   5   6
ATOM      6  C   UNL     1      19.608 -18.266 -21.848  1.00  0.00    -0.048 A 
ATOM      7  C   UNL     1      20.450 -17.267 -22.367  1.00  0.00     0.004 A 
ATOM      8  C   UNL     1      18.670 -17.931 -20.857  1.00  0.00     0.004 A 
ATOM      9  C   UNL     1      20.369 -15.957 -21.882  1.00  0.00     0.000 A 
ATOM     10  C   UNL     1      18.593 -16.620 -20.376  1.00  0.00     0.000 A 
ATOM     11  C   UNL     1      19.443 -15.635 -20.886  1.00  0.00     0.000 A 
ENDBRANCH   5   6
ENDBRANCH   1   5
TORSDOF 4
ENDMDL
MODEL 9
REMARK VINA RESULT:    -4.999      1.517      6.976
REMARK INTER + INTRA:          -6.469
REMARK INTER:                  -6.239
REMARK INTRA:                  -0.230
REMARK UNBOUND:                -0.301
REMARK SMILES CCCCCc1ccccc1
REMARK SMILES IDX 4 1 3 2 2 3 1 4 5 5 6 6 7 7 11 8 8 9 10 10 9 11
REMARK H PARENT
REMARK Flexibility Score: inf
ROOT
ATOM      1  C   UNL     1      18.656 -16.421 -20.363  1.00  0.00     0.005 C 
ENDROOT
BRANCH   1   2
ATOM      2  C   UNL     1      18.671 -14.889 -20.354  1.00  0.00     0.000 C 
BRANCH   2   3
ATOM      3  C   UNL     1      17.313 -14.328 -19.918  1.00  0.00    -0.003 C 
ATOM      4  C   UNL     1      17.474 -12.997 -19.191  1.00  0.00     0.004 C 
ENDBRANCH   2   3
ENDBRANCH   1   2
BRANCH   1   5
ATOM      5  C   UNL     1      19.607 -16.976 -21.430  1.00  0.00     0.035 C 
BRANCH   5   6
ATOM      6  C   UNL     1      19.541 -18.479 -21.467  1.00  0.00    -0.048 A 
ATOM      7  C   UNL     1      18.424 -19.153 -20.946  1.00  0.00     0.004 A 
ATOM      8  C   UNL     1      20.571 -19.218 -22.075  1.00  0.00     0.004 A 
ATOM      9  C   UNL     1      18.350 -20.548 -21.011  1.00  0.00     0.000 A 
ATOM     10  C   UNL     1      20.492 -20.613 -22.138  1.00  0.00     0.000 A 
ATOM     11  C   UNL     1      19.384 -21.277 -21.605  1.00  0.00     0.000 A 
ENDBRANCH   5   6
ENDBRANCH   1   5
TORSDOF 4
ENDMDL
