MODEL 1
REMARK VINA RESULT:    -4.834      0.000      0.000
REMARK INTER + INTRA:          -4.975
REMARK INTER:                  -4.975
REMARK INTRA:                   0.000
REMARK UNBOUND:                 0.000
REMARK SMILES Cc1cccc(O)c1C
REMARK SMILES IDX 1 1 2 2 8 3 6 4 5 5 4 6 3 7 9 8 7 9
REMARK H PARENT 7 10
REMARK Flexibility Score: inf
ROOT
ATOM      1  C   UNL     1     -10.395   7.092  35.559  1.00  0.00     0.045 C 
ATOM      2  C   UNL     1      -8.985   7.625  35.525  1.00  0.00    -0.045 A 
ATOM      3  C   UNL     1      -8.000   7.098  34.643  1.00  0.00    -0.006 A 
ATOM      4  C   UNL     1      -6.693   7.649  34.666  1.00  0.00     0.118 A 
ATOM      5  C   UNL     1      -6.387   8.692  35.543  1.00  0.00     0.046 A 
ATOM      6  C   UNL     1      -7.356   9.201  36.403  1.00  0.00     0.004 A 
ATOM      7  C   UNL     1      -8.645   8.674  36.396  1.00  0.00     0.004 A 
ATOM      8  C   UNL     1      -8.310   5.971  33.685  1.00  0.00     0.048 C 
ENDROOT
BRANCH   4   9
ATOM      9  O   UNL     1      -5.675   7.183  33.829  1.00  0.00    -0.508 OA
ATOM     10  H   UNL     1      -5.847   6.717  32.947  1.00  0.00     0.293 HD
ENDBRANCH   4   9
TORSDOF 1
ENDMDL
MODEL 2
REMARK VINA RESULT:    -4.814      5.846      7.114
REMARK INTER + INTRA:          -4.955
REMARK INTER:                  -4.955
REMARK INTRA:                   0.000
REMARK UNBOUND:                 0.000
REMARK SMILES Cc1cccc(O)c1C
REMARK SMILES IDX 1 1 2 2 8 3 6 4 5 5 4 6 3 7 9 8 7 9
REMARK H PARENT 7 10
REMARK Flexibility Score: inf
ROOT
ATOM      1  C   UNL     1     -15.622   3.311  33.831  1.00  0.00     0.045 C 
ATOM      2  C   UNL     1     -15.029   4.695  33.911  1.00  0.00    -0.045 A 
ATOM      3  C   UNL     1     -13.803   4.953  34.585  1.00  0.00    -0.006 A 
ATOM      4  C   UNL     1     -13.305   6.280  34.620  1.00  0.00     0.118 A 
ATOM      5  C   UNL     1     -14.014   7.313  34.000  1.00  0.00     0.046 A 
ATOM      6  C   UNL     1     -15.213   7.052  33.344  1.00  0.00     0.004 A 
ATOM      7  C   UNL     1     -15.718   5.755  33.297  1.00  0.00     0.004 A 
ATOM      8  C   UNL     1     -13.018   3.852  35.261  1.00  0.00     0.048 C 
ENDROOT
BRANCH   4   9
ATOM      9  O   UNL     1     -12.108   6.609  35.263  1.00  0.00    -0.508 OA
ATOM     10  H   UNL     1     -11.254   6.076  35.158  1.00  0.00     0.293 HD
ENDBRANCH   4   9
TORSDOF 1
ENDMDL
MODEL 3
REMARK VINA RESULT:    -4.802      2.175      3.336
REMARK INTER + INTRA:          -4.943
REMARK INTER:                  -4.943
REMARK INTRA:                   0.000
REMARK UNBOUND:                 0.000
REMARK SMILES Cc1cccc(O)c1C
REMARK SMILES IDX 1 1 2 2 8 3 6 4 5 5 4 6 3 7 9 8 7 9
REMARK H PARENT 7 10
REMARK Flexibility Score: inf
ROOT
ATOM      1  C   UNL     1      -6.494   9.125  36.175  1.00  0.00     0.045 C 
ATOM      2  C   UNL     1      -8.001   9.095  36.174  1.00  0.00    -0.045 A 
ATOM      3  C   UNL     1      -8.737   8.124  35.438  1.00  0.00    -0.006 A 
ATOM      4  C   UNL     1     -10.154   8.156  35.484  1.00  0.00     0.118 A 
ATOM      5  C   UNL     1     -10.810   9.129  36.243  1.00  0.00     0.046 A 
ATOM      6  C   UNL     1     -10.083  10.075  36.959  1.00  0.00     0.004 A 
ATOM      7  C   UNL     1      -8.691  10.060  36.928  1.00  0.00     0.004 A 
ATOM      8  C   UNL     1      -8.048   7.062  34.612  1.00  0.00     0.048 C 
ENDROOT
BRANCH   4   9
ATOM      9  O   UNL     1     -10.941   7.235  34.787  1.00  0.00    -0.508 OA
ATOM     10  H   UNL     1     -11.858   6.938  35.096  1.00  0.00     0.293 HD
ENDBRANCH   4   9
TORSDOF 1
ENDMDL
MODEL 4
REMARK VINA RESULT:    -4.802      6.288      8.097
REMARK INTER + INTRA:          -4.943
REMARK INTER:                  -4.943
REMARK INTRA:                   0.000
REMARK UNBOUND:                 0.000
REMARK SMILES Cc1cccc(O)c1C
REMARK SMILES IDX 1 1 2 2 8 3 6 4 5 5 4 6 3 7 9 8 7 9
REMARK H PARENT 7 10
REMARK Flexibility Score: inf
ROOT
ATOM      1  C   UNL     1     -11.977   3.807  35.979  1.00  0.00     0.045 C 
ATOM      2  C   UNL     1     -13.289   3.680  35.246  1.00  0.00    -0.045 A 
ATOM      3  C   UNL     1     -13.779   4.707  34.391  1.00  0.00    -0.006 A 
ATOM      4  C   UNL     1     -15.022   4.518  33.734  1.00  0.00     0.118 A 
ATOM      5  C   UNL     1     -15.747   3.341  33.929  1.00  0.00     0.046 A 
ATOM      6  C   UNL     1     -15.262   2.342  34.768  1.00  0.00     0.004 A 
ATOM      7  C   UNL     1     -14.043   2.507  35.421  1.00  0.00     0.004 A 
ATOM      8  C   UNL     1     -13.011   5.989  34.164  1.00  0.00     0.048 C 
ENDROOT
BRANCH   4   9
ATOM      9  O   UNL     1     -15.565   5.483  32.880  1.00  0.00    -0.508 OA
ATOM     10  H   UNL     1     -15.402   6.476  32.984  1.00  0.00     0.293 HD
ENDBRANCH   4   9
TORSDOF 1
ENDMDL
MODEL 5
REMARK VINA RESULT:    -4.749      1.807      2.790
REMARK INTER + INTRA:          -4.888
REMARK INTER:                  -4.888
REMARK INTRA:                   0.000
REMARK UNBOUND:                 0.000
REMARK SMILES Cc1cccc(O)c1C
REMARK SMILES IDX 1 1 2 2 8 3 6 4 5 5 4 6 3 7 9 8 7 9
REMARK H PARENT 7 10
REMARK Flexibility Score: inf
ROOT
ATOM      1  C   UNL     1      -8.622   6.029  33.794  1.00  0.00     0.045 C 
ATOM      2  C   UNL     1      -7.995   7.123  34.620  1.00  0.00    -0.045 A 
ATOM      3  C   UNL     1      -8.744   7.880  35.565  1.00  0.00    -0.006 A 
ATOM      4  C   UNL     1      -8.087   8.895  36.307  1.00  0.00     0.118 A 
ATOM      5  C   UNL     1      -6.727   9.141  36.108  1.00  0.00     0.046 A 
ATOM      6  C   UNL     1      -6.001   8.396  35.183  1.00  0.00     0.004 A 
ATOM      7  C   UNL     1      -6.627   7.395  34.444  1.00  0.00     0.004 A 
ATOM      8  C   UNL     1     -10.217   7.631  35.797  1.00  0.00     0.048 C 
ENDROOT
BRANCH   4   9
ATOM      9  O   UNL     1      -8.759   9.678  37.251  1.00  0.00    -0.508 OA
ATOM     10  H   UNL     1      -9.616   9.391  37.705  1.00  0.00     0.293 HD
ENDBRANCH   4   9
TORSDOF 1
ENDMDL
MODEL 6
REMARK VINA RESULT:    -4.729      2.705      4.409
REMARK INTER + INTRA:          -4.868
REMARK INTER:                  -4.868
REMARK INTRA:                   0.000
REMARK UNBOUND:                 0.000
REMARK SMILES Cc1cccc(O)c1C
REMARK SMILES IDX 1 1 2 2 8 3 6 4 5 5 4 6 3 7 9 8 7 9
REMARK H PARENT 7 10
REMARK Flexibility Score: inf
ROOT
ATOM      1  C   UNL     1      -7.509   9.123  36.458  1.00  0.00     0.045 C 
ATOM      2  C   UNL     1      -8.753   8.395  36.019  1.00  0.00    -0.045 A 
ATOM      3  C   UNL     1     -10.055   8.928  36.231  1.00  0.00    -0.006 A 
ATOM      4  C   UNL     1     -11.181   8.187  35.790  1.00  0.00     0.118 A 
ATOM      5  C   UNL     1     -11.006   6.953  35.159  1.00  0.00     0.046 A 
ATOM      6  C   UNL     1      -9.730   6.438  34.957  1.00  0.00     0.004 A 
ATOM      7  C   UNL     1      -8.611   7.150  35.381  1.00  0.00     0.004 A 
ATOM      8  C   UNL     1     -10.269  10.262  36.910  1.00  0.00     0.048 C 
ENDROOT
BRANCH   4   9
ATOM      9  O   UNL     1     -12.490   8.649  35.964  1.00  0.00    -0.508 OA
ATOM     10  H   UNL     1     -12.743   9.374  36.623  1.00  0.00     0.293 HD
ENDBRANCH   4   9
TORSDOF 1
ENDMDL
MODEL 7
REMARK VINA RESULT:    -4.720      2.844      3.717
REMARK INTER + INTRA:          -4.858
REMARK INTER:                  -4.858
REMARK INTRA:                   0.000
REMARK UNBOUND:                 0.000
REMARK SMILES Cc1cccc(O)c1C
REMARK SMILES IDX 1 1 2 2 8 3 6 4 5 5 4 6 3 7 9 8 7 9
REMARK H PARENT 7 10
REMARK Flexibility Score: inf
ROOT
ATOM      1  C   UNL     1     -10.432   6.446  34.952  1.00  0.00     0.045 C 
ATOM      2  C   UNL     1      -9.917   7.683  35.643  1.00  0.00    -0.045 A 
ATOM      3  C   UNL     1     -10.743   8.817  35.878  1.00  0.00    -0.006 A 
ATOM      4  C   UNL     1     -10.190   9.946  36.534  1.00  0.00     0.118 A 
ATOM      5  C   UNL     1      -8.854   9.936  36.941  1.00  0.00     0.046 A 
ATOM      6  C   UNL     1      -8.052   8.823  36.708  1.00  0.00     0.004 A 
ATOM      7  C   UNL     1      -8.576   7.704  36.065  1.00  0.00     0.004 A 
ATOM      8  C   UNL     1     -12.192   8.850  35.447  1.00  0.00     0.048 C 
ENDROOT
BRANCH   4   9
ATOM      9  O   UNL     1     -10.942  11.095  36.798  1.00  0.00    -0.508 OA
ATOM     10  H   UNL     1     -11.922  11.076  37.047  1.00  0.00     0.293 HD
ENDBRANCH   4   9
TORSDOF 1
ENDMDL
MODEL 8
REMARK VINA RESULT:    -4.709      4.897      6.467
REMARK INTER + INTRA:          -4.846
REMARK INTER:                  -4.846
REMARK INTRA:                   0.000
REMARK UNBOUND:                 0.000
REMARK SMILES Cc1cccc(O)c1C
REMARK SMILES IDX 1 1 2 2 8 3 6 4 5 5 4 6 3 7 9 8 7 9
REMARK H PARENT 7 10
REMARK Flexibility Score: inf
ROOT
ATOM      1  C   UNL     1     -15.176   4.283  33.356  1.00  0.00     0.045 C 
ATOM      2  C   UNL     1     -14.088   5.158  33.926  1.00  0.00    -0.045 A 
ATOM      3  C   UNL     1     -14.211   6.574  33.985  1.00  0.00    -0.006 A 
ATOM      4  C   UNL     1     -13.147   7.334  34.535  1.00  0.00     0.118 A 
ATOM      5  C   UNL     1     -11.999   6.693  35.009  1.00  0.00     0.046 A 
ATOM      6  C   UNL     1     -11.886   5.308  34.947  1.00  0.00     0.004 A 
ATOM      7  C   UNL     1     -12.920   4.544  34.411  1.00  0.00     0.004 A 
ATOM      8  C   UNL     1     -15.443   7.289  33.479  1.00  0.00     0.048 C 
ENDROOT
BRANCH   4   9
ATOM      9  O   UNL     1     -13.198   8.728  34.626  1.00  0.00    -0.508 OA
ATOM     10  H   UNL     1     -13.531   9.324  33.880  1.00  0.00     0.293 HD
ENDBRANCH   4   9
TORSDOF 1
ENDMDL
MODEL 9
REMARK VINA RESULT:    -4.697      5.704      7.751
REMARK INTER + INTRA:          -4.835
REMARK INTER:                  -4.835
REMARK INTRA:                   0.000
REMARK UNBOUND:                 0.000
REMARK SMILES Cc1cccc(O)c1C
REMARK SMILES IDX 1 1 2 2 8 3 6 4 5 5 4 6 3 7 9 8 7 9
REMARK H PARENT 7 10
REMARK Flexibility Score: inf
ROOT
ATOM      1  C   UNL     1     -12.156   6.095  34.586  1.00  0.00     0.045 C 
ATOM      2  C   UNL     1     -13.252   5.063  34.508  1.00  0.00    -0.045 A 
ATOM      3  C   UNL     1     -13.184   3.833  35.221  1.00  0.00    -0.006 A 
ATOM      4  C   UNL     1     -14.253   2.909  35.101  1.00  0.00     0.118 A 
ATOM      5  C   UNL     1     -15.353   3.210  34.294  1.00  0.00     0.046 A 
ATOM      6  C   UNL     1     -15.412   4.415  33.600  1.00  0.00     0.004 A 
ATOM      7  C   UNL     1     -14.373   5.336  33.705  1.00  0.00     0.004 A 
ATOM      8  C   UNL     1     -12.004   3.487  36.101  1.00  0.00     0.048 C 
ENDROOT
BRANCH   4   9
ATOM      9  O   UNL     1     -14.254   1.682  35.771  1.00  0.00    -0.508 OA
ATOM     10  H   UNL     1     -15.094   1.235  36.115  1.00  0.00     0.293 HD
ENDBRANCH   4   9
TORSDOF 1
ENDMDL
