MODEL 1
REMARK VINA RESULT:    -4.376      0.000      0.000
REMARK INTER + INTRA:          -4.376
REMARK INTER:                  -4.376
REMARK INTRA:                   0.000
REMARK UNBOUND:                 0.000
REMARK SMILES CC1=CC(=O)[C@@H]2C[C@H]1C2(C)C
REMARK SMILES IDX 1 1 2 2 3 3 4 4 5 5 6 6 7 7 8 8 9 9 10 10 11 11
REMARK H PARENT
REMARK Flexibility Score: inf
ROOT
ATOM      1  C   UNL     1     -17.180  -4.171   4.710  1.00  0.00     0.040 C 
ATOM      2  C   UNL     1     -16.281  -4.434   5.875  1.00  0.00    -0.066 C 
ATOM      3  C   UNL     1     -15.566  -3.432   6.460  1.00  0.00     0.047 C 
ATOM      4  C   UNL     1     -14.727  -3.817   7.640  1.00  0.00     0.159 C 
ATOM      5  O   UNL     1     -14.051  -2.975   8.288  1.00  0.00    -0.295 OA
ATOM      6  C   UNL     1     -14.750  -5.302   8.002  1.00  0.00     0.067 C 
ATOM      7  C   UNL     1     -14.582  -6.024   6.649  1.00  0.00     0.021 C 
ATOM      8  C   UNL     1     -16.106  -5.849   6.464  1.00  0.00     0.022 C 
ATOM      9  C   UNL     1     -16.228  -5.786   8.015  1.00  0.00    -0.019 C 
ATOM     10  C   UNL     1     -17.307  -4.849   8.629  1.00  0.00     0.012 C 
ATOM     11  C   UNL     1     -16.384  -7.189   8.653  1.00  0.00     0.012 C 
ENDROOT
TORSDOF 0
ENDMDL
MODEL 2
REMARK VINA RESULT:    -4.349      1.246      2.447
REMARK INTER + INTRA:          -4.349
REMARK INTER:                  -4.349
REMARK INTRA:                   0.000
REMARK UNBOUND:                 0.000
REMARK SMILES CC1=CC(=O)[C@@H]2C[C@H]1C2(C)C
REMARK SMILES IDX 1 1 2 2 3 3 4 4 5 5 6 6 7 7 8 8 9 9 10 10 11 11
REMARK H PARENT
REMARK Flexibility Score: inf
ROOT
ATOM      1  C   UNL     1     -18.866  -5.808   8.446  1.00  0.00     0.040 C 
ATOM      2  C   UNL     1     -17.446  -5.660   8.001  1.00  0.00    -0.066 C 
ATOM      3  C   UNL     1     -16.597  -4.790   8.617  1.00  0.00     0.047 C 
ATOM      4  C   UNL     1     -15.192  -4.758   8.099  1.00  0.00     0.159 C 
ATOM      5  O   UNL     1     -14.304  -4.025   8.608  1.00  0.00    -0.295 OA
ATOM      6  C   UNL     1     -14.910  -5.678   6.911  1.00  0.00     0.067 C 
ATOM      7  C   UNL     1     -16.104  -5.444   5.960  1.00  0.00     0.021 C 
ATOM      8  C   UNL     1     -16.877  -6.470   6.818  1.00  0.00     0.022 C 
ATOM      9  C   UNL     1     -15.503  -7.082   7.220  1.00  0.00    -0.019 C 
ATOM     10  C   UNL     1     -15.345  -7.650   8.659  1.00  0.00     0.012 C 
ATOM     11  C   UNL     1     -15.021  -8.160   6.218  1.00  0.00     0.012 C 
ENDROOT
TORSDOF 0
ENDMDL
MODEL 3
REMARK VINA RESULT:    -4.284     17.304     18.996
REMARK INTER + INTRA:          -4.284
REMARK INTER:                  -4.284
REMARK INTRA:                   0.000
REMARK UNBOUND:                 0.000
REMARK SMILES CC1=CC(=O)[C@@H]2C[C@H]1C2(C)C
REMARK SMILES IDX 1 1 2 2 3 3 4 4 5 5 6 6 7 7 8 8 9 9 10 10 11 11
REMARK H PARENT
REMARK Flexibility Score: inf
ROOT
ATOM      1  C   UNL     1      -0.384   8.258  14.297  1.00  0.00     0.040 C 
ATOM      2  C   UNL     1      -0.744   6.931  13.709  1.00  0.00    -0.066 C 
ATOM      3  C   UNL     1      -0.753   5.799  14.467  1.00  0.00     0.047 C 
ATOM      4  C   UNL     1      -1.161   4.538  13.769  1.00  0.00     0.159 C 
ATOM      5  O   UNL     1      -1.245   3.434  14.369  1.00  0.00    -0.295 OA
ATOM      6  C   UNL     1      -1.470   4.684  12.279  1.00  0.00     0.067 C 
ATOM      7  C   UNL     1      -0.308   5.543  11.735  1.00  0.00     0.021 C 
ATOM      8  C   UNL     1      -1.107   6.774  12.217  1.00  0.00     0.022 C 
ATOM      9  C   UNL     1      -2.399   5.916  12.085  1.00  0.00    -0.019 C 
ATOM     10  C   UNL     1      -3.543   6.148  13.112  1.00  0.00     0.012 C 
ATOM     11  C   UNL     1      -3.005   5.979  10.660  1.00  0.00     0.012 C 
ENDROOT
TORSDOF 0
ENDMDL
MODEL 4
REMARK VINA RESULT:    -4.274      1.370      3.034
REMARK INTER + INTRA:          -4.274
REMARK INTER:                  -4.274
REMARK INTRA:                   0.000
REMARK UNBOUND:                 0.000
REMARK SMILES CC1=CC(=O)[C@@H]2C[C@H]1C2(C)C
REMARK SMILES IDX 1 1 2 2 3 3 4 4 5 5 6 6 7 7 8 8 9 9 10 10 11 11
REMARK H PARENT
REMARK Flexibility Score: inf
ROOT
ATOM      1  C   UNL     1     -15.789  -8.507   7.132  1.00  0.00     0.040 C 
ATOM      2  C   UNL     1     -15.969  -7.084   7.553  1.00  0.00    -0.066 C 
ATOM      3  C   UNL     1     -14.906  -6.310   7.909  1.00  0.00     0.047 C 
ATOM      4  C   UNL     1     -15.213  -4.891   8.280  1.00  0.00     0.159 C 
ATOM      5  O   UNL     1     -14.313  -4.067   8.590  1.00  0.00    -0.295 OA
ATOM      6  C   UNL     1     -16.695  -4.515   8.254  1.00  0.00     0.067 C 
ATOM      7  C   UNL     1     -17.395  -5.686   8.976  1.00  0.00     0.021 C 
ATOM      8  C   UNL     1     -17.363  -6.426   7.620  1.00  0.00     0.022 C 
ATOM      9  C   UNL     1     -17.315  -5.034   6.926  1.00  0.00    -0.019 C 
ATOM     10  C   UNL     1     -16.485  -4.893   5.619  1.00  0.00     0.012 C 
ATOM     11  C   UNL     1     -18.728  -4.454   6.669  1.00  0.00     0.012 C 
ENDROOT
TORSDOF 0
ENDMDL
MODEL 5
REMARK VINA RESULT:    -4.125      4.725      6.269
REMARK INTER + INTRA:          -4.125
REMARK INTER:                  -4.125
REMARK INTRA:                   0.000
REMARK UNBOUND:                 0.000
REMARK SMILES CC1=CC(=O)[C@@H]2C[C@H]1C2(C)C
REMARK SMILES IDX 1 1 2 2 3 3 4 4 5 5 6 6 7 7 8 8 9 9 10 10 11 11
REMARK H PARENT
REMARK Flexibility Score: inf
ROOT
ATOM      1  C   UNL     1     -10.566  -1.393   2.615  1.00  0.00     0.040 C 
ATOM      2  C   UNL     1     -11.523  -1.098   3.725  1.00  0.00    -0.066 C 
ATOM      3  C   UNL     1     -11.174  -0.290   4.766  1.00  0.00     0.047 C 
ATOM      4  C   UNL     1     -12.232  -0.046   5.798  1.00  0.00     0.159 C 
ATOM      5  O   UNL     1     -12.045   0.712   6.787  1.00  0.00    -0.295 OA
ATOM      6  C   UNL     1     -13.554  -0.779   5.568  1.00  0.00     0.067 C 
ATOM      7  C   UNL     1     -13.130  -2.217   5.202  1.00  0.00     0.021 C 
ATOM      8  C   UNL     1     -12.943  -1.702   3.757  1.00  0.00     0.022 C 
ATOM      9  C   UNL     1     -13.976  -0.584   4.083  1.00  0.00    -0.019 C 
ATOM     10  C   UNL     1     -13.773   0.815   3.436  1.00  0.00     0.012 C 
ATOM     11  C   UNL     1     -15.435  -1.033   3.821  1.00  0.00     0.012 C 
ENDROOT
TORSDOF 0
ENDMDL
MODEL 6
REMARK VINA RESULT:    -4.113     19.075     20.736
REMARK INTER + INTRA:          -4.113
REMARK INTER:                  -4.113
REMARK INTRA:                   0.000
REMARK UNBOUND:                 0.000
REMARK SMILES CC1=CC(=O)[C@@H]2C[C@H]1C2(C)C
REMARK SMILES IDX 1 1 2 2 3 3 4 4 5 5 6 6 7 7 8 8 9 9 10 10 11 11
REMARK H PARENT
REMARK Flexibility Score: inf
ROOT
ATOM      1  C   UNL     1      -0.773   4.305  14.837  1.00  0.00     0.040 C 
ATOM      2  C   UNL     1      -0.981   5.780  14.703  1.00  0.00    -0.066 C 
ATOM      3  C   UNL     1      -2.033   6.287  14.000  1.00  0.00     0.047 C 
ATOM      4  C   UNL     1      -2.150   7.780  13.967  1.00  0.00     0.159 C 
ATOM      5  O   UNL     1      -3.098   8.367  13.383  1.00  0.00    -0.295 OA
ATOM      6  C   UNL     1      -1.039   8.540  14.692  1.00  0.00     0.067 C 
ATOM      7  C   UNL     1       0.259   7.843  14.231  1.00  0.00     0.021 C 
ATOM      8  C   UNL     1      -0.012   6.799  15.338  1.00  0.00     0.022 C 
ATOM      9  C   UNL     1      -0.826   7.892  16.090  1.00  0.00    -0.019 C 
ATOM     10  C   UNL     1      -2.079   7.450  16.897  1.00  0.00     0.012 C 
ATOM     11  C   UNL     1       0.064   8.761  17.013  1.00  0.00     0.012 C 
ENDROOT
TORSDOF 0
ENDMDL
MODEL 7
REMARK VINA RESULT:    -4.052      4.539      6.127
REMARK INTER + INTRA:          -4.052
REMARK INTER:                  -4.052
REMARK INTRA:                   0.000
REMARK UNBOUND:                 0.000
REMARK SMILES CC1=CC(=O)[C@@H]2C[C@H]1C2(C)C
REMARK SMILES IDX 1 1 2 2 3 3 4 4 5 5 6 6 7 7 8 8 9 9 10 10 11 11
REMARK H PARENT
REMARK Flexibility Score: inf
ROOT
ATOM      1  C   UNL     1     -14.244   0.329   3.294  1.00  0.00     0.040 C 
ATOM      2  C   UNL     1     -13.420  -0.377   4.322  1.00  0.00    -0.066 C 
ATOM      3  C   UNL     1     -13.995  -1.168   5.271  1.00  0.00     0.047 C 
ATOM      4  C   UNL     1     -13.059  -1.846   6.225  1.00  0.00     0.159 C 
ATOM      5  O   UNL     1     -13.465  -2.632   7.121  1.00  0.00    -0.295 OA
ATOM      6  C   UNL     1     -11.578  -1.519   6.033  1.00  0.00     0.067 C 
ATOM      7  C   UNL     1     -11.549   0.015   5.860  1.00  0.00     0.021 C 
ATOM      8  C   UNL     1     -11.884  -0.234   4.372  1.00  0.00     0.022 C 
ATOM      9  C   UNL     1     -11.235  -1.641   4.521  1.00  0.00    -0.019 C 
ATOM     10  C   UNL     1     -11.851  -2.822   3.717  1.00  0.00     0.012 C 
ATOM     11  C   UNL     1      -9.709  -1.618   4.258  1.00  0.00     0.012 C 
ENDROOT
TORSDOF 0
ENDMDL
MODEL 8
REMARK VINA RESULT:    -4.013      0.877      3.134
REMARK INTER + INTRA:          -4.013
REMARK INTER:                  -4.013
REMARK INTRA:                   0.000
REMARK UNBOUND:                 0.000
REMARK SMILES CC1=CC(=O)[C@@H]2C[C@H]1C2(C)C
REMARK SMILES IDX 1 1 2 2 3 3 4 4 5 5 6 6 7 7 8 8 9 9 10 10 11 11
REMARK H PARENT
REMARK Flexibility Score: inf
ROOT
ATOM      1  C   UNL     1     -16.366  -7.165   8.547  1.00  0.00     0.040 C 
ATOM      2  C   UNL     1     -16.024  -5.874   7.875  1.00  0.00    -0.066 C 
ATOM      3  C   UNL     1     -15.099  -5.023   8.402  1.00  0.00     0.047 C 
ATOM      4  C   UNL     1     -14.822  -3.777   7.618  1.00  0.00     0.159 C 
ATOM      5  O   UNL     1     -13.962  -2.932   7.980  1.00  0.00    -0.295 OA
ATOM      6  C   UNL     1     -15.654  -3.605   6.347  1.00  0.00     0.067 C 
ATOM      7  C   UNL     1     -17.092  -3.953   6.787  1.00  0.00     0.021 C 
ATOM      8  C   UNL     1     -16.709  -5.433   6.564  1.00  0.00     0.022 C 
ATOM      9  C   UNL     1     -15.631  -4.942   5.554  1.00  0.00    -0.019 C 
ATOM     10  C   UNL     1     -14.292  -5.728   5.470  1.00  0.00     0.012 C 
ATOM     11  C   UNL     1     -16.194  -4.787   4.119  1.00  0.00     0.012 C 
ENDROOT
TORSDOF 0
ENDMDL
MODEL 9
REMARK VINA RESULT:    -3.915     13.367     15.127
REMARK INTER + INTRA:          -3.915
REMARK INTER:                  -3.915
REMARK INTRA:                   0.000
REMARK UNBOUND:                 0.000
REMARK SMILES CC1=CC(=O)[C@@H]2C[C@H]1C2(C)C
REMARK SMILES IDX 1 1 2 2 3 3 4 4 5 5 6 6 7 7 8 8 9 9 10 10 11 11
REMARK H PARENT
REMARK Flexibility Score: inf
ROOT
ATOM      1  C   UNL     1      -5.561   2.938   7.339  1.00  0.00     0.040 C 
ATOM      2  C   UNL     1      -5.181   3.752   8.534  1.00  0.00    -0.066 C 
ATOM      3  C   UNL     1      -4.110   3.419   9.308  1.00  0.00     0.047 C 
ATOM      4  C   UNL     1      -3.813   4.333  10.458  1.00  0.00     0.159 C 
ATOM      5  O   UNL     1      -2.829   4.154  11.223  1.00  0.00    -0.295 OA
ATOM      6  C   UNL     1      -4.788   5.497  10.637  1.00  0.00     0.067 C 
ATOM      7  C   UNL     1      -6.182   4.851  10.485  1.00  0.00     0.021 C 
ATOM      8  C   UNL     1      -5.988   4.997   8.959  1.00  0.00     0.022 C 
ATOM      9  C   UNL     1      -5.011   6.173   9.254  1.00  0.00    -0.019 C 
ATOM     10  C   UNL     1      -3.784   6.362   8.318  1.00  0.00     0.012 C 
ATOM     11  C   UNL     1      -5.744   7.533   9.374  1.00  0.00     0.012 C 
ENDROOT
TORSDOF 0
ENDMDL
