MODEL 1
REMARK VINA RESULT:    -3.288      0.000      0.000
REMARK INTER + INTRA:          -7.365
REMARK INTER:                  -6.075
REMARK INTRA:                  -1.289
REMARK UNBOUND:                -1.289
REMARK SMILES CCCCCCCCCCCCCCCCO
REMARK SMILES IDX 9 1 8 2 7 3 6 4 5 5 4 6 3 7 2 8 1 9 10 10 11 11 12 12 13 13
REMARK SMILES IDX 14 14 15 15 16 16 17 17
REMARK H PARENT 17 18
REMARK Flexibility Score: inf
ROOT
ATOM      1  C   UNL     1     136.725 136.346 145.042  1.00  0.00     0.000 C 
ENDROOT
BRANCH   1   2
ATOM      2  C   UNL     1     136.189 136.731 143.652  1.00  0.00    -0.000 C 
BRANCH   2   3
ATOM      3  C   UNL     1     136.146 138.251 143.429  1.00  0.00    -0.000 C 
BRANCH   3   4
ATOM      4  C   UNL     1     135.983 139.037 144.740  1.00  0.00    -0.000 C 
BRANCH   4   5
ATOM      5  C   UNL     1     134.623 139.752 144.841  1.00  0.00    -0.000 C 
BRANCH   5   6
ATOM      6  C   UNL     1     133.529 138.842 145.435  1.00  0.00    -0.000 C 
BRANCH   6   7
ATOM      7  C   UNL     1     132.504 138.335 144.402  1.00  0.00    -0.000 C 
BRANCH   7   8
ATOM      8  C   UNL     1     132.440 136.800 144.274  1.00  0.00    -0.003 C 
ATOM      9  C   UNL     1     132.992 136.082 145.506  1.00  0.00     0.004 C 
ENDBRANCH   7   8
ENDBRANCH   6   7
ENDBRANCH   5   6
ENDBRANCH   4   5
ENDBRANCH   3   4
ENDBRANCH   2   3
ENDBRANCH   1   2
BRANCH   1  10
ATOM     10  C   UNL     1     137.756 135.199 145.054  1.00  0.00     0.000 C 
BRANCH  10  11
ATOM     11  C   UNL     1     138.312 134.826 146.444  1.00  0.00     0.000 C 
BRANCH  11  12
ATOM     12  C   UNL     1     139.830 134.572 146.489  1.00  0.00     0.000 C 
BRANCH  12  13
ATOM     13  C   UNL     1     140.453 134.172 145.138  1.00  0.00     0.000 C 
BRANCH  13  14
ATOM     14  C   UNL     1     141.905 134.668 144.957  1.00  0.00     0.002 C 
BRANCH  14  15
ATOM     15  C   UNL     1     142.967 133.604 145.285  1.00  0.00     0.028 C 
BRANCH  15  16
ATOM     16  C   UNL     1     143.049 132.508 144.213  1.00  0.00     0.156 C 
BRANCH  16  17
ATOM     17  O   UNL     1     143.212 133.085 142.946  1.00  0.00    -0.396 OA
ATOM     18  H   UNL     1     143.820 133.861 143.062  1.00  0.00     0.210 HD
ENDBRANCH  16  17
ENDBRANCH  15  16
ENDBRANCH  14  15
ENDBRANCH  13  14
ENDBRANCH  12  13
ENDBRANCH  11  12
ENDBRANCH  10  11
ENDBRANCH   1  10
TORSDOF 15
ENDMDL
MODEL 2
REMARK VINA RESULT:    -3.270      6.565      9.542
REMARK INTER + INTRA:          -7.332
REMARK INTER:                  -5.972
REMARK INTRA:                  -1.360
REMARK UNBOUND:                -1.289
REMARK SMILES CCCCCCCCCCCCCCCCO
REMARK SMILES IDX 9 1 8 2 7 3 6 4 5 5 4 6 3 7 2 8 1 9 10 10 11 11 12 12 13 13
REMARK SMILES IDX 14 14 15 15 16 16 17 17
REMARK H PARENT 17 18
REMARK Flexibility Score: inf
ROOT
ATOM      1  C   UNL     1     145.447 136.305 144.816  1.00  0.00     0.000 C 
ENDROOT
BRANCH   1   2
ATOM      2  C   UNL     1     144.806 136.201 143.421  1.00  0.00    -0.000 C 
BRANCH   2   3
ATOM      3  C   UNL     1     143.279 136.034 143.478  1.00  0.00    -0.000 C 
BRANCH   3   4
ATOM      4  C   UNL     1     142.637 136.844 144.616  1.00  0.00    -0.000 C 
BRANCH   4   5
ATOM      5  C   UNL     1     141.889 135.957 145.629  1.00  0.00    -0.000 C 
BRANCH   5   6
ATOM      6  C   UNL     1     141.954 134.462 145.255  1.00  0.00    -0.000 C 
BRANCH   6   7
ATOM      7  C   UNL     1     142.819 133.614 146.207  1.00  0.00    -0.000 C 
BRANCH   7   8
ATOM      8  C   UNL     1     143.869 132.736 145.496  1.00  0.00    -0.003 C 
ATOM      9  C   UNL     1     143.445 132.337 144.083  1.00  0.00     0.004 C 
ENDBRANCH   7   8
ENDBRANCH   6   7
ENDBRANCH   5   6
ENDBRANCH   4   5
ENDBRANCH   3   4
ENDBRANCH   2   3
ENDBRANCH   1   2
BRANCH   1  10
ATOM     10  C   UNL     1     146.339 137.543 145.038  1.00  0.00     0.000 C 
BRANCH  10  11
ATOM     11  C   UNL     1     145.703 138.672 145.876  1.00  0.00     0.000 C 
BRANCH  11  12
ATOM     12  C   UNL     1     146.586 139.207 147.020  1.00  0.00     0.000 C 
BRANCH  12  13
ATOM     13  C   UNL     1     147.155 140.618 146.783  1.00  0.00     0.000 C 
BRANCH  13  14
ATOM     14  C   UNL     1     147.349 140.963 145.288  1.00  0.00     0.002 C 
BRANCH  14  15
ATOM     15  C   UNL     1     147.758 142.425 145.040  1.00  0.00     0.028 C 
BRANCH  15  16
ATOM     16  C   UNL     1     147.230 142.962 143.703  1.00  0.00     0.156 C 
BRANCH  16  17
ATOM     17  O   UNL     1     148.279 143.079 142.782  1.00  0.00    -0.396 OA
ATOM     18  H   UNL     1     148.479 144.048 142.698  1.00  0.00     0.210 HD
ENDBRANCH  16  17
ENDBRANCH  15  16
ENDBRANCH  14  15
ENDBRANCH  13  14
ENDBRANCH  12  13
ENDBRANCH  11  12
ENDBRANCH  10  11
ENDBRANCH   1  10
TORSDOF 15
ENDMDL
MODEL 3
REMARK VINA RESULT:    -3.231     10.081     13.047
REMARK INTER + INTRA:          -7.260
REMARK INTER:                  -4.710
REMARK INTRA:                  -2.550
REMARK UNBOUND:                -1.289
REMARK SMILES CCCCCCCCCCCCCCCCO
REMARK SMILES IDX 9 1 8 2 7 3 6 4 5 5 4 6 3 7 2 8 1 9 10 10 11 11 12 12 13 13
REMARK SMILES IDX 14 14 15 15 16 16 17 17
REMARK H PARENT 17 18
REMARK Flexibility Score: inf
ROOT
ATOM      1  C   UNL     1     139.353 147.357 146.342  1.00  0.00     0.000 C 
ENDROOT
BRANCH   1   2
ATOM      2  C   UNL     1     139.882 146.584 145.121  1.00  0.00    -0.000 C 
BRANCH   2   3
ATOM      3  C   UNL     1     139.085 145.300 144.837  1.00  0.00    -0.000 C 
BRANCH   3   4
ATOM      4  C   UNL     1     138.318 145.362 143.506  1.00  0.00    -0.000 C 
BRANCH   4   5
ATOM      5  C   UNL     1     136.791 145.410 143.701  1.00  0.00    -0.000 C 
BRANCH   5   6
ATOM      6  C   UNL     1     136.327 144.538 144.887  1.00  0.00    -0.000 C 
BRANCH   6   7
ATOM      7  C   UNL     1     135.068 145.069 145.600  1.00  0.00    -0.000 C 
BRANCH   7   8
ATOM      8  C   UNL     1     135.362 145.943 146.836  1.00  0.00    -0.003 C 
ATOM      9  C   UNL     1     136.563 145.444 147.640  1.00  0.00     0.004 C 
ENDBRANCH   7   8
ENDBRANCH   6   7
ENDBRANCH   5   6
ENDBRANCH   4   5
ENDBRANCH   3   4
ENDBRANCH   2   3
ENDBRANCH   1   2
BRANCH   1  10
ATOM     10  C   UNL     1     138.295 148.434 146.030  1.00  0.00     0.000 C 
BRANCH  10  11
ATOM     11  C   UNL     1     138.377 149.050 144.618  1.00  0.00     0.000 C 
BRANCH  11  12
ATOM     12  C   UNL     1     137.054 149.046 143.830  1.00  0.00     0.000 C 
BRANCH  12  13
ATOM     13  C   UNL     1     135.789 148.953 144.704  1.00  0.00     0.000 C 
BRANCH  13  14
ATOM     14  C   UNL     1     134.570 148.355 143.964  1.00  0.00     0.002 C 
BRANCH  14  15
ATOM     15  C   UNL     1     133.365 149.308 143.887  1.00  0.00     0.028 C 
BRANCH  15  16
ATOM     16  C   UNL     1     133.558 150.413 142.840  1.00  0.00     0.156 C 
BRANCH  16  17
ATOM     17  O   UNL     1     134.142 149.883 141.681  1.00  0.00    -0.396 OA
ATOM     18  H   UNL     1     133.409 149.460 141.161  1.00  0.00     0.210 HD
ENDBRANCH  16  17
ENDBRANCH  15  16
ENDBRANCH  14  15
ENDBRANCH  13  14
ENDBRANCH  12  13
ENDBRANCH  11  12
ENDBRANCH  10  11
ENDBRANCH   1  10
TORSDOF 15
ENDMDL
MODEL 4
REMARK VINA RESULT:    -3.217      7.661     11.079
REMARK INTER + INTRA:          -7.233
REMARK INTER:                  -6.297
REMARK INTRA:                  -0.936
REMARK UNBOUND:                -1.289
REMARK SMILES CCCCCCCCCCCCCCCCO
REMARK SMILES IDX 9 1 8 2 7 3 6 4 5 5 4 6 3 7 2 8 1 9 10 10 11 11 12 12 13 13
REMARK SMILES IDX 14 14 15 15 16 16 17 17
REMARK H PARENT 17 18
REMARK Flexibility Score: inf
ROOT
ATOM      1  C   UNL     1     137.663 144.956 144.563  1.00  0.00     0.000 C 
ENDROOT
BRANCH   1   2
ATOM      2  C   UNL     1     136.145 144.810 144.361  1.00  0.00    -0.000 C 
BRANCH   2   3
ATOM      3  C   UNL     1     135.463 144.035 145.500  1.00  0.00    -0.000 C 
BRANCH   3   4
ATOM      4  C   UNL     1     134.527 142.929 144.985  1.00  0.00    -0.000 C 
BRANCH   4   5
ATOM      5  C   UNL     1     134.453 141.721 145.938  1.00  0.00    -0.000 C 
BRANCH   5   6
ATOM      6  C   UNL     1     135.067 140.449 145.317  1.00  0.00    -0.000 C 
BRANCH   6   7
ATOM      7  C   UNL     1     134.025 139.415 144.848  1.00  0.00    -0.000 C 
BRANCH   7   8
ATOM      8  C   UNL     1     134.415 138.665 143.558  1.00  0.00    -0.003 C 
ATOM      9  C   UNL     1     135.903 138.318 143.504  1.00  0.00     0.004 C 
ENDBRANCH   7   8
ENDBRANCH   6   7
ENDBRANCH   5   6
ENDBRANCH   4   5
ENDBRANCH   3   4
ENDBRANCH   2   3
ENDBRANCH   1   2
BRANCH   1  10
ATOM     10  C   UNL     1     138.333 146.067 143.729  1.00  0.00     0.000 C 
BRANCH  10  11
ATOM     11  C   UNL     1     139.349 146.943 144.490  1.00  0.00     0.000 C 
BRANCH  11  12
ATOM     12  C   UNL     1     138.746 148.172 145.196  1.00  0.00     0.000 C 
BRANCH  12  13
ATOM     13  C   UNL     1     138.312 149.306 144.248  1.00  0.00     0.000 C 
BRANCH  13  14
ATOM     14  C   UNL     1     136.850 149.761 144.459  1.00  0.00     0.002 C 
BRANCH  14  15
ATOM     15  C   UNL     1     135.895 148.616 144.841  1.00  0.00     0.028 C 
BRANCH  15  16
ATOM     16  C   UNL     1     134.906 148.280 143.718  1.00  0.00     0.156 C 
BRANCH  16  17
ATOM     17  O   UNL     1     135.306 148.893 142.523  1.00  0.00    -0.396 OA
ATOM     18  H   UNL     1     136.205 149.281 142.689  1.00  0.00     0.210 HD
ENDBRANCH  16  17
ENDBRANCH  15  16
ENDBRANCH  14  15
ENDBRANCH  13  14
ENDBRANCH  12  13
ENDBRANCH  11  12
ENDBRANCH  10  11
ENDBRANCH   1  10
TORSDOF 15
ENDMDL
MODEL 5
REMARK VINA RESULT:    -3.193      4.342      6.732
REMARK INTER + INTRA:          -7.188
REMARK INTER:                  -4.919
REMARK INTRA:                  -2.270
REMARK UNBOUND:                -1.289
REMARK SMILES CCCCCCCCCCCCCCCCO
REMARK SMILES IDX 9 1 8 2 7 3 6 4 5 5 4 6 3 7 2 8 1 9 10 10 11 11 12 12 13 13
REMARK SMILES IDX 14 14 15 15 16 16 17 17
REMARK H PARENT 17 18
REMARK Flexibility Score: inf
ROOT
ATOM      1  C   UNL     1     143.844 134.147 148.309  1.00  0.00     0.000 C 
ENDROOT
BRANCH   1   2
ATOM      2  C   UNL     1     144.836 135.092 147.608  1.00  0.00    -0.000 C 
BRANCH   2   3
ATOM      3  C   UNL     1     144.205 136.440 147.224  1.00  0.00    -0.000 C 
BRANCH   3   4
ATOM      4  C   UNL     1     142.765 136.588 147.741  1.00  0.00    -0.000 C 
BRANCH   4   5
ATOM      5  C   UNL     1     141.743 136.793 146.607  1.00  0.00    -0.000 C 
BRANCH   5   6
ATOM      6  C   UNL     1     140.421 136.044 146.872  1.00  0.00    -0.000 C 
BRANCH   6   7
ATOM      7  C   UNL     1     140.485 134.533 146.572  1.00  0.00    -0.000 C 
BRANCH   7   8
ATOM      8  C   UNL     1     139.924 134.138 145.192  1.00  0.00    -0.003 C 
ATOM      9  C   UNL     1     138.398 134.205 145.133  1.00  0.00     0.004 C 
ENDBRANCH   7   8
ENDBRANCH   6   7
ENDBRANCH   5   6
ENDBRANCH   4   5
ENDBRANCH   3   4
ENDBRANCH   2   3
ENDBRANCH   1   2
BRANCH   1  10
ATOM     10  C   UNL     1     143.433 132.904 147.493  1.00  0.00     0.000 C 
BRANCH  10  11
ATOM     11  C   UNL     1     144.318 132.599 146.266  1.00  0.00     0.000 C 
BRANCH  11  12
ATOM     12  C   UNL     1     143.569 132.557 144.921  1.00  0.00     0.000 C 
BRANCH  12  13
ATOM     13  C   UNL     1     144.070 133.572 143.877  1.00  0.00     0.000 C 
BRANCH  13  14
ATOM     14  C   UNL     1     143.054 134.696 143.571  1.00  0.00     0.002 C 
BRANCH  14  15
ATOM     15  C   UNL     1     143.661 136.110 143.625  1.00  0.00     0.028 C 
BRANCH  15  16
ATOM     16  C   UNL     1     145.194 136.086 143.690  1.00  0.00     0.156 C 
BRANCH  16  17
ATOM     17  O   UNL     1     145.734 136.382 142.430  1.00  0.00    -0.396 OA
ATOM     18  H   UNL     1     145.318 137.234 142.134  1.00  0.00     0.210 HD
ENDBRANCH  16  17
ENDBRANCH  15  16
ENDBRANCH  14  15
ENDBRANCH  13  14
ENDBRANCH  12  13
ENDBRANCH  11  12
ENDBRANCH  10  11
ENDBRANCH   1  10
TORSDOF 15
ENDMDL
MODEL 6
REMARK VINA RESULT:    -3.191      8.785     11.150
REMARK INTER + INTRA:          -7.186
REMARK INTER:                  -5.236
REMARK INTRA:                  -1.950
REMARK UNBOUND:                -1.289
REMARK SMILES CCCCCCCCCCCCCCCCO
REMARK SMILES IDX 9 1 8 2 7 3 6 4 5 5 4 6 3 7 2 8 1 9 10 10 11 11 12 12 13 13
REMARK SMILES IDX 14 14 15 15 16 16 17 17
REMARK H PARENT 17 18
REMARK Flexibility Score: inf
ROOT
ATOM      1  C   UNL     1     145.865 141.412 146.978  1.00  0.00     0.000 C 
ENDROOT
BRANCH   1   2
ATOM      2  C   UNL     1     144.865 141.473 145.810  1.00  0.00    -0.000 C 
BRANCH   2   3
ATOM      3  C   UNL     1     144.622 142.906 145.307  1.00  0.00    -0.000 C 
BRANCH   3   4
ATOM      4  C   UNL     1     145.247 143.162 143.926  1.00  0.00    -0.000 C 
BRANCH   4   5
ATOM      5  C   UNL     1     145.594 144.644 143.695  1.00  0.00    -0.000 C 
BRANCH   5   6
ATOM      6  C   UNL     1     147.042 144.976 144.111  1.00  0.00    -0.000 C 
BRANCH   6   7
ATOM      7  C   UNL     1     148.010 143.781 144.018  1.00  0.00    -0.000 C 
BRANCH   7   8
ATOM      8  C   UNL     1     149.028 143.700 145.173  1.00  0.00    -0.003 C 
ATOM      9  C   UNL     1     148.445 144.169 146.507  1.00  0.00     0.004 C 
ENDBRANCH   7   8
ENDBRANCH   6   7
ENDBRANCH   5   6
ENDBRANCH   4   5
ENDBRANCH   3   4
ENDBRANCH   2   3
ENDBRANCH   1   2
BRANCH   1  10
ATOM     10  C   UNL     1     147.192 140.691 146.669  1.00  0.00     0.000 C 
BRANCH  10  11
ATOM     11  C   UNL     1     147.418 140.331 145.186  1.00  0.00     0.000 C 
BRANCH  11  12
ATOM     12  C   UNL     1     147.428 138.822 144.878  1.00  0.00     0.000 C 
BRANCH  12  13
ATOM     13  C   UNL     1     146.857 137.936 146.001  1.00  0.00     0.000 C 
BRANCH  13  14
ATOM     14  C   UNL     1     145.606 137.133 145.577  1.00  0.00     0.002 C 
BRANCH  14  15
ATOM     15  C   UNL     1     145.871 135.628 145.394  1.00  0.00     0.028 C 
BRANCH  15  16
ATOM     16  C   UNL     1     145.410 135.115 144.023  1.00  0.00     0.156 C 
BRANCH  16  17
ATOM     17  O   UNL     1     145.633 136.091 143.043  1.00  0.00    -0.396 OA
ATOM     18  H   UNL     1     144.809 136.134 142.491  1.00  0.00     0.210 HD
ENDBRANCH  16  17
ENDBRANCH  15  16
ENDBRANCH  14  15
ENDBRANCH  13  14
ENDBRANCH  12  13
ENDBRANCH  11  12
ENDBRANCH  10  11
ENDBRANCH   1  10
TORSDOF 15
ENDMDL
MODEL 7
REMARK VINA RESULT:    -3.188      4.524      7.783
REMARK INTER + INTRA:          -7.179
REMARK INTER:                  -4.696
REMARK INTRA:                  -2.483
REMARK UNBOUND:                -1.289
REMARK SMILES CCCCCCCCCCCCCCCCO
REMARK SMILES IDX 9 1 8 2 7 3 6 4 5 5 4 6 3 7 2 8 1 9 10 10 11 11 12 12 13 13
REMARK SMILES IDX 14 14 15 15 16 16 17 17
REMARK H PARENT 17 18
REMARK Flexibility Score: inf
ROOT
ATOM      1  C   UNL     1     133.791 138.258 147.765  1.00  0.00     0.000 C 
ENDROOT
BRANCH   1   2
ATOM      2  C   UNL     1     132.403 137.898 147.207  1.00  0.00    -0.000 C 
BRANCH   2   3
ATOM      3  C   UNL     1     132.476 137.091 145.901  1.00  0.00    -0.000 C 
BRANCH   3   4
ATOM      4  C   UNL     1     132.333 137.974 144.650  1.00  0.00    -0.000 C 
BRANCH   4   5
ATOM      5  C   UNL     1     133.590 137.953 143.760  1.00  0.00    -0.000 C 
BRANCH   5   6
ATOM      6  C   UNL     1     134.606 136.884 144.211  1.00  0.00    -0.000 C 
BRANCH   6   7
ATOM      7  C   UNL     1     136.078 137.287 143.995  1.00  0.00    -0.000 C 
BRANCH   7   8
ATOM      8  C   UNL     1     137.055 136.693 145.029  1.00  0.00    -0.003 C 
ATOM      9  C   UNL     1     136.347 136.179 146.283  1.00  0.00     0.004 C 
ENDBRANCH   7   8
ENDBRANCH   6   7
ENDBRANCH   5   6
ENDBRANCH   4   5
ENDBRANCH   3   4
ENDBRANCH   2   3
ENDBRANCH   1   2
BRANCH   1  10
ATOM     10  C   UNL     1     134.253 139.704 147.494  1.00  0.00     0.000 C 
BRANCH  10  11
ATOM     11  C   UNL     1     135.595 139.838 146.744  1.00  0.00     0.000 C 
BRANCH  11  12
ATOM     12  C   UNL     1     135.541 140.696 145.466  1.00  0.00     0.000 C 
BRANCH  12  13
ATOM     13  C   UNL     1     134.139 141.226 145.109  1.00  0.00     0.000 C 
BRANCH  13  14
ATOM     14  C   UNL     1     134.105 142.746 144.833  1.00  0.00     0.002 C 
BRANCH  14  15
ATOM     15  C   UNL     1     134.602 143.600 146.013  1.00  0.00     0.028 C 
BRANCH  15  16
ATOM     16  C   UNL     1     135.611 144.671 145.578  1.00  0.00     0.156 C 
BRANCH  16  17
ATOM     17  O   UNL     1     136.668 144.079 144.873  1.00  0.00    -0.396 OA
ATOM     18  H   UNL     1     136.828 144.644 144.072  1.00  0.00     0.210 HD
ENDBRANCH  16  17
ENDBRANCH  15  16
ENDBRANCH  14  15
ENDBRANCH  13  14
ENDBRANCH  12  13
ENDBRANCH  11  12
ENDBRANCH  10  11
ENDBRANCH   1  10
TORSDOF 15
ENDMDL
MODEL 8
REMARK VINA RESULT:    -3.188      6.447      8.977
REMARK INTER + INTRA:          -7.179
REMARK INTER:                  -5.374
REMARK INTRA:                  -1.805
REMARK UNBOUND:                -1.289
REMARK SMILES CCCCCCCCCCCCCCCCO
REMARK SMILES IDX 9 1 8 2 7 3 6 4 5 5 4 6 3 7 2 8 1 9 10 10 11 11 12 12 13 13
REMARK SMILES IDX 14 14 15 15 16 16 17 17
REMARK H PARENT 17 18
REMARK Flexibility Score: inf
ROOT
ATOM      1  C   UNL     1     142.138 134.234 144.757  1.00  0.00     0.000 C 
ENDROOT
BRANCH   1   2
ATOM      2  C   UNL     1     142.501 135.729 144.727  1.00  0.00    -0.000 C 
BRANCH   2   3
ATOM      3  C   UNL     1     143.353 136.112 143.505  1.00  0.00    -0.000 C 
BRANCH   3   4
ATOM      4  C   UNL     1     144.802 136.462 143.881  1.00  0.00    -0.000 C 
BRANCH   4   5
ATOM      5  C   UNL     1     144.927 137.029 145.307  1.00  0.00    -0.000 C 
BRANCH   5   6
ATOM      6  C   UNL     1     146.320 136.770 145.918  1.00  0.00    -0.000 C 
BRANCH   6   7
ATOM      7  C   UNL     1     147.099 138.052 146.270  1.00  0.00    -0.000 C 
BRANCH   7   8
ATOM      8  C   UNL     1     147.463 138.925 145.052  1.00  0.00    -0.003 C 
ATOM      9  C   UNL     1     147.006 140.376 145.209  1.00  0.00     0.004 C 
ENDBRANCH   7   8
ENDBRANCH   6   7
ENDBRANCH   5   6
ENDBRANCH   4   5
ENDBRANCH   3   4
ENDBRANCH   2   3
ENDBRANCH   1   2
BRANCH   1  10
ATOM     10  C   UNL     1     142.893 133.355 143.739  1.00  0.00     0.000 C 
BRANCH  10  11
ATOM     11  C   UNL     1     143.831 132.294 144.351  1.00  0.00     0.000 C 
BRANCH  11  12
ATOM     12  C   UNL     1     144.301 132.595 145.787  1.00  0.00     0.000 C 
BRANCH  12  13
ATOM     13  C   UNL     1     145.727 133.169 145.888  1.00  0.00     0.000 C 
BRANCH  13  14
ATOM     14  C   UNL     1     146.397 133.402 144.515  1.00  0.00     0.002 C 
BRANCH  14  15
ATOM     15  C   UNL     1     147.616 132.498 144.261  1.00  0.00     0.028 C 
BRANCH  15  16
ATOM     16  C   UNL     1     147.642 131.938 142.833  1.00  0.00     0.156 C 
BRANCH  16  17
ATOM     17  O   UNL     1     146.606 132.502 142.075  1.00  0.00    -0.396 OA
ATOM     18  H   UNL     1     146.928 133.390 141.769  1.00  0.00     0.210 HD
ENDBRANCH  16  17
ENDBRANCH  15  16
ENDBRANCH  14  15
ENDBRANCH  13  14
ENDBRANCH  12  13
ENDBRANCH  11  12
ENDBRANCH  10  11
ENDBRANCH   1  10
TORSDOF 15
ENDMDL
MODEL 9
REMARK VINA RESULT:    -3.159      2.808      8.419
REMARK INTER + INTRA:          -7.126
REMARK INTER:                  -6.035
REMARK INTRA:                  -1.091
REMARK UNBOUND:                -1.289
REMARK SMILES CCCCCCCCCCCCCCCCO
REMARK SMILES IDX 9 1 8 2 7 3 6 4 5 5 4 6 3 7 2 8 1 9 10 10 11 11 12 12 13 13
REMARK SMILES IDX 14 14 15 15 16 16 17 17
REMARK H PARENT 17 18
REMARK Flexibility Score: inf
ROOT
ATOM      1  C   UNL     1     137.816 135.711 145.370  1.00  0.00     0.000 C 
ENDROOT
BRANCH   1   2
ATOM      2  C   UNL     1     138.449 134.330 145.123  1.00  0.00    -0.000 C 
BRANCH   2   3
ATOM      3  C   UNL     1     139.985 134.364 145.151  1.00  0.00    -0.000 C 
BRANCH   3   4
ATOM      4  C   UNL     1     140.536 135.516 146.007  1.00  0.00    -0.000 C 
BRANCH   4   5
ATOM      5  C   UNL     1     141.839 136.108 145.441  1.00  0.00    -0.000 C 
BRANCH   5   6
ATOM      6  C   UNL     1     143.026 135.129 145.560  1.00  0.00    -0.000 C 
BRANCH   6   7
ATOM      7  C   UNL     1     143.753 134.861 144.228  1.00  0.00    -0.000 C 
BRANCH   7   8
ATOM      8  C   UNL     1     143.301 133.574 143.509  1.00  0.00    -0.003 C 
ATOM      9  C   UNL     1     143.284 132.356 144.433  1.00  0.00     0.004 C 
ENDBRANCH   7   8
ENDBRANCH   6   7
ENDBRANCH   5   6
ENDBRANCH   4   5
ENDBRANCH   3   4
ENDBRANCH   2   3
ENDBRANCH   1   2
BRANCH   1  10
ATOM     10  C   UNL     1     136.355 135.858 144.898  1.00  0.00     0.000 C 
BRANCH  10  11
ATOM     11  C   UNL     1     136.164 136.625 143.573  1.00  0.00     0.000 C 
BRANCH  11  12
ATOM     12  C   UNL     1     136.060 138.155 143.718  1.00  0.00     0.000 C 
BRANCH  12  13
ATOM     13  C   UNL     1     134.643 138.722 143.516  1.00  0.00     0.000 C 
BRANCH  13  14
ATOM     14  C   UNL     1     133.690 138.441 144.701  1.00  0.00     0.002 C 
BRANCH  14  15
ATOM     15  C   UNL     1     132.374 137.759 144.287  1.00  0.00     0.028 C 
BRANCH  15  16
ATOM     16  C   UNL     1     132.500 136.231 144.230  1.00  0.00     0.156 C 
BRANCH  16  17
ATOM     17  O   UNL     1     132.755 135.817 142.916  1.00  0.00    -0.396 OA
ATOM     18  H   UNL     1     133.528 136.351 142.594  1.00  0.00     0.210 HD
ENDBRANCH  16  17
ENDBRANCH  15  16
ENDBRANCH  14  15
ENDBRANCH  13  14
ENDBRANCH  12  13
ENDBRANCH  11  12
ENDBRANCH  10  11
ENDBRANCH   1  10
TORSDOF 15
ENDMDL
