MODEL 1
REMARK VINA RESULT:    -4.548      0.000      0.000
REMARK INTER + INTRA:          -5.032
REMARK INTER:                  -5.479
REMARK INTRA:                   0.447
REMARK UNBOUND:                 0.447
REMARK SMILES O=c1c(O)c(-c2ccc(O)c(O)c2)oc2cc(O)cc(O)c12
REMARK SMILES IDX 5 1 3 2 2 3 1 4 22 5 20 6 19 7 17 8 16 9 15 10 14 11 6 12
REMARK SMILES IDX 7 13 8 14 9 15 13 16 11 17 10 18 12 20 4 22 21 24 18 26
REMARK H PARENT 10 19 12 21 4 23 21 25 18 27
REMARK Flexibility Score: inf
ROOT
ATOM      1  C   UNL     1       4.398  -6.130  14.425  1.00  0.00     0.180 A 
ATOM      2  C   UNL     1       4.625  -6.496  15.763  1.00  0.00     0.208 A 
ATOM      3  C   UNL     1       4.716  -7.858  16.091  1.00  0.00     0.238 A 
ATOM      4  O   UNL     1       4.994  -8.175  17.277  1.00  0.00    -0.285 OA
ATOM      5  C   UNL     1       4.521  -8.839  15.088  1.00  0.00     0.111 A 
ATOM      6  C   UNL     1       4.545 -10.249  15.316  1.00  0.00     0.134 A 
ATOM      7  C   UNL     1       4.445 -11.126  14.228  1.00  0.00     0.093 A 
ATOM      8  C   UNL     1       4.258 -10.648  12.932  1.00  0.00     0.123 A 
ATOM      9  C   UNL     1       4.178  -9.273  12.706  1.00  0.00     0.094 A 
ATOM     10  C   UNL     1       4.312  -8.372  13.764  1.00  0.00     0.146 A 
ATOM     11  O   UNL     1       4.251  -7.072  13.501  1.00  0.00    -0.452 OA
ENDROOT
BRANCH   1  12
ATOM     12  C   UNL     1       4.305  -4.715  13.999  1.00  0.00     0.025 A 
ATOM     13  C   UNL     1       3.949  -4.415  12.674  1.00  0.00     0.016 A 
ATOM     14  C   UNL     1       3.875  -3.088  12.245  1.00  0.00     0.051 A 
ATOM     15  C   UNL     1       4.172  -2.043  13.129  1.00  0.00     0.157 A 
ATOM     16  C   UNL     1       4.622  -3.663  14.877  1.00  0.00     0.062 A 
ATOM     17  C   UNL     1       4.550  -2.331  14.446  1.00  0.00     0.158 A 
BRANCH  15  18
ATOM     18  O   UNL     1       4.098  -0.717  12.704  1.00  0.00    -0.504 OA
ATOM     19  H   UNL     1       3.413  -0.075  13.086  1.00  0.00     0.293 HD
ENDBRANCH  15  18
BRANCH  17  20
ATOM     20  O   UNL     1       4.858  -1.289  15.319  1.00  0.00    -0.504 OA
ATOM     21  H   UNL     1       4.848  -1.418  16.323  1.00  0.00     0.293 HD
ENDBRANCH  17  20
ENDBRANCH   1  12
BRANCH   2  22
ATOM     22  O   UNL     1       4.738  -5.514  16.751  1.00  0.00    -0.502 OA
ATOM     23  H   UNL     1       5.499  -4.845  16.768  1.00  0.00     0.293 HD
ENDBRANCH   2  22
BRANCH   6  24
ATOM     24  O   UNL     1       4.639 -10.837  16.581  1.00  0.00    -0.507 OA
ATOM     25  H   UNL     1       5.272 -11.583  16.826  1.00  0.00     0.293 HD
ENDBRANCH   6  24
BRANCH   8  26
ATOM     26  O   UNL     1       4.147 -11.549  11.876  1.00  0.00    -0.508 OA
ATOM     27  H   UNL     1       4.808 -11.552  11.109  1.00  0.00     0.293 HD
ENDBRANCH   8  26
TORSDOF 6
ENDMDL
MODEL 2
REMARK VINA RESULT:    -4.047     16.305     18.796
REMARK INTER + INTRA:          -4.429
REMARK INTER:                  -4.222
REMARK INTRA:                  -0.207
REMARK UNBOUND:                 0.447
REMARK SMILES O=c1c(O)c(-c2ccc(O)c(O)c2)oc2cc(O)cc(O)c12
REMARK SMILES IDX 5 1 3 2 2 3 1 4 22 5 20 6 19 7 17 8 16 9 15 10 14 11 6 12
REMARK SMILES IDX 7 13 8 14 9 15 13 16 11 17 10 18 12 20 4 22 21 24 18 26
REMARK H PARENT 10 19 12 21 4 23 21 25 18 27
REMARK Flexibility Score: inf
ROOT
ATOM      1  C   UNL     1      12.074 -12.948  28.572  1.00  0.00     0.180 A 
ATOM      2  C   UNL     1      10.743 -12.851  28.131  1.00  0.00     0.208 A 
ATOM      3  C   UNL     1       9.950 -11.788  28.590  1.00  0.00     0.238 A 
ATOM      4  O   UNL     1       8.783 -11.666  28.133  1.00  0.00    -0.285 OA
ATOM      5  C   UNL     1      10.478 -10.868  29.528  1.00  0.00     0.111 A 
ATOM      6  C   UNL     1       9.749  -9.779  30.096  1.00  0.00     0.134 A 
ATOM      7  C   UNL     1      10.407  -8.870  30.934  1.00  0.00     0.093 A 
ATOM      8  C   UNL     1      11.748  -9.044  31.276  1.00  0.00     0.123 A 
ATOM      9  C   UNL     1      12.455 -10.137  30.770  1.00  0.00     0.094 A 
ATOM     10  C   UNL     1      11.837 -11.039  29.901  1.00  0.00     0.146 A 
ATOM     11  O   UNL     1      12.552 -12.052  29.427  1.00  0.00    -0.452 OA
ENDROOT
BRANCH   1  12
ATOM     12  C   UNL     1      12.978 -14.032  28.121  1.00  0.00     0.025 A 
ATOM     13  C   UNL     1      13.412 -14.058  26.786  1.00  0.00     0.016 A 
ATOM     14  C   UNL     1      14.248 -15.082  26.334  1.00  0.00     0.051 A 
ATOM     15  C   UNL     1      14.648 -16.103  27.205  1.00  0.00     0.157 A 
ATOM     16  C   UNL     1      13.366 -15.070  28.987  1.00  0.00     0.062 A 
ATOM     17  C   UNL     1      14.203 -16.099  28.533  1.00  0.00     0.158 A 
BRANCH  15  18
ATOM     18  O   UNL     1      15.484 -17.125  26.758  1.00  0.00    -0.504 OA
ATOM     19  H   UNL     1      16.490 -17.011  26.725  1.00  0.00     0.293 HD
ENDBRANCH  15  18
BRANCH  17  20
ATOM     20  O   UNL     1      14.592 -17.124  29.394  1.00  0.00    -0.504 OA
ATOM     21  H   UNL     1      14.976 -17.993  29.045  1.00  0.00     0.293 HD
ENDBRANCH  17  20
ENDBRANCH   1  12
BRANCH   2  22
ATOM     22  O   UNL     1      10.218 -13.813  27.264  1.00  0.00    -0.502 OA
ATOM     23  H   UNL     1       9.224 -14.001  27.199  1.00  0.00     0.293 HD
ENDBRANCH   2  22
BRANCH   6  24
ATOM     24  O   UNL     1       8.383  -9.559  29.893  1.00  0.00    -0.507 OA
ATOM     25  H   UNL     1       7.984  -8.713  29.517  1.00  0.00     0.293 HD
ENDBRANCH   6  24
BRANCH   8  26
ATOM     26  O   UNL     1      12.366  -8.130  32.125  1.00  0.00    -0.508 OA
ATOM     27  H   UNL     1      13.278  -7.743  31.914  1.00  0.00     0.293 HD
ENDBRANCH   8  26
TORSDOF 6
ENDMDL
MODEL 3
REMARK VINA RESULT:    -3.474     16.283     18.872
REMARK INTER + INTRA:          -3.738
REMARK INTER:                  -3.573
REMARK INTRA:                  -0.165
REMARK UNBOUND:                 0.447
REMARK SMILES O=c1c(O)c(-c2ccc(O)c(O)c2)oc2cc(O)cc(O)c12
REMARK SMILES IDX 5 1 3 2 2 3 1 4 22 5 20 6 19 7 17 8 16 9 15 10 14 11 6 12
REMARK SMILES IDX 7 13 8 14 9 15 13 16 11 17 10 18 12 20 4 22 21 24 18 26
REMARK H PARENT 10 19 12 21 4 23 21 25 18 27
REMARK Flexibility Score: inf
ROOT
ATOM      1  C   UNL     1      12.676 -12.713  29.045  1.00  0.00     0.180 A 
ATOM      2  C   UNL     1      13.352 -11.891  29.963  1.00  0.00     0.208 A 
ATOM      3  C   UNL     1      12.659 -10.831  30.567  1.00  0.00     0.238 A 
ATOM      4  O   UNL     1      13.249 -10.146  31.443  1.00  0.00    -0.285 OA
ATOM      5  C   UNL     1      11.315 -10.570  30.204  1.00  0.00     0.111 A 
ATOM      6  C   UNL     1      10.529  -9.493  30.719  1.00  0.00     0.134 A 
ATOM      7  C   UNL     1       9.177  -9.396  30.367  1.00  0.00     0.093 A 
ATOM      8  C   UNL     1       8.598 -10.295  29.472  1.00  0.00     0.123 A 
ATOM      9  C   UNL     1       9.372 -11.318  28.921  1.00  0.00     0.094 A 
ATOM     10  C   UNL     1      10.713 -11.464  29.281  1.00  0.00     0.146 A 
ATOM     11  O   UNL     1      11.406 -12.463  28.749  1.00  0.00    -0.452 OA
ENDROOT
BRANCH   1  12
ATOM     12  C   UNL     1      13.334 -13.860  28.378  1.00  0.00     0.025 A 
ATOM     13  C   UNL     1      13.426 -13.884  26.978  1.00  0.00     0.016 A 
ATOM     14  C   UNL     1      14.025 -14.965  26.326  1.00  0.00     0.051 A 
ATOM     15  C   UNL     1      14.525 -16.045  27.065  1.00  0.00     0.157 A 
ATOM     16  C   UNL     1      13.819 -14.956  29.114  1.00  0.00     0.062 A 
ATOM     17  C   UNL     1      14.418 -16.042  28.461  1.00  0.00     0.158 A 
BRANCH  15  18
ATOM     18  O   UNL     1      15.125 -17.125  26.419  1.00  0.00    -0.504 OA
ATOM     19  H   UNL     1      15.451 -17.056  25.462  1.00  0.00     0.293 HD
ENDBRANCH  15  18
BRANCH  17  20
ATOM     20  O   UNL     1      14.904 -17.125  29.193  1.00  0.00    -0.504 OA
ATOM     21  H   UNL     1      15.483 -17.837  28.765  1.00  0.00     0.293 HD
ENDBRANCH  17  20
ENDBRANCH   1  12
BRANCH   2  22
ATOM     22  O   UNL     1      14.701 -12.119  30.249  1.00  0.00    -0.502 OA
ATOM     23  H   UNL     1      15.449 -11.677  29.730  1.00  0.00     0.293 HD
ENDBRANCH   2  22
BRANCH   6  24
ATOM     24  O   UNL     1      11.029  -8.487  31.551  1.00  0.00    -0.507 OA
ATOM     25  H   UNL     1      10.500  -7.694  31.880  1.00  0.00     0.293 HD
ENDBRANCH   6  24
BRANCH   8  26
ATOM     26  O   UNL     1       7.255 -10.158  29.133  1.00  0.00    -0.508 OA
ATOM     27  H   UNL     1       6.622 -10.950  29.141  1.00  0.00     0.293 HD
ENDBRANCH   8  26
TORSDOF 6
ENDMDL
MODEL 4
REMARK VINA RESULT:    -2.162      1.244      2.916
REMARK INTER + INTRA:          -2.158
REMARK INTER:                  -2.698
REMARK INTRA:                   0.541
REMARK UNBOUND:                 0.447
REMARK SMILES O=c1c(O)c(-c2ccc(O)c(O)c2)oc2cc(O)cc(O)c12
REMARK SMILES IDX 5 1 3 2 2 3 1 4 22 5 20 6 19 7 17 8 16 9 15 10 14 11 6 12
REMARK SMILES IDX 7 13 8 14 9 15 13 16 11 17 10 18 12 20 4 22 21 24 18 26
REMARK H PARENT 10 19 12 21 4 23 21 25 18 27
REMARK Flexibility Score: inf
ROOT
ATOM      1  C   UNL     1       4.328  -6.490  14.183  1.00  0.00     0.180 A 
ATOM      2  C   UNL     1       4.120  -7.474  13.202  1.00  0.00     0.208 A 
ATOM      3  C   UNL     1       4.179  -8.826  13.571  1.00  0.00     0.238 A 
ATOM      4  O   UNL     1       3.918  -9.700  12.703  1.00  0.00    -0.285 OA
ATOM      5  C   UNL     1       4.500  -9.180  14.904  1.00  0.00     0.111 A 
ATOM      6  C   UNL     1       4.632 -10.521  15.379  1.00  0.00     0.134 A 
ATOM      7  C   UNL     1       4.849 -10.751  16.744  1.00  0.00     0.093 A 
ATOM      8  C   UNL     1       5.002  -9.693  17.638  1.00  0.00     0.123 A 
ATOM      9  C   UNL     1       4.930  -8.379  17.174  1.00  0.00     0.094 A 
ATOM     10  C   UNL     1       4.677  -8.116  15.826  1.00  0.00     0.146 A 
ATOM     11  O   UNL     1       4.596  -6.851  15.432  1.00  0.00    -0.452 OA
ENDROOT
BRANCH   1  12
ATOM     12  C   UNL     1       4.268  -5.042  13.874  1.00  0.00     0.025 A 
ATOM     13  C   UNL     1       3.919  -4.626  12.580  1.00  0.00     0.016 A 
ATOM     14  C   UNL     1       3.875  -3.266  12.261  1.00  0.00     0.051 A 
ATOM     15  C   UNL     1       4.197  -2.305  13.227  1.00  0.00     0.157 A 
ATOM     16  C   UNL     1       4.610  -4.073  14.835  1.00  0.00     0.062 A 
ATOM     17  C   UNL     1       4.569  -2.709  14.515  1.00  0.00     0.158 A 
BRANCH  15  18
ATOM     18  O   UNL     1       4.153  -0.947  12.913  1.00  0.00    -0.504 OA
ATOM     19  H   UNL     1       4.890  -0.313  13.198  1.00  0.00     0.293 HD
ENDBRANCH  15  18
BRANCH  17  20
ATOM     20  O   UNL     1       4.901  -1.750  15.471  1.00  0.00    -0.504 OA
ATOM     21  H   UNL     1       5.794  -1.272  15.454  1.00  0.00     0.293 HD
ENDBRANCH  17  20
ENDBRANCH   1  12
BRANCH   2  22
ATOM     22  O   UNL     1       3.880  -7.104  11.875  1.00  0.00    -0.502 OA
ATOM     23  H   UNL     1       4.626  -6.990  11.199  1.00  0.00     0.293 HD
ENDBRANCH   2  22
BRANCH   6  24
ATOM     24  O   UNL     1       4.583 -11.652  14.558  1.00  0.00    -0.507 OA
ATOM     25  H   UNL     1       5.343 -11.980  13.982  1.00  0.00     0.293 HD
ENDBRANCH   6  24
BRANCH   8  26
ATOM     26  O   UNL     1       5.233  -9.959  18.986  1.00  0.00    -0.508 OA
ATOM     27  H   UNL     1       4.494 -10.286  19.596  1.00  0.00     0.293 HD
ENDBRANCH   8  26
TORSDOF 6
ENDMDL
