MODEL 1
REMARK VINA RESULT:    -2.499      0.000      0.000
REMARK INTER + INTRA:          -3.053
REMARK INTER:                  -2.937
REMARK INTRA:                  -0.116
REMARK UNBOUND:                -0.116
REMARK SMILES O=C([O-])CCC(=O)[O-]
REMARK SMILES IDX 4 1 2 2 1 3 3 4 5 5 6 6 7 7 8 8
REMARK H PARENT
REMARK Flexibility Score: inf
ROOT
ATOM      1  C   UNL     1       0.386  -9.108   0.347  1.00  0.00     0.059 C 
ENDROOT
BRANCH   1   2
ATOM      2  C   UNL     1      -0.159  -8.897   1.727  1.00  0.00     0.042 C 
ATOM      3  O   UNL     1      -1.371  -9.129   1.971  1.00  0.00    -0.550 OA
ATOM      4  O   UNL     1       0.665  -8.405   2.732  1.00  0.00    -0.550 OA
ENDBRANCH   1   2
BRANCH   1   5
ATOM      5  C   UNL     1       1.817  -8.575   0.217  1.00  0.00     0.059 C 
BRANCH   5   6
ATOM      6  C   UNL     1       1.859  -7.280  -0.536  1.00  0.00     0.042 C 
ATOM      7  O   UNL     1       2.111  -7.273  -1.770  1.00  0.00    -0.550 OA
ATOM      8  O   UNL     1       1.661  -6.079   0.134  1.00  0.00    -0.550 OA
ENDBRANCH   5   6
ENDBRANCH   1   5
TORSDOF 3
ENDMDL
MODEL 2
REMARK VINA RESULT:    -2.491      0.042      3.771
REMARK INTER + INTRA:          -3.044
REMARK INTER:                  -2.928
REMARK INTRA:                  -0.115
REMARK UNBOUND:                -0.116
REMARK SMILES O=C([O-])CCC(=O)[O-]
REMARK SMILES IDX 4 1 2 2 1 3 3 4 5 5 6 6 7 7 8 8
REMARK H PARENT
REMARK Flexibility Score: inf
ROOT
ATOM      1  C   UNL     1       1.852  -8.557   0.223  1.00  0.00     0.059 C 
ENDROOT
BRANCH   1   2
ATOM      2  C   UNL     1       1.870  -7.278  -0.557  1.00  0.00     0.042 C 
ATOM      3  O   UNL     1       2.115  -7.293  -1.792  1.00  0.00    -0.550 OA
ATOM      4  O   UNL     1       1.656  -6.066   0.088  1.00  0.00    -0.550 OA
ENDBRANCH   1   2
BRANCH   1   5
ATOM      5  C   UNL     1       0.430  -9.112   0.364  1.00  0.00     0.059 C 
BRANCH   5   6
ATOM      6  C   UNL     1      -0.119  -8.884   1.740  1.00  0.00     0.042 C 
ATOM      7  O   UNL     1      -1.330  -9.125   1.986  1.00  0.00    -0.550 OA
ATOM      8  O   UNL     1       0.697  -8.366   2.738  1.00  0.00    -0.550 OA
ENDBRANCH   5   6
ENDBRANCH   1   5
TORSDOF 3
ENDMDL
MODEL 3
REMARK VINA RESULT:    -2.489      0.251      1.166
REMARK INTER + INTRA:          -3.042
REMARK INTER:                  -2.921
REMARK INTRA:                  -0.120
REMARK UNBOUND:                -0.116
REMARK SMILES O=C([O-])CCC(=O)[O-]
REMARK SMILES IDX 4 1 2 2 1 3 3 4 5 5 6 6 7 7 8 8
REMARK H PARENT
REMARK Flexibility Score: inf
ROOT
ATOM      1  C   UNL     1       0.227  -9.148   0.137  1.00  0.00     0.059 C 
ENDROOT
BRANCH   1   2
ATOM      2  C   UNL     1      -0.241  -8.974   1.549  1.00  0.00     0.042 C 
ATOM      3  O   UNL     1       0.585  -8.713   2.463  1.00  0.00    -0.550 OA
ATOM      4  O   UNL     1      -1.585  -9.140   1.863  1.00  0.00    -0.550 OA
ENDBRANCH   1   2
BRANCH   1   5
ATOM      5  C   UNL     1       1.693  -8.731  -0.027  1.00  0.00     0.059 C 
BRANCH   5   6
ATOM      6  C   UNL     1       1.815  -7.372  -0.647  1.00  0.00     0.042 C 
ATOM      7  O   UNL     1       2.125  -7.255  -1.862  1.00  0.00    -0.550 OA
ATOM      8  O   UNL     1       1.627  -6.234   0.128  1.00  0.00    -0.550 OA
ENDBRANCH   5   6
ENDBRANCH   1   5
TORSDOF 3
ENDMDL
MODEL 4
REMARK VINA RESULT:    -2.383      2.196      3.202
REMARK INTER + INTRA:          -2.917
REMARK INTER:                  -2.853
REMARK INTRA:                  -0.064
REMARK UNBOUND:                -0.116
REMARK SMILES O=C([O-])CCC(=O)[O-]
REMARK SMILES IDX 4 1 2 2 1 3 3 4 5 5 6 6 7 7 8 8
REMARK H PARENT
REMARK Flexibility Score: inf
ROOT
ATOM      1  C   UNL     1      -1.154  -8.896   0.920  1.00  0.00     0.059 C 
ENDROOT
BRANCH   1   2
ATOM      2  C   UNL     1      -0.863  -9.844  -0.203  1.00  0.00     0.042 C 
ATOM      3  O   UNL     1       0.307  -9.948  -0.656  1.00  0.00    -0.550 OA
ATOM      4  O   UNL     1      -1.892 -10.582  -0.775  1.00  0.00    -0.550 OA
ENDBRANCH   1   2
BRANCH   1   5
ATOM      5  C   UNL     1      -0.162  -9.069   2.076  1.00  0.00     0.059 C 
BRANCH   5   6
ATOM      6  C   UNL     1       0.928  -8.042   2.027  1.00  0.00     0.042 C 
ATOM      7  O   UNL     1       1.873  -8.081   2.859  1.00  0.00    -0.550 OA
ATOM      8  O   UNL     1       0.878  -7.017   1.090  1.00  0.00    -0.550 OA
ENDBRANCH   5   6
ENDBRANCH   1   5
TORSDOF 3
ENDMDL
MODEL 5
REMARK VINA RESULT:    -2.372      2.207      3.354
REMARK INTER + INTRA:          -2.904
REMARK INTER:                  -2.821
REMARK INTRA:                  -0.083
REMARK UNBOUND:                -0.116
REMARK SMILES O=C([O-])CCC(=O)[O-]
REMARK SMILES IDX 4 1 2 2 1 3 3 4 5 5 6 6 7 7 8 8
REMARK H PARENT
REMARK Flexibility Score: inf
ROOT
ATOM      1  C   UNL     1      -0.176  -9.076   2.071  1.00  0.00     0.059 C 
ENDROOT
BRANCH   1   2
ATOM      2  C   UNL     1       0.927  -8.062   2.083  1.00  0.00     0.042 C 
ATOM      3  O   UNL     1       1.811  -8.098   2.978  1.00  0.00    -0.550 OA
ATOM      4  O   UNL     1       0.956  -7.054   1.127  1.00  0.00    -0.550 OA
ENDBRANCH   1   2
BRANCH   1   5
ATOM      5  C   UNL     1      -1.119  -8.870   0.880  1.00  0.00     0.059 C 
BRANCH   5   6
ATOM      6  C   UNL     1      -0.830  -9.837  -0.227  1.00  0.00     0.042 C 
ATOM      7  O   UNL     1       0.338  -9.942  -0.687  1.00  0.00    -0.550 OA
ATOM      8  O   UNL     1      -1.858 -10.589  -0.781  1.00  0.00    -0.550 OA
ENDBRANCH   5   6
ENDBRANCH   1   5
TORSDOF 3
ENDMDL
MODEL 6
REMARK VINA RESULT:    -2.367      1.101      4.005
REMARK INTER + INTRA:          -2.898
REMARK INTER:                  -2.814
REMARK INTRA:                  -0.084
REMARK UNBOUND:                -0.116
REMARK SMILES O=C([O-])CCC(=O)[O-]
REMARK SMILES IDX 4 1 2 2 1 3 3 4 5 5 6 6 7 7 8 8
REMARK H PARENT
REMARK Flexibility Score: inf
ROOT
ATOM      1  C   UNL     1       1.223  -7.264   1.128  1.00  0.00     0.059 C 
ENDROOT
BRANCH   1   2
ATOM      2  C   UNL     1       1.750  -6.732  -0.170  1.00  0.00     0.042 C 
ATOM      3  O   UNL     1       2.125  -5.534  -0.258  1.00  0.00    -0.550 OA
ATOM      4  O   UNL     1       1.790  -7.550  -1.293  1.00  0.00    -0.550 OA
ENDBRANCH   1   2
BRANCH   1   5
ATOM      5  C   UNL     1       0.993  -8.778   1.065  1.00  0.00     0.059 C 
BRANCH   5   6
ATOM      6  C   UNL     1      -0.456  -9.125   1.226  1.00  0.00     0.042 C 
ATOM      7  O   UNL     1      -0.987  -9.111   2.368  1.00  0.00    -0.550 OA
ATOM      8  O   UNL     1      -1.208  -9.503   0.121  1.00  0.00    -0.550 OA
ENDBRANCH   5   6
ENDBRANCH   1   5
TORSDOF 3
ENDMDL
MODEL 7
REMARK VINA RESULT:    -2.303      2.040      2.772
REMARK INTER + INTRA:          -2.823
REMARK INTER:                  -2.742
REMARK INTRA:                  -0.081
REMARK UNBOUND:                -0.116
REMARK SMILES O=C([O-])CCC(=O)[O-]
REMARK SMILES IDX 4 1 2 2 1 3 3 4 5 5 6 6 7 7 8 8
REMARK H PARENT
REMARK Flexibility Score: inf
ROOT
ATOM      1  C   UNL     1       1.657  -9.036   1.110  1.00  0.00     0.059 C 
ENDROOT
BRANCH   1   2
ATOM      2  C   UNL     1       0.665  -8.674   2.173  1.00  0.00     0.042 C 
ATOM      3  O   UNL     1       1.005  -7.927   3.128  1.00  0.00    -0.550 OA
ATOM      4  O   UNL     1      -0.623  -9.194   2.130  1.00  0.00    -0.550 OA
ENDBRANCH   1   2
BRANCH   1   5
ATOM      5  C   UNL     1       1.091  -8.797  -0.294  1.00  0.00     0.059 C 
BRANCH   5   6
ATOM      6  C   UNL     1       1.029 -10.065  -1.090  1.00  0.00     0.042 C 
ATOM      7  O   UNL     1       2.086 -10.592  -1.525  1.00  0.00    -0.550 OA
ATOM      8  O   UNL     1      -0.200 -10.642  -1.386  1.00  0.00    -0.550 OA
ENDBRANCH   5   6
ENDBRANCH   1   5
TORSDOF 3
ENDMDL
MODEL 8
REMARK VINA RESULT:    -2.300      2.085      3.767
REMARK INTER + INTRA:          -2.819
REMARK INTER:                  -2.732
REMARK INTRA:                  -0.088
REMARK UNBOUND:                -0.116
REMARK SMILES O=C([O-])CCC(=O)[O-]
REMARK SMILES IDX 4 1 2 2 1 3 3 4 5 5 6 6 7 7 8 8
REMARK H PARENT
REMARK Flexibility Score: inf
ROOT
ATOM      1  C   UNL     1       1.118  -8.753  -0.356  1.00  0.00     0.059 C 
ENDROOT
BRANCH   1   2
ATOM      2  C   UNL     1       1.062 -10.089  -1.031  1.00  0.00     0.042 C 
ATOM      3  O   UNL     1       2.125 -10.701  -1.313  1.00  0.00    -0.550 OA
ATOM      4  O   UNL     1      -0.164 -10.640  -1.384  1.00  0.00    -0.550 OA
ENDBRANCH   1   2
BRANCH   1   5
ATOM      5  C   UNL     1       1.829  -8.835   1.000  1.00  0.00     0.059 C 
BRANCH   5   6
ATOM      6  C   UNL     1       0.876  -8.623   2.137  1.00  0.00     0.042 C 
ATOM      7  O   UNL     1       1.242  -7.983   3.158  1.00  0.00    -0.550 OA
ATOM      8  O   UNL     1      -0.401  -9.168   2.087  1.00  0.00    -0.550 OA
ENDBRANCH   5   6
ENDBRANCH   1   5
TORSDOF 3
ENDMDL
MODEL 9
REMARK VINA RESULT:    -2.228      6.098      7.208
REMARK INTER + INTRA:          -2.735
REMARK INTER:                  -2.632
REMARK INTRA:                  -0.103
REMARK UNBOUND:                -0.116
REMARK SMILES O=C([O-])CCC(=O)[O-]
REMARK SMILES IDX 4 1 2 2 1 3 3 4 5 5 6 6 7 7 8 8
REMARK H PARENT
REMARK Flexibility Score: inf
ROOT
ATOM      1  C   UNL     1      -3.812 -14.308  -2.044  1.00  0.00     0.059 C 
ENDROOT
BRANCH   1   2
ATOM      2  C   UNL     1      -4.226 -14.605  -0.635  1.00  0.00     0.042 C 
ATOM      3  O   UNL     1      -5.382 -14.306  -0.238  1.00  0.00    -0.550 OA
ATOM      4  O   UNL     1      -3.320 -15.176   0.251  1.00  0.00    -0.550 OA
ENDBRANCH   1   2
BRANCH   1   5
ATOM      5  C   UNL     1      -2.626 -13.339  -2.091  1.00  0.00     0.059 C 
BRANCH   5   6
ATOM      6  C   UNL     1      -3.057 -11.924  -1.850  1.00  0.00     0.042 C 
ATOM      7  O   UNL     1      -4.232 -11.564  -2.125  1.00  0.00    -0.550 OA
ATOM      8  O   UNL     1      -2.149 -10.993  -1.360  1.00  0.00    -0.550 OA
ENDBRANCH   5   6
ENDBRANCH   1   5
TORSDOF 3
ENDMDL
