MODEL 1
REMARK VINA RESULT:     0.253      0.000      0.000
REMARK INTER + INTRA:           0.271
REMARK INTER:                   0.386
REMARK INTRA:                  -0.115
REMARK UNBOUND:                -0.115
REMARK SMILES O=C([O-])CCCCCCCCC(=O)[O-]
REMARK SMILES IDX 7 1 6 2 5 3 4 4 2 5 1 6 3 7 8 8 9 9 10 10 11 11 12 12 13 13
REMARK SMILES IDX 14 14
REMARK H PARENT
REMARK Flexibility Score: inf
ROOT
ATOM      1  C   UNL     1      -4.388  19.201 -10.764  1.00  0.00     0.000 C 
ENDROOT
BRANCH   1   2
ATOM      2  C   UNL     1      -3.936  20.670 -10.807  1.00  0.00     0.000 C 
BRANCH   2   3
ATOM      3  C   UNL     1      -4.983  21.593 -11.455  1.00  0.00     0.006 C 
BRANCH   3   4
ATOM      4  C   UNL     1      -6.387  20.974 -11.445  1.00  0.00     0.053 C 
BRANCH   4   5
ATOM      5  C   UNL     1      -6.782  20.474 -12.801  1.00  0.00     0.041 C 
ATOM      6  O   UNL     1      -6.792  21.256 -13.787  1.00  0.00    -0.550 OA
ATOM      7  O   UNL     1      -7.171  19.151 -12.967  1.00  0.00    -0.550 OA
ENDBRANCH   4   5
ENDBRANCH   3   4
ENDBRANCH   2   3
ENDBRANCH   1   2
BRANCH   1   8
ATOM      8  C   UNL     1      -3.253  18.223 -11.102  1.00  0.00     0.000 C 
BRANCH   8   9
ATOM      9  C   UNL     1      -3.479  16.865 -10.420  1.00  0.00     0.000 C 
BRANCH   9  10
ATOM     10  C   UNL     1      -4.660  16.083 -11.024  1.00  0.00     0.006 C 
BRANCH  10  11
ATOM     11  C   UNL     1      -4.438  14.564 -11.102  1.00  0.00     0.053 C 
BRANCH  11  12
ATOM     12  C   UNL     1      -3.435  14.092 -10.095  1.00  0.00     0.041 C 
ATOM     13  O   UNL     1      -3.786  13.875  -8.905  1.00  0.00    -0.550 OA
ATOM     14  O   UNL     1      -2.106  13.923 -10.463  1.00  0.00    -0.550 OA
ENDBRANCH  11  12
ENDBRANCH  10  11
ENDBRANCH   9  10
ENDBRANCH   8   9
ENDBRANCH   1   8
TORSDOF 9
ENDMDL
MODEL 2
REMARK VINA RESULT:     0.340      0.123      6.518
REMARK INTER + INTRA:           0.404
REMARK INTER:                   0.428
REMARK INTRA:                  -0.025
REMARK UNBOUND:                -0.115
REMARK SMILES O=C([O-])CCCCCCCCC(=O)[O-]
REMARK SMILES IDX 7 1 6 2 5 3 4 4 2 5 1 6 3 7 8 8 9 9 10 10 11 11 12 12 13 13
REMARK SMILES IDX 14 14
REMARK H PARENT
REMARK Flexibility Score: inf
ROOT
ATOM      1  C   UNL     1      -3.122  18.255 -10.961  1.00  0.00     0.000 C 
ENDROOT
BRANCH   1   2
ATOM      2  C   UNL     1      -3.357  16.826 -10.447  1.00  0.00     0.000 C 
BRANCH   2   3
ATOM      3  C   UNL     1      -4.581  16.157 -11.095  1.00  0.00     0.006 C 
BRANCH   3   4
ATOM      4  C   UNL     1      -4.479  14.626 -11.083  1.00  0.00     0.053 C 
BRANCH   4   5
ATOM      5  C   UNL     1      -3.491  14.145 -10.065  1.00  0.00     0.041 C 
ATOM      6  O   UNL     1      -3.867  13.875  -8.894  1.00  0.00    -0.550 OA
ATOM      7  O   UNL     1      -2.148  14.028 -10.400  1.00  0.00    -0.550 OA
ENDBRANCH   4   5
ENDBRANCH   3   4
ENDBRANCH   2   3
ENDBRANCH   1   2
BRANCH   1   8
ATOM      8  C   UNL     1      -4.342  19.166 -10.753  1.00  0.00     0.000 C 
BRANCH   8   9
ATOM      9  C   UNL     1      -3.928  20.646 -10.758  1.00  0.00     0.000 C 
BRANCH   9  10
ATOM     10  C   UNL     1      -4.942  21.547 -11.486  1.00  0.00     0.006 C 
BRANCH  10  11
ATOM     11  C   UNL     1      -6.377  20.998 -11.503  1.00  0.00     0.053 C 
BRANCH  11  12
ATOM     12  C   UNL     1      -6.778  20.520 -12.865  1.00  0.00     0.041 C 
ATOM     13  O   UNL     1      -7.112  19.318 -13.041  1.00  0.00    -0.550 OA
ATOM     14  O   UNL     1      -6.751  21.393 -13.945  1.00  0.00    -0.550 OA
ENDBRANCH  11  12
ENDBRANCH  10  11
ENDBRANCH   9  10
ENDBRANCH   8   9
ENDBRANCH   1   8
TORSDOF 9
ENDMDL
MODEL 3
REMARK VINA RESULT:     1.899      0.875      1.063
REMARK INTER + INTRA:           2.782
REMARK INTER:                   2.316
REMARK INTRA:                   0.467
REMARK UNBOUND:                -0.115
REMARK SMILES O=C([O-])CCCCCCCCC(=O)[O-]
REMARK SMILES IDX 7 1 6 2 5 3 4 4 2 5 1 6 3 7 8 8 9 9 10 10 11 11 12 12 13 13
REMARK SMILES IDX 14 14
REMARK H PARENT
REMARK Flexibility Score: inf
ROOT
ATOM      1  C   UNL     1      -5.564  18.548 -10.737  1.00  0.00     0.000 C 
ENDROOT
BRANCH   1   2
ATOM      2  C   UNL     1      -6.265  19.911 -10.862  1.00  0.00     0.000 C 
BRANCH   2   3
ATOM      3  C   UNL     1      -5.310  21.027 -11.321  1.00  0.00     0.006 C 
BRANCH   3   4
ATOM      4  C   UNL     1      -6.004  22.042 -12.238  1.00  0.00     0.053 C 
BRANCH   4   5
ATOM      5  C   UNL     1      -6.621  21.379 -13.431  1.00  0.00     0.041 C 
ATOM      6  O   UNL     1      -6.767  22.017 -14.506  1.00  0.00    -0.550 OA
ATOM      7  O   UNL     1      -7.066  20.066 -13.344  1.00  0.00    -0.550 OA
ENDBRANCH   4   5
ENDBRANCH   3   4
ENDBRANCH   2   3
ENDBRANCH   1   2
BRANCH   1   8
ATOM      8  C   UNL     1      -4.033  18.668 -10.729  1.00  0.00     0.000 C 
BRANCH   8   9
ATOM      9  C   UNL     1      -3.375  17.282 -10.654  1.00  0.00     0.000 C 
BRANCH   9  10
ATOM     10  C   UNL     1      -4.112  16.226 -11.497  1.00  0.00     0.006 C 
BRANCH  10  11
ATOM     11  C   UNL     1      -4.595  15.004 -10.699  1.00  0.00     0.053 C 
BRANCH  11  12
ATOM     12  C   UNL     1      -3.470  14.324  -9.981  1.00  0.00     0.041 C 
ATOM     13  O   UNL     1      -3.639  13.884  -8.813  1.00  0.00    -0.550 OA
ATOM     14  O   UNL     1      -2.226  14.207 -10.589  1.00  0.00    -0.550 OA
ENDBRANCH  11  12
ENDBRANCH  10  11
ENDBRANCH   9  10
ENDBRANCH   8   9
ENDBRANCH   1   8
TORSDOF 9
ENDMDL
MODEL 4
REMARK VINA RESULT:     2.178      1.703      2.468
REMARK INTER + INTRA:           3.209
REMARK INTER:                   3.279
REMARK INTRA:                  -0.070
REMARK UNBOUND:                -0.115
REMARK SMILES O=C([O-])CCCCCCCCC(=O)[O-]
REMARK SMILES IDX 7 1 6 2 5 3 4 4 2 5 1 6 3 7 8 8 9 9 10 10 11 11 12 12 13 13
REMARK SMILES IDX 14 14
REMARK H PARENT
REMARK Flexibility Score: inf
ROOT
ATOM      1  C   UNL     1      -6.476  19.059 -11.109  1.00  0.00     0.000 C 
ENDROOT
BRANCH   1   2
ATOM      2  C   UNL     1      -6.848  19.444 -12.550  1.00  0.00     0.000 C 
BRANCH   2   3
ATOM      3  C   UNL     1      -6.684  20.949 -12.823  1.00  0.00     0.006 C 
BRANCH   3   4
ATOM      4  C   UNL     1      -6.406  21.743 -11.540  1.00  0.00     0.053 C 
BRANCH   4   5
ATOM      5  C   UNL     1      -4.963  22.132 -11.431  1.00  0.00     0.041 C 
ATOM      6  O   UNL     1      -4.590  23.288 -11.760  1.00  0.00    -0.550 OA
ATOM      7  O   UNL     1      -4.024  21.203 -10.999  1.00  0.00    -0.550 OA
ENDBRANCH   4   5
ENDBRANCH   3   4
ENDBRANCH   2   3
ENDBRANCH   1   2
BRANCH   1   8
ATOM      8  C   UNL     1      -5.596  17.801 -11.042  1.00  0.00     0.000 C 
BRANCH   8   9
ATOM      9  C   UNL     1      -4.139  18.168 -10.724  1.00  0.00     0.000 C 
BRANCH   9  10
ATOM     10  C   UNL     1      -3.251  16.933 -10.485  1.00  0.00     0.006 C 
BRANCH  10  11
ATOM     11  C   UNL     1      -3.879  15.605 -10.939  1.00  0.00     0.053 C 
BRANCH  11  12
ATOM     12  C   UNL     1      -3.387  14.446 -10.128  1.00  0.00     0.041 C 
ATOM     13  O   UNL     1      -2.242  13.967 -10.340  1.00  0.00    -0.550 OA
ATOM     14  O   UNL     1      -4.205  13.875  -9.162  1.00  0.00    -0.550 OA
ENDBRANCH  11  12
ENDBRANCH  10  11
ENDBRANCH   9  10
ENDBRANCH   8   9
ENDBRANCH   1   8
TORSDOF 9
ENDMDL
MODEL 5
REMARK VINA RESULT:     2.212      0.816      6.215
REMARK INTER + INTRA:           3.260
REMARK INTER:                   2.262
REMARK INTRA:                   0.999
REMARK UNBOUND:                -0.115
REMARK SMILES O=C([O-])CCCCCCCCC(=O)[O-]
REMARK SMILES IDX 7 1 6 2 5 3 4 4 2 5 1 6 3 7 8 8 9 9 10 10 11 11 12 12 13 13
REMARK SMILES IDX 14 14
REMARK H PARENT
REMARK Flexibility Score: inf
ROOT
ATOM      1  C   UNL     1      -4.241  19.324 -10.735  1.00  0.00     0.000 C 
ENDROOT
BRANCH   1   2
ATOM      2  C   UNL     1      -3.183  18.270 -11.098  1.00  0.00     0.000 C 
BRANCH   2   3
ATOM      3  C   UNL     1      -3.761  16.845 -11.152  1.00  0.00     0.006 C 
BRANCH   3   4
ATOM      4  C   UNL     1      -3.339  16.002  -9.942  1.00  0.00     0.053 C 
BRANCH   4   5
ATOM      5  C   UNL     1      -3.293  14.542 -10.273  1.00  0.00     0.041 C 
ATOM      6  O   UNL     1      -2.198  13.921 -10.255  1.00  0.00    -0.550 OA
ATOM      7  O   UNL     1      -4.456  13.875 -10.636  1.00  0.00    -0.550 OA
ENDBRANCH   4   5
ENDBRANCH   3   4
ENDBRANCH   2   3
ENDBRANCH   1   2
BRANCH   1   8
ATOM      8  C   UNL     1      -3.684  20.756 -10.763  1.00  0.00     0.000 C 
BRANCH   8   9
ATOM      9  C   UNL     1      -4.669  21.714 -11.449  1.00  0.00     0.000 C 
BRANCH   9  10
ATOM     10  C   UNL     1      -6.140  21.377 -11.145  1.00  0.00     0.006 C 
BRANCH  10  11
ATOM     11  C   UNL     1      -6.554  19.948 -11.530  1.00  0.00     0.053 C 
BRANCH  11  12
ATOM     12  C   UNL     1      -7.025  19.864 -12.949  1.00  0.00     0.041 C 
ATOM     13  O   UNL     1      -7.601  18.825 -13.365  1.00  0.00    -0.550 OA
ATOM     14  O   UNL     1      -6.798  20.922 -13.821  1.00  0.00    -0.550 OA
ENDBRANCH  11  12
ENDBRANCH  10  11
ENDBRANCH   9  10
ENDBRANCH   8   9
ENDBRANCH   1   8
TORSDOF 9
ENDMDL
MODEL 6
REMARK VINA RESULT:     2.761      1.197      6.952
REMARK INTER + INTRA:           4.099
REMARK INTER:                   4.491
REMARK INTRA:                  -0.391
REMARK UNBOUND:                -0.115
REMARK SMILES O=C([O-])CCCCCCCCC(=O)[O-]
REMARK SMILES IDX 7 1 6 2 5 3 4 4 2 5 1 6 3 7 8 8 9 9 10 10 11 11 12 12 13 13
REMARK SMILES IDX 14 14
REMARK H PARENT
REMARK Flexibility Score: inf
ROOT
ATOM      1  C   UNL     1      -3.670  19.535 -10.890  1.00  0.00     0.000 C 
ENDROOT
BRANCH   1   2
ATOM      2  C   UNL     1      -4.292  18.168 -10.567  1.00  0.00     0.000 C 
BRANCH   2   3
ATOM      3  C   UNL     1      -3.342  16.997 -10.874  1.00  0.00     0.006 C 
BRANCH   3   4
ATOM      4  C   UNL     1      -4.080  15.654 -10.943  1.00  0.00     0.053 C 
BRANCH   4   5
ATOM      5  C   UNL     1      -3.370  14.592 -10.160  1.00  0.00     0.041 C 
ATOM      6  O   UNL     1      -2.172  14.306 -10.419  1.00  0.00    -0.550 OA
ATOM      7  O   UNL     1      -4.045  13.894  -9.166  1.00  0.00    -0.550 OA
ENDBRANCH   4   5
ENDBRANCH   3   4
ENDBRANCH   2   3
ENDBRANCH   1   2
BRANCH   1   8
ATOM      8  C   UNL     1      -4.723  20.643 -11.046  1.00  0.00     0.000 C 
BRANCH   8   9
ATOM      9  C   UNL     1      -6.131  20.044 -11.179  1.00  0.00     0.000 C 
BRANCH   9  10
ATOM     10  C   UNL     1      -6.800  20.385 -12.523  1.00  0.00     0.006 C 
BRANCH  10  11
ATOM     11  C   UNL     1      -6.384  21.744 -13.110  1.00  0.00     0.053 C 
BRANCH  11  12
ATOM     12  C   UNL     1      -6.784  21.880 -14.546  1.00  0.00     0.041 C 
ATOM     13  O   UNL     1      -7.396  22.908 -14.939  1.00  0.00    -0.550 OA
ATOM     14  O   UNL     1      -6.510  20.856 -15.445  1.00  0.00    -0.550 OA
ENDBRANCH  11  12
ENDBRANCH  10  11
ENDBRANCH   9  10
ENDBRANCH   8   9
ENDBRANCH   1   8
TORSDOF 9
ENDMDL
