MODEL 1
REMARK VINA RESULT:    -4.183      0.000      0.000
REMARK INTER + INTRA:          -9.386
REMARK INTER:                  -7.606
REMARK INTRA:                  -1.780
REMARK UNBOUND:                -1.780
REMARK SMILES CCCCCCCCCCCCCCCC(=O)[O-]
REMARK SMILES IDX 9 1 10 2 11 3 12 4 13 5 14 6 15 7 16 8 17 9 18 10 8 11 7 12
REMARK SMILES IDX 6 13 5 14 4 15 3 16 2 17 1 18
REMARK H PARENT
REMARK Flexibility Score: inf
ROOT
ATOM      1  C   UNL     1      27.299   3.918   2.481  1.00  0.00     0.000 C 
ENDROOT
BRANCH   1   2
ATOM      2  C   UNL     1      26.201   3.757   3.544  1.00  0.00     0.000 C 
BRANCH   2   3
ATOM      3  C   UNL     1      25.642   2.330   3.543  1.00  0.00     0.000 C 
BRANCH   3   4
ATOM      4  C   UNL     1      26.021   1.585   4.831  1.00  0.00     0.000 C 
BRANCH   4   5
ATOM      5  C   UNL     1      25.685   0.083   4.750  1.00  0.00     0.000 C 
BRANCH   5   6
ATOM      6  C   UNL     1      24.421  -0.229   3.927  1.00  0.00     0.006 C 
BRANCH   6   7
ATOM      7  C   UNL     1      24.375  -1.662   3.362  1.00  0.00     0.053 C 
BRANCH   7   8
ATOM      8  C   UNL     1      24.863  -2.693   4.338  1.00  0.00     0.041 C 
ATOM      9  O   UNL     1      25.913  -3.346   4.104  1.00  0.00    -0.550 OA
ATOM     10  O   UNL     1      24.116  -2.982   5.474  1.00  0.00    -0.550 OA
ENDBRANCH   7   8
ENDBRANCH   6   7
ENDBRANCH   5   6
ENDBRANCH   4   5
ENDBRANCH   3   4
ENDBRANCH   2   3
ENDBRANCH   1   2
BRANCH   1  11
ATOM     11  C   UNL     1      26.883   3.358   1.112  1.00  0.00     0.000 C 
BRANCH  11  12
ATOM     12  C   UNL     1      26.035   4.351   0.298  1.00  0.00    -0.000 C 
BRANCH  12  13
ATOM     13  C   UNL     1      25.403   3.705  -0.944  1.00  0.00    -0.000 C 
BRANCH  13  14
ATOM     14  C   UNL     1      25.908   2.271  -1.184  1.00  0.00    -0.000 C 
BRANCH  14  15
ATOM     15  C   UNL     1      24.777   1.227  -1.159  1.00  0.00    -0.000 C 
BRANCH  15  16
ATOM     16  C   UNL     1      24.379   0.739   0.246  1.00  0.00    -0.000 C 
BRANCH  16  17
ATOM     17  C   UNL     1      23.040   1.317   0.724  1.00  0.00    -0.003 C 
ATOM     18  C   UNL     1      22.237   1.884  -0.445  1.00  0.00     0.004 C 
ENDBRANCH  16  17
ENDBRANCH  15  16
ENDBRANCH  14  15
ENDBRANCH  13  14
ENDBRANCH  12  13
ENDBRANCH  11  12
ENDBRANCH   1  11
TORSDOF 14
ENDMDL
MODEL 2
REMARK VINA RESULT:    -4.115      4.923      6.992
REMARK INTER + INTRA:          -9.264
REMARK INTER:                  -6.788
REMARK INTRA:                  -2.476
REMARK UNBOUND:                -1.780
REMARK SMILES CCCCCCCCCCCCCCCC(=O)[O-]
REMARK SMILES IDX 9 1 10 2 11 3 12 4 13 5 14 6 15 7 16 8 17 9 18 10 8 11 7 12
REMARK SMILES IDX 6 13 5 14 4 15 3 16 2 17 1 18
REMARK H PARENT
REMARK Flexibility Score: inf
ROOT
ATOM      1  C   UNL     1      18.098   3.539   3.576  1.00  0.00     0.000 C 
ENDROOT
BRANCH   1   2
ATOM      2  C   UNL     1      18.588   2.099   3.786  1.00  0.00     0.000 C 
BRANCH   2   3
ATOM      3  C   UNL     1      20.116   2.019   3.693  1.00  0.00     0.000 C 
BRANCH   3   4
ATOM      4  C   UNL     1      20.555   0.970   2.662  1.00  0.00     0.000 C 
BRANCH   4   5
ATOM      5  C   UNL     1      19.352   0.326   1.945  1.00  0.00     0.000 C 
BRANCH   5   6
ATOM      6  C   UNL     1      19.697  -0.289   0.576  1.00  0.00     0.006 C 
BRANCH   6   7
ATOM      7  C   UNL     1      18.631  -0.047  -0.510  1.00  0.00     0.053 C 
BRANCH   7   8
ATOM      8  C   UNL     1      18.068  -1.319  -1.072  1.00  0.00     0.041 C 
ATOM      9  O   UNL     1      18.834  -2.240  -1.460  1.00  0.00    -0.550 OA
ATOM     10  O   UNL     1      16.695  -1.460  -1.234  1.00  0.00    -0.550 OA
ENDBRANCH   7   8
ENDBRANCH   6   7
ENDBRANCH   5   6
ENDBRANCH   4   5
ENDBRANCH   3   4
ENDBRANCH   2   3
ENDBRANCH   1   2
BRANCH   1  11
ATOM     11  C   UNL     1      17.284   3.704   2.284  1.00  0.00     0.000 C 
BRANCH  11  12
ATOM     12  C   UNL     1      18.151   3.589   1.018  1.00  0.00    -0.000 C 
BRANCH  12  13
ATOM     13  C   UNL     1      19.346   4.555   1.035  1.00  0.00    -0.000 C 
BRANCH  13  14
ATOM     14  C   UNL     1      20.619   3.929   0.438  1.00  0.00    -0.000 C 
BRANCH  14  15
ATOM     15  C   UNL     1      20.365   3.227  -0.908  1.00  0.00    -0.000 C 
BRANCH  15  16
ATOM     16  C   UNL     1      21.482   2.268  -1.359  1.00  0.00    -0.000 C 
BRANCH  16  17
ATOM     17  C   UNL     1      22.614   2.142  -0.331  1.00  0.00    -0.003 C 
ATOM     18  C   UNL     1      23.893   1.620  -0.981  1.00  0.00     0.004 C 
ENDBRANCH  16  17
ENDBRANCH  15  16
ENDBRANCH  14  15
ENDBRANCH  13  14
ENDBRANCH  12  13
ENDBRANCH  11  12
ENDBRANCH   1  11
TORSDOF 14
ENDMDL
MODEL 3
REMARK VINA RESULT:    -4.077      5.621      8.115
REMARK INTER + INTRA:          -9.195
REMARK INTER:                  -7.024
REMARK INTRA:                  -2.171
REMARK UNBOUND:                -1.780
REMARK SMILES CCCCCCCCCCCCCCCC(=O)[O-]
REMARK SMILES IDX 9 1 10 2 11 3 12 4 13 5 14 6 15 7 16 8 17 9 18 10 8 11 7 12
REMARK SMILES IDX 6 13 5 14 4 15 3 16 2 17 1 18
REMARK H PARENT
REMARK Flexibility Score: inf
ROOT
ATOM      1  C   UNL     1      18.501   4.630   1.655  1.00  0.00     0.000 C 
ENDROOT
BRANCH   1   2
ATOM      2  C   UNL     1      17.335   4.105   0.804  1.00  0.00     0.000 C 
BRANCH   2   3
ATOM      3  C   UNL     1      17.829   3.099  -0.242  1.00  0.00     0.000 C 
BRANCH   3   4
ATOM      4  C   UNL     1      19.345   2.887  -0.136  1.00  0.00     0.000 C 
BRANCH   4   5
ATOM      5  C   UNL     1      19.739   1.413  -0.358  1.00  0.00     0.000 C 
BRANCH   5   6
ATOM      6  C   UNL     1      18.538   0.457  -0.475  1.00  0.00     0.006 C 
BRANCH   6   7
ATOM      7  C   UNL     1      18.891  -1.028  -0.264  1.00  0.00     0.053 C 
BRANCH   7   8
ATOM      8  C   UNL     1      17.988  -1.958  -1.018  1.00  0.00     0.041 C 
ATOM      9  O   UNL     1      16.754  -1.720  -1.103  1.00  0.00    -0.550 OA
ATOM     10  O   UNL     1      18.497  -3.128  -1.568  1.00  0.00    -0.550 OA
ENDBRANCH   7   8
ENDBRANCH   6   7
ENDBRANCH   5   6
ENDBRANCH   4   5
ENDBRANCH   3   4
ENDBRANCH   2   3
ENDBRANCH   1   2
BRANCH   1  11
ATOM     11  C   UNL     1      18.162   4.682   3.153  1.00  0.00     0.000 C 
BRANCH  11  12
ATOM     12  C   UNL     1      17.452   3.408   3.645  1.00  0.00    -0.000 C 
BRANCH  12  13
ATOM     13  C   UNL     1      18.384   2.489   4.450  1.00  0.00    -0.000 C 
BRANCH  13  14
ATOM     14  C   UNL     1      19.101   1.455   3.565  1.00  0.00    -0.000 C 
BRANCH  14  15
ATOM     15  C   UNL     1      20.550   1.855   3.233  1.00  0.00    -0.000 C 
BRANCH  15  16
ATOM     16  C   UNL     1      21.328   2.496   4.397  1.00  0.00    -0.000 C 
BRANCH  16  17
ATOM     17  C   UNL     1      21.991   3.825   4.013  1.00  0.00    -0.003 C 
ATOM     18  C   UNL     1      21.463   4.972   4.871  1.00  0.00     0.004 C 
ENDBRANCH  16  17
ENDBRANCH  15  16
ENDBRANCH  14  15
ENDBRANCH  13  14
ENDBRANCH  12  13
ENDBRANCH  11  12
ENDBRANCH   1  11
TORSDOF 14
ENDMDL
MODEL 4
REMARK VINA RESULT:    -4.064      1.363      3.542
REMARK INTER + INTRA:          -9.170
REMARK INTER:                  -7.127
REMARK INTRA:                  -2.043
REMARK UNBOUND:                -1.780
REMARK SMILES CCCCCCCCCCCCCCCC(=O)[O-]
REMARK SMILES IDX 9 1 10 2 11 3 12 4 13 5 14 6 15 7 16 8 17 9 18 10 8 11 7 12
REMARK SMILES IDX 6 13 5 14 4 15 3 16 2 17 1 18
REMARK H PARENT
REMARK Flexibility Score: inf
ROOT
ATOM      1  C   UNL     1      24.684   1.226  -1.020  1.00  0.00     0.000 C 
ENDROOT
BRANCH   1   2
ATOM      2  C   UNL     1      23.348   1.853  -0.595  1.00  0.00     0.000 C 
BRANCH   2   3
ATOM      3  C   UNL     1      23.098   1.650   0.903  1.00  0.00     0.000 C 
BRANCH   3   4
ATOM      4  C   UNL     1      23.008   0.158   1.253  1.00  0.00     0.000 C 
BRANCH   4   5
ATOM      5  C   UNL     1      23.106  -0.086   2.773  1.00  0.00     0.000 C 
BRANCH   5   6
ATOM      6  C   UNL     1      23.943  -1.321   3.153  1.00  0.00     0.006 C 
BRANCH   6   7
ATOM      7  C   UNL     1      24.831  -1.122   4.397  1.00  0.00     0.053 C 
BRANCH   7   8
ATOM      8  C   UNL     1      25.850  -2.209   4.570  1.00  0.00     0.041 C 
ATOM      9  O   UNL     1      26.978  -1.953   5.069  1.00  0.00    -0.550 OA
ATOM     10  O   UNL     1      25.581  -3.494   4.114  1.00  0.00    -0.550 OA
ENDBRANCH   7   8
ENDBRANCH   6   7
ENDBRANCH   5   6
ENDBRANCH   4   5
ENDBRANCH   3   4
ENDBRANCH   2   3
ENDBRANCH   1   2
BRANCH   1  11
ATOM     11  C   UNL     1      25.790   2.274  -1.222  1.00  0.00     0.000 C 
BRANCH  11  12
ATOM     12  C   UNL     1      26.495   2.652   0.093  1.00  0.00    -0.000 C 
BRANCH  12  13
ATOM     13  C   UNL     1      26.086   4.044   0.599  1.00  0.00    -0.000 C 
BRANCH  13  14
ATOM     14  C   UNL     1      26.180   4.165   2.130  1.00  0.00    -0.000 C 
BRANCH  14  15
ATOM     15  C   UNL     1      26.125   2.802   2.843  1.00  0.00    -0.000 C 
BRANCH  15  16
ATOM     16  C   UNL     1      25.075   2.699   3.964  1.00  0.00    -0.000 C 
BRANCH  16  17
ATOM     17  C   UNL     1      23.944   3.727   3.821  1.00  0.00    -0.003 C 
ATOM     18  C   UNL     1      22.647   3.207   4.436  1.00  0.00     0.004 C 
ENDBRANCH  16  17
ENDBRANCH  15  16
ENDBRANCH  14  15
ENDBRANCH  13  14
ENDBRANCH  12  13
ENDBRANCH  11  12
ENDBRANCH   1  11
TORSDOF 14
ENDMDL
MODEL 5
REMARK VINA RESULT:    -4.027      5.192      7.758
REMARK INTER + INTRA:          -9.103
REMARK INTER:                  -6.765
REMARK INTRA:                  -2.338
REMARK UNBOUND:                -1.780
REMARK SMILES CCCCCCCCCCCCCCCC(=O)[O-]
REMARK SMILES IDX 9 1 10 2 11 3 12 4 13 5 14 6 15 7 16 8 17 9 18 10 8 11 7 12
REMARK SMILES IDX 6 13 5 14 4 15 3 16 2 17 1 18
REMARK H PARENT
REMARK Flexibility Score: inf
ROOT
ATOM      1  C   UNL     1      17.260   2.476  -1.231  1.00  0.00     0.000 C 
ENDROOT
BRANCH   1   2
ATOM      2  C   UNL     1      18.258   1.367  -0.865  1.00  0.00     0.000 C 
BRANCH   2   3
ATOM      3  C   UNL     1      19.657   1.945  -0.625  1.00  0.00     0.000 C 
BRANCH   3   4
ATOM      4  C   UNL     1      20.310   1.320   0.616  1.00  0.00     0.000 C 
BRANCH   4   5
ATOM      5  C   UNL     1      19.285   0.574   1.494  1.00  0.00     0.000 C 
BRANCH   5   6
ATOM      6  C   UNL     1      19.806  -0.758   2.064  1.00  0.00     0.006 C 
BRANCH   6   7
ATOM      7  C   UNL     1      20.095  -1.831   0.996  1.00  0.00     0.053 C 
BRANCH   7   8
ATOM      8  C   UNL     1      18.889  -2.178   0.174  1.00  0.00     0.041 C 
ATOM      9  O   UNL     1      18.937  -2.128  -1.084  1.00  0.00    -0.550 OA
ATOM     10  O   UNL     1      17.687  -2.490   0.799  1.00  0.00    -0.550 OA
ENDBRANCH   7   8
ENDBRANCH   6   7
ENDBRANCH   5   6
ENDBRANCH   4   5
ENDBRANCH   3   4
ENDBRANCH   2   3
ENDBRANCH   1   2
BRANCH   1  11
ATOM     11  C   UNL     1      17.652   3.841  -0.644  1.00  0.00     0.000 C 
BRANCH  11  12
ATOM     12  C   UNL     1      16.954   4.131   0.697  1.00  0.00    -0.000 C 
BRANCH  12  13
ATOM     13  C   UNL     1      17.926   4.092   1.886  1.00  0.00    -0.000 C 
BRANCH  13  14
ATOM     14  C   UNL     1      17.349   3.336   3.095  1.00  0.00    -0.000 C 
BRANCH  14  15
ATOM     15  C   UNL     1      18.394   3.087   4.198  1.00  0.00    -0.000 C 
BRANCH  15  16
ATOM     16  C   UNL     1      19.839   3.454   3.816  1.00  0.00    -0.000 C 
BRANCH  16  17
ATOM     17  C   UNL     1      20.868   2.428   4.309  1.00  0.00    -0.003 C 
ATOM     18  C   UNL     1      22.281   2.817   3.884  1.00  0.00     0.004 C 
ENDBRANCH  16  17
ENDBRANCH  15  16
ENDBRANCH  14  15
ENDBRANCH  13  14
ENDBRANCH  12  13
ENDBRANCH  11  12
ENDBRANCH   1  11
TORSDOF 14
ENDMDL
MODEL 6
REMARK VINA RESULT:    -4.016      5.541      8.152
REMARK INTER + INTRA:          -9.083
REMARK INTER:                  -7.180
REMARK INTRA:                  -1.903
REMARK UNBOUND:                -1.780
REMARK SMILES CCCCCCCCCCCCCCCC(=O)[O-]
REMARK SMILES IDX 9 1 10 2 11 3 12 4 13 5 14 6 15 7 16 8 17 9 18 10 8 11 7 12
REMARK SMILES IDX 6 13 5 14 4 15 3 16 2 17 1 18
REMARK H PARENT
REMARK Flexibility Score: inf
ROOT
ATOM      1  C   UNL     1      17.085   4.075   0.090  1.00  0.00     0.000 C 
ENDROOT
BRANCH   1   2
ATOM      2  C   UNL     1      17.697   3.582  -1.230  1.00  0.00     0.000 C 
BRANCH   2   3
ATOM      3  C   UNL     1      17.080   2.245  -1.655  1.00  0.00     0.000 C 
BRANCH   3   4
ATOM      4  C   UNL     1      17.857   1.061  -1.061  1.00  0.00     0.000 C 
BRANCH   4   5
ATOM      5  C   UNL     1      17.315  -0.294  -1.559  1.00  0.00     0.000 C 
BRANCH   5   6
ATOM      6  C   UNL     1      17.906  -1.510  -0.822  1.00  0.00     0.006 C 
BRANCH   6   7
ATOM      7  C   UNL     1      19.116  -1.178   0.073  1.00  0.00     0.053 C 
BRANCH   7   8
ATOM      8  C   UNL     1      19.464  -2.286   1.023  1.00  0.00     0.041 C 
ATOM      9  O   UNL     1      20.309  -3.161   0.700  1.00  0.00    -0.550 OA
ATOM     10  O   UNL     1      18.800  -2.393   2.239  1.00  0.00    -0.550 OA
ENDBRANCH   7   8
ENDBRANCH   6   7
ENDBRANCH   5   6
ENDBRANCH   4   5
ENDBRANCH   3   4
ENDBRANCH   2   3
ENDBRANCH   1   2
BRANCH   1  11
ATOM     11  C   UNL     1      18.091   4.853   0.952  1.00  0.00     0.000 C 
BRANCH  11  12
ATOM     12  C   UNL     1      17.757   4.791   2.453  1.00  0.00    -0.000 C 
BRANCH  12  13
ATOM     13  C   UNL     1      17.282   3.397   2.893  1.00  0.00    -0.000 C 
BRANCH  13  14
ATOM     14  C   UNL     1      17.786   3.018   4.296  1.00  0.00    -0.000 C 
BRANCH  14  15
ATOM     15  C   UNL     1      18.602   1.713   4.306  1.00  0.00    -0.000 C 
BRANCH  15  16
ATOM     16  C   UNL     1      18.929   1.144   2.913  1.00  0.00    -0.000 C 
BRANCH  16  17
ATOM     17  C   UNL     1      20.409   1.299   2.535  1.00  0.00    -0.003 C 
ATOM     18  C   UNL     1      20.565   2.062   1.223  1.00  0.00     0.004 C 
ENDBRANCH  16  17
ENDBRANCH  15  16
ENDBRANCH  14  15
ENDBRANCH  13  14
ENDBRANCH  12  13
ENDBRANCH  11  12
ENDBRANCH   1  11
TORSDOF 14
ENDMDL
MODEL 7
REMARK VINA RESULT:    -4.014      6.333      7.728
REMARK INTER + INTRA:          -9.080
REMARK INTER:                  -7.385
REMARK INTRA:                  -1.695
REMARK UNBOUND:                -1.780
REMARK SMILES CCCCCCCCCCCCCCCC(=O)[O-]
REMARK SMILES IDX 9 1 10 2 11 3 12 4 13 5 14 6 15 7 16 8 17 9 18 10 8 11 7 12
REMARK SMILES IDX 6 13 5 14 4 15 3 16 2 17 1 18
REMARK H PARENT
REMARK Flexibility Score: inf
ROOT
ATOM      1  C   UNL     1      18.578   2.029   4.229  1.00  0.00     0.000 C 
ENDROOT
BRANCH   1   2
ATOM      2  C   UNL     1      19.981   2.258   3.647  1.00  0.00     0.000 C 
BRANCH   2   3
ATOM      3  C   UNL     1      20.274   1.270   2.513  1.00  0.00     0.000 C 
BRANCH   3   4
ATOM      4  C   UNL     1      19.321   0.067   2.567  1.00  0.00     0.000 C 
BRANCH   4   5
ATOM      5  C   UNL     1      19.255  -0.678   1.218  1.00  0.00     0.000 C 
BRANCH   5   6
ATOM      6  C   UNL     1      18.991  -2.189   1.352  1.00  0.00     0.006 C 
BRANCH   6   7
ATOM      7  C   UNL     1      17.772  -2.688   0.552  1.00  0.00     0.053 C 
BRANCH   7   8
ATOM      8  C   UNL     1      17.761  -2.198  -0.866  1.00  0.00     0.041 C 
ATOM      9  O   UNL     1      16.749  -1.611  -1.331  1.00  0.00    -0.550 OA
ATOM     10  O   UNL     1      18.845  -2.453  -1.698  1.00  0.00    -0.550 OA
ENDBRANCH   7   8
ENDBRANCH   6   7
ENDBRANCH   5   6
ENDBRANCH   4   5
ENDBRANCH   3   4
ENDBRANCH   2   3
ENDBRANCH   1   2
BRANCH   1  11
ATOM     11  C   UNL     1      17.584   3.128   3.823  1.00  0.00     0.000 C 
BRANCH  11  12
ATOM     12  C   UNL     1      18.276   4.348   3.188  1.00  0.00    -0.000 C 
BRANCH  12  13
ATOM     13  C   UNL     1      17.763   4.643   1.770  1.00  0.00    -0.000 C 
BRANCH  13  14
ATOM     14  C   UNL     1      18.896   4.699   0.732  1.00  0.00    -0.000 C 
BRANCH  14  15
ATOM     15  C   UNL     1      18.532   3.998  -0.589  1.00  0.00    -0.000 C 
BRANCH  15  16
ATOM     16  C   UNL     1      18.404   2.466  -0.496  1.00  0.00    -0.000 C 
BRANCH  16  17
ATOM     17  C   UNL     1      17.404   1.887  -1.505  1.00  0.00    -0.003 C 
ATOM     18  C   UNL     1      16.560   2.990  -2.139  1.00  0.00     0.004 C 
ENDBRANCH  16  17
ENDBRANCH  15  16
ENDBRANCH  14  15
ENDBRANCH  13  14
ENDBRANCH  12  13
ENDBRANCH  11  12
ENDBRANCH   1  11
TORSDOF 14
ENDMDL
MODEL 8
REMARK VINA RESULT:    -4.001      4.829      6.565
REMARK INTER + INTRA:          -9.055
REMARK INTER:                  -7.185
REMARK INTRA:                  -1.871
REMARK UNBOUND:                -1.780
REMARK SMILES CCCCCCCCCCCCCCCC(=O)[O-]
REMARK SMILES IDX 9 1 10 2 11 3 12 4 13 5 14 6 15 7 16 8 17 9 18 10 8 11 7 12
REMARK SMILES IDX 6 13 5 14 4 15 3 16 2 17 1 18
REMARK H PARENT
REMARK Flexibility Score: inf
ROOT
ATOM      1  C   UNL     1      19.064   3.835   3.640  1.00  0.00     0.000 C 
ENDROOT
BRANCH   1   2
ATOM      2  C   UNL     1      18.249   2.901   4.547  1.00  0.00     0.000 C 
BRANCH   2   3
ATOM      3  C   UNL     1      18.600   1.433   4.281  1.00  0.00     0.000 C 
BRANCH   3   4
ATOM      4  C   UNL     1      19.028   1.221   2.822  1.00  0.00     0.000 C 
BRANCH   4   5
ATOM      5  C   UNL     1      19.315  -0.263   2.514  1.00  0.00     0.000 C 
BRANCH   5   6
ATOM      6  C   UNL     1      20.088  -0.489   1.201  1.00  0.00     0.006 C 
BRANCH   6   7
ATOM      7  C   UNL     1      19.360   0.030  -0.055  1.00  0.00     0.053 C 
BRANCH   7   8
ATOM      8  C   UNL     1      18.523  -1.021  -0.723  1.00  0.00     0.041 C 
ATOM      9  O   UNL     1      17.434  -0.714  -1.275  1.00  0.00    -0.550 OA
ATOM     10  O   UNL     1      18.912  -2.354  -0.674  1.00  0.00    -0.550 OA
ENDBRANCH   7   8
ENDBRANCH   6   7
ENDBRANCH   5   6
ENDBRANCH   4   5
ENDBRANCH   3   4
ENDBRANCH   2   3
ENDBRANCH   1   2
BRANCH   1  11
ATOM     11  C   UNL     1      20.338   4.356   4.322  1.00  0.00     0.000 C 
BRANCH  11  12
ATOM     12  C   UNL     1      21.622   3.795   3.686  1.00  0.00    -0.000 C 
BRANCH  12  13
ATOM     13  C   UNL     1      22.140   2.545   4.413  1.00  0.00    -0.000 C 
BRANCH  13  14
ATOM     14  C   UNL     1      22.752   1.513   3.450  1.00  0.00    -0.000 C 
BRANCH  14  15
ATOM     15  C   UNL     1      22.709   1.968   1.981  1.00  0.00    -0.000 C 
BRANCH  15  16
ATOM     16  C   UNL     1      23.457   1.050   0.996  1.00  0.00    -0.000 C 
BRANCH  16  17
ATOM     17  C   UNL     1      23.841   1.760  -0.309  1.00  0.00    -0.003 C 
ATOM     18  C   UNL     1      24.858   0.942  -1.101  1.00  0.00     0.004 C 
ENDBRANCH  16  17
ENDBRANCH  15  16
ENDBRANCH  14  15
ENDBRANCH  13  14
ENDBRANCH  12  13
ENDBRANCH  11  12
ENDBRANCH   1  11
TORSDOF 14
ENDMDL
MODEL 9
REMARK VINA RESULT:    -3.956      3.238      5.942
REMARK INTER + INTRA:          -8.975
REMARK INTER:                  -6.903
REMARK INTRA:                  -2.072
REMARK UNBOUND:                -1.780
REMARK SMILES CCCCCCCCCCCCCCCC(=O)[O-]
REMARK SMILES IDX 9 1 10 2 11 3 12 4 13 5 14 6 15 7 16 8 17 9 18 10 8 11 7 12
REMARK SMILES IDX 6 13 5 14 4 15 3 16 2 17 1 18
REMARK H PARENT
REMARK Flexibility Score: inf
ROOT
ATOM      1  C   UNL     1      24.965   0.884   3.962  1.00  0.00     0.000 C 
ENDROOT
BRANCH   1   2
ATOM      2  C   UNL     1      24.526   1.759   2.778  1.00  0.00     0.000 C 
BRANCH   2   3
ATOM      3  C   UNL     1      23.127   1.364   2.293  1.00  0.00     0.000 C 
BRANCH   3   4
ATOM      4  C   UNL     1      23.097   1.190   0.768  1.00  0.00     0.000 C 
BRANCH   4   5
ATOM      5  C   UNL     1      24.189   0.219   0.276  1.00  0.00     0.000 C 
BRANCH   5   6
ATOM      6  C   UNL     1      24.946   0.712  -0.971  1.00  0.00     0.006 C 
BRANCH   6   7
ATOM      7  C   UNL     1      24.712   2.199  -1.303  1.00  0.00     0.053 C 
BRANCH   7   8
ATOM      8  C   UNL     1      25.681   3.113  -0.611  1.00  0.00     0.041 C 
ATOM      9  O   UNL     1      25.545   4.362  -0.687  1.00  0.00    -0.550 OA
ATOM     10  O   UNL     1      26.777   2.584   0.060  1.00  0.00    -0.550 OA
ENDBRANCH   7   8
ENDBRANCH   6   7
ENDBRANCH   5   6
ENDBRANCH   4   5
ENDBRANCH   3   4
ENDBRANCH   2   3
ENDBRANCH   1   2
BRANCH   1  11
ATOM     11  C   UNL     1      24.241  -0.470   3.995  1.00  0.00     0.000 C 
BRANCH  11  12
ATOM     12  C   UNL     1      25.065  -1.565   4.697  1.00  0.00    -0.000 C 
BRANCH  12  13
ATOM     13  C   UNL     1      25.126  -2.867   3.883  1.00  0.00    -0.000 C 
BRANCH  13  14
ATOM     14  C   UNL     1      24.699  -2.668   2.418  1.00  0.00    -0.000 C 
BRANCH  14  15
ATOM     15  C   UNL     1      23.692  -3.729   1.940  1.00  0.00    -0.000 C 
BRANCH  15  16
ATOM     16  C   UNL     1      22.415  -3.164   1.292  1.00  0.00    -0.000 C 
BRANCH  16  17
ATOM     17  C   UNL     1      21.436  -2.573   2.315  1.00  0.00    -0.003 C 
ATOM     18  C   UNL     1      20.664  -1.397   1.722  1.00  0.00     0.004 C 
ENDBRANCH  16  17
ENDBRANCH  15  16
ENDBRANCH  14  15
ENDBRANCH  13  14
ENDBRANCH  12  13
ENDBRANCH  11  12
ENDBRANCH   1  11
TORSDOF 14
ENDMDL
