MODEL 1
REMARK VINA RESULT:    -3.547      0.000      0.000
REMARK INTER + INTRA:          -7.999
REMARK INTER:                  -6.138
REMARK INTRA:                  -1.861
REMARK UNBOUND:                -1.861
REMARK SMILES OC[C@@H]1O[C@H](O[C@@H]2[C@@H](O)[C@@H](O)[C@@H](O[C@H]3[C@H](O)[C@@H](O)[C@@H](O)O[C@@H]3CO)O[C@H]2CO)[C@@H](O)[C@H](O)[C@H]1O
REMARK SMILES IDX 7 1 26 2 25 3 12 4 10 5 8 6 6 7 5 8 3 9 33 10 4 11 31 12
REMARK SMILES IDX 29 13 2 14 1 15 34 17 32 19 30 21 27 23 28 24 9 26 11 28
REMARK SMILES IDX 13 30 14 31 22 32 15 33 21 34 17 35 19 36 23 37 24 38 16 40
REMARK SMILES IDX 18 42 20 44
REMARK H PARENT 1 16 34 18 32 20 30 22 28 25 9 27 11 29 24 39 16 41 18 43
REMARK H PARENT 20 45
REMARK Flexibility Score: inf
ROOT
ATOM      1  C   UNL     1      11.657   7.640   2.990  1.00  0.00     0.184 C 
ATOM      2  C   UNL     1      11.179   6.489   3.916  1.00  0.00     0.178 C 
ATOM      3  O   UNL     1      10.054   5.907   3.298  1.00  0.00    -0.341 OA
ATOM      4  C   UNL     1       8.919   6.746   3.251  1.00  0.00     0.282 C 
ATOM      5  C   UNL     1       9.177   8.321   3.138  1.00  0.00     0.202 C 
ATOM      6  C   UNL     1      10.668   8.792   3.186  1.00  0.00     0.180 C 
ENDROOT
BRANCH   1   7
ATOM      7  O   UNL     1      12.964   8.072   3.362  1.00  0.00    -0.341 OA
BRANCH   7   8
ATOM      8  C   UNL     1      13.914   7.813   2.334  1.00  0.00     0.282 C 
ATOM      9  C   UNL     1      15.482   8.849   0.956  1.00  0.00     0.178 C 
ATOM     10  C   UNL     1      16.733   8.471   1.782  1.00  0.00     0.177 C 
ATOM     11  O   UNL     1      14.369   9.041   1.815  1.00  0.00    -0.341 OA
ATOM     12  C   UNL     1      16.341   7.813   3.125  1.00  0.00     0.179 C 
ATOM     13  C   UNL     1      15.056   6.969   2.955  1.00  0.00     0.202 C 
BRANCH   9  14
ATOM     14  C   UNL     1      15.672  10.125   0.135  1.00  0.00     0.191 C 
BRANCH  14  15
ATOM     15  O   UNL     1      16.612   9.932  -0.900  1.00  0.00    -0.394 OA
ATOM     16  H   UNL     1      16.290   9.146  -1.444  1.00  0.00     0.210 HD
ENDBRANCH  14  15
ENDBRANCH   9  14
BRANCH  10  17
ATOM     17  O   UNL     1      17.606   7.649   1.041  1.00  0.00    -0.387 OA
ATOM     18  H   UNL     1      17.224   7.539   0.129  1.00  0.00     0.211 HD
ENDBRANCH  10  17
BRANCH  12  19
ATOM     19  O   UNL     1      16.144   8.821   4.093  1.00  0.00    -0.387 OA
ATOM     20  H   UNL     1      17.007   8.969   4.545  1.00  0.00     0.211 HD
ENDBRANCH  12  19
BRANCH  13  21
ATOM     21  O   UNL     1      15.321   5.862   2.147  1.00  0.00    -0.385 OA
ATOM     22  H   UNL     1      16.084   6.115   1.551  1.00  0.00     0.211 HD
ENDBRANCH  13  21
ENDBRANCH   7   8
ENDBRANCH   1   7
BRANCH   2  23
ATOM     23  C   UNL     1      12.216   5.383   4.113  1.00  0.00     0.191 C 
BRANCH  23  24
ATOM     24  O   UNL     1      11.804   4.182   3.506  1.00  0.00    -0.394 OA
ATOM     25  H   UNL     1      11.560   3.556   4.248  1.00  0.00     0.210 HD
ENDBRANCH  23  24
ENDBRANCH   2  23
BRANCH   6  26
ATOM     26  O   UNL     1      10.911   9.792   2.228  1.00  0.00    -0.387 OA
ATOM     27  H   UNL     1      10.155   9.795   1.585  1.00  0.00     0.211 HD
ENDBRANCH   6  26
BRANCH   5  28
ATOM     28  O   UNL     1       8.545   8.870   2.017  1.00  0.00    -0.385 OA
ATOM     29  H   UNL     1       7.956   9.616   2.310  1.00  0.00     0.211 HD
ENDBRANCH   5  28
BRANCH   4  30
ATOM     30  O   UNL     1       7.961   6.179   2.353  1.00  0.00    -0.341 OA
BRANCH  30  31
ATOM     31  C   UNL     1       7.135   5.092   2.830  1.00  0.00     0.184 C 
ATOM     32  C   UNL     1       7.207   3.973   1.721  1.00  0.00     0.178 C 
ATOM     33  C   UNL     1       5.635   5.470   3.060  1.00  0.00     0.180 C 
ATOM     34  O   UNL     1       5.943   3.436   1.375  1.00  0.00    -0.342 OA
ATOM     35  C   UNL     1       4.872   4.179   3.458  1.00  0.00     0.201 C 
ATOM     36  C   UNL     1       5.247   2.993   2.528  1.00  0.00     0.279 C 
BRANCH  32  37
ATOM     37  C   UNL     1       8.219   2.855   2.032  1.00  0.00     0.191 C 
BRANCH  37  38
ATOM     38  O   UNL     1       9.302   3.365   2.746  1.00  0.00    -0.394 OA
ATOM     39  H   UNL     1       9.991   3.601   2.072  1.00  0.00     0.210 HD
ENDBRANCH  37  38
ENDBRANCH  32  37
BRANCH  33  40
ATOM     40  O   UNL     1       5.487   6.373   4.121  1.00  0.00    -0.387 OA
ATOM     41  H   UNL     1       5.947   5.984   4.913  1.00  0.00     0.211 HD
ENDBRANCH  33  40
BRANCH  35  42
ATOM     42  O   UNL     1       3.483   4.448   3.457  1.00  0.00    -0.385 OA
ATOM     43  H   UNL     1       3.355   5.359   3.087  1.00  0.00     0.211 HD
ENDBRANCH  35  42
BRANCH  36  44
ATOM     44  O   UNL     1       4.107   2.275   2.145  1.00  0.00    -0.366 OA
ATOM     45  H   UNL     1       3.323   2.786   2.472  1.00  0.00     0.213 HD
ENDBRANCH  36  44
ENDBRANCH  30  31
ENDBRANCH   4  30
TORSDOF 18
ENDMDL
MODEL 2
REMARK VINA RESULT:    -3.409      1.734      3.228
REMARK INTER + INTRA:          -7.762
REMARK INTER:                  -6.670
REMARK INTRA:                  -1.091
REMARK UNBOUND:                -1.861
REMARK SMILES OC[C@@H]1O[C@H](O[C@@H]2[C@@H](O)[C@@H](O)[C@@H](O[C@H]3[C@H](O)[C@@H](O)[C@@H](O)O[C@@H]3CO)O[C@H]2CO)[C@@H](O)[C@H](O)[C@H]1O
REMARK SMILES IDX 7 1 26 2 25 3 12 4 10 5 8 6 6 7 5 8 3 9 33 10 4 11 31 12
REMARK SMILES IDX 29 13 2 14 1 15 34 17 32 19 30 21 27 23 28 24 9 26 11 28
REMARK SMILES IDX 13 30 14 31 22 32 15 33 21 34 17 35 19 36 23 37 24 38 16 40
REMARK SMILES IDX 18 42 20 44
REMARK H PARENT 1 16 34 18 32 20 30 22 28 25 9 27 11 29 24 39 16 41 18 43
REMARK H PARENT 20 45
REMARK Flexibility Score: inf
ROOT
ATOM      1  C   UNL     1      13.830   7.202   2.770  1.00  0.00     0.184 C 
ATOM      2  C   UNL     1      13.195   5.861   3.230  1.00  0.00     0.178 C 
ATOM      3  O   UNL     1      12.119   5.599   2.358  1.00  0.00    -0.341 OA
ATOM      4  C   UNL     1      11.039   6.500   2.481  1.00  0.00     0.282 C 
ATOM      5  C   UNL     1      11.386   8.004   2.905  1.00  0.00     0.202 C 
ATOM      6  C   UNL     1      12.884   8.311   3.237  1.00  0.00     0.180 C 
ENDROOT
BRANCH   1   7
ATOM      7  O   UNL     1      15.107   7.384   3.378  1.00  0.00    -0.341 OA
BRANCH   7   8
ATOM      8  C   UNL     1      15.781   8.522   2.849  1.00  0.00     0.282 C 
ATOM      9  C   UNL     1      17.843   9.607   2.823  1.00  0.00     0.178 C 
ATOM     10  C   UNL     1      18.316   9.073   1.452  1.00  0.00     0.177 C 
ATOM     11  O   UNL     1      17.039   8.637   3.474  1.00  0.00    -0.341 OA
ATOM     12  C   UNL     1      17.348   8.000   0.903  1.00  0.00     0.179 C 
ATOM     13  C   UNL     1      15.894   8.326   1.316  1.00  0.00     0.202 C 
BRANCH   9  14
ATOM     14  C   UNL     1      19.001   9.965   3.755  1.00  0.00     0.191 C 
BRANCH  14  15
ATOM     15  O   UNL     1      20.212  10.091   3.042  1.00  0.00    -0.394 OA
ATOM     16  H   UNL     1      19.977  10.065   2.061  1.00  0.00     0.210 HD
ENDBRANCH  14  15
ENDBRANCH   9  14
BRANCH  10  17
ATOM     17  O   UNL     1      18.498  10.123   0.528  1.00  0.00    -0.387 OA
ATOM     18  H   UNL     1      17.634  10.608   0.441  1.00  0.00     0.211 HD
ENDBRANCH  10  17
BRANCH  12  19
ATOM     19  O   UNL     1      17.729   6.735   1.401  1.00  0.00    -0.387 OA
ATOM     20  H   UNL     1      17.962   6.850   2.352  1.00  0.00     0.211 HD
ENDBRANCH  12  19
BRANCH  13  21
ATOM     21  O   UNL     1      15.463   9.479   0.658  1.00  0.00    -0.385 OA
ATOM     22  H   UNL     1      14.730   9.201   0.036  1.00  0.00     0.211 HD
ENDBRANCH  13  21
ENDBRANCH   7   8
ENDBRANCH   1   7
BRANCH   2  23
ATOM     23  C   UNL     1      14.147   4.668   3.153  1.00  0.00     0.191 C 
BRANCH  23  24
ATOM     24  O   UNL     1      13.583   3.524   3.750  1.00  0.00    -0.394 OA
ATOM     25  H   UNL     1      14.346   2.983   4.106  1.00  0.00     0.210 HD
ENDBRANCH  23  24
ENDBRANCH   2  23
BRANCH   6  26
ATOM     26  O   UNL     1      13.281   9.538   2.677  1.00  0.00    -0.387 OA
ATOM     27  H   UNL     1      12.513  10.163   2.723  1.00  0.00     0.211 HD
ENDBRANCH   6  26
BRANCH   5  28
ATOM     28  O   UNL     1      10.912   8.928   1.968  1.00  0.00    -0.385 OA
ATOM     29  H   UNL     1      11.679   9.453   1.614  1.00  0.00     0.211 HD
ENDBRANCH   5  28
BRANCH   4  30
ATOM     30  O   UNL     1      10.161   6.326   1.366  1.00  0.00    -0.341 OA
BRANCH  30  31
ATOM     31  C   UNL     1       8.778   5.994   1.628  1.00  0.00     0.184 C 
ATOM     32  C   UNL     1       8.492   6.466   3.106  1.00  0.00     0.178 C 
ATOM     33  C   UNL     1       8.445   4.470   1.518  1.00  0.00     0.180 C 
ATOM     34  O   UNL     1       7.814   5.499   3.888  1.00  0.00    -0.342 OA
ATOM     35  C   UNL     1       6.964   4.273   1.936  1.00  0.00     0.201 C 
ATOM     36  C   UNL     1       6.636   5.055   3.238  1.00  0.00     0.279 C 
BRANCH  32  37
ATOM     37  C   UNL     1       7.797   7.839   3.195  1.00  0.00     0.191 C 
BRANCH  37  38
ATOM     38  O   UNL     1       7.991   8.559   2.018  1.00  0.00    -0.394 OA
ATOM     39  H   UNL     1       8.971   8.583   1.866  1.00  0.00     0.210 HD
ENDBRANCH  37  38
ENDBRANCH  32  37
BRANCH  33  40
ATOM     40  O   UNL     1       8.561   4.010   0.200  1.00  0.00    -0.387 OA
ATOM     41  H   UNL     1       7.671   3.657  -0.074  1.00  0.00     0.211 HD
ENDBRANCH  33  40
BRANCH  35  42
ATOM     42  O   UNL     1       6.701   2.888   2.057  1.00  0.00    -0.385 OA
ATOM     43  H   UNL     1       6.839   2.479   1.164  1.00  0.00     0.211 HD
ENDBRANCH  35  42
BRANCH  36  44
ATOM     44  O   UNL     1       5.878   4.271   4.116  1.00  0.00    -0.366 OA
ATOM     45  H   UNL     1       6.519   3.737   4.652  1.00  0.00     0.213 HD
ENDBRANCH  36  44
ENDBRANCH  30  31
ENDBRANCH   4  30
TORSDOF 18
ENDMDL
MODEL 3
REMARK VINA RESULT:    -2.869      2.136      9.470
REMARK INTER + INTRA:          -6.828
REMARK INTER:                  -6.840
REMARK INTRA:                   0.012
REMARK UNBOUND:                -1.861
REMARK SMILES OC[C@@H]1O[C@H](O[C@@H]2[C@@H](O)[C@@H](O)[C@@H](O[C@H]3[C@H](O)[C@@H](O)[C@@H](O)O[C@@H]3CO)O[C@H]2CO)[C@@H](O)[C@H](O)[C@H]1O
REMARK SMILES IDX 7 1 26 2 25 3 12 4 10 5 8 6 6 7 5 8 3 9 33 10 4 11 31 12
REMARK SMILES IDX 29 13 2 14 1 15 34 17 32 19 30 21 27 23 28 24 9 26 11 28
REMARK SMILES IDX 13 30 14 31 22 32 15 33 21 34 17 35 19 36 23 37 24 38 16 40
REMARK SMILES IDX 18 42 20 44
REMARK H PARENT 1 16 34 18 32 20 30 22 28 25 9 27 11 29 24 39 16 41 18 43
REMARK H PARENT 20 45
REMARK Flexibility Score: inf
ROOT
ATOM      1  C   UNL     1      12.455   7.350   4.014  1.00  0.00     0.184 C 
ATOM      2  C   UNL     1      13.365   6.235   3.432  1.00  0.00     0.178 C 
ATOM      3  O   UNL     1      14.697   6.627   3.675  1.00  0.00    -0.341 OA
ATOM      4  C   UNL     1      15.111   7.763   2.945  1.00  0.00     0.282 C 
ATOM      5  C   UNL     1      13.996   8.860   2.606  1.00  0.00     0.202 C 
ATOM      6  C   UNL     1      12.529   8.524   3.034  1.00  0.00     0.180 C 
ENDROOT
BRANCH   1   7
ATOM      7  O   UNL     1      11.106   6.897   4.106  1.00  0.00    -0.341 OA
BRANCH   7   8
ATOM      8  C   UNL     1      10.817   5.909   3.122  1.00  0.00     0.282 C 
ATOM      9  C   UNL     1       9.452   4.071   2.688  1.00  0.00     0.178 C 
ATOM     10  C   UNL     1       8.423   4.811   1.803  1.00  0.00     0.177 C 
ATOM     11  O   UNL     1       9.956   4.945   3.685  1.00  0.00    -0.341 OA
ATOM     12  C   UNL     1       8.673   6.336   1.806  1.00  0.00     0.179 C 
ATOM     13  C   UNL     1      10.188   6.632   1.905  1.00  0.00     0.202 C 
BRANCH   9  14
ATOM     14  C   UNL     1       8.865   2.844   3.387  1.00  0.00     0.191 C 
BRANCH  14  15
ATOM     15  O   UNL     1       7.589   2.527   2.876  1.00  0.00    -0.394 OA
ATOM     16  H   UNL     1       7.408   1.565   3.119  1.00  0.00     0.210 HD
ENDBRANCH  14  15
ENDBRANCH   9  14
BRANCH  10  17
ATOM     17  O   UNL     1       8.410   4.293   0.491  1.00  0.00    -0.387 OA
ATOM     18  H   UNL     1       8.603   5.041  -0.136  1.00  0.00     0.211 HD
ENDBRANCH  10  17
BRANCH  12  19
ATOM     19  O   UNL     1       7.986   6.916   2.894  1.00  0.00    -0.387 OA
ATOM     20  H   UNL     1       8.290   6.458   3.712  1.00  0.00     0.211 HD
ENDBRANCH  12  19
BRANCH  13  21
ATOM     21  O   UNL     1      10.826   6.228   0.732  1.00  0.00    -0.385 OA
ATOM     22  H   UNL     1      10.629   5.253   0.616  1.00  0.00     0.211 HD
ENDBRANCH  13  21
ENDBRANCH   7   8
ENDBRANCH   1   7
BRANCH   2  23
ATOM     23  C   UNL     1      13.165   4.868   4.087  1.00  0.00     0.191 C 
BRANCH  23  24
ATOM     24  O   UNL     1      13.822   3.854   3.365  1.00  0.00    -0.394 OA
ATOM     25  H   UNL     1      14.787   3.897   3.628  1.00  0.00     0.210 HD
ENDBRANCH  23  24
ENDBRANCH   2  23
BRANCH   6  26
ATOM     26  O   UNL     1      11.899   9.649   3.596  1.00  0.00    -0.387 OA
ATOM     27  H   UNL     1      11.982   9.591   4.582  1.00  0.00     0.211 HD
ENDBRANCH   6  26
BRANCH   5  28
ATOM     28  O   UNL     1      14.350  10.124   3.089  1.00  0.00    -0.385 OA
ATOM     29  H   UNL     1      14.260  10.129   4.080  1.00  0.00     0.211 HD
ENDBRANCH   5  28
BRANCH   4  30
ATOM     30  O   UNL     1      16.345   8.239   3.488  1.00  0.00    -0.341 OA
BRANCH  30  31
ATOM     31  C   UNL     1      17.442   8.488   2.578  1.00  0.00     0.184 C 
ATOM     32  C   UNL     1      17.389   7.331   1.507  1.00  0.00     0.178 C 
ATOM     33  C   UNL     1      18.854   8.484   3.248  1.00  0.00     0.180 C 
ATOM     34  O   UNL     1      18.649   6.736   1.254  1.00  0.00    -0.342 OA
ATOM     35  C   UNL     1      19.915   8.652   2.129  1.00  0.00     0.201 C 
ATOM     36  C   UNL     1      19.616   7.718   0.923  1.00  0.00     0.279 C 
BRANCH  32  37
ATOM     37  C   UNL     1      16.690   7.732   0.195  1.00  0.00     0.191 C 
BRANCH  37  38
ATOM     38  O   UNL     1      16.744   9.112   0.017  1.00  0.00    -0.394 OA
ATOM     39  H   UNL     1      17.483   9.437   0.592  1.00  0.00     0.210 HD
ENDBRANCH  37  38
ENDBRANCH  32  37
BRANCH  33  40
ATOM     40  O   UNL     1      19.013   9.565   4.125  1.00  0.00    -0.387 OA
ATOM     41  H   UNL     1      19.697  10.172   3.732  1.00  0.00     0.211 HD
ENDBRANCH  33  40
BRANCH  35  42
ATOM     42  O   UNL     1      21.201   8.432   2.677  1.00  0.00    -0.385 OA
ATOM     43  H   UNL     1      21.745   9.242   2.498  1.00  0.00     0.211 HD
ENDBRANCH  35  42
BRANCH  36  44
ATOM     44  O   UNL     1      20.786   7.096   0.470  1.00  0.00    -0.366 OA
ATOM     45  H   UNL     1      21.383   6.997   1.255  1.00  0.00     0.213 HD
ENDBRANCH  36  44
ENDBRANCH  30  31
ENDBRANCH   4  30
TORSDOF 18
ENDMDL
MODEL 4
REMARK VINA RESULT:    -2.835      2.974      6.168
REMARK INTER + INTRA:          -6.767
REMARK INTER:                  -5.955
REMARK INTRA:                  -0.812
REMARK UNBOUND:                -1.861
REMARK SMILES OC[C@@H]1O[C@H](O[C@@H]2[C@@H](O)[C@@H](O)[C@@H](O[C@H]3[C@H](O)[C@@H](O)[C@@H](O)O[C@@H]3CO)O[C@H]2CO)[C@@H](O)[C@H](O)[C@H]1O
REMARK SMILES IDX 7 1 26 2 25 3 12 4 10 5 8 6 6 7 5 8 3 9 33 10 4 11 31 12
REMARK SMILES IDX 29 13 2 14 1 15 34 17 32 19 30 21 27 23 28 24 9 26 11 28
REMARK SMILES IDX 13 30 14 31 22 32 15 33 21 34 17 35 19 36 23 37 24 38 16 40
REMARK SMILES IDX 18 42 20 44
REMARK H PARENT 1 16 34 18 32 20 30 22 28 25 9 27 11 29 24 39 16 41 18 43
REMARK H PARENT 20 45
REMARK Flexibility Score: inf
ROOT
ATOM      1  C   UNL     1      17.112   9.684   1.479  1.00  0.00     0.184 C 
ATOM      2  C   UNL     1      16.407   8.687   0.519  1.00  0.00     0.178 C 
ATOM      3  O   UNL     1      15.022   8.927   0.625  1.00  0.00    -0.341 OA
ATOM      4  C   UNL     1      14.467   8.581   1.876  1.00  0.00     0.282 C 
ATOM      5  C   UNL     1      15.411   8.725   3.160  1.00  0.00     0.202 C 
ATOM      6  C   UNL     1      16.895   9.146   2.895  1.00  0.00     0.180 C 
ENDROOT
BRANCH   1   7
ATOM      7  O   UNL     1      18.509   9.740   1.204  1.00  0.00    -0.341 OA
BRANCH   7   8
ATOM      8  C   UNL     1      19.231   8.772   1.960  1.00  0.00     0.282 C 
ATOM      9  C   UNL     1      20.635   6.925   1.746  1.00  0.00     0.178 C 
ATOM     10  C   UNL     1      21.963   7.671   2.011  1.00  0.00     0.177 C 
ATOM     11  O   UNL     1      19.718   7.782   1.084  1.00  0.00    -0.341 OA
ATOM     12  C   UNL     1      21.744   9.199   2.083  1.00  0.00     0.179 C 
ATOM     13  C   UNL     1      20.365   9.516   2.709  1.00  0.00     0.202 C 
BRANCH   9  14
ATOM     14  C   UNL     1      20.816   5.672   0.888  1.00  0.00     0.191 C 
BRANCH  14  15
ATOM     15  O   UNL     1      19.618   5.330   0.224  1.00  0.00    -0.394 OA
ATOM     16  H   UNL     1      19.414   6.082  -0.416  1.00  0.00     0.210 HD
ENDBRANCH  14  15
ENDBRANCH   9  14
BRANCH  10  17
ATOM     17  O   UNL     1      22.599   7.186   3.173  1.00  0.00    -0.387 OA
ATOM     18  H   UNL     1      22.085   7.508   3.961  1.00  0.00     0.211 HD
ENDBRANCH  10  17
BRANCH  12  19
ATOM     19  O   UNL     1      21.830   9.741   0.782  1.00  0.00    -0.387 OA
ATOM     20  H   UNL     1      21.348   9.130   0.176  1.00  0.00     0.211 HD
ENDBRANCH  12  19
BRANCH  13  21
ATOM     21  O   UNL     1      20.363   9.151   4.056  1.00  0.00    -0.385 OA
ATOM     22  H   UNL     1      20.638   9.961   4.576  1.00  0.00     0.211 HD
ENDBRANCH  13  21
ENDBRANCH   7   8
ENDBRANCH   1   7
BRANCH   2  23
ATOM     23  C   UNL     1      16.792   8.866  -0.950  1.00  0.00     0.191 C 
BRANCH  23  24
ATOM     24  O   UNL     1      15.957   9.805  -1.586  1.00  0.00    -0.394 OA
ATOM     25  H   UNL     1      16.377  10.703  -1.442  1.00  0.00     0.210 HD
ENDBRANCH  23  24
ENDBRANCH   2  23
BRANCH   6  26
ATOM     26  O   UNL     1      17.321  10.102   3.834  1.00  0.00    -0.387 OA
ATOM     27  H   UNL     1      17.978  10.699   3.393  1.00  0.00     0.211 HD
ENDBRANCH   6  26
BRANCH   5  28
ATOM     28  O   UNL     1      14.847   9.567   4.125  1.00  0.00    -0.385 OA
ATOM     29  H   UNL     1      15.329  10.437   4.116  1.00  0.00     0.211 HD
ENDBRANCH   5  28
BRANCH   4  30
ATOM     30  O   UNL     1      13.154   9.139   1.970  1.00  0.00    -0.341 OA
BRANCH  30  31
ATOM     31  C   UNL     1      12.066   8.267   2.357  1.00  0.00     0.184 C 
ATOM     32  C   UNL     1      12.421   6.845   1.774  1.00  0.00     0.178 C 
ATOM     33  C   UNL     1      10.666   8.695   1.809  1.00  0.00     0.180 C 
ATOM     34  O   UNL     1      11.339   6.220   1.107  1.00  0.00    -0.342 OA
ATOM     35  C   UNL     1       9.639   7.605   2.215  1.00  0.00     0.201 C 
ATOM     36  C   UNL     1      10.189   6.180   1.934  1.00  0.00     0.279 C 
BRANCH  32  37
ATOM     37  C   UNL     1      13.064   5.895   2.803  1.00  0.00     0.191 C 
BRANCH  37  38
ATOM     38  O   UNL     1      13.734   4.860   2.155  1.00  0.00    -0.394 OA
ATOM     39  H   UNL     1      14.648   4.839   2.538  1.00  0.00     0.210 HD
ENDBRANCH  37  38
ENDBRANCH  32  37
BRANCH  33  40
ATOM     40  O   UNL     1      10.232   9.897   2.383  1.00  0.00    -0.387 OA
ATOM     41  H   UNL     1       9.256   9.811   2.560  1.00  0.00     0.211 HD
ENDBRANCH  33  40
BRANCH  35  42
ATOM     42  O   UNL     1       8.417   7.854   1.549  1.00  0.00    -0.385 OA
ATOM     43  H   UNL     1       7.773   7.155   1.835  1.00  0.00     0.211 HD
ENDBRANCH  35  42
BRANCH  36  44
ATOM     44  O   UNL     1       9.210   5.373   1.342  1.00  0.00    -0.366 OA
ATOM     45  H   UNL     1       8.391   5.926   1.260  1.00  0.00     0.213 HD
ENDBRANCH  36  44
ENDBRANCH  30  31
ENDBRANCH   4  30
TORSDOF 18
ENDMDL
MODEL 5
REMARK VINA RESULT:    -2.592      1.680      3.080
REMARK INTER + INTRA:          -6.347
REMARK INTER:                  -6.490
REMARK INTRA:                   0.142
REMARK UNBOUND:                -1.861
REMARK SMILES OC[C@@H]1O[C@H](O[C@@H]2[C@@H](O)[C@@H](O)[C@@H](O[C@H]3[C@H](O)[C@@H](O)[C@@H](O)O[C@@H]3CO)O[C@H]2CO)[C@@H](O)[C@H](O)[C@H]1O
REMARK SMILES IDX 7 1 26 2 25 3 12 4 10 5 8 6 6 7 5 8 3 9 33 10 4 11 31 12
REMARK SMILES IDX 29 13 2 14 1 15 34 17 32 19 30 21 27 23 28 24 9 26 11 28
REMARK SMILES IDX 13 30 14 31 22 32 15 33 21 34 17 35 19 36 23 37 24 38 16 40
REMARK SMILES IDX 18 42 20 44
REMARK H PARENT 1 16 34 18 32 20 30 22 28 25 9 27 11 29 24 39 16 41 18 43
REMARK H PARENT 20 45
REMARK Flexibility Score: inf
ROOT
ATOM      1  C   UNL     1      12.976   7.244   1.914  1.00  0.00     0.184 C 
ATOM      2  C   UNL     1      13.078   6.130   2.992  1.00  0.00     0.178 C 
ATOM      3  O   UNL     1      11.759   5.796   3.360  1.00  0.00    -0.341 OA
ATOM      4  C   UNL     1      11.073   6.819   4.051  1.00  0.00     0.282 C 
ATOM      5  C   UNL     1      11.449   8.330   3.683  1.00  0.00     0.202 C 
ATOM      6  C   UNL     1      12.614   8.532   2.657  1.00  0.00     0.180 C 
ENDROOT
BRANCH   1   7
ATOM      7  O   UNL     1      14.227   7.417   1.253  1.00  0.00    -0.341 OA
BRANCH   7   8
ATOM      8  C   UNL     1      15.279   7.669   2.180  1.00  0.00     0.282 C 
ATOM      9  C   UNL     1      17.595   7.862   2.346  1.00  0.00     0.178 C 
ATOM     10  C   UNL     1      17.653   9.407   2.332  1.00  0.00     0.177 C 
ATOM     11  O   UNL     1      16.512   7.407   1.551  1.00  0.00    -0.341 OA
ATOM     12  C   UNL     1      16.265  10.018   2.033  1.00  0.00     0.179 C 
ATOM     13  C   UNL     1      15.148   9.141   2.645  1.00  0.00     0.202 C 
BRANCH   9  14
ATOM     14  C   UNL     1      18.875   7.213   1.820  1.00  0.00     0.191 C 
BRANCH  14  15
ATOM     15  O   UNL     1      18.684   6.679   0.527  1.00  0.00    -0.394 OA
ATOM     16  H   UNL     1      19.149   5.785   0.509  1.00  0.00     0.210 HD
ENDBRANCH  14  15
ENDBRANCH   9  14
BRANCH  10  17
ATOM     17  O   UNL     1      18.189   9.910   3.535  1.00  0.00    -0.387 OA
ATOM     18  H   UNL     1      17.682  10.731   3.778  1.00  0.00     0.211 HD
ENDBRANCH  10  17
BRANCH  12  19
ATOM     19  O   UNL     1      16.097  10.123   0.635  1.00  0.00    -0.387 OA
ATOM     20  H   UNL     1      15.738  11.022   0.448  1.00  0.00     0.211 HD
ENDBRANCH  12  19
BRANCH  13  21
ATOM     21  O   UNL     1      15.207   9.205   4.038  1.00  0.00    -0.385 OA
ATOM     22  H   UNL     1      14.264   9.160   4.371  1.00  0.00     0.211 HD
ENDBRANCH  13  21
ENDBRANCH   7   8
ENDBRANCH   1   7
BRANCH   2  23
ATOM     23  C   UNL     1      13.753   4.851   2.497  1.00  0.00     0.191 C 
BRANCH  23  24
ATOM     24  O   UNL     1      13.950   3.936   3.549  1.00  0.00    -0.394 OA
ATOM     25  H   UNL     1      14.789   3.433   3.335  1.00  0.00     0.210 HD
ENDBRANCH  23  24
ENDBRANCH   2  23
BRANCH   6  26
ATOM     26  O   UNL     1      12.297   9.540   1.729  1.00  0.00    -0.387 OA
ATOM     27  H   UNL     1      12.747   9.325   0.872  1.00  0.00     0.211 HD
ENDBRANCH   6  26
BRANCH   5  28
ATOM     28  O   UNL     1      10.327   9.057   3.270  1.00  0.00    -0.385 OA
ATOM     29  H   UNL     1       9.955   8.639   2.447  1.00  0.00     0.211 HD
ENDBRANCH   5  28
BRANCH   4  30
ATOM     30  O   UNL     1       9.682   6.490   4.101  1.00  0.00    -0.341 OA
BRANCH  30  31
ATOM     31  C   UNL     1       9.104   5.785   2.979  1.00  0.00     0.184 C 
ATOM     32  C   UNL     1       7.638   6.346   2.822  1.00  0.00     0.178 C 
ATOM     33  C   UNL     1       9.028   4.234   3.157  1.00  0.00     0.180 C 
ATOM     34  O   UNL     1       6.659   5.336   2.657  1.00  0.00    -0.342 OA
ATOM     35  C   UNL     1       8.287   3.647   1.926  1.00  0.00     0.201 C 
ATOM     36  C   UNL     1       7.007   4.462   1.596  1.00  0.00     0.279 C 
BRANCH  32  37
ATOM     37  C   UNL     1       7.502   7.434   1.740  1.00  0.00     0.191 C 
BRANCH  37  38
ATOM     38  O   UNL     1       8.752   7.961   1.421  1.00  0.00    -0.394 OA
ATOM     39  H   UNL     1       8.641   8.946   1.404  1.00  0.00     0.210 HD
ENDBRANCH  37  38
ENDBRANCH  32  37
BRANCH  33  40
ATOM     40  O   UNL     1      10.303   3.653   3.180  1.00  0.00    -0.387 OA
ATOM     41  H   UNL     1      10.966   4.389   3.276  1.00  0.00     0.211 HD
ENDBRANCH  33  40
BRANCH  35  42
ATOM     42  O   UNL     1       8.012   2.280   2.164  1.00  0.00    -0.385 OA
ATOM     43  H   UNL     1       8.220   1.783   1.331  1.00  0.00     0.211 HD
ENDBRANCH  35  42
BRANCH  36  44
ATOM     44  O   UNL     1       5.931   3.612   1.313  1.00  0.00    -0.366 OA
ATOM     45  H   UNL     1       6.289   2.864   0.769  1.00  0.00     0.213 HD
ENDBRANCH  36  44
ENDBRANCH  30  31
ENDBRANCH   4  30
TORSDOF 18
ENDMDL
MODEL 6
REMARK VINA RESULT:    -2.546      1.650      9.517
REMARK INTER + INTRA:          -6.269
REMARK INTER:                  -5.119
REMARK INTRA:                  -1.150
REMARK UNBOUND:                -1.861
REMARK SMILES OC[C@@H]1O[C@H](O[C@@H]2[C@@H](O)[C@@H](O)[C@@H](O[C@H]3[C@H](O)[C@@H](O)[C@@H](O)O[C@@H]3CO)O[C@H]2CO)[C@@H](O)[C@H](O)[C@H]1O
REMARK SMILES IDX 7 1 26 2 25 3 12 4 10 5 8 6 6 7 5 8 3 9 33 10 4 11 31 12
REMARK SMILES IDX 29 13 2 14 1 15 34 17 32 19 30 21 27 23 28 24 9 26 11 28
REMARK SMILES IDX 13 30 14 31 22 32 15 33 21 34 17 35 19 36 23 37 24 38 16 40
REMARK SMILES IDX 18 42 20 44
REMARK H PARENT 1 16 34 18 32 20 30 22 28 25 9 27 11 29 24 39 16 41 18 43
REMARK H PARENT 20 45
REMARK Flexibility Score: inf
ROOT
ATOM      1  C   UNL     1      10.562   4.929   3.529  1.00  0.00     0.184 C 
ATOM      2  C   UNL     1      10.663   6.427   3.927  1.00  0.00     0.178 C 
ATOM      3  O   UNL     1      11.646   7.004   3.098  1.00  0.00    -0.341 OA
ATOM      4  C   UNL     1      12.957   6.540   3.342  1.00  0.00     0.282 C 
ATOM      5  C   UNL     1      13.116   5.031   3.851  1.00  0.00     0.202 C 
ATOM      6  C   UNL     1      11.793   4.240   4.122  1.00  0.00     0.180 C 
ENDROOT
BRANCH   1   7
ATOM      7  O   UNL     1       9.384   4.344   4.078  1.00  0.00    -0.341 OA
BRANCH   7   8
ATOM      8  C   UNL     1       8.628   3.656   3.086  1.00  0.00     0.282 C 
ATOM      9  C   UNL     1       6.639   2.490   2.749  1.00  0.00     0.178 C 
ATOM     10  C   UNL     1       5.850   3.653   2.103  1.00  0.00     0.177 C 
ATOM     11  O   UNL     1       7.552   2.995   3.710  1.00  0.00    -0.341 OA
ATOM     12  C   UNL     1       6.643   4.978   2.177  1.00  0.00     0.179 C 
ATOM     13  C   UNL     1       8.160   4.705   2.046  1.00  0.00     0.202 C 
BRANCH   9  14
ATOM     14  C   UNL     1       5.736   1.471   3.444  1.00  0.00     0.191 C 
BRANCH  14  15
ATOM     15  O   UNL     1       6.097   0.150   3.101  1.00  0.00    -0.394 OA
ATOM     16  H   UNL     1       6.639  -0.213   3.870  1.00  0.00     0.210 HD
ENDBRANCH  14  15
ENDBRANCH   9  14
BRANCH  10  17
ATOM     17  O   UNL     1       5.481   3.346   0.777  1.00  0.00    -0.387 OA
ATOM     18  H   UNL     1       6.248   3.572   0.185  1.00  0.00     0.211 HD
ENDBRANCH  10  17
BRANCH  12  19
ATOM     19  O   UNL     1       6.362   5.618   3.403  1.00  0.00    -0.387 OA
ATOM     20  H   UNL     1       7.212   5.976   3.751  1.00  0.00     0.211 HD
ENDBRANCH  12  19
BRANCH  13  21
ATOM     21  O   UNL     1       8.449   4.256   0.757  1.00  0.00    -0.385 OA
ATOM     22  H   UNL     1       7.669   4.504   0.181  1.00  0.00     0.211 HD
ENDBRANCH  13  21
ENDBRANCH   7   8
ENDBRANCH   1   7
BRANCH   2  23
ATOM     23  C   UNL     1       9.369   7.212   3.715  1.00  0.00     0.191 C 
BRANCH  23  24
ATOM     24  O   UNL     1       9.515   8.556   4.109  1.00  0.00    -0.394 OA
ATOM     25  H   UNL     1      10.482   8.785   3.985  1.00  0.00     0.210 HD
ENDBRANCH  23  24
ENDBRANCH   2  23
BRANCH   6  26
ATOM     26  O   UNL     1      11.883   2.926   3.629  1.00  0.00    -0.387 OA
ATOM     27  H   UNL     1      12.840   2.665   3.616  1.00  0.00     0.211 HD
ENDBRANCH   6  26
BRANCH   5  28
ATOM     28  O   UNL     1      13.947   4.285   3.008  1.00  0.00    -0.385 OA
ATOM     29  H   UNL     1      14.371   3.555   3.535  1.00  0.00     0.211 HD
ENDBRANCH   5  28
BRANCH   4  30
ATOM     30  O   UNL     1      13.804   6.954   2.266  1.00  0.00    -0.341 OA
BRANCH  30  31
ATOM     31  C   UNL     1      14.782   7.987   2.524  1.00  0.00     0.184 C 
ATOM     32  C   UNL     1      14.884   8.830   1.195  1.00  0.00     0.178 C 
ATOM     33  C   UNL     1      16.207   7.455   2.887  1.00  0.00     0.180 C 
ATOM     34  O   UNL     1      16.216   9.086   0.787  1.00  0.00    -0.342 OA
ATOM     35  C   UNL     1      17.154   8.676   3.020  1.00  0.00     0.201 C 
ATOM     36  C   UNL     1      16.965   9.668   1.840  1.00  0.00     0.279 C 
BRANCH  32  37
ATOM     37  C   UNL     1      14.050  10.125   1.216  1.00  0.00     0.191 C 
BRANCH  37  38
ATOM     38  O   UNL     1      12.990  10.006   2.112  1.00  0.00    -0.394 OA
ATOM     39  H   UNL     1      12.604  10.915   2.207  1.00  0.00     0.210 HD
ENDBRANCH  37  38
ENDBRANCH  32  37
BRANCH  33  40
ATOM     40  O   UNL     1      16.213   6.798   4.125  1.00  0.00    -0.387 OA
ATOM     41  H   UNL     1      15.721   7.373   4.772  1.00  0.00     0.211 HD
ENDBRANCH  33  40
BRANCH  35  42
ATOM     42  O   UNL     1      18.487   8.215   3.130  1.00  0.00    -0.385 OA
ATOM     43  H   UNL     1      18.573   7.755   4.005  1.00  0.00     0.211 HD
ENDBRANCH  35  42
BRANCH  36  44
ATOM     44  O   UNL     1      18.202  10.108   1.352  1.00  0.00    -0.366 OA
ATOM     45  H   UNL     1      18.864   9.968   2.077  1.00  0.00     0.213 HD
ENDBRANCH  36  44
ENDBRANCH  30  31
ENDBRANCH   4  30
TORSDOF 18
ENDMDL
MODEL 7
REMARK VINA RESULT:    -2.395      1.559      2.436
REMARK INTER + INTRA:          -6.006
REMARK INTER:                  -4.692
REMARK INTRA:                  -1.314
REMARK UNBOUND:                -1.861
REMARK SMILES OC[C@@H]1O[C@H](O[C@@H]2[C@@H](O)[C@@H](O)[C@@H](O[C@H]3[C@H](O)[C@@H](O)[C@@H](O)O[C@@H]3CO)O[C@H]2CO)[C@@H](O)[C@H](O)[C@H]1O
REMARK SMILES IDX 7 1 26 2 25 3 12 4 10 5 8 6 6 7 5 8 3 9 33 10 4 11 31 12
REMARK SMILES IDX 29 13 2 14 1 15 34 17 32 19 30 21 27 23 28 24 9 26 11 28
REMARK SMILES IDX 13 30 14 31 22 32 15 33 21 34 17 35 19 36 23 37 24 38 16 40
REMARK SMILES IDX 18 42 20 44
REMARK H PARENT 1 16 34 18 32 20 30 22 28 25 9 27 11 29 24 39 16 41 18 43
REMARK H PARENT 20 45
REMARK Flexibility Score: inf
ROOT
ATOM      1  C   UNL     1      13.573   7.790   3.496  1.00  0.00     0.184 C 
ATOM      2  C   UNL     1      13.177   6.408   4.084  1.00  0.00     0.178 C 
ATOM      3  O   UNL     1      11.986   6.016   3.439  1.00  0.00    -0.341 OA
ATOM      4  C   UNL     1      10.864   6.811   3.760  1.00  0.00     0.282 C 
ATOM      5  C   UNL     1      11.131   8.353   4.092  1.00  0.00     0.202 C 
ATOM      6  C   UNL     1      12.626   8.815   4.125  1.00  0.00     0.180 C 
ENDROOT
BRANCH   1   7
ATOM      7  O   UNL     1      14.917   8.115   3.844  1.00  0.00    -0.341 OA
BRANCH   7   8
ATOM      8  C   UNL     1      15.461   9.100   2.972  1.00  0.00     0.282 C 
ATOM      9  C   UNL     1      17.458   9.838   2.026  1.00  0.00     0.178 C 
ATOM     10  C   UNL     1      17.270   9.164   0.647  1.00  0.00     0.177 C 
ATOM     11  O   UNL     1      16.867   9.044   3.042  1.00  0.00    -0.341 OA
ATOM     12  C   UNL     1      16.035   8.234   0.640  1.00  0.00     0.179 C 
ATOM     13  C   UNL     1      14.923   8.811   1.548  1.00  0.00     0.202 C 
BRANCH   9  14
ATOM     14  C   UNL     1      18.929  10.052   2.388  1.00  0.00     0.191 C 
BRANCH  14  15
ATOM     15  O   UNL     1      19.323   9.206   3.446  1.00  0.00    -0.394 OA
ATOM     16  H   UNL     1      19.604   9.804   4.209  1.00  0.00     0.210 HD
ENDBRANCH  14  15
ENDBRANCH   9  14
BRANCH  10  17
ATOM     17  O   UNL     1      17.198  10.123  -0.385  1.00  0.00    -0.387 OA
ATOM     18  H   UNL     1      17.913  10.796  -0.229  1.00  0.00     0.211 HD
ENDBRANCH  10  17
BRANCH  12  19
ATOM     19  O   UNL     1      16.420   6.952   1.089  1.00  0.00    -0.387 OA
ATOM     20  H   UNL     1      15.597   6.426   1.219  1.00  0.00     0.211 HD
ENDBRANCH  12  19
BRANCH  13  21
ATOM     21  O   UNL     1      14.415   9.983   0.986  1.00  0.00    -0.385 OA
ATOM     22  H   UNL     1      14.331  10.648   1.729  1.00  0.00     0.211 HD
ENDBRANCH  13  21
ENDBRANCH   7   8
ENDBRANCH   1   7
BRANCH   2  23
ATOM     23  C   UNL     1      14.213   5.312   3.838  1.00  0.00     0.191 C 
BRANCH  23  24
ATOM     24  O   UNL     1      13.940   4.608   2.650  1.00  0.00    -0.394 OA
ATOM     25  H   UNL     1      13.724   3.668   2.919  1.00  0.00     0.210 HD
ENDBRANCH  23  24
ENDBRANCH   2  23
BRANCH   6  26
ATOM     26  O   UNL     1      12.782  10.058   3.486  1.00  0.00    -0.387 OA
ATOM     27  H   UNL     1      12.275  10.035   2.634  1.00  0.00     0.211 HD
ENDBRANCH   6  26
BRANCH   5  28
ATOM     28  O   UNL     1      10.395   9.199   3.255  1.00  0.00    -0.385 OA
ATOM     29  H   UNL     1      10.940   9.410   2.449  1.00  0.00     0.211 HD
ENDBRANCH   5  28
BRANCH   4  30
ATOM     30  O   UNL     1       9.811   6.519   2.837  1.00  0.00    -0.341 OA
BRANCH  30  31
ATOM     31  C   UNL     1       8.707   5.705   3.293  1.00  0.00     0.184 C 
ATOM     32  C   UNL     1       8.685   4.438   2.354  1.00  0.00     0.178 C 
ATOM     33  C   UNL     1       7.311   6.404   3.220  1.00  0.00     0.180 C 
ATOM     34  O   UNL     1       7.395   4.117   1.866  1.00  0.00    -0.342 OA
ATOM     35  C   UNL     1       6.233   5.367   3.633  1.00  0.00     0.201 C 
ATOM     36  C   UNL     1       6.464   4.002   2.929  1.00  0.00     0.279 C 
BRANCH  32  37
ATOM     37  C   UNL     1       9.372   3.201   2.963  1.00  0.00     0.191 C 
BRANCH  37  38
ATOM     38  O   UNL     1      10.656   3.523   3.397  1.00  0.00    -0.394 OA
ATOM     39  H   UNL     1      11.185   3.714   2.581  1.00  0.00     0.210 HD
ENDBRANCH  37  38
ENDBRANCH  32  37
BRANCH  33  40
ATOM     40  O   UNL     1       7.219   7.470   4.125  1.00  0.00    -0.387 OA
ATOM     41  H   UNL     1       7.511   7.134   5.015  1.00  0.00     0.211 HD
ENDBRANCH  33  40
BRANCH  35  42
ATOM     42  O   UNL     1       4.952   5.904   3.366  1.00  0.00    -0.385 OA
ATOM     43  H   UNL     1       4.469   5.969   4.230  1.00  0.00     0.211 HD
ENDBRANCH  35  42
BRANCH  36  44
ATOM     44  O   UNL     1       5.259   3.477   2.447  1.00  0.00    -0.366 OA
ATOM     45  H   UNL     1       4.554   3.733   3.095  1.00  0.00     0.213 HD
ENDBRANCH  36  44
ENDBRANCH  30  31
ENDBRANCH   4  30
TORSDOF 18
ENDMDL
