MODEL 1
REMARK VINA RESULT:   131.719      0.000      0.000
REMARK INTER + INTRA:         143.783
REMARK INTER:                 143.270
REMARK INTRA:                   0.513
REMARK UNBOUND:                 0.513
REMARK SMILES C=C(C)[C@H]1CC[C@]2(C)CC[C@@]3(C)[C@H](CC[C@H]4[C@@]5(C)CC[C@H](O)C(C)(C)[C@H]5CC[C@@]43C)[C@@H]12
REMARK SMILES IDX 4 1 5 2 6 3 7 4 31 5 13 6 14 7 15 8 16 9 17 10 19 11 20 12
REMARK SMILES IDX 21 13 23 14 26 15 27 16 28 17 29 18 11 19 10 20 9 21 12 22
REMARK SMILES IDX 30 23 24 24 25 25 18 26 8 27 2 28 3 29 1 30 22 31
REMARK H PARENT 22 32
REMARK Flexibility Score: inf
ROOT
ATOM      1  C   UNL     1      -1.138  15.421   6.070  1.00  0.00     0.018 C 
ATOM      2  C   UNL     1      -2.529  15.909   5.609  1.00  0.00     0.009 C 
ATOM      3  C   UNL     1      -3.484  14.708   5.751  1.00  0.00     0.008 C 
ATOM      4  C   UNL     1      -2.593  13.460   5.590  1.00  0.00    -0.029 C 
ATOM      5  C   UNL     1      -1.338  13.909   6.357  1.00  0.00     0.006 C 
ATOM      6  C   UNL     1      -0.170  12.869   6.394  1.00  0.00    -0.000 C 
ATOM      7  C   UNL     1       0.954  13.449   7.293  1.00  0.00     0.005 C 
ATOM      8  C   UNL     1       2.049  12.486   7.774  1.00  0.00     0.005 C 
ATOM      9  C   UNL     1       1.723  10.977   7.655  1.00  0.00     0.002 C 
ATOM     10  C   UNL     1       2.855  10.004   8.309  1.00  0.00    -0.026 C 
ATOM     11  C   UNL     1       3.649  10.703   9.455  1.00  0.00     0.010 C 
ATOM     12  C   UNL     1       4.801   9.880  10.071  1.00  0.00     0.033 C 
ATOM     13  C   UNL     1       4.594   8.348  10.110  1.00  0.00     0.120 C 
ATOM     14  C   UNL     1       3.096   7.937  10.083  1.00  0.00    -0.006 C 
ATOM     15  C   UNL     1       2.324   8.580   8.834  1.00  0.00     0.003 C 
ATOM     16  C   UNL     1       0.795   8.483   9.051  1.00  0.00     0.005 C 
ATOM     17  C   UNL     1       0.007   9.169   7.957  1.00  0.00     0.008 C 
ATOM     18  C   UNL     1       0.208  10.711   7.954  1.00  0.00    -0.024 C 
ATOM     19  C   UNL     1      -0.708  11.404   6.802  1.00  0.00    -0.024 C 
ATOM     20  C   UNL     1      -2.223  11.463   7.255  1.00  0.00     0.008 C 
ATOM     21  C   UNL     1      -3.186  12.173   6.262  1.00  0.00     0.007 C 
ATOM     22  C   UNL     1      -0.705  10.513   5.509  1.00  0.00     0.012 C 
ATOM     23  C   UNL     1      -0.159  11.268   9.369  1.00  0.00     0.012 C 
ATOM     24  C   UNL     1       3.028   6.386   9.991  1.00  0.00     0.014 C 
ATOM     25  C   UNL     1       2.475   8.316  11.465  1.00  0.00     0.014 C 
ATOM     26  C   UNL     1       3.874   9.770   7.141  1.00  0.00     0.012 C 
ATOM     27  C   UNL     1      -2.369  13.236   4.059  1.00  0.00     0.011 C 
ENDROOT
BRANCH   1  28
ATOM     28  C   UNL     1       0.009  15.843   5.141  1.00  0.00    -0.077 C 
ATOM     29  C   UNL     1      -0.219  16.534   3.817  1.00  0.00     0.039 C 
ATOM     30  C   UNL     1       1.279  15.618   5.527  1.00  0.00     0.008 C 
ENDBRANCH   1  28
BRANCH  13  31
ATOM     31  O   UNL     1       5.299   7.716   9.071  1.00  0.00    -0.393 OA
ATOM     32  H   UNL     1       6.188   7.456   9.432  1.00  0.00     0.210 HD
ENDBRANCH  13  31
TORSDOF 2
ENDMDL
MODEL 2
REMARK VINA RESULT:   134.506      3.257      5.031
REMARK INTER + INTRA:         146.814
REMARK INTER:                 146.750
REMARK INTRA:                   0.064
REMARK UNBOUND:                 0.513
REMARK SMILES C=C(C)[C@H]1CC[C@]2(C)CC[C@@]3(C)[C@H](CC[C@H]4[C@@]5(C)CC[C@H](O)C(C)(C)[C@H]5CC[C@@]43C)[C@@H]12
REMARK SMILES IDX 4 1 5 2 6 3 7 4 31 5 13 6 14 7 15 8 16 9 17 10 19 11 20 12
REMARK SMILES IDX 21 13 23 14 26 15 27 16 28 17 29 18 11 19 10 20 9 21 12 22
REMARK SMILES IDX 30 23 24 24 25 25 18 26 8 27 2 28 3 29 1 30 22 31
REMARK H PARENT 22 32
REMARK Flexibility Score: inf
ROOT
ATOM      1  C   UNL     1      -3.334  12.436  13.071  1.00  0.00     0.018 C 
ATOM      2  C   UNL     1      -4.793  12.055  13.405  1.00  0.00     0.009 C 
ATOM      3  C   UNL     1      -5.125  10.810  12.559  1.00  0.00     0.008 C 
ATOM      4  C   UNL     1      -4.221  10.912  11.315  1.00  0.00    -0.029 C 
ATOM      5  C   UNL     1      -2.925  11.443  11.951  1.00  0.00     0.006 C 
ATOM      6  C   UNL     1      -1.745  11.693  10.954  1.00  0.00    -0.000 C 
ATOM      7  C   UNL     1      -0.505  12.119  11.783  1.00  0.00     0.005 C 
ATOM      8  C   UNL     1       0.863  12.083  11.088  1.00  0.00     0.005 C 
ATOM      9  C   UNL     1       0.935  11.261   9.777  1.00  0.00     0.002 C 
ATOM     10  C   UNL     1       2.436  11.137   9.157  1.00  0.00    -0.026 C 
ATOM     11  C   UNL     1       3.541  11.252  10.250  1.00  0.00     0.010 C 
ATOM     12  C   UNL     1       4.998  11.232   9.736  1.00  0.00     0.033 C 
ATOM     13  C   UNL     1       5.259  10.379   8.473  1.00  0.00     0.120 C 
ATOM     14  C   UNL     1       4.209   9.251   8.275  1.00  0.00    -0.006 C 
ATOM     15  C   UNL     1       2.712   9.825   8.270  1.00  0.00     0.003 C 
ATOM     16  C   UNL     1       1.703   8.669   8.467  1.00  0.00     0.005 C 
ATOM     17  C   UNL     1       0.275   9.155   8.580  1.00  0.00     0.008 C 
ATOM     18  C   UNL     1       0.028   9.986   9.870  1.00  0.00    -0.024 C 
ATOM     19  C   UNL     1      -1.534  10.431   9.974  1.00  0.00    -0.024 C 
ATOM     20  C   UNL     1      -2.432   9.208  10.422  1.00  0.00     0.008 C 
ATOM     21  C   UNL     1      -3.940   9.531  10.627  1.00  0.00     0.007 C 
ATOM     22  C   UNL     1      -2.072  10.829   8.553  1.00  0.00     0.012 C 
ATOM     23  C   UNL     1       0.447   9.127  11.109  1.00  0.00     0.012 C 
ATOM     24  C   UNL     1       4.503   8.560   6.913  1.00  0.00     0.014 C 
ATOM     25  C   UNL     1       4.461   8.170   9.373  1.00  0.00     0.014 C 
ATOM     26  C   UNL     1       2.577  12.407   8.248  1.00  0.00     0.012 C 
ATOM     27  C   UNL     1      -4.903  11.902  10.317  1.00  0.00     0.011 C 
ENDROOT
BRANCH   1  28
ATOM     28  C   UNL     1      -3.123  13.937  12.829  1.00  0.00    -0.077 C 
ATOM     29  C   UNL     1      -2.870  14.520  11.459  1.00  0.00     0.039 C 
ATOM     30  C   UNL     1      -3.193  14.783  13.875  1.00  0.00     0.008 C 
ENDBRANCH   1  28
BRANCH  13  31
ATOM     31  O   UNL     1       5.340  11.187   7.325  1.00  0.00    -0.393 OA
ATOM     32  H   UNL     1       4.894  12.049   7.539  1.00  0.00     0.210 HD
ENDBRANCH  13  31
TORSDOF 2
ENDMDL
