MODEL 1
REMARK VINA RESULT:    -4.925      0.000      0.000
REMARK INTER + INTRA:          -5.069
REMARK INTER:                  -5.069
REMARK INTRA:                   0.000
REMARK UNBOUND:                 0.000
REMARK SMILES Cc1ccccc1O
REMARK SMILES IDX 1 1 2 2 3 3 4 4 5 5 6 6 7 7 8 8
REMARK H PARENT 8 9
REMARK Flexibility Score: inf
ROOT
ATOM      1  C   UNL     1       7.864   7.094  18.219  1.00  0.00     0.048 C 
ATOM      2  C   UNL     1       8.058   5.604  18.286  1.00  0.00    -0.009 A 
ATOM      3  C   UNL     1       9.280   5.043  17.875  1.00  0.00     0.007 A 
ATOM      4  C   UNL     1       9.479   3.661  17.930  1.00  0.00     0.001 A 
ATOM      5  C   UNL     1       8.462   2.825  18.394  1.00  0.00     0.004 A 
ATOM      6  C   UNL     1       7.244   3.370  18.805  1.00  0.00     0.046 A 
ATOM      7  C   UNL     1       7.030   4.753  18.756  1.00  0.00     0.118 A 
ENDROOT
BRANCH   7   8
ATOM      8  O   UNL     1       5.794   5.247  19.178  1.00  0.00    -0.508 OA
ATOM      9  H   UNL     1       5.107   5.628  18.541  1.00  0.00     0.293 HD
ENDBRANCH   7   8
TORSDOF 1
ENDMDL
MODEL 2
REMARK VINA RESULT:    -4.571      1.796      2.469
REMARK INTER + INTRA:          -4.704
REMARK INTER:                  -4.704
REMARK INTRA:                   0.000
REMARK UNBOUND:                 0.000
REMARK SMILES Cc1ccccc1O
REMARK SMILES IDX 1 1 2 2 3 3 4 4 5 5 6 6 7 7 8 8
REMARK H PARENT 8 9
REMARK Flexibility Score: inf
ROOT
ATOM      1  C   UNL     1       7.694   6.434  18.248  1.00  0.00     0.048 C 
ATOM      2  C   UNL     1       7.881   4.941  18.257  1.00  0.00    -0.009 A 
ATOM      3  C   UNL     1       6.769   4.103  18.444  1.00  0.00     0.007 A 
ATOM      4  C   UNL     1       6.923   2.714  18.456  1.00  0.00     0.001 A 
ATOM      5  C   UNL     1       8.186   2.148  18.282  1.00  0.00     0.004 A 
ATOM      6  C   UNL     1       9.300   2.970  18.096  1.00  0.00     0.046 A 
ATOM      7  C   UNL     1       9.161   4.363  18.080  1.00  0.00     0.118 A 
ENDROOT
BRANCH   7   8
ATOM      8  O   UNL     1      10.305   5.140  17.890  1.00  0.00    -0.508 OA
ATOM      9  H   UNL     1      10.629   5.818  18.568  1.00  0.00     0.293 HD
ENDBRANCH   7   8
TORSDOF 1
ENDMDL
MODEL 3
REMARK VINA RESULT:    -4.310      1.321      2.734
REMARK INTER + INTRA:          -4.436
REMARK INTER:                  -4.436
REMARK INTRA:                   0.000
REMARK UNBOUND:                 0.000
REMARK SMILES Cc1ccccc1O
REMARK SMILES IDX 1 1 2 2 3 3 4 4 5 5 6 6 7 7 8 8
REMARK H PARENT 8 9
REMARK Flexibility Score: inf
ROOT
ATOM      1  C   UNL     1       9.520   2.875  17.913  1.00  0.00     0.048 C 
ATOM      2  C   UNL     1       8.544   3.991  18.166  1.00  0.00    -0.009 A 
ATOM      3  C   UNL     1       8.914   5.316  17.875  1.00  0.00     0.007 A 
ATOM      4  C   UNL     1       8.020   6.366  18.104  1.00  0.00     0.001 A 
ATOM      5  C   UNL     1       6.752   6.106  18.625  1.00  0.00     0.004 A 
ATOM      6  C   UNL     1       6.374   4.795  18.918  1.00  0.00     0.046 A 
ATOM      7  C   UNL     1       7.257   3.732  18.694  1.00  0.00     0.118 A 
ENDROOT
BRANCH   7   8
ATOM      8  O   UNL     1       6.830   2.439  19.004  1.00  0.00    -0.508 OA
ATOM      9  H   UNL     1       6.056   1.988  18.535  1.00  0.00     0.293 HD
ENDBRANCH   7   8
TORSDOF 1
ENDMDL
MODEL 4
REMARK VINA RESULT:    -4.233      0.777      2.543
REMARK INTER + INTRA:          -4.357
REMARK INTER:                  -4.357
REMARK INTRA:                   0.000
REMARK UNBOUND:                 0.000
REMARK SMILES Cc1ccccc1O
REMARK SMILES IDX 1 1 2 2 3 3 4 4 5 5 6 6 7 7 8 8
REMARK H PARENT 8 9
REMARK Flexibility Score: inf
ROOT
ATOM      1  C   UNL     1       6.388   2.194  19.032  1.00  0.00     0.048 C 
ATOM      2  C   UNL     1       7.519   3.102  18.631  1.00  0.00    -0.009 A 
ATOM      3  C   UNL     1       8.753   2.548  18.250  1.00  0.00     0.007 A 
ATOM      4  C   UNL     1       9.815   3.376  17.875  1.00  0.00     0.001 A 
ATOM      5  C   UNL     1       9.657   4.762  17.877  1.00  0.00     0.004 A 
ATOM      6  C   UNL     1       8.436   5.325  18.254  1.00  0.00     0.046 A 
ATOM      7  C   UNL     1       7.363   4.508  18.631  1.00  0.00     0.118 A 
ENDROOT
BRANCH   7   8
ATOM      8  O   UNL     1       6.163   5.121  18.999  1.00  0.00    -0.508 OA
ATOM      9  H   UNL     1       5.904   6.051  18.697  1.00  0.00     0.293 HD
ENDBRANCH   7   8
TORSDOF 1
ENDMDL
MODEL 5
REMARK VINA RESULT:    -4.213      1.983      3.584
REMARK INTER + INTRA:          -4.336
REMARK INTER:                  -4.336
REMARK INTRA:                   0.000
REMARK UNBOUND:                 0.000
REMARK SMILES Cc1ccccc1O
REMARK SMILES IDX 1 1 2 2 3 3 4 4 5 5 6 6 7 7 8 8
REMARK H PARENT 8 9
REMARK Flexibility Score: inf
ROOT
ATOM      1  C   UNL     1       7.536   1.763  18.255  1.00  0.00     0.048 C 
ATOM      2  C   UNL     1       7.814   3.240  18.197  1.00  0.00    -0.009 A 
ATOM      3  C   UNL     1       6.752   4.152  18.328  1.00  0.00     0.007 A 
ATOM      4  C   UNL     1       6.990   5.528  18.277  1.00  0.00     0.001 A 
ATOM      5  C   UNL     1       8.288   6.008  18.094  1.00  0.00     0.004 A 
ATOM      6  C   UNL     1       9.351   5.112  17.962  1.00  0.00     0.046 A 
ATOM      7  C   UNL     1       9.128   3.731  18.012  1.00  0.00     0.118 A 
ENDROOT
BRANCH   7   8
ATOM      8  O   UNL     1      10.225   2.878  17.875  1.00  0.00    -0.508 OA
ATOM      9  H   UNL     1      11.170   3.214  17.741  1.00  0.00     0.293 HD
ENDBRANCH   7   8
TORSDOF 1
ENDMDL
MODEL 6
REMARK VINA RESULT:    -3.887      1.361      2.087
REMARK INTER + INTRA:          -4.001
REMARK INTER:                  -4.001
REMARK INTRA:                   0.000
REMARK UNBOUND:                 0.000
REMARK SMILES Cc1ccccc1O
REMARK SMILES IDX 1 1 2 2 3 3 4 4 5 5 6 6 7 7 8 8
REMARK H PARENT 8 9
REMARK Flexibility Score: inf
ROOT
ATOM      1  C   UNL     1      10.209   4.819  17.875  1.00  0.00     0.048 C 
ATOM      2  C   UNL     1       8.998   3.968  18.147  1.00  0.00    -0.009 A 
ATOM      3  C   UNL     1       9.095   2.570  18.044  1.00  0.00     0.007 A 
ATOM      4  C   UNL     1       7.981   1.763  18.292  1.00  0.00     0.001 A 
ATOM      5  C   UNL     1       6.762   2.342  18.644  1.00  0.00     0.004 A 
ATOM      6  C   UNL     1       6.652   3.729  18.750  1.00  0.00     0.046 A 
ATOM      7  C   UNL     1       7.760   4.551  18.505  1.00  0.00     0.118 A 
ENDROOT
BRANCH   7   8
ATOM      8  O   UNL     1       7.598   5.933  18.624  1.00  0.00    -0.508 OA
ATOM      9  H   UNL     1       6.816   6.356  19.107  1.00  0.00     0.293 HD
ENDBRANCH   7   8
TORSDOF 1
ENDMDL
MODEL 7
REMARK VINA RESULT:    -3.794      1.993      3.479
REMARK INTER + INTRA:          -3.905
REMARK INTER:                  -3.905
REMARK INTRA:                   0.000
REMARK UNBOUND:                 0.000
REMARK SMILES Cc1ccccc1O
REMARK SMILES IDX 1 1 2 2 3 3 4 4 5 5 6 6 7 7 8 8
REMARK H PARENT 8 9
REMARK Flexibility Score: inf
ROOT
ATOM      1  C   UNL     1       6.092   1.852  19.013  1.00  0.00     0.048 C 
ATOM      2  C   UNL     1       7.120   2.878  18.617  1.00  0.00    -0.009 A 
ATOM      3  C   UNL     1       6.778   4.241  18.624  1.00  0.00     0.007 A 
ATOM      4  C   UNL     1       7.720   5.208  18.260  1.00  0.00     0.001 A 
ATOM      5  C   UNL     1       9.008   4.825  17.886  1.00  0.00     0.004 A 
ATOM      6  C   UNL     1       9.359   3.474  17.875  1.00  0.00     0.046 A 
ATOM      7  C   UNL     1       8.428   2.494  18.238  1.00  0.00     0.118 A 
ENDROOT
BRANCH   7   8
ATOM      8  O   UNL     1       8.829   1.157  18.211  1.00  0.00    -0.508 OA
ATOM      9  H   UNL     1       8.887   0.617  17.358  1.00  0.00     0.293 HD
ENDBRANCH   7   8
TORSDOF 1
ENDMDL
MODEL 8
REMARK VINA RESULT:    -2.722      1.475      2.361
REMARK INTER + INTRA:          -2.802
REMARK INTER:                  -2.802
REMARK INTRA:                   0.000
REMARK UNBOUND:                 0.000
REMARK SMILES Cc1ccccc1O
REMARK SMILES IDX 1 1 2 2 3 3 4 4 5 5 6 6 7 7 8 8
REMARK H PARENT 8 9
REMARK Flexibility Score: inf
ROOT
ATOM      1  C   UNL     1       5.988   5.636  18.638  1.00  0.00     0.048 C 
ATOM      2  C   UNL     1       7.414   5.233  18.372  1.00  0.00    -0.009 A 
ATOM      3  C   UNL     1       7.729   3.876  18.191  1.00  0.00     0.007 A 
ATOM      4  C   UNL     1       9.048   3.483  17.943  1.00  0.00     0.001 A 
ATOM      5  C   UNL     1      10.062   4.438  17.875  1.00  0.00     0.004 A 
ATOM      6  C   UNL     1       9.761   5.790  18.054  1.00  0.00     0.046 A 
ATOM      7  C   UNL     1       8.445   6.199  18.302  1.00  0.00     0.118 A 
ENDROOT
BRANCH   7   8
ATOM      8  O   UNL     1       8.197   7.562  18.473  1.00  0.00    -0.508 OA
ATOM      9  H   UNL     1       8.285   8.236  17.724  1.00  0.00     0.293 HD
ENDBRANCH   7   8
TORSDOF 1
ENDMDL
MODEL 9
REMARK VINA RESULT:    -2.501     20.358     20.625
REMARK INTER + INTRA:          -2.574
REMARK INTER:                  -2.574
REMARK INTRA:                   0.000
REMARK UNBOUND:                 0.000
REMARK SMILES Cc1ccccc1O
REMARK SMILES IDX 1 1 2 2 3 3 4 4 5 5 6 6 7 7 8 8
REMARK H PARENT 8 9
REMARK Flexibility Score: inf
ROOT
ATOM      1  C   UNL     1      17.754   2.484  38.125  1.00  0.00     0.048 C 
ATOM      2  C   UNL     1      16.408   2.993  37.687  1.00  0.00    -0.009 A 
ATOM      3  C   UNL     1      15.967   4.254  38.122  1.00  0.00     0.007 A 
ATOM      4  C   UNL     1      14.719   4.744  37.725  1.00  0.00     0.001 A 
ATOM      5  C   UNL     1      13.900   3.980  36.893  1.00  0.00     0.004 A 
ATOM      6  C   UNL     1      14.327   2.725  36.454  1.00  0.00     0.046 A 
ATOM      7  C   UNL     1      15.575   2.222  36.842  1.00  0.00     0.118 A 
ENDROOT
BRANCH   7   8
ATOM      8  O   UNL     1      15.955   0.962  36.375  1.00  0.00    -0.508 OA
ATOM      9  H   UNL     1      15.308   0.189  36.288  1.00  0.00     0.293 HD
ENDBRANCH   7   8
TORSDOF 1
ENDMDL
