MODEL 1
REMARK VINA RESULT:    -8.747      0.000      0.000
REMARK INTER + INTRA:         -11.547
REMARK INTER:                 -11.048
REMARK INTRA:                  -0.499
REMARK UNBOUND:                -0.499
REMARK SMILES CC(C)[C@H](C)C=C[C@H](C)[C@H]1CC[C@@H]2C3=CC=C4C[C@@H](O)CC[C@@]4(C)[C@@H]3CC[C@@]21C
REMARK SMILES IDX 8 1 9 2 7 3 6 4 4 5 5 6 2 7 1 8 3 9 10 10 11 11 28 12 12 13
REMARK SMILES IDX 13 14 27 15 29 16 14 17 26 18 25 19 15 20 23 21 16 22 17 23
REMARK SMILES IDX 22 24 24 25 18 26 21 27 19 28 20 29
REMARK H PARENT 20 30
REMARK Flexibility Score: inf
ROOT
ATOM      1  C   UNL     1      -4.871  26.553  48.204  1.00  0.00     0.012 C 
ATOM      2  C   UNL     1      -3.842  27.260  47.299  1.00  0.00     0.012 C 
ENDROOT
BRANCH   1   3
ATOM      3  C   UNL     1      -6.067  27.476  48.351  1.00  0.00    -0.028 C 
ATOM      4  C   UNL     1      -6.794  27.899  47.300  1.00  0.00    -0.028 C 
BRANCH   4   5
ATOM      5  C   UNL     1      -7.966  28.853  47.422  1.00  0.00     0.011 C 
ATOM      6  C   UNL     1      -7.637  30.250  46.870  1.00  0.00     0.012 C 
BRANCH   5   7
ATOM      7  C   UNL     1      -9.305  28.273  46.873  1.00  0.00    -0.011 C 
ATOM      8  C   UNL     1     -10.156  29.372  46.214  1.00  0.00     0.008 C 
ATOM      9  C   UNL     1     -10.144  27.520  47.917  1.00  0.00     0.008 C 
ENDBRANCH   5   7
ENDBRANCH   4   5
ENDBRANCH   1   3
BRANCH   1  10
ATOM     10  C   UNL     1      -5.286  25.118  47.701  1.00  0.00     0.002 C 
ATOM     11  C   UNL     1      -4.873  24.866  46.240  1.00  0.00     0.005 C 
ATOM     12  C   UNL     1      -4.613  23.908  48.446  1.00  0.00    -0.023 C 
ATOM     13  C   UNL     1      -3.472  24.267  46.278  1.00  0.00     0.009 C 
ATOM     14  C   UNL     1      -3.246  23.775  47.714  1.00  0.00     0.021 C 
ATOM     15  C   UNL     1      -5.527  22.622  48.309  1.00  0.00     0.008 C 
ATOM     16  C   UNL     1      -4.361  24.139  49.958  1.00  0.00     0.012 C 
ATOM     17  C   UNL     1      -2.644  22.385  47.757  1.00  0.00    -0.063 C 
ATOM     18  C   UNL     1      -4.966  21.518  47.409  1.00  0.00     0.009 C 
ATOM     19  C   UNL     1      -3.529  21.159  47.829  1.00  0.00     0.025 C 
ATOM     20  C   UNL     1      -1.314  22.233  47.770  1.00  0.00    -0.000 C 
ATOM     21  C   UNL     1      -2.907  19.938  47.051  1.00  0.00    -0.005 C 
ATOM     22  C   UNL     1      -0.704  20.893  47.733  1.00  0.00    -0.000 C 
ATOM     23  C   UNL     1      -1.432  19.797  47.453  1.00  0.00    -0.061 C 
ATOM     24  C   UNL     1      -3.691  18.645  47.429  1.00  0.00     0.014 C 
ATOM     25  C   UNL     1      -2.964  20.154  45.516  1.00  0.00     0.017 C 
ATOM     26  C   UNL     1      -0.704  18.491  47.222  1.00  0.00     0.063 C 
ATOM     27  C   UNL     1      -2.974  17.351  47.024  1.00  0.00     0.033 C 
ATOM     28  C   UNL     1      -1.550  17.267  47.598  1.00  0.00     0.118 C 
BRANCH  28  29
ATOM     29  O   UNL     1      -1.562  17.059  48.991  1.00  0.00    -0.393 OA
ATOM     30  H   UNL     1      -0.806  16.457  49.222  1.00  0.00     0.210 HD
ENDBRANCH  28  29
ENDBRANCH   1  10
TORSDOF 5
ENDMDL
MODEL 2
REMARK VINA RESULT:    -8.354      2.498      4.468
REMARK INTER + INTRA:         -11.051
REMARK INTER:                 -10.108
REMARK INTRA:                  -0.943
REMARK UNBOUND:                -0.499
REMARK SMILES CC(C)[C@H](C)C=C[C@H](C)[C@H]1CC[C@@H]2C3=CC=C4C[C@@H](O)CC[C@@]4(C)[C@@H]3CC[C@@]21C
REMARK SMILES IDX 8 1 9 2 7 3 6 4 4 5 5 6 2 7 1 8 3 9 10 10 11 11 28 12 12 13
REMARK SMILES IDX 13 14 27 15 29 16 14 17 26 18 25 19 15 20 23 21 16 22 17 23
REMARK SMILES IDX 22 24 24 25 18 26 21 27 19 28 20 29
REMARK H PARENT 20 30
REMARK Flexibility Score: inf
ROOT
ATOM      1  C   UNL     1      -4.082  25.824  48.767  1.00  0.00     0.012 C 
ATOM      2  C   UNL     1      -5.575  26.110  48.508  1.00  0.00     0.012 C 
ENDROOT
BRANCH   1   3
ATOM      3  C   UNL     1      -3.543  26.940  49.643  1.00  0.00    -0.028 C 
ATOM      4  C   UNL     1      -2.926  26.710  50.817  1.00  0.00    -0.028 C 
BRANCH   4   5
ATOM      5  C   UNL     1      -2.418  27.813  51.725  1.00  0.00     0.011 C 
ATOM      6  C   UNL     1      -2.925  29.199  51.295  1.00  0.00     0.012 C 
BRANCH   5   7
ATOM      7  C   UNL     1      -2.632  27.522  53.242  1.00  0.00    -0.011 C 
ATOM      8  C   UNL     1      -1.291  27.270  53.952  1.00  0.00     0.008 C 
ATOM      9  C   UNL     1      -3.601  26.365  53.534  1.00  0.00     0.008 C 
ENDBRANCH   5   7
ENDBRANCH   4   5
ENDBRANCH   1   3
BRANCH   1  10
ATOM     10  C   UNL     1      -3.801  24.398  49.380  1.00  0.00     0.002 C 
ATOM     11  C   UNL     1      -5.067  23.525  49.439  1.00  0.00     0.005 C 
ATOM     12  C   UNL     1      -2.810  23.486  48.570  1.00  0.00    -0.023 C 
ATOM     13  C   UNL     1      -5.135  22.763  48.121  1.00  0.00     0.009 C 
ATOM     14  C   UNL     1      -3.737  22.847  47.495  1.00  0.00     0.021 C 
ATOM     15  C   UNL     1      -2.148  22.424  49.540  1.00  0.00     0.008 C 
ATOM     16  C   UNL     1      -1.660  24.248  47.863  1.00  0.00     0.012 C 
ATOM     17  C   UNL     1      -3.260  21.507  46.973  1.00  0.00    -0.063 C 
ATOM     18  C   UNL     1      -2.602  20.977  49.328  1.00  0.00     0.009 C 
ATOM     19  C   UNL     1      -2.450  20.576  47.850  1.00  0.00     0.025 C 
ATOM     20  C   UNL     1      -3.522  21.150  45.709  1.00  0.00    -0.000 C 
ATOM     21  C   UNL     1      -2.762  19.062  47.548  1.00  0.00    -0.005 C 
ATOM     22  C   UNL     1      -3.139  19.822  45.201  1.00  0.00    -0.000 C 
ATOM     23  C   UNL     1      -2.729  18.844  46.029  1.00  0.00    -0.061 C 
ATOM     24  C   UNL     1      -1.684  18.174  48.241  1.00  0.00     0.014 C 
ATOM     25  C   UNL     1      -4.173  18.661  48.056  1.00  0.00     0.017 C 
ATOM     26  C   UNL     1      -2.558  17.450  45.466  1.00  0.00     0.063 C 
ATOM     27  C   UNL     1      -1.666  16.725  47.739  1.00  0.00     0.033 C 
ATOM     28  C   UNL     1      -1.494  16.636  46.214  1.00  0.00     0.118 C 
BRANCH  28  29
ATOM     29  O   UNL     1      -0.194  16.998  45.814  1.00  0.00    -0.393 OA
ATOM     30  H   UNL     1       0.439  16.729  46.530  1.00  0.00     0.210 HD
ENDBRANCH  28  29
ENDBRANCH   1  10
TORSDOF 5
ENDMDL
MODEL 3
REMARK VINA RESULT:    -8.187      3.321      9.464
REMARK INTER + INTRA:         -10.839
REMARK INTER:                 -10.378
REMARK INTRA:                  -0.462
REMARK UNBOUND:                -0.499
REMARK SMILES CC(C)[C@H](C)C=C[C@H](C)[C@H]1CC[C@@H]2C3=CC=C4C[C@@H](O)CC[C@@]4(C)[C@@H]3CC[C@@]21C
REMARK SMILES IDX 8 1 9 2 7 3 6 4 4 5 5 6 2 7 1 8 3 9 10 10 11 11 28 12 12 13
REMARK SMILES IDX 13 14 27 15 29 16 14 17 26 18 25 19 15 20 23 21 16 22 17 23
REMARK SMILES IDX 22 24 24 25 18 26 21 27 19 28 20 29
REMARK H PARENT 20 30
REMARK Flexibility Score: inf
ROOT
ATOM      1  C   UNL     1      -4.464  21.876  48.620  1.00  0.00     0.012 C 
ATOM      2  C   UNL     1      -5.364  21.517  47.420  1.00  0.00     0.012 C 
ENDROOT
BRANCH   1   3
ATOM      3  C   UNL     1      -3.567  20.684  48.897  1.00  0.00    -0.028 C 
ATOM      4  C   UNL     1      -3.459  19.642  48.051  1.00  0.00    -0.028 C 
BRANCH   4   5
ATOM      5  C   UNL     1      -2.600  18.423  48.329  1.00  0.00     0.011 C 
ATOM      6  C   UNL     1      -2.593  18.046  49.819  1.00  0.00     0.012 C 
BRANCH   5   7
ATOM      7  C   UNL     1      -2.905  17.217  47.390  1.00  0.00    -0.011 C 
ATOM      8  C   UNL     1      -1.751  16.199  47.404  1.00  0.00     0.008 C 
ATOM      9  C   UNL     1      -3.234  17.610  45.941  1.00  0.00     0.008 C 
ENDBRANCH   5   7
ENDBRANCH   4   5
ENDBRANCH   1   3
BRANCH   1  10
ATOM     10  C   UNL     1      -3.641  23.207  48.426  1.00  0.00     0.002 C 
ATOM     11  C   UNL     1      -3.623  23.679  46.961  1.00  0.00     0.005 C 
ATOM     12  C   UNL     1      -4.197  24.473  49.173  1.00  0.00    -0.023 C 
ATOM     13  C   UNL     1      -4.830  24.593  46.782  1.00  0.00     0.009 C 
ATOM     14  C   UNL     1      -5.285  24.997  48.191  1.00  0.00     0.021 C 
ATOM     15  C   UNL     1      -3.023  25.507  49.419  1.00  0.00     0.008 C 
ATOM     16  C   UNL     1      -4.851  24.179  50.547  1.00  0.00     0.012 C 
ATOM     17  C   UNL     1      -5.566  26.482  48.300  1.00  0.00    -0.063 C 
ATOM     18  C   UNL     1      -3.099  26.789  48.585  1.00  0.00     0.009 C 
ATOM     19  C   UNL     1      -4.482  27.446  48.733  1.00  0.00     0.025 C 
ATOM     20  C   UNL     1      -6.795  26.951  48.048  1.00  0.00    -0.000 C 
ATOM     21  C   UNL     1      -4.621  28.845  48.021  1.00  0.00    -0.005 C 
ATOM     22  C   UNL     1      -7.075  28.396  48.071  1.00  0.00    -0.000 C 
ATOM     23  C   UNL     1      -6.083  29.304  48.112  1.00  0.00    -0.061 C 
ATOM     24  C   UNL     1      -3.691  29.872  48.738  1.00  0.00     0.014 C 
ATOM     25  C   UNL     1      -4.242  28.758  46.519  1.00  0.00     0.017 C 
ATOM     26  C   UNL     1      -6.434  30.762  47.918  1.00  0.00     0.063 C 
ATOM     27  C   UNL     1      -3.994  31.331  48.376  1.00  0.00     0.033 C 
ATOM     28  C   UNL     1      -5.462  31.706  48.637  1.00  0.00     0.118 C 
BRANCH  28  29
ATOM     29  O   UNL     1      -5.743  31.783  50.014  1.00  0.00    -0.393 OA
ATOM     30  H   UNL     1      -4.885  31.739  50.511  1.00  0.00     0.210 HD
ENDBRANCH  28  29
ENDBRANCH   1  10
TORSDOF 5
ENDMDL
MODEL 4
REMARK VINA RESULT:    -7.985      2.799      8.874
REMARK INTER + INTRA:         -10.584
REMARK INTER:                  -9.556
REMARK INTRA:                  -1.028
REMARK UNBOUND:                -0.499
REMARK SMILES CC(C)[C@H](C)C=C[C@H](C)[C@H]1CC[C@@H]2C3=CC=C4C[C@@H](O)CC[C@@]4(C)[C@@H]3CC[C@@]21C
REMARK SMILES IDX 8 1 9 2 7 3 6 4 4 5 5 6 2 7 1 8 3 9 10 10 11 11 28 12 12 13
REMARK SMILES IDX 13 14 27 15 29 16 14 17 26 18 25 19 15 20 23 21 16 22 17 23
REMARK SMILES IDX 22 24 24 25 18 26 21 27 19 28 20 29
REMARK H PARENT 20 30
REMARK Flexibility Score: inf
ROOT
ATOM      1  C   UNL     1      -0.565  20.703  47.260  1.00  0.00     0.012 C 
ATOM      2  C   UNL     1       0.864  21.051  47.724  1.00  0.00     0.012 C 
ENDROOT
BRANCH   1   3
ATOM      3  C   UNL     1      -0.622  19.205  47.026  1.00  0.00    -0.028 C 
ATOM      4  C   UNL     1      -1.683  18.453  47.372  1.00  0.00    -0.028 C 
BRANCH   4   5
ATOM      5  C   UNL     1      -1.742  16.949  47.184  1.00  0.00     0.011 C 
ATOM      6  C   UNL     1      -2.481  16.249  48.335  1.00  0.00     0.012 C 
BRANCH   5   7
ATOM      7  C   UNL     1      -2.244  16.515  45.774  1.00  0.00    -0.011 C 
ATOM      8  C   UNL     1      -1.063  16.241  44.826  1.00  0.00     0.008 C 
ATOM      9  C   UNL     1      -3.220  17.503  45.116  1.00  0.00     0.008 C 
ENDBRANCH   5   7
ENDBRANCH   4   5
ENDBRANCH   1   3
BRANCH   1  10
ATOM     10  C   UNL     1      -1.695  21.194  48.244  1.00  0.00     0.002 C 
ATOM     11  C   UNL     1      -1.163  22.170  49.308  1.00  0.00     0.005 C 
ATOM     12  C   UNL     1      -2.861  22.023  47.591  1.00  0.00    -0.023 C 
ATOM     13  C   UNL     1      -1.294  23.571  48.722  1.00  0.00     0.009 C 
ATOM     14  C   UNL     1      -2.270  23.461  47.543  1.00  0.00     0.021 C 
ATOM     15  C   UNL     1      -4.163  21.908  48.486  1.00  0.00     0.008 C 
ATOM     16  C   UNL     1      -3.244  21.581  46.156  1.00  0.00     0.012 C 
ATOM     17  C   UNL     1      -3.308  24.566  47.553  1.00  0.00    -0.063 C 
ATOM     18  C   UNL     1      -4.560  23.189  49.224  1.00  0.00     0.009 C 
ATOM     19  C   UNL     1      -4.640  24.373  48.244  1.00  0.00     0.025 C 
ATOM     20  C   UNL     1      -3.066  25.717  46.911  1.00  0.00    -0.000 C 
ATOM     21  C   UNL     1      -5.173  25.712  48.880  1.00  0.00    -0.005 C 
ATOM     22  C   UNL     1      -4.023  26.834  46.971  1.00  0.00    -0.000 C 
ATOM     23  C   UNL     1      -5.048  26.836  47.842  1.00  0.00    -0.061 C 
ATOM     24  C   UNL     1      -6.666  25.521  49.286  1.00  0.00     0.014 C 
ATOM     25  C   UNL     1      -4.342  26.120  50.126  1.00  0.00     0.017 C 
ATOM     26  C   UNL     1      -5.859  28.103  47.994  1.00  0.00     0.063 C 
ATOM     27  C   UNL     1      -7.395  26.837  49.583  1.00  0.00     0.033 C 
ATOM     28  C   UNL     1      -7.310  27.831  48.414  1.00  0.00     0.118 C 
BRANCH  28  29
ATOM     29  O   UNL     1      -8.092  27.416  47.319  1.00  0.00    -0.393 OA
ATOM     30  H   UNL     1      -8.988  27.835  47.400  1.00  0.00     0.210 HD
ENDBRANCH  28  29
ENDBRANCH   1  10
TORSDOF 5
ENDMDL
MODEL 5
REMARK VINA RESULT:    -7.693      2.068      4.213
REMARK INTER + INTRA:         -10.215
REMARK INTER:                  -9.762
REMARK INTRA:                  -0.453
REMARK UNBOUND:                -0.499
REMARK SMILES CC(C)[C@H](C)C=C[C@H](C)[C@H]1CC[C@@H]2C3=CC=C4C[C@@H](O)CC[C@@]4(C)[C@@H]3CC[C@@]21C
REMARK SMILES IDX 8 1 9 2 7 3 6 4 4 5 5 6 2 7 1 8 3 9 10 10 11 11 28 12 12 13
REMARK SMILES IDX 13 14 27 15 29 16 14 17 26 18 25 19 15 20 23 21 16 22 17 23
REMARK SMILES IDX 22 24 24 25 18 26 21 27 19 28 20 29
REMARK H PARENT 20 30
REMARK Flexibility Score: inf
ROOT
ATOM      1  C   UNL     1      -5.306  26.489  49.339  1.00  0.00     0.012 C 
ATOM      2  C   UNL     1      -6.646  27.094  49.805  1.00  0.00     0.012 C 
ENDROOT
BRANCH   1   3
ATOM      3  C   UNL     1      -4.471  26.210  50.575  1.00  0.00    -0.028 C 
ATOM      4  C   UNL     1      -3.352  26.899  50.867  1.00  0.00    -0.028 C 
BRANCH   4   5
ATOM      5  C   UNL     1      -2.482  26.608  52.075  1.00  0.00     0.011 C 
ATOM      6  C   UNL     1      -3.305  26.134  53.283  1.00  0.00     0.012 C 
BRANCH   5   7
ATOM      7  C   UNL     1      -1.263  25.688  51.760  1.00  0.00    -0.011 C 
ATOM      8  C   UNL     1      -0.758  25.911  50.324  1.00  0.00     0.008 C 
ATOM      9  C   UNL     1      -1.522  24.191  51.994  1.00  0.00     0.008 C 
ENDBRANCH   5   7
ENDBRANCH   4   5
ENDBRANCH   1   3
BRANCH   1  10
ATOM     10  C   UNL     1      -5.465  25.212  48.428  1.00  0.00     0.002 C 
ATOM     11  C   UNL     1      -4.824  25.397  47.040  1.00  0.00     0.005 C 
ATOM     12  C   UNL     1      -4.756  23.907  48.945  1.00  0.00    -0.023 C 
ATOM     13  C   UNL     1      -3.378  24.930  47.161  1.00  0.00     0.009 C 
ATOM     14  C   UNL     1      -3.295  24.091  48.443  1.00  0.00     0.021 C 
ATOM     15  C   UNL     1      -5.474  22.633  48.337  1.00  0.00     0.008 C 
ATOM     16  C   UNL     1      -4.748  23.743  50.486  1.00  0.00     0.012 C 
ATOM     17  C   UNL     1      -2.536  22.796  48.234  1.00  0.00    -0.063 C 
ATOM     18  C   UNL     1      -4.659  21.862  47.295  1.00  0.00     0.009 C 
ATOM     19  C   UNL     1      -3.262  21.526  47.845  1.00  0.00     0.025 C 
ATOM     20  C   UNL     1      -1.212  22.758  48.431  1.00  0.00    -0.000 C 
ATOM     21  C   UNL     1      -2.389  20.615  46.901  1.00  0.00    -0.005 C 
ATOM     22  C   UNL     1      -0.440  21.534  48.159  1.00  0.00    -0.000 C 
ATOM     23  C   UNL     1      -0.979  20.496  47.494  1.00  0.00    -0.061 C 
ATOM     24  C   UNL     1      -3.051  19.207  46.803  1.00  0.00     0.014 C 
ATOM     25  C   UNL     1      -2.258  21.230  45.482  1.00  0.00     0.017 C 
ATOM     26  C   UNL     1      -0.069  19.366  47.067  1.00  0.00     0.063 C 
ATOM     27  C   UNL     1      -2.128  18.135  46.211  1.00  0.00     0.033 C 
ATOM     28  C   UNL     1      -0.799  18.019  46.975  1.00  0.00     0.118 C 
BRANCH  28  29
ATOM     29  O   UNL     1      -0.978  17.444  48.248  1.00  0.00    -0.393 OA
ATOM     30  H   UNL     1      -1.809  16.901  48.230  1.00  0.00     0.210 HD
ENDBRANCH  28  29
ENDBRANCH   1  10
TORSDOF 5
ENDMDL
MODEL 6
REMARK VINA RESULT:    -7.654      4.066      8.951
REMARK INTER + INTRA:         -10.166
REMARK INTER:                  -9.904
REMARK INTRA:                  -0.262
REMARK UNBOUND:                -0.499
REMARK SMILES CC(C)[C@H](C)C=C[C@H](C)[C@H]1CC[C@@H]2C3=CC=C4C[C@@H](O)CC[C@@]4(C)[C@@H]3CC[C@@]21C
REMARK SMILES IDX 8 1 9 2 7 3 6 4 4 5 5 6 2 7 1 8 3 9 10 10 11 11 28 12 12 13
REMARK SMILES IDX 13 14 27 15 29 16 14 17 26 18 25 19 15 20 23 21 16 22 17 23
REMARK SMILES IDX 22 24 24 25 18 26 21 27 19 28 20 29
REMARK H PARENT 20 30
REMARK Flexibility Score: inf
ROOT
ATOM      1  C   UNL     1      -4.284  21.102  47.567  1.00  0.00     0.012 C 
ATOM      2  C   UNL     1      -3.433  21.672  46.414  1.00  0.00     0.012 C 
ENDROOT
BRANCH   1   3
ATOM      3  C   UNL     1      -4.151  19.590  47.534  1.00  0.00    -0.028 C 
ATOM      4  C   UNL     1      -3.338  18.949  46.674  1.00  0.00    -0.028 C 
BRANCH   4   5
ATOM      5  C   UNL     1      -3.223  17.439  46.598  1.00  0.00     0.011 C 
ATOM      6  C   UNL     1      -3.143  16.935  45.148  1.00  0.00     0.012 C 
BRANCH   5   7
ATOM      7  C   UNL     1      -2.110  16.850  47.518  1.00  0.00    -0.011 C 
ATOM      8  C   UNL     1      -2.708  16.282  48.816  1.00  0.00     0.008 C 
ATOM      9  C   UNL     1      -0.978  17.834  47.853  1.00  0.00     0.008 C 
ENDBRANCH   5   7
ENDBRANCH   4   5
ENDBRANCH   1   3
BRANCH   1  10
ATOM     10  C   UNL     1      -3.926  21.699  48.982  1.00  0.00     0.002 C 
ATOM     11  C   UNL     1      -2.410  21.712  49.248  1.00  0.00     0.005 C 
ATOM     12  C   UNL     1      -4.312  23.206  49.208  1.00  0.00    -0.023 C 
ATOM     13  C   UNL     1      -1.887  23.049  48.734  1.00  0.00     0.009 C 
ATOM     14  C   UNL     1      -3.108  23.964  48.577  1.00  0.00     0.021 C 
ATOM     15  C   UNL     1      -4.489  23.485  50.757  1.00  0.00     0.008 C 
ATOM     16  C   UNL     1      -5.619  23.652  48.505  1.00  0.00     0.012 C 
ATOM     17  C   UNL     1      -2.867  25.346  49.151  1.00  0.00    -0.063 C 
ATOM     18  C   UNL     1      -3.403  24.361  51.388  1.00  0.00     0.009 C 
ATOM     19  C   UNL     1      -3.228  25.663  50.587  1.00  0.00     0.025 C 
ATOM     20  C   UNL     1      -2.364  26.314  48.375  1.00  0.00    -0.000 C 
ATOM     21  C   UNL     1      -2.227  26.696  51.231  1.00  0.00    -0.005 C 
ATOM     22  C   UNL     1      -2.047  27.641  48.928  1.00  0.00    -0.000 C 
ATOM     23  C   UNL     1      -2.028  27.864  50.255  1.00  0.00    -0.061 C 
ATOM     24  C   UNL     1      -2.829  27.215  52.572  1.00  0.00     0.014 C 
ATOM     25  C   UNL     1      -0.840  26.055  51.495  1.00  0.00     0.017 C 
ATOM     26  C   UNL     1      -1.489  29.187  50.754  1.00  0.00     0.063 C 
ATOM     27  C   UNL     1      -2.134  28.471  53.112  1.00  0.00     0.033 C 
ATOM     28  C   UNL     1      -2.116  29.616  52.087  1.00  0.00     0.118 C 
BRANCH  28  29
ATOM     29  O   UNL     1      -3.398  30.167  51.898  1.00  0.00    -0.393 OA
ATOM     30  H   UNL     1      -3.942  29.974  52.705  1.00  0.00     0.210 HD
ENDBRANCH  28  29
ENDBRANCH   1  10
TORSDOF 5
ENDMDL
MODEL 7
REMARK VINA RESULT:    -7.573      3.146      9.383
REMARK INTER + INTRA:         -10.064
REMARK INTER:                  -9.298
REMARK INTRA:                  -0.765
REMARK UNBOUND:                -0.499
REMARK SMILES CC(C)[C@H](C)C=C[C@H](C)[C@H]1CC[C@@H]2C3=CC=C4C[C@@H](O)CC[C@@]4(C)[C@@H]3CC[C@@]21C
REMARK SMILES IDX 8 1 9 2 7 3 6 4 4 5 5 6 2 7 1 8 3 9 10 10 11 11 28 12 12 13
REMARK SMILES IDX 13 14 27 15 29 16 14 17 26 18 25 19 15 20 23 21 16 22 17 23
REMARK SMILES IDX 22 24 24 25 18 26 21 27 19 28 20 29
REMARK H PARENT 20 30
REMARK Flexibility Score: inf
ROOT
ATOM      1  C   UNL     1      -1.209  19.636  47.372  1.00  0.00     0.012 C 
ATOM      2  C   UNL     1      -2.226  18.563  46.934  1.00  0.00     0.012 C 
ENDROOT
BRANCH   1   3
ATOM      3  C   UNL     1       0.182  19.075  47.141  1.00  0.00    -0.028 C 
ATOM      4  C   UNL     1       1.271  19.856  47.013  1.00  0.00    -0.028 C 
BRANCH   4   5
ATOM      5  C   UNL     1       2.662  19.316  46.741  1.00  0.00     0.011 C 
ATOM      6  C   UNL     1       3.151  19.660  45.325  1.00  0.00     0.012 C 
BRANCH   5   7
ATOM      7  C   UNL     1       3.697  19.666  47.853  1.00  0.00    -0.011 C 
ATOM      8  C   UNL     1       4.026  21.169  47.850  1.00  0.00     0.008 C 
ATOM      9  C   UNL     1       4.997  18.848  47.789  1.00  0.00     0.008 C 
ENDBRANCH   5   7
ENDBRANCH   4   5
ENDBRANCH   1   3
BRANCH   1  10
ATOM     10  C   UNL     1      -1.410  21.034  46.670  1.00  0.00     0.002 C 
ATOM     11  C   UNL     1      -2.588  21.029  45.680  1.00  0.00     0.005 C 
ATOM     12  C   UNL     1      -1.782  22.231  47.618  1.00  0.00    -0.023 C 
ATOM     13  C   UNL     1      -3.827  21.433  46.471  1.00  0.00     0.009 C 
ATOM     14  C   UNL     1      -3.324  22.079  47.769  1.00  0.00     0.021 C 
ATOM     15  C   UNL     1      -1.349  23.598  46.946  1.00  0.00     0.008 C 
ATOM     16  C   UNL     1      -1.125  22.175  49.020  1.00  0.00     0.012 C 
ATOM     17  C   UNL     1      -4.053  23.368  48.089  1.00  0.00    -0.063 C 
ATOM     18  C   UNL     1      -2.504  24.485  46.472  1.00  0.00     0.009 C 
ATOM     19  C   UNL     1      -3.518  24.701  47.609  1.00  0.00     0.025 C 
ATOM     20  C   UNL     1      -5.164  23.341  48.837  1.00  0.00    -0.000 C 
ATOM     21  C   UNL     1      -4.678  25.711  47.266  1.00  0.00    -0.005 C 
ATOM     22  C   UNL     1      -5.933  24.569  49.096  1.00  0.00    -0.000 C 
ATOM     23  C   UNL     1      -5.694  25.705  48.417  1.00  0.00    -0.061 C 
ATOM     24  C   UNL     1      -4.073  27.137  47.093  1.00  0.00     0.014 C 
ATOM     25  C   UNL     1      -5.425  25.300  45.970  1.00  0.00     0.017 C 
ATOM     26  C   UNL     1      -6.659  26.859  48.583  1.00  0.00     0.063 C 
ATOM     27  C   UNL     1      -5.121  28.256  47.110  1.00  0.00     0.033 C 
ATOM     28  C   UNL     1      -5.991  28.224  48.377  1.00  0.00     0.118 C 
BRANCH  28  29
ATOM     29  O   UNL     1      -5.265  28.618  49.517  1.00  0.00    -0.393 OA
ATOM     30  H   UNL     1      -5.095  29.594  49.457  1.00  0.00     0.210 HD
ENDBRANCH  28  29
ENDBRANCH   1  10
TORSDOF 5
ENDMDL
MODEL 8
REMARK VINA RESULT:    -7.568      3.974      5.408
REMARK INTER + INTRA:         -10.058
REMARK INTER:                  -9.445
REMARK INTRA:                  -0.613
REMARK UNBOUND:                -0.499
REMARK SMILES CC(C)[C@H](C)C=C[C@H](C)[C@H]1CC[C@@H]2C3=CC=C4C[C@@H](O)CC[C@@]4(C)[C@@H]3CC[C@@]21C
REMARK SMILES IDX 8 1 9 2 7 3 6 4 4 5 5 6 2 7 1 8 3 9 10 10 11 11 28 12 12 13
REMARK SMILES IDX 13 14 27 15 29 16 14 17 26 18 25 19 15 20 23 21 16 22 17 23
REMARK SMILES IDX 22 24 24 25 18 26 21 27 19 28 20 29
REMARK H PARENT 20 30
REMARK Flexibility Score: inf
ROOT
ATOM      1  C   UNL     1      -6.721  28.699  48.298  1.00  0.00     0.012 C 
ATOM      2  C   UNL     1      -6.534  30.161  47.843  1.00  0.00     0.012 C 
ENDROOT
BRANCH   1   3
ATOM      3  C   UNL     1      -7.937  28.145  47.579  1.00  0.00    -0.028 C 
ATOM      4  C   UNL     1      -8.862  28.932  47.001  1.00  0.00    -0.028 C 
BRANCH   4   5
ATOM      5  C   UNL     1     -10.105  28.398  46.314  1.00  0.00     0.011 C 
ATOM      6  C   UNL     1     -11.068  27.720  47.301  1.00  0.00     0.012 C 
BRANCH   5   7
ATOM      7  C   UNL     1     -10.803  29.440  45.388  1.00  0.00    -0.011 C 
ATOM      8  C   UNL     1     -10.879  28.929  43.939  1.00  0.00     0.008 C 
ATOM      9  C   UNL     1     -10.167  30.838  45.414  1.00  0.00     0.008 C 
ENDBRANCH   5   7
ENDBRANCH   4   5
ENDBRANCH   1   3
BRANCH   1  10
ATOM     10  C   UNL     1      -5.445  27.797  48.091  1.00  0.00     0.002 C 
ATOM     11  C   UNL     1      -4.134  28.594  48.219  1.00  0.00     0.005 C 
ATOM     12  C   UNL     1      -5.236  26.650  49.146  1.00  0.00    -0.023 C 
ATOM     13  C   UNL     1      -3.731  28.541  49.689  1.00  0.00     0.009 C 
ATOM     14  C   UNL     1      -4.529  27.391  50.318  1.00  0.00     0.021 C 
ATOM     15  C   UNL     1      -4.358  25.495  48.512  1.00  0.00     0.008 C 
ATOM     16  C   UNL     1      -6.545  26.005  49.667  1.00  0.00     0.012 C 
ATOM     17  C   UNL     1      -3.665  26.503  51.190  1.00  0.00    -0.063 C 
ATOM     18  C   UNL     1      -2.942  25.367  49.081  1.00  0.00     0.009 C 
ATOM     19  C   UNL     1      -2.985  25.278  50.617  1.00  0.00     0.025 C 
ATOM     20  C   UNL     1      -3.525  26.777  52.494  1.00  0.00    -0.000 C 
ATOM     21  C   UNL     1      -1.589  25.007  51.295  1.00  0.00    -0.005 C 
ATOM     22  C   UNL     1      -2.630  25.977  53.345  1.00  0.00    -0.000 C 
ATOM     23  C   UNL     1      -1.752  25.104  52.818  1.00  0.00    -0.061 C 
ATOM     24  C   UNL     1      -1.101  23.581  50.897  1.00  0.00     0.014 C 
ATOM     25  C   UNL     1      -0.534  26.059  50.862  1.00  0.00     0.017 C 
ATOM     26  C   UNL     1      -0.723  24.477  53.733  1.00  0.00     0.063 C 
ATOM     27  C   UNL     1       0.055  23.064  51.762  1.00  0.00     0.033 C 
ATOM     28  C   UNL     1      -0.281  23.086  53.262  1.00  0.00     0.118 C 
BRANCH  28  29
ATOM     29  O   UNL     1      -1.232  22.103  53.598  1.00  0.00    -0.393 OA
ATOM     30  H   UNL     1      -1.034  21.285  53.071  1.00  0.00     0.210 HD
ENDBRANCH  28  29
ENDBRANCH   1  10
TORSDOF 5
ENDMDL
MODEL 9
REMARK VINA RESULT:    -7.378      3.235      9.361
REMARK INTER + INTRA:          -9.818
REMARK INTER:                  -9.271
REMARK INTRA:                  -0.547
REMARK UNBOUND:                -0.499
REMARK SMILES CC(C)[C@H](C)C=C[C@H](C)[C@H]1CC[C@@H]2C3=CC=C4C[C@@H](O)CC[C@@]4(C)[C@@H]3CC[C@@]21C
REMARK SMILES IDX 8 1 9 2 7 3 6 4 4 5 5 6 2 7 1 8 3 9 10 10 11 11 28 12 12 13
REMARK SMILES IDX 13 14 27 15 29 16 14 17 26 18 25 19 15 20 23 21 16 22 17 23
REMARK SMILES IDX 22 24 24 25 18 26 21 27 19 28 20 29
REMARK H PARENT 20 30
REMARK Flexibility Score: inf
ROOT
ATOM      1  C   UNL     1      -3.153  21.973  47.732  1.00  0.00     0.012 C 
ATOM      2  C   UNL     1      -3.227  21.734  49.254  1.00  0.00     0.012 C 
ENDROOT
BRANCH   1   3
ATOM      3  C   UNL     1      -3.128  20.615  47.054  1.00  0.00    -0.028 C 
ATOM      4  C   UNL     1      -3.586  19.497  47.647  1.00  0.00    -0.028 C 
BRANCH   4   5
ATOM      5  C   UNL     1      -3.532  18.125  47.001  1.00  0.00     0.011 C 
ATOM      6  C   UNL     1      -2.900  18.167  45.601  1.00  0.00     0.012 C 
BRANCH   5   7
ATOM      7  C   UNL     1      -2.920  17.026  47.922  1.00  0.00    -0.011 C 
ATOM      8  C   UNL     1      -2.481  17.616  49.273  1.00  0.00     0.008 C 
ATOM      9  C   UNL     1      -1.756  16.247  47.290  1.00  0.00     0.008 C 
ENDBRANCH   5   7
ENDBRANCH   4   5
ENDBRANCH   1   3
BRANCH   1  10
ATOM     10  C   UNL     1      -4.302  22.896  47.173  1.00  0.00     0.002 C 
ATOM     11  C   UNL     1      -5.490  23.010  48.145  1.00  0.00     0.005 C 
ATOM     12  C   UNL     1      -3.920  24.404  46.944  1.00  0.00    -0.023 C 
ATOM     13  C   UNL     1      -5.201  24.199  49.053  1.00  0.00     0.009 C 
ATOM     14  C   UNL     1      -4.106  25.021  48.360  1.00  0.00     0.021 C 
ATOM     15  C   UNL     1      -4.877  25.037  45.852  1.00  0.00     0.008 C 
ATOM     16  C   UNL     1      -2.462  24.638  46.473  1.00  0.00     0.012 C 
ATOM     17  C   UNL     1      -4.415  26.505  48.362  1.00  0.00    -0.063 C 
ATOM     18  C   UNL     1      -5.881  26.063  46.383  1.00  0.00     0.009 C 
ATOM     19  C   UNL     1      -5.161  27.143  47.210  1.00  0.00     0.025 C 
ATOM     20  C   UNL     1      -3.993  27.275  49.373  1.00  0.00    -0.000 C 
ATOM     21  C   UNL     1      -6.087  28.324  47.690  1.00  0.00    -0.005 C 
ATOM     22  C   UNL     1      -4.346  28.702  49.438  1.00  0.00    -0.000 C 
ATOM     23  C   UNL     1      -5.282  29.233  48.629  1.00  0.00    -0.061 C 
ATOM     24  C   UNL     1      -6.567  29.130  46.445  1.00  0.00     0.014 C 
ATOM     25  C   UNL     1      -7.317  27.798  48.477  1.00  0.00     0.017 C 
ATOM     26  C   UNL     1      -5.743  30.649  48.895  1.00  0.00     0.063 C 
ATOM     27  C   UNL     1      -7.173  30.495  46.793  1.00  0.00     0.033 C 
ATOM     28  C   UNL     1      -6.217  31.366  47.624  1.00  0.00     0.118 C 
BRANCH  28  29
ATOM     29  O   UNL     1      -5.129  31.824  46.857  1.00  0.00    -0.393 OA
ATOM     30  H   UNL     1      -5.486  32.246  46.032  1.00  0.00     0.210 HD
ENDBRANCH  28  29
ENDBRANCH   1  10
TORSDOF 5
ENDMDL
