MODEL 1
REMARK VINA RESULT:    -3.658      0.000      0.000
REMARK INTER + INTRA:          -7.503
REMARK INTER:                  -6.653
REMARK INTRA:                  -0.850
REMARK UNBOUND:                -0.850
REMARK SMILES CCCCCCCCCCCCCCCC(=O)[O-]
REMARK SMILES IDX 9 1 10 2 11 3 12 4 13 5 14 6 15 7 16 8 17 9 18 10 8 11 7 12
REMARK SMILES IDX 6 13 5 14 4 15 3 16 2 17 1 18
REMARK H PARENT
REMARK Flexibility Score: inf
ROOT
ATOM      1  C   UNL     1      66.704  29.163  60.185  1.00  0.00     0.000 C 
ENDROOT
BRANCH   1   2
ATOM      2  C   UNL     1      65.407  28.708  60.887  1.00  0.00     0.000 C 
BRANCH   2   3
ATOM      3  C   UNL     1      64.462  29.882  61.182  1.00  0.00     0.000 C 
BRANCH   3   4
ATOM      4  C   UNL     1      65.165  31.225  60.958  1.00  0.00     0.000 C 
BRANCH   4   5
ATOM      5  C   UNL     1      64.457  32.045  59.871  1.00  0.00     0.000 C 
BRANCH   5   6
ATOM      6  C   UNL     1      64.997  33.481  59.826  1.00  0.00     0.006 C 
BRANCH   6   7
ATOM      7  C   UNL     1      63.938  34.513  60.238  1.00  0.00     0.053 C 
BRANCH   7   8
ATOM      8  C   UNL     1      64.364  35.293  61.443  1.00  0.00     0.041 C 
ATOM      9  O   UNL     1      63.566  36.096  61.994  1.00  0.00    -0.550 OA
ATOM     10  O   UNL     1      65.655  35.157  61.940  1.00  0.00    -0.550 OA
ENDBRANCH   7   8
ENDBRANCH   6   7
ENDBRANCH   5   6
ENDBRANCH   4   5
ENDBRANCH   3   4
ENDBRANCH   2   3
ENDBRANCH   1   2
BRANCH   1  11
ATOM     11  C   UNL     1      67.986  28.701  60.899  1.00  0.00     0.000 C 
BRANCH  11  12
ATOM     12  C   UNL     1      69.266  29.207  60.214  1.00  0.00    -0.000 C 
BRANCH  12  13
ATOM     13  C   UNL     1      70.543  28.743  60.931  1.00  0.00    -0.000 C 
BRANCH  13  14
ATOM     14  C   UNL     1      71.366  29.915  61.490  1.00  0.00    -0.000 C 
BRANCH  14  15
ATOM     15  C   UNL     1      72.844  29.781  61.105  1.00  0.00    -0.000 C 
BRANCH  15  16
ATOM     16  C   UNL     1      73.359  31.071  60.450  1.00  0.00    -0.000 C 
BRANCH  16  17
ATOM     17  C   UNL     1      72.307  32.191  60.443  1.00  0.00    -0.003 C 
ATOM     18  C   UNL     1      72.013  32.719  59.039  1.00  0.00     0.004 C 
ENDBRANCH  16  17
ENDBRANCH  15  16
ENDBRANCH  14  15
ENDBRANCH  13  14
ENDBRANCH  12  13
ENDBRANCH  11  12
ENDBRANCH   1  11
TORSDOF 14
ENDMDL
MODEL 2
REMARK VINA RESULT:    -3.624     12.482     15.520
REMARK INTER + INTRA:          -7.440
REMARK INTER:                  -5.863
REMARK INTRA:                  -1.576
REMARK UNBOUND:                -0.850
REMARK SMILES CCCCCCCCCCCCCCCC(=O)[O-]
REMARK SMILES IDX 9 1 10 2 11 3 12 4 13 5 14 6 15 7 16 8 17 9 18 10 8 11 7 12
REMARK SMILES IDX 6 13 5 14 4 15 3 16 2 17 1 18
REMARK H PARENT
REMARK Flexibility Score: inf
ROOT
ATOM      1  C   UNL     1      56.578  25.870  50.723  1.00  0.00     0.000 C 
ENDROOT
BRANCH   1   2
ATOM      2  C   UNL     1      57.869  25.240  50.158  1.00  0.00     0.000 C 
BRANCH   2   3
ATOM      3  C   UNL     1      59.134  25.922  50.700  1.00  0.00     0.000 C 
BRANCH   3   4
ATOM      4  C   UNL     1      58.778  27.127  51.577  1.00  0.00     0.000 C 
BRANCH   4   5
ATOM      5  C   UNL     1      60.042  27.836  52.081  1.00  0.00     0.000 C 
BRANCH   5   6
ATOM      6  C   UNL     1      60.234  29.186  51.376  1.00  0.00     0.006 C 
BRANCH   6   7
ATOM      7  C   UNL     1      60.895  29.032  49.999  1.00  0.00     0.053 C 
BRANCH   7   8
ATOM      8  C   UNL     1      62.156  28.228  50.076  1.00  0.00     0.041 C 
ATOM      9  O   UNL     1      63.153  28.669  50.706  1.00  0.00    -0.550 OA
ATOM     10  O   UNL     1      62.242  27.004  49.423  1.00  0.00    -0.550 OA
ENDBRANCH   7   8
ENDBRANCH   6   7
ENDBRANCH   5   6
ENDBRANCH   4   5
ENDBRANCH   3   4
ENDBRANCH   2   3
ENDBRANCH   1   2
BRANCH   1  11
ATOM     11  C   UNL     1      55.388  25.811  49.750  1.00  0.00     0.000 C 
BRANCH  11  12
ATOM     12  C   UNL     1      54.549  27.100  49.755  1.00  0.00    -0.000 C 
BRANCH  12  13
ATOM     13  C   UNL     1      54.676  27.883  51.071  1.00  0.00    -0.000 C 
BRANCH  13  14
ATOM     14  C   UNL     1      54.066  29.291  50.981  1.00  0.00    -0.000 C 
BRANCH  14  15
ATOM     15  C   UNL     1      54.807  30.270  51.900  1.00  0.00    -0.000 C 
BRANCH  15  16
ATOM     16  C   UNL     1      56.239  29.788  52.174  1.00  0.00    -0.000 C 
BRANCH  16  17
ATOM     17  C   UNL     1      57.203  30.945  52.481  1.00  0.00    -0.003 C 
ATOM     18  C   UNL     1      57.272  31.278  53.971  1.00  0.00     0.004 C 
ENDBRANCH  16  17
ENDBRANCH  15  16
ENDBRANCH  14  15
ENDBRANCH  13  14
ENDBRANCH  12  13
ENDBRANCH  11  12
ENDBRANCH   1  11
TORSDOF 14
ENDMDL
MODEL 3
REMARK VINA RESULT:    -3.613      6.222      8.498
REMARK INTER + INTRA:          -7.420
REMARK INTER:                  -6.345
REMARK INTRA:                  -1.075
REMARK UNBOUND:                -0.850
REMARK SMILES CCCCCCCCCCCCCCCC(=O)[O-]
REMARK SMILES IDX 9 1 10 2 11 3 12 4 13 5 14 6 15 7 16 8 17 9 18 10 8 11 7 12
REMARK SMILES IDX 6 13 5 14 4 15 3 16 2 17 1 18
REMARK H PARENT
REMARK Flexibility Score: inf
ROOT
ATOM      1  C   UNL     1      62.506  28.331  61.435  1.00  0.00     0.000 C 
ENDROOT
BRANCH   1   2
ATOM      2  C   UNL     1      61.258  29.032  60.858  1.00  0.00     0.000 C 
BRANCH   2   3
ATOM      3  C   UNL     1      60.166  28.032  60.450  1.00  0.00     0.000 C 
BRANCH   3   4
ATOM      4  C   UNL     1      60.300  26.721  61.232  1.00  0.00     0.000 C 
BRANCH   4   5
ATOM      5  C   UNL     1      59.028  26.426  62.038  1.00  0.00     0.000 C 
BRANCH   5   6
ATOM      6  C   UNL     1      57.811  27.132  61.423  1.00  0.00     0.006 C 
BRANCH   6   7
ATOM      7  C   UNL     1      56.798  27.575  62.488  1.00  0.00     0.053 C 
BRANCH   7   8
ATOM      8  C   UNL     1      55.750  26.532  62.724  1.00  0.00     0.041 C 
ATOM      9  O   UNL     1      55.313  26.323  63.886  1.00  0.00    -0.550 OA
ATOM     10  O   UNL     1      55.279  25.766  61.664  1.00  0.00    -0.550 OA
ENDBRANCH   7   8
ENDBRANCH   6   7
ENDBRANCH   5   6
ENDBRANCH   4   5
ENDBRANCH   3   4
ENDBRANCH   2   3
ENDBRANCH   1   2
BRANCH   1  11
ATOM     11  C   UNL     1      63.614  28.092  60.396  1.00  0.00     0.000 C 
BRANCH  11  12
ATOM     12  C   UNL     1      64.937  28.786  60.763  1.00  0.00    -0.000 C 
BRANCH  12  13
ATOM     13  C   UNL     1      64.723  30.152  61.431  1.00  0.00    -0.000 C 
BRANCH  13  14
ATOM     14  C   UNL     1      65.147  31.323  60.530  1.00  0.00    -0.000 C 
BRANCH  14  15
ATOM     15  C   UNL     1      63.987  31.778  59.637  1.00  0.00    -0.000 C 
BRANCH  15  16
ATOM     16  C   UNL     1      63.919  33.310  59.564  1.00  0.00    -0.000 C 
BRANCH  16  17
ATOM     17  C   UNL     1      65.095  33.989  60.283  1.00  0.00    -0.003 C 
ATOM     18  C   UNL     1      64.644  34.911  61.415  1.00  0.00     0.004 C 
ENDBRANCH  16  17
ENDBRANCH  15  16
ENDBRANCH  14  15
ENDBRANCH  13  14
ENDBRANCH  12  13
ENDBRANCH  11  12
ENDBRANCH   1  11
TORSDOF 14
ENDMDL
MODEL 4
REMARK VINA RESULT:    -3.586      2.845      6.895
REMARK INTER + INTRA:          -7.371
REMARK INTER:                  -6.228
REMARK INTRA:                  -1.143
REMARK UNBOUND:                -0.850
REMARK SMILES CCCCCCCCCCCCCCCC(=O)[O-]
REMARK SMILES IDX 9 1 10 2 11 3 12 4 13 5 14 6 15 7 16 8 17 9 18 10 8 11 7 12
REMARK SMILES IDX 6 13 5 14 4 15 3 16 2 17 1 18
REMARK H PARENT
REMARK Flexibility Score: inf
ROOT
ATOM      1  C   UNL     1      67.564  28.742  59.287  1.00  0.00     0.000 C 
ENDROOT
BRANCH   1   2
ATOM      2  C   UNL     1      67.965  27.801  60.442  1.00  0.00     0.000 C 
BRANCH   2   3
ATOM      3  C   UNL     1      69.016  28.431  61.369  1.00  0.00     0.000 C 
BRANCH   3   4
ATOM      4  C   UNL     1      70.390  28.477  60.692  1.00  0.00     0.000 C 
BRANCH   4   5
ATOM      5  C   UNL     1      71.142  29.764  61.055  1.00  0.00     0.000 C 
BRANCH   5   6
ATOM      6  C   UNL     1      71.904  30.317  59.843  1.00  0.00     0.006 C 
BRANCH   6   7
ATOM      7  C   UNL     1      71.114  31.409  59.109  1.00  0.00     0.053 C 
BRANCH   7   8
ATOM      8  C   UNL     1      71.756  32.754  59.259  1.00  0.00     0.041 C 
ATOM      9  O   UNL     1      72.115  33.403  58.242  1.00  0.00    -0.550 OA
ATOM     10  O   UNL     1      71.987  33.277  60.526  1.00  0.00    -0.550 OA
ENDBRANCH   7   8
ENDBRANCH   6   7
ENDBRANCH   5   6
ENDBRANCH   4   5
ENDBRANCH   3   4
ENDBRANCH   2   3
ENDBRANCH   1   2
BRANCH   1  11
ATOM     11  C   UNL     1      66.991  30.088  59.761  1.00  0.00     0.000 C 
BRANCH  11  12
ATOM     12  C   UNL     1      65.703  29.933  60.586  1.00  0.00    -0.000 C 
BRANCH  12  13
ATOM     13  C   UNL     1      65.020  31.278  60.876  1.00  0.00    -0.000 C 
BRANCH  13  14
ATOM     14  C   UNL     1      64.161  31.771  59.700  1.00  0.00    -0.000 C 
BRANCH  14  15
ATOM     15  C   UNL     1      64.209  33.299  59.588  1.00  0.00    -0.000 C 
BRANCH  15  16
ATOM     16  C   UNL     1      65.149  33.898  60.643  1.00  0.00    -0.000 C 
BRANCH  16  17
ATOM     17  C   UNL     1      64.467  34.978  61.497  1.00  0.00    -0.003 C 
ATOM     18  C   UNL     1      65.449  35.731  62.394  1.00  0.00     0.004 C 
ENDBRANCH  16  17
ENDBRANCH  15  16
ENDBRANCH  14  15
ENDBRANCH  13  14
ENDBRANCH  12  13
ENDBRANCH  11  12
ENDBRANCH   1  11
TORSDOF 14
ENDMDL
MODEL 5
REMARK VINA RESULT:    -3.522     10.904     12.909
REMARK INTER + INTRA:          -7.254
REMARK INTER:                  -4.596
REMARK INTRA:                  -2.658
REMARK UNBOUND:                -0.850
REMARK SMILES CCCCCCCCCCCCCCCC(=O)[O-]
REMARK SMILES IDX 9 1 10 2 11 3 12 4 13 5 14 6 15 7 16 8 17 9 18 10 8 11 7 12
REMARK SMILES IDX 6 13 5 14 4 15 3 16 2 17 1 18
REMARK H PARENT
REMARK Flexibility Score: inf
ROOT
ATOM      1  C   UNL     1      64.134  26.348  50.945  1.00  0.00     0.000 C 
ENDROOT
BRANCH   1   2
ATOM      2  C   UNL     1      64.722  27.679  50.432  1.00  0.00     0.000 C 
BRANCH   2   3
ATOM      3  C   UNL     1      64.848  27.708  48.901  1.00  0.00     0.000 C 
BRANCH   3   4
ATOM      4  C   UNL     1      64.484  29.089  48.344  1.00  0.00     0.000 C 
BRANCH   4   5
ATOM      5  C   UNL     1      64.329  30.116  49.473  1.00  0.00     0.000 C 
BRANCH   5   6
ATOM      6  C   UNL     1      63.314  31.203  49.092  1.00  0.00     0.006 C 
BRANCH   6   7
ATOM      7  C   UNL     1      63.216  32.304  50.157  1.00  0.00     0.053 C 
BRANCH   7   8
ATOM      8  C   UNL     1      63.062  33.660  49.541  1.00  0.00     0.041 C 
ATOM      9  O   UNL     1      63.645  33.936  48.459  1.00  0.00    -0.550 OA
ATOM     10  O   UNL     1      62.300  34.632  50.178  1.00  0.00    -0.550 OA
ENDBRANCH   7   8
ENDBRANCH   6   7
ENDBRANCH   5   6
ENDBRANCH   4   5
ENDBRANCH   3   4
ENDBRANCH   2   3
ENDBRANCH   1   2
BRANCH   1  11
ATOM     11  C   UNL     1      63.139  25.697  49.969  1.00  0.00     0.000 C 
BRANCH  11  12
ATOM     12  C   UNL     1      61.822  25.284  50.646  1.00  0.00    -0.000 C 
BRANCH  12  13
ATOM     13  C   UNL     1      60.678  26.269  50.363  1.00  0.00    -0.000 C 
BRANCH  13  14
ATOM     14  C   UNL     1      61.053  27.324  49.310  1.00  0.00    -0.000 C 
BRANCH  14  15
ATOM     15  C   UNL     1      60.858  28.742  49.859  1.00  0.00    -0.000 C 
BRANCH  15  16
ATOM     16  C   UNL     1      60.639  28.717  51.379  1.00  0.00    -0.000 C 
BRANCH  16  17
ATOM     17  C   UNL     1      61.771  29.414  52.150  1.00  0.00    -0.003 C 
ATOM     18  C   UNL     1      62.379  28.529  53.238  1.00  0.00     0.004 C 
ENDBRANCH  16  17
ENDBRANCH  15  16
ENDBRANCH  14  15
ENDBRANCH  13  14
ENDBRANCH  12  13
ENDBRANCH  11  12
ENDBRANCH   1  11
TORSDOF 14
ENDMDL
MODEL 6
REMARK VINA RESULT:    -3.506     12.934     15.603
REMARK INTER + INTRA:          -7.226
REMARK INTER:                  -5.493
REMARK INTRA:                  -1.733
REMARK UNBOUND:                -0.850
REMARK SMILES CCCCCCCCCCCCCCCC(=O)[O-]
REMARK SMILES IDX 9 1 10 2 11 3 12 4 13 5 14 6 15 7 16 8 17 9 18 10 8 11 7 12
REMARK SMILES IDX 6 13 5 14 4 15 3 16 2 17 1 18
REMARK H PARENT
REMARK Flexibility Score: inf
ROOT
ATOM      1  C   UNL     1      54.173  27.499  50.789  1.00  0.00     0.000 C 
ENDROOT
BRANCH   1   2
ATOM      2  C   UNL     1      54.238  26.832  49.399  1.00  0.00     0.000 C 
BRANCH   2   3
ATOM      3  C   UNL     1      55.194  25.630  49.373  1.00  0.00     0.000 C 
BRANCH   3   4
ATOM      4  C   UNL     1      56.115  25.633  50.599  1.00  0.00     0.000 C 
BRANCH   4   5
ATOM      5  C   UNL     1      57.572  25.375  50.195  1.00  0.00     0.000 C 
BRANCH   5   6
ATOM      6  C   UNL     1      58.537  26.193  51.065  1.00  0.00     0.006 C 
BRANCH   6   7
ATOM      7  C   UNL     1      59.767  25.379  51.490  1.00  0.00     0.053 C 
BRANCH   7   8
ATOM      8  C   UNL     1      60.612  24.996  50.315  1.00  0.00     0.041 C 
ATOM      9  O   UNL     1      61.289  25.868  49.709  1.00  0.00    -0.550 OA
ATOM     10  O   UNL     1      60.628  23.680  49.868  1.00  0.00    -0.550 OA
ENDBRANCH   7   8
ENDBRANCH   6   7
ENDBRANCH   5   6
ENDBRANCH   4   5
ENDBRANCH   3   4
ENDBRANCH   2   3
ENDBRANCH   1   2
BRANCH   1  11
ATOM     11  C   UNL     1      54.136  29.035  50.734  1.00  0.00     0.000 C 
BRANCH  11  12
ATOM     12  C   UNL     1      54.934  29.693  51.872  1.00  0.00    -0.000 C 
BRANCH  12  13
ATOM     13  C   UNL     1      56.203  28.907  52.235  1.00  0.00    -0.000 C 
BRANCH  13  14
ATOM     14  C   UNL     1      57.420  29.819  52.457  1.00  0.00    -0.000 C 
BRANCH  14  15
ATOM     15  C   UNL     1      58.299  29.294  53.598  1.00  0.00    -0.000 C 
BRANCH  15  16
ATOM     16  C   UNL     1      59.723  29.000  53.103  1.00  0.00    -0.000 C 
BRANCH  16  17
ATOM     17  C   UNL     1      59.960  29.483  51.664  1.00  0.00    -0.003 C 
ATOM     18  C   UNL     1      61.311  29.040  51.105  1.00  0.00     0.004 C 
ENDBRANCH  16  17
ENDBRANCH  15  16
ENDBRANCH  14  15
ENDBRANCH  13  14
ENDBRANCH  12  13
ENDBRANCH  11  12
ENDBRANCH   1  11
TORSDOF 14
ENDMDL
MODEL 7
REMARK VINA RESULT:    -3.506     11.467     13.191
REMARK INTER + INTRA:          -7.225
REMARK INTER:                  -4.967
REMARK INTRA:                  -2.258
REMARK UNBOUND:                -0.850
REMARK SMILES CCCCCCCCCCCCCCCC(=O)[O-]
REMARK SMILES IDX 9 1 10 2 11 3 12 4 13 5 14 6 15 7 16 8 17 9 18 10 8 11 7 12
REMARK SMILES IDX 6 13 5 14 4 15 3 16 2 17 1 18
REMARK H PARENT
REMARK Flexibility Score: inf
ROOT
ATOM      1  C   UNL     1      59.825  25.631  49.362  1.00  0.00     0.000 C 
ENDROOT
BRANCH   1   2
ATOM      2  C   UNL     1      60.444  26.982  49.778  1.00  0.00     0.000 C 
BRANCH   2   3
ATOM      3  C   UNL     1      59.992  27.425  51.177  1.00  0.00     0.000 C 
BRANCH   3   4
ATOM      4  C   UNL     1      60.187  28.933  51.368  1.00  0.00     0.000 C 
BRANCH   4   5
ATOM      5  C   UNL     1      61.358  29.450  50.523  1.00  0.00     0.000 C 
BRANCH   5   6
ATOM      6  C   UNL     1      62.220  30.437  51.322  1.00  0.00     0.006 C 
BRANCH   6   7
ATOM      7  C   UNL     1      63.652  30.530  50.777  1.00  0.00     0.053 C 
BRANCH   7   8
ATOM      8  C   UNL     1      63.669  30.724  49.293  1.00  0.00     0.041 C 
ATOM      9  O   UNL     1      63.210  31.781  48.785  1.00  0.00    -0.550 OA
ATOM     10  O   UNL     1      64.163  29.723  48.466  1.00  0.00    -0.550 OA
ENDBRANCH   7   8
ENDBRANCH   6   7
ENDBRANCH   5   6
ENDBRANCH   4   5
ENDBRANCH   3   4
ENDBRANCH   2   3
ENDBRANCH   1   2
BRANCH   1  11
ATOM     11  C   UNL     1      59.149  24.881  50.523  1.00  0.00     0.000 C 
BRANCH  11  12
ATOM     12  C   UNL     1      59.961  23.667  51.003  1.00  0.00    -0.000 C 
BRANCH  12  13
ATOM     13  C   UNL     1      61.149  23.349  50.082  1.00  0.00    -0.000 C 
BRANCH  13  14
ATOM     14  C   UNL     1      62.451  23.102  50.861  1.00  0.00    -0.000 C 
BRANCH  14  15
ATOM     15  C   UNL     1      63.066  24.424  51.336  1.00  0.00    -0.000 C 
BRANCH  15  16
ATOM     16  C   UNL     1      63.524  25.275  50.143  1.00  0.00    -0.000 C 
BRANCH  16  17
ATOM     17  C   UNL     1      63.949  26.692  50.558  1.00  0.00    -0.003 C 
ATOM     18  C   UNL     1      63.669  26.987  52.031  1.00  0.00     0.004 C 
ENDBRANCH  16  17
ENDBRANCH  15  16
ENDBRANCH  14  15
ENDBRANCH  13  14
ENDBRANCH  12  13
ENDBRANCH  11  12
ENDBRANCH   1  11
TORSDOF 14
ENDMDL
MODEL 8
REMARK VINA RESULT:    -3.487      4.129      6.558
REMARK INTER + INTRA:          -7.190
REMARK INTER:                  -5.252
REMARK INTRA:                  -1.938
REMARK UNBOUND:                -0.850
REMARK SMILES CCCCCCCCCCCCCCCC(=O)[O-]
REMARK SMILES IDX 9 1 10 2 11 3 12 4 13 5 14 6 15 7 16 8 17 9 18 10 8 11 7 12
REMARK SMILES IDX 6 13 5 14 4 15 3 16 2 17 1 18
REMARK H PARENT
REMARK Flexibility Score: inf
ROOT
ATOM      1  C   UNL     1      65.643  27.453  60.633  1.00  0.00     0.000 C 
ENDROOT
BRANCH   1   2
ATOM      2  C   UNL     1      65.657  28.993  60.541  1.00  0.00     0.000 C 
BRANCH   2   3
ATOM      3  C   UNL     1      65.498  29.492  59.097  1.00  0.00     0.000 C 
BRANCH   3   4
ATOM      4  C   UNL     1      65.189  30.993  59.063  1.00  0.00     0.000 C 
BRANCH   4   5
ATOM      5  C   UNL     1      64.823  31.513  60.459  1.00  0.00     0.000 C 
BRANCH   5   6
ATOM      6  C   UNL     1      65.078  33.022  60.568  1.00  0.00     0.006 C 
BRANCH   6   7
ATOM      7  C   UNL     1      63.954  33.849  59.928  1.00  0.00     0.053 C 
BRANCH   7   8
ATOM      8  C   UNL     1      63.575  35.021  60.778  1.00  0.00     0.041 C 
ATOM      9  O   UNL     1      64.288  35.351  61.761  1.00  0.00    -0.550 OA
ATOM     10  O   UNL     1      62.413  35.733  60.503  1.00  0.00    -0.550 OA
ENDBRANCH   7   8
ENDBRANCH   6   7
ENDBRANCH   5   6
ENDBRANCH   4   5
ENDBRANCH   3   4
ENDBRANCH   2   3
ENDBRANCH   1   2
BRANCH   1  11
ATOM     11  C   UNL     1      64.437  26.805  59.932  1.00  0.00     0.000 C 
BRANCH  11  12
ATOM     12  C   UNL     1      63.431  26.192  60.921  1.00  0.00    -0.000 C 
BRANCH  12  13
ATOM     13  C   UNL     1      62.713  27.254  61.768  1.00  0.00    -0.000 C 
BRANCH  13  14
ATOM     14  C   UNL     1      61.516  27.883  61.037  1.00  0.00    -0.000 C 
BRANCH  14  15
ATOM     15  C   UNL     1      61.805  29.343  60.667  1.00  0.00    -0.000 C 
BRANCH  15  16
ATOM     16  C   UNL     1      61.750  29.545  59.146  1.00  0.00    -0.000 C 
BRANCH  16  17
ATOM     17  C   UNL     1      60.700  30.586  58.726  1.00  0.00    -0.003 C 
ATOM     18  C   UNL     1      61.315  31.944  58.389  1.00  0.00     0.004 C 
ENDBRANCH  16  17
ENDBRANCH  15  16
ENDBRANCH  14  15
ENDBRANCH  13  14
ENDBRANCH  12  13
ENDBRANCH  11  12
ENDBRANCH   1  11
TORSDOF 14
ENDMDL
MODEL 9
REMARK VINA RESULT:    -3.451      3.374      7.564
REMARK INTER + INTRA:          -7.126
REMARK INTER:                  -5.359
REMARK INTRA:                  -1.767
REMARK UNBOUND:                -0.850
REMARK SMILES CCCCCCCCCCCCCCCC(=O)[O-]
REMARK SMILES IDX 9 1 10 2 11 3 12 4 13 5 14 6 15 7 16 8 17 9 18 10 8 11 7 12
REMARK SMILES IDX 6 13 5 14 4 15 3 16 2 17 1 18
REMARK H PARENT
REMARK Flexibility Score: inf
ROOT
ATOM      1  C   UNL     1      67.531  28.900  58.444  1.00  0.00     0.000 C 
ENDROOT
BRANCH   1   2
ATOM      2  C   UNL     1      67.327  28.041  59.709  1.00  0.00     0.000 C 
BRANCH   2   3
ATOM      3  C   UNL     1      67.961  28.677  60.955  1.00  0.00     0.000 C 
BRANCH   3   4
ATOM      4  C   UNL     1      69.398  28.183  61.155  1.00  0.00     0.000 C 
BRANCH   4   5
ATOM      5  C   UNL     1      70.403  29.332  61.009  1.00  0.00     0.000 C 
BRANCH   5   6
ATOM      6  C   UNL     1      71.084  29.296  59.634  1.00  0.00     0.006 C 
BRANCH   6   7
ATOM      7  C   UNL     1      71.448  30.700  59.130  1.00  0.00     0.053 C 
BRANCH   7   8
ATOM      8  C   UNL     1      72.596  31.283  59.893  1.00  0.00     0.041 C 
ATOM      9  O   UNL     1      73.678  30.647  59.998  1.00  0.00    -0.550 OA
ATOM     10  O   UNL     1      72.461  32.517  60.518  1.00  0.00    -0.550 OA
ENDBRANCH   7   8
ENDBRANCH   6   7
ENDBRANCH   5   6
ENDBRANCH   4   5
ENDBRANCH   3   4
ENDBRANCH   2   3
ENDBRANCH   1   2
BRANCH   1  11
ATOM     11  C   UNL     1      67.543  30.413  58.723  1.00  0.00     0.000 C 
BRANCH  11  12
ATOM     12  C   UNL     1      66.153  31.056  58.583  1.00  0.00    -0.000 C 
BRANCH  12  13
ATOM     13  C   UNL     1      65.523  31.403  59.941  1.00  0.00    -0.000 C 
BRANCH  13  14
ATOM     14  C   UNL     1      64.219  30.631  60.201  1.00  0.00    -0.000 C 
BRANCH  14  15
ATOM     15  C   UNL     1      64.365  29.698  61.409  1.00  0.00    -0.000 C 
BRANCH  15  16
ATOM     16  C   UNL     1      63.950  28.264  61.047  1.00  0.00    -0.000 C 
BRANCH  16  17
ATOM     17  C   UNL     1      62.612  27.858  61.685  1.00  0.00    -0.003 C 
ATOM     18  C   UNL     1      62.597  26.403  62.153  1.00  0.00     0.004 C 
ENDBRANCH  16  17
ENDBRANCH  15  16
ENDBRANCH  14  15
ENDBRANCH  13  14
ENDBRANCH  12  13
ENDBRANCH  11  12
ENDBRANCH   1  11
TORSDOF 14
ENDMDL
