MODEL 1
REMARK VINA RESULT:    -5.332      0.000      0.000
REMARK INTER + INTRA:          -7.348
REMARK INTER:                  -6.735
REMARK INTRA:                  -0.613
REMARK UNBOUND:                -0.613
REMARK SMILES O=C(C=Cc1ccc(O)cc1)c1ccc(O)cc1O
REMARK SMILES IDX 4 1 3 2 5 3 6 4 7 5 8 6 11 7 10 8 9 9 2 11 1 12 12 13 18 14
REMARK SMILES IDX 13 15 17 16 14 17 15 18 19 19 16 21
REMARK H PARENT 9 10 19 20 16 22
REMARK Flexibility Score: inf
ROOT
ATOM      1  C   UNL     1      27.581  26.593  25.601  1.00  0.00     0.012 C 
ATOM      2  C   UNL     1      28.431  25.558  25.575  1.00  0.00     0.053 C 
ENDROOT
BRANCH   1   3
ATOM      3  C   UNL     1      28.012  28.012  25.576  1.00  0.00    -0.025 A 
ATOM      4  C   UNL     1      28.750  28.598  26.625  1.00  0.00     0.012 A 
ATOM      5  C   UNL     1      29.123  29.945  26.560  1.00  0.00     0.047 A 
ATOM      6  C   UNL     1      28.757  30.726  25.457  1.00  0.00     0.115 A 
ATOM      7  C   UNL     1      27.637  28.810  24.481  1.00  0.00     0.012 A 
ATOM      8  C   UNL     1      28.013  30.155  24.421  1.00  0.00     0.047 A 
BRANCH   6   9
ATOM      9  O   UNL     1      29.125  32.068  25.382  1.00  0.00    -0.508 OA
ATOM     10  H   UNL     1      28.552  32.797  25.791  1.00  0.00     0.293 HD
ENDBRANCH   6   9
ENDBRANCH   1   3
BRANCH   2  11
ATOM     11  C   UNL     1      27.965  24.154  25.586  1.00  0.00     0.189 C 
ATOM     12  O   UNL     1      28.763  23.224  25.287  1.00  0.00    -0.289 OA
BRANCH  11  13
ATOM     13  C   UNL     1      26.581  23.811  25.991  1.00  0.00     0.064 A 
ATOM     14  C   UNL     1      25.646  23.278  25.076  1.00  0.00     0.130 A 
ATOM     15  C   UNL     1      26.196  23.996  27.330  1.00  0.00     0.020 A 
ATOM     16  C   UNL     1      24.343  22.981  25.501  1.00  0.00     0.093 A 
ATOM     17  C   UNL     1      24.897  23.691  27.746  1.00  0.00     0.047 A 
ATOM     18  C   UNL     1      23.967  23.189  26.834  1.00  0.00     0.119 A 
BRANCH  14  19
ATOM     19  O   UNL     1      26.015  23.018  23.755  1.00  0.00    -0.507 OA
ATOM     20  H   UNL     1      25.509  22.353  23.182  1.00  0.00     0.293 HD
ENDBRANCH  14  19
BRANCH  18  21
ATOM     21  O   UNL     1      22.674  22.894  27.262  1.00  0.00    -0.508 OA
ATOM     22  H   UNL     1      22.217  22.026  27.008  1.00  0.00     0.293 HD
ENDBRANCH  18  21
ENDBRANCH  11  13
ENDBRANCH   2  11
TORSDOF 6
ENDMDL
MODEL 2
REMARK VINA RESULT:    -3.078      1.620      7.389
REMARK INTER + INTRA:          -4.501
REMARK INTER:                  -4.076
REMARK INTRA:                  -0.425
REMARK UNBOUND:                -0.613
REMARK SMILES O=C(C=Cc1ccc(O)cc1)c1ccc(O)cc1O
REMARK SMILES IDX 4 1 3 2 5 3 6 4 7 5 8 6 11 7 10 8 9 9 2 11 1 12 12 13 18 14
REMARK SMILES IDX 13 15 17 16 14 17 15 18 19 19 16 21
REMARK H PARENT 9 10 19 20 16 22
REMARK Flexibility Score: inf
ROOT
ATOM      1  C   UNL     1      26.692  25.265  26.500  1.00  0.00     0.012 C 
ATOM      2  C   UNL     1      26.847  26.427  25.851  1.00  0.00     0.053 C 
ENDROOT
BRANCH   1   3
ATOM      3  C   UNL     1      25.371  24.694  26.861  1.00  0.00    -0.025 A 
ATOM      4  C   UNL     1      24.506  25.312  27.786  1.00  0.00     0.012 A 
ATOM      5  C   UNL     1      23.275  24.728  28.103  1.00  0.00     0.047 A 
ATOM      6  C   UNL     1      22.895  23.517  27.510  1.00  0.00     0.115 A 
ATOM      7  C   UNL     1      24.986  23.471  26.285  1.00  0.00     0.012 A 
ATOM      8  C   UNL     1      23.755  22.891  26.603  1.00  0.00     0.047 A 
BRANCH   6   9
ATOM      9  O   UNL     1      21.671  22.928  27.818  1.00  0.00    -0.508 OA
ATOM     10  H   UNL     1      20.960  22.786  27.111  1.00  0.00     0.293 HD
ENDBRANCH   6   9
ENDBRANCH   1   3
BRANCH   2  11
ATOM     11  C   UNL     1      28.180  26.958  25.494  1.00  0.00     0.189 C 
ATOM     12  O   UNL     1      29.120  26.163  25.217  1.00  0.00    -0.289 OA
BRANCH  11  13
ATOM     13  C   UNL     1      28.424  28.417  25.405  1.00  0.00     0.064 A 
ATOM     14  C   UNL     1      28.863  29.169  26.518  1.00  0.00     0.130 A 
ATOM     15  C   UNL     1      28.238  29.068  24.173  1.00  0.00     0.020 A 
ATOM     16  C   UNL     1      29.066  30.551  26.391  1.00  0.00     0.093 A 
ATOM     17  C   UNL     1      28.449  30.444  24.055  1.00  0.00     0.047 A 
ATOM     18  C   UNL     1      28.859  31.190  25.162  1.00  0.00     0.119 A 
BRANCH  14  19
ATOM     19  O   UNL     1      29.122  28.545  27.738  1.00  0.00    -0.507 OA
ATOM     20  H   UNL     1      29.719  27.727  27.803  1.00  0.00     0.293 HD
ENDBRANCH  14  19
BRANCH  18  21
ATOM     21  O   UNL     1      29.061  32.561  25.031  1.00  0.00    -0.508 OA
ATOM     22  H   UNL     1      29.558  32.949  24.238  1.00  0.00     0.293 HD
ENDBRANCH  18  21
ENDBRANCH  11  13
ENDBRANCH   2  11
TORSDOF 6
ENDMDL
MODEL 3
REMARK VINA RESULT:    -2.350      1.594      2.203
REMARK INTER + INTRA:          -3.582
REMARK INTER:                  -3.503
REMARK INTRA:                  -0.079
REMARK UNBOUND:                -0.613
REMARK SMILES O=C(C=Cc1ccc(O)cc1)c1ccc(O)cc1O
REMARK SMILES IDX 4 1 3 2 5 3 6 4 7 5 8 6 11 7 10 8 9 9 2 11 1 12 12 13 18 14
REMARK SMILES IDX 13 15 17 16 14 17 15 18 19 19 16 21
REMARK H PARENT 9 10 19 20 16 22
REMARK Flexibility Score: inf
ROOT
ATOM      1  C   UNL     1      27.928  27.016  26.033  1.00  0.00     0.012 C 
ATOM      2  C   UNL     1      26.747  26.394  25.913  1.00  0.00     0.053 C 
ENDROOT
BRANCH   1   3
ATOM      3  C   UNL     1      28.204  28.368  25.490  1.00  0.00    -0.025 A 
ATOM      4  C   UNL     1      28.897  29.353  26.224  1.00  0.00     0.012 A 
ATOM      5  C   UNL     1      29.124  30.618  25.672  1.00  0.00     0.047 A 
ATOM      6  C   UNL     1      28.655  30.921  24.387  1.00  0.00     0.115 A 
ATOM      7  C   UNL     1      27.725  28.689  24.208  1.00  0.00     0.012 A 
ATOM      8  C   UNL     1      27.954  29.954  23.660  1.00  0.00     0.047 A 
BRANCH   6   9
ATOM      9  O   UNL     1      28.876  32.178  23.828  1.00  0.00    -0.508 OA
ATOM     10  H   UNL     1      28.901  33.014  24.399  1.00  0.00     0.293 HD
ENDBRANCH   6   9
ENDBRANCH   1   3
BRANCH   2  11
ATOM     11  C   UNL     1      26.502  25.050  26.482  1.00  0.00     0.189 C 
ATOM     12  O   UNL     1      27.475  24.283  26.724  1.00  0.00    -0.289 OA
BRANCH  11  13
ATOM     13  C   UNL     1      25.132  24.601  26.822  1.00  0.00     0.064 A 
ATOM     14  C   UNL     1      24.236  25.421  27.545  1.00  0.00     0.130 A 
ATOM     15  C   UNL     1      24.701  23.335  26.391  1.00  0.00     0.020 A 
ATOM     16  C   UNL     1      22.953  24.948  27.856  1.00  0.00     0.093 A 
ATOM     17  C   UNL     1      23.418  22.875  26.702  1.00  0.00     0.047 A 
ATOM     18  C   UNL     1      22.544  23.676  27.438  1.00  0.00     0.119 A 
BRANCH  14  19
ATOM     19  O   UNL     1      24.607  26.710  27.929  1.00  0.00    -0.507 OA
ATOM     20  H   UNL     1      24.799  27.435  27.247  1.00  0.00     0.293 HD
ENDBRANCH  14  19
BRANCH  18  21
ATOM     21  O   UNL     1      21.270  23.203  27.743  1.00  0.00    -0.508 OA
ATOM     22  H   UNL     1      20.861  23.338  28.660  1.00  0.00     0.293 HD
ENDBRANCH  18  21
ENDBRANCH  11  13
ENDBRANCH   2  11
TORSDOF 6
ENDMDL
