MODEL 1
REMARK VINA RESULT:    -4.318      0.000      0.000
REMARK INTER + INTRA:         -10.635
REMARK INTER:                  -8.104
REMARK INTRA:                  -2.531
REMARK UNBOUND:                -2.531
REMARK SMILES CCCCCCCCC=CCCCCCCCC(=O)[O-]
REMARK SMILES IDX 10 1 9 2 11 3 12 4 13 5 14 6 15 7 16 8 17 9 18 10 19 11
REMARK SMILES IDX 20 12 8 13 7 14 6 15 5 16 4 17 3 18 2 19 1 20
REMARK H PARENT
REMARK Flexibility Score: inf
ROOT
ATOM      1  C   UNL     1     117.725 119.361 130.251  1.00  0.00    -0.031 C 
ATOM      2  C   UNL     1     118.493 120.196 130.967  1.00  0.00    -0.031 C 
ENDROOT
BRANCH   1   3
ATOM      3  C   UNL     1     117.167 119.760 128.913  1.00  0.00     0.027 C 
BRANCH   3   4
ATOM      4  C   UNL     1     115.630 119.751 128.933  1.00  0.00     0.004 C 
BRANCH   4   5
ATOM      5  C   UNL     1     115.018 120.557 127.777  1.00  0.00     0.000 C 
BRANCH   5   6
ATOM      6  C   UNL     1     114.254 121.801 128.262  1.00  0.00     0.000 C 
BRANCH   6   7
ATOM      7  C   UNL     1     114.811 123.105 127.667  1.00  0.00     0.000 C 
BRANCH   7   8
ATOM      8  C   UNL     1     116.270 123.368 128.080  1.00  0.00     0.006 C 
BRANCH   8   9
ATOM      9  C   UNL     1     117.196 123.527 126.866  1.00  0.00     0.053 C 
BRANCH   9  10
ATOM     10  C   UNL     1     117.910 124.844 126.879  1.00  0.00     0.041 C 
ATOM     11  O   UNL     1     119.114 124.914 126.516  1.00  0.00    -0.550 OA
ATOM     12  O   UNL     1     117.238 125.998 127.261  1.00  0.00    -0.550 OA
ENDBRANCH   9  10
ENDBRANCH   8   9
ENDBRANCH   7   8
ENDBRANCH   6   7
ENDBRANCH   5   6
ENDBRANCH   4   5
ENDBRANCH   3   4
ENDBRANCH   1   3
BRANCH   2  13
ATOM     13  C   UNL     1     119.060 119.798 132.303  1.00  0.00     0.027 C 
BRANCH  13  14
ATOM     14  C   UNL     1     118.589 120.720 133.442  1.00  0.00     0.004 C 
BRANCH  14  15
ATOM     15  C   UNL     1     117.552 120.085 134.391  1.00  0.00     0.000 C 
BRANCH  15  16
ATOM     16  C   UNL     1     116.293 120.934 134.639  1.00  0.00     0.000 C 
BRANCH  16  17
ATOM     17  C   UNL     1     115.026 120.316 134.029  1.00  0.00    -0.000 C 
BRANCH  17  18
ATOM     18  C   UNL     1     115.073 120.368 132.497  1.00  0.00    -0.000 C 
BRANCH  18  19
ATOM     19  C   UNL     1     114.632 121.743 131.980  1.00  0.00    -0.003 C 
ATOM     20  C   UNL     1     115.831 122.574 131.534  1.00  0.00     0.004 C 
ENDBRANCH  18  19
ENDBRANCH  17  18
ENDBRANCH  16  17
ENDBRANCH  15  16
ENDBRANCH  14  15
ENDBRANCH  13  14
ENDBRANCH   2  13
TORSDOF 15
ENDMDL
MODEL 2
REMARK VINA RESULT:    -4.269      1.325      2.807
REMARK INTER + INTRA:         -10.543
REMARK INTER:                  -8.103
REMARK INTRA:                  -2.439
REMARK UNBOUND:                -2.531
REMARK SMILES CCCCCCCCC=CCCCCCCCC(=O)[O-]
REMARK SMILES IDX 10 1 9 2 11 3 12 4 13 5 14 6 15 7 16 8 17 9 18 10 19 11
REMARK SMILES IDX 20 12 8 13 7 14 6 15 5 16 4 17 3 18 2 19 1 20
REMARK H PARENT
REMARK Flexibility Score: inf
ROOT
ATOM      1  C   UNL     1     115.130 120.634 131.130  1.00  0.00    -0.031 C 
ATOM      2  C   UNL     1     115.139 120.030 132.328  1.00  0.00    -0.031 C 
ENDROOT
BRANCH   1   3
ATOM      3  C   UNL     1     115.552 119.910 129.881  1.00  0.00     0.027 C 
BRANCH   3   4
ATOM      4  C   UNL     1     115.210 120.730 128.628  1.00  0.00     0.004 C 
BRANCH   4   5
ATOM      5  C   UNL     1     115.415 122.239 128.833  1.00  0.00     0.000 C 
BRANCH   5   6
ATOM      6  C   UNL     1     116.455 122.833 127.868  1.00  0.00     0.000 C 
BRANCH   6   7
ATOM      7  C   UNL     1     117.670 121.912 127.669  1.00  0.00     0.000 C 
BRANCH   7   8
ATOM      8  C   UNL     1     118.823 122.604 126.921  1.00  0.00     0.006 C 
BRANCH   8   9
ATOM      9  C   UNL     1     118.446 124.019 126.459  1.00  0.00     0.053 C 
BRANCH   9  10
ATOM     10  C   UNL     1     119.519 125.014 126.778  1.00  0.00     0.041 C 
ATOM     11  O   UNL     1     120.732 124.681 126.711  1.00  0.00    -0.550 OA
ATOM     12  O   UNL     1     119.181 126.317 127.120  1.00  0.00    -0.550 OA
ENDBRANCH   9  10
ENDBRANCH   8   9
ENDBRANCH   7   8
ENDBRANCH   6   7
ENDBRANCH   5   6
ENDBRANCH   4   5
ENDBRANCH   3   4
ENDBRANCH   1   3
BRANCH   2  13
ATOM     13  C   UNL     1     114.710 120.749 133.578  1.00  0.00     0.027 C 
BRANCH  13  14
ATOM     14  C   UNL     1     115.651 120.479 134.765  1.00  0.00     0.004 C 
BRANCH  14  15
ATOM     15  C   UNL     1     117.029 119.906 134.372  1.00  0.00     0.000 C 
BRANCH  15  16
ATOM     16  C   UNL     1     118.235 120.744 134.830  1.00  0.00     0.000 C 
BRANCH  16  17
ATOM     17  C   UNL     1     119.125 121.199 133.664  1.00  0.00    -0.000 C 
BRANCH  17  18
ATOM     18  C   UNL     1     118.804 120.409 132.389  1.00  0.00    -0.000 C 
BRANCH  18  19
ATOM     19  C   UNL     1     118.793 121.328 131.162  1.00  0.00    -0.003 C 
ATOM     20  C   UNL     1     118.113 122.657 131.475  1.00  0.00     0.004 C 
ENDBRANCH  18  19
ENDBRANCH  17  18
ENDBRANCH  16  17
ENDBRANCH  15  16
ENDBRANCH  14  15
ENDBRANCH  13  14
ENDBRANCH   2  13
TORSDOF 15
ENDMDL
MODEL 3
REMARK VINA RESULT:    -4.261      2.151      4.314
REMARK INTER + INTRA:         -10.529
REMARK INTER:                  -7.472
REMARK INTRA:                  -3.057
REMARK UNBOUND:                -2.531
REMARK SMILES CCCCCCCCC=CCCCCCCCC(=O)[O-]
REMARK SMILES IDX 10 1 9 2 11 3 12 4 13 5 14 6 15 7 16 8 17 9 18 10 19 11
REMARK SMILES IDX 20 12 8 13 7 14 6 15 5 16 4 17 3 18 2 19 1 20
REMARK H PARENT
REMARK Flexibility Score: inf
ROOT
ATOM      1  C   UNL     1     116.742 123.502 130.531  1.00  0.00    -0.031 C 
ATOM      2  C   UNL     1     116.221 122.902 131.612  1.00  0.00    -0.031 C 
ENDROOT
BRANCH   1   3
ATOM      3  C   UNL     1     118.159 124.004 130.518  1.00  0.00     0.027 C 
BRANCH   3   4
ATOM      4  C   UNL     1     118.242 125.399 129.878  1.00  0.00     0.004 C 
BRANCH   4   5
ATOM      5  C   UNL     1     117.029 125.717 128.990  1.00  0.00     0.000 C 
BRANCH   5   6
ATOM      6  C   UNL     1     117.372 125.702 127.490  1.00  0.00     0.000 C 
BRANCH   6   7
ATOM      7  C   UNL     1     117.283 124.294 126.878  1.00  0.00     0.000 C 
BRANCH   7   8
ATOM      8  C   UNL     1     118.571 123.887 126.141  1.00  0.00     0.006 C 
BRANCH   8   9
ATOM      9  C   UNL     1     119.400 122.873 126.941  1.00  0.00     0.053 C 
BRANCH   9  10
ATOM     10  C   UNL     1     120.640 123.492 127.510  1.00  0.00     0.041 C 
ATOM     11  O   UNL     1     121.257 124.380 126.865  1.00  0.00    -0.550 OA
ATOM     12  O   UNL     1     121.095 123.112 128.766  1.00  0.00    -0.550 OA
ENDBRANCH   9  10
ENDBRANCH   8   9
ENDBRANCH   7   8
ENDBRANCH   6   7
ENDBRANCH   5   6
ENDBRANCH   4   5
ENDBRANCH   3   4
ENDBRANCH   1   3
BRANCH   2  13
ATOM     13  C   UNL     1     114.806 122.391 131.627  1.00  0.00     0.027 C 
BRANCH  13  14
ATOM     14  C   UNL     1     114.716 120.917 132.060  1.00  0.00     0.004 C 
BRANCH  14  15
ATOM     15  C   UNL     1     115.793 120.002 131.442  1.00  0.00     0.000 C 
BRANCH  15  16
ATOM     16  C   UNL     1     115.543 119.600 129.978  1.00  0.00     0.000 C 
BRANCH  16  17
ATOM     17  C   UNL     1     116.671 120.045 129.035  1.00  0.00    -0.000 C 
BRANCH  17  18
ATOM     18  C   UNL     1     116.142 121.004 127.961  1.00  0.00    -0.000 C 
BRANCH  18  19
ATOM     19  C   UNL     1     114.617 121.138 128.048  1.00  0.00    -0.003 C 
ATOM     20  C   UNL     1     114.185 122.596 127.930  1.00  0.00     0.004 C 
ENDBRANCH  18  19
ENDBRANCH  17  18
ENDBRANCH  16  17
ENDBRANCH  15  16
ENDBRANCH  14  15
ENDBRANCH  13  14
ENDBRANCH   2  13
TORSDOF 15
ENDMDL
MODEL 4
REMARK VINA RESULT:    -4.243      2.501      4.625
REMARK INTER + INTRA:         -10.496
REMARK INTER:                  -8.413
REMARK INTRA:                  -2.083
REMARK UNBOUND:                -2.531
REMARK SMILES CCCCCCCCC=CCCCCCCCC(=O)[O-]
REMARK SMILES IDX 10 1 9 2 11 3 12 4 13 5 14 6 15 7 16 8 17 9 18 10 19 11
REMARK SMILES IDX 20 12 8 13 7 14 6 15 5 16 4 17 3 18 2 19 1 20
REMARK H PARENT
REMARK Flexibility Score: inf
ROOT
ATOM      1  C   UNL     1     118.632 125.097 130.693  1.00  0.00    -0.031 C 
ATOM      2  C   UNL     1     117.446 124.558 130.374  1.00  0.00    -0.031 C 
ENDROOT
BRANCH   1   3
ATOM      3  C   UNL     1     119.497 125.761 129.658  1.00  0.00     0.027 C 
BRANCH   3   4
ATOM      4  C   UNL     1     118.665 126.186 128.438  1.00  0.00     0.004 C 
BRANCH   4   5
ATOM      5  C   UNL     1     119.223 125.630 127.118  1.00  0.00     0.000 C 
BRANCH   5   6
ATOM      6  C   UNL     1     118.877 124.146 126.908  1.00  0.00     0.000 C 
BRANCH   6   7
ATOM      7  C   UNL     1     117.387 123.925 126.599  1.00  0.00     0.000 C 
BRANCH   7   8
ATOM      8  C   UNL     1     116.786 122.750 127.390  1.00  0.00     0.006 C 
BRANCH   8   9
ATOM      9  C   UNL     1     115.301 122.966 127.710  1.00  0.00     0.053 C 
BRANCH   9  10
ATOM     10  C   UNL     1     114.478 121.757 127.383  1.00  0.00     0.041 C 
ATOM     11  O   UNL     1     113.734 121.754 126.368  1.00  0.00    -0.550 OA
ATOM     12  O   UNL     1     114.558 120.623 128.182  1.00  0.00    -0.550 OA
ENDBRANCH   9  10
ENDBRANCH   8   9
ENDBRANCH   7   8
ENDBRANCH   6   7
ENDBRANCH   5   6
ENDBRANCH   4   5
ENDBRANCH   3   4
ENDBRANCH   1   3
BRANCH   2  13
ATOM     13  C   UNL     1     116.574 123.899 131.409  1.00  0.00     0.027 C 
BRANCH  13  14
ATOM     14  C   UNL     1     116.306 122.416 131.096  1.00  0.00     0.004 C 
BRANCH  14  15
ATOM     15  C   UNL     1     114.916 121.911 131.533  1.00  0.00     0.000 C 
BRANCH  15  16
ATOM     16  C   UNL     1     114.907 120.517 132.186  1.00  0.00     0.000 C 
BRANCH  16  17
ATOM     17  C   UNL     1     114.686 120.570 133.705  1.00  0.00    -0.000 C 
BRANCH  17  18
ATOM     18  C   UNL     1     115.899 120.006 134.455  1.00  0.00    -0.000 C 
BRANCH  18  19
ATOM     19  C   UNL     1     116.897 121.118 134.800  1.00  0.00    -0.003 C 
ATOM     20  C   UNL     1     118.181 120.978 133.989  1.00  0.00     0.004 C 
ENDBRANCH  18  19
ENDBRANCH  17  18
ENDBRANCH  16  17
ENDBRANCH  15  16
ENDBRANCH  14  15
ENDBRANCH  13  14
ENDBRANCH   2  13
TORSDOF 15
ENDMDL
MODEL 5
REMARK VINA RESULT:    -4.239      2.681      6.691
REMARK INTER + INTRA:         -10.487
REMARK INTER:                  -8.416
REMARK INTRA:                  -2.071
REMARK UNBOUND:                -2.531
REMARK SMILES CCCCCCCCC=CCCCCCCCC(=O)[O-]
REMARK SMILES IDX 10 1 9 2 11 3 12 4 13 5 14 6 15 7 16 8 17 9 18 10 19 11
REMARK SMILES IDX 20 12 8 13 7 14 6 15 5 16 4 17 3 18 2 19 1 20
REMARK H PARENT
REMARK Flexibility Score: inf
ROOT
ATOM      1  C   UNL     1     116.563 122.564 130.039  1.00  0.00    -0.031 C 
ATOM      2  C   UNL     1     115.976 122.954 128.897  1.00  0.00    -0.031 C 
ENDROOT
BRANCH   1   3
ATOM      3  C   UNL     1     115.948 122.860 131.379  1.00  0.00     0.027 C 
BRANCH   3   4
ATOM      4  C   UNL     1     114.725 121.964 131.633  1.00  0.00     0.004 C 
BRANCH   4   5
ATOM      5  C   UNL     1     115.102 120.605 132.243  1.00  0.00     0.000 C 
BRANCH   5   6
ATOM      6  C   UNL     1     114.674 120.477 133.715  1.00  0.00     0.000 C 
BRANCH   6   7
ATOM      7  C   UNL     1     115.860 120.591 134.686  1.00  0.00     0.000 C 
BRANCH   7   8
ATOM      8  C   UNL     1     117.154 119.985 134.115  1.00  0.00     0.006 C 
BRANCH   8   9
ATOM      9  C   UNL     1     118.306 120.999 134.089  1.00  0.00     0.053 C 
BRANCH   9  10
ATOM     10  C   UNL     1     118.892 121.141 132.718  1.00  0.00     0.041 C 
ATOM     11  O   UNL     1     118.644 120.283 131.831  1.00  0.00    -0.550 OA
ATOM     12  O   UNL     1     119.686 122.239 132.410  1.00  0.00    -0.550 OA
ENDBRANCH   9  10
ENDBRANCH   8   9
ENDBRANCH   7   8
ENDBRANCH   6   7
ENDBRANCH   5   6
ENDBRANCH   4   5
ENDBRANCH   3   4
ENDBRANCH   1   3
BRANCH   2  13
ATOM     13  C   UNL     1     116.584 122.653 127.554  1.00  0.00     0.027 C 
BRANCH  13  14
ATOM     14  C   UNL     1     118.011 122.089 127.666  1.00  0.00     0.004 C 
BRANCH  14  15
ATOM     15  C   UNL     1     119.003 122.645 126.625  1.00  0.00     0.000 C 
BRANCH  15  16
ATOM     16  C   UNL     1     118.755 124.105 126.206  1.00  0.00     0.000 C 
BRANCH  16  17
ATOM     17  C   UNL     1     119.752 125.087 126.839  1.00  0.00    -0.000 C 
BRANCH  17  18
ATOM     18  C   UNL     1     119.019 126.229 127.553  1.00  0.00    -0.000 C 
BRANCH  18  19
ATOM     19  C   UNL     1     117.501 126.098 127.383  1.00  0.00    -0.003 C 
ATOM     20  C   UNL     1     116.764 126.573 128.631  1.00  0.00     0.004 C 
ENDBRANCH  18  19
ENDBRANCH  17  18
ENDBRANCH  16  17
ENDBRANCH  15  16
ENDBRANCH  14  15
ENDBRANCH  13  14
ENDBRANCH   2  13
TORSDOF 15
ENDMDL
MODEL 6
REMARK VINA RESULT:    -4.228      2.579      6.060
REMARK INTER + INTRA:         -10.466
REMARK INTER:                  -7.763
REMARK INTRA:                  -2.704
REMARK UNBOUND:                -2.531
REMARK SMILES CCCCCCCCC=CCCCCCCCC(=O)[O-]
REMARK SMILES IDX 10 1 9 2 11 3 12 4 13 5 14 6 15 7 16 8 17 9 18 10 19 11
REMARK SMILES IDX 20 12 8 13 7 14 6 15 5 16 4 17 3 18 2 19 1 20
REMARK H PARENT
REMARK Flexibility Score: inf
ROOT
ATOM      1  C   UNL     1     115.953 122.026 131.596  1.00  0.00    -0.031 C 
ATOM      2  C   UNL     1     116.117 123.349 131.443  1.00  0.00    -0.031 C 
ENDROOT
BRANCH   1   3
ATOM      3  C   UNL     1     114.644 121.445 132.054  1.00  0.00     0.027 C 
BRANCH   3   4
ATOM      4  C   UNL     1     114.870 120.210 132.941  1.00  0.00     0.004 C 
BRANCH   4   5
ATOM      5  C   UNL     1     115.192 120.577 134.397  1.00  0.00     0.000 C 
BRANCH   5   6
ATOM      6  C   UNL     1     116.443 119.856 134.928  1.00  0.00     0.000 C 
BRANCH   6   7
ATOM      7  C   UNL     1     117.714 120.714 134.809  1.00  0.00     0.000 C 
BRANCH   7   8
ATOM      8  C   UNL     1     118.551 120.363 133.567  1.00  0.00     0.006 C 
BRANCH   8   9
ATOM      9  C   UNL     1     119.380 121.557 133.071  1.00  0.00     0.053 C 
BRANCH   9  10
ATOM     10  C   UNL     1     120.720 121.129 132.556  1.00  0.00     0.041 C 
ATOM     11  O   UNL     1     121.061 119.918 132.608  1.00  0.00    -0.550 OA
ATOM     12  O   UNL     1     121.579 122.062 131.989  1.00  0.00    -0.550 OA
ENDBRANCH   9  10
ENDBRANCH   8   9
ENDBRANCH   7   8
ENDBRANCH   6   7
ENDBRANCH   5   6
ENDBRANCH   4   5
ENDBRANCH   3   4
ENDBRANCH   1   3
BRANCH   2  13
ATOM     13  C   UNL     1     117.423 123.933 130.977  1.00  0.00     0.027 C 
BRANCH  13  14
ATOM     14  C   UNL     1     117.859 123.385 129.607  1.00  0.00     0.004 C 
BRANCH  14  15
ATOM     15  C   UNL     1     116.947 123.798 128.433  1.00  0.00     0.000 C 
BRANCH  15  16
ATOM     16  C   UNL     1     116.356 122.629 127.626  1.00  0.00     0.000 C 
BRANCH  16  17
ATOM     17  C   UNL     1     114.869 122.387 127.925  1.00  0.00    -0.000 C 
BRANCH  17  18
ATOM     18  C   UNL     1     114.590 120.895 128.145  1.00  0.00    -0.000 C 
BRANCH  18  19
ATOM     19  C   UNL     1     115.889 120.128 128.417  1.00  0.00    -0.003 C 
ATOM     20  C   UNL     1     115.661 118.997 129.415  1.00  0.00     0.004 C 
ENDBRANCH  18  19
ENDBRANCH  17  18
ENDBRANCH  16  17
ENDBRANCH  15  16
ENDBRANCH  14  15
ENDBRANCH  13  14
ENDBRANCH   2  13
TORSDOF 15
ENDMDL
MODEL 7
REMARK VINA RESULT:    -4.198      3.460      6.418
REMARK INTER + INTRA:         -10.410
REMARK INTER:                  -7.732
REMARK INTRA:                  -2.678
REMARK UNBOUND:                -2.531
REMARK SMILES CCCCCCCCC=CCCCCCCCC(=O)[O-]
REMARK SMILES IDX 10 1 9 2 11 3 12 4 13 5 14 6 15 7 16 8 17 9 18 10 19 11
REMARK SMILES IDX 20 12 8 13 7 14 6 15 5 16 4 17 3 18 2 19 1 20
REMARK H PARENT
REMARK Flexibility Score: inf
ROOT
ATOM      1  C   UNL     1     115.856 123.024 127.553  1.00  0.00    -0.031 C 
ATOM      2  C   UNL     1     116.443 124.145 128.000  1.00  0.00    -0.031 C 
ENDROOT
BRANCH   1   3
ATOM      3  C   UNL     1     114.680 122.416 128.267  1.00  0.00     0.027 C 
BRANCH   3   4
ATOM      4  C   UNL     1     114.579 120.910 127.974  1.00  0.00     0.004 C 
BRANCH   4   5
ATOM      5  C   UNL     1     115.890 120.161 128.257  1.00  0.00     0.000 C 
BRANCH   5   6
ATOM      6  C   UNL     1     115.777 119.201 129.453  1.00  0.00     0.000 C 
BRANCH   6   7
ATOM      7  C   UNL     1     116.390 119.783 130.738  1.00  0.00     0.000 C 
BRANCH   7   8
ATOM      8  C   UNL     1     115.323 120.221 131.757  1.00  0.00     0.006 C 
BRANCH   8   9
ATOM      9  C   UNL     1     115.913 121.093 132.874  1.00  0.00     0.053 C 
BRANCH   9  10
ATOM     10  C   UNL     1     115.568 120.566 134.233  1.00  0.00     0.041 C 
ATOM     11  O   UNL     1     114.527 120.963 134.821  1.00  0.00    -0.550 OA
ATOM     12  O   UNL     1     116.378 119.613 134.838  1.00  0.00    -0.550 OA
ENDBRANCH   9  10
ENDBRANCH   8   9
ENDBRANCH   7   8
ENDBRANCH   6   7
ENDBRANCH   5   6
ENDBRANCH   4   5
ENDBRANCH   3   4
ENDBRANCH   1   3
BRANCH   2  13
ATOM     13  C   UNL     1     117.614 124.762 127.285  1.00  0.00     0.027 C 
BRANCH  13  14
ATOM     14  C   UNL     1     118.208 123.830 126.214  1.00  0.00     0.004 C 
BRANCH  14  15
ATOM     15  C   UNL     1     119.471 123.065 126.661  1.00  0.00     0.000 C 
BRANCH  15  16
ATOM     16  C   UNL     1     119.257 121.568 126.944  1.00  0.00     0.000 C 
BRANCH  16  17
ATOM     17  C   UNL     1     119.431 121.210 128.428  1.00  0.00    -0.000 C 
BRANCH  17  18
ATOM     18  C   UNL     1     119.615 122.472 129.279  1.00  0.00    -0.000 C 
BRANCH  18  19
ATOM     19  C   UNL     1     119.045 122.274 130.688  1.00  0.00    -0.003 C 
ATOM     20  C   UNL     1     118.074 123.392 131.052  1.00  0.00     0.004 C 
ENDBRANCH  18  19
ENDBRANCH  17  18
ENDBRANCH  16  17
ENDBRANCH  15  16
ENDBRANCH  14  15
ENDBRANCH  13  14
ENDBRANCH   2  13
TORSDOF 15
ENDMDL
MODEL 8
REMARK VINA RESULT:    -4.180      2.521      4.504
REMARK INTER + INTRA:         -10.376
REMARK INTER:                  -7.337
REMARK INTRA:                  -3.039
REMARK UNBOUND:                -2.531
REMARK SMILES CCCCCCCCC=CCCCCCCCC(=O)[O-]
REMARK SMILES IDX 10 1 9 2 11 3 12 4 13 5 14 6 15 7 16 8 17 9 18 10 19 11
REMARK SMILES IDX 20 12 8 13 7 14 6 15 5 16 4 17 3 18 2 19 1 20
REMARK H PARENT
REMARK Flexibility Score: inf
ROOT
ATOM      1  C   UNL     1     118.203 123.126 130.433  1.00  0.00    -0.031 C 
ATOM      2  C   UNL     1     117.116 123.756 130.904  1.00  0.00    -0.031 C 
ENDROOT
BRANCH   1   3
ATOM      3  C   UNL     1     119.443 123.882 130.042  1.00  0.00     0.027 C 
BRANCH   3   4
ATOM      4  C   UNL     1     119.890 123.508 128.620  1.00  0.00     0.004 C 
BRANCH   4   5
ATOM      5  C   UNL     1     118.797 123.762 127.570  1.00  0.00     0.000 C 
BRANCH   5   6
ATOM      6  C   UNL     1     118.531 125.260 127.341  1.00  0.00     0.000 C 
BRANCH   6   7
ATOM      7  C   UNL     1     117.038 125.615 127.433  1.00  0.00     0.000 C 
BRANCH   7   8
ATOM      8  C   UNL     1     116.731 126.589 128.584  1.00  0.00     0.006 C 
BRANCH   8   9
ATOM      9  C   UNL     1     118.003 127.229 129.157  1.00  0.00     0.053 C 
BRANCH   9  10
ATOM     10  C   UNL     1     117.732 127.957 130.438  1.00  0.00     0.041 C 
ATOM     11  O   UNL     1     118.138 129.139 130.592  1.00  0.00    -0.550 OA
ATOM     12  O   UNL     1     117.005 127.342 131.449  1.00  0.00    -0.550 OA
ENDBRANCH   9  10
ENDBRANCH   8   9
ENDBRANCH   7   8
ENDBRANCH   6   7
ENDBRANCH   5   6
ENDBRANCH   4   5
ENDBRANCH   3   4
ENDBRANCH   1   3
BRANCH   2  13
ATOM     13  C   UNL     1     115.877 123.002 131.303  1.00  0.00     0.027 C 
BRANCH  13  14
ATOM     14  C   UNL     1     116.197 121.657 131.978  1.00  0.00     0.004 C 
BRANCH  14  15
ATOM     15  C   UNL     1     115.345 120.472 131.479  1.00  0.00     0.000 C 
BRANCH  15  16
ATOM     16  C   UNL     1     115.927 119.717 130.271  1.00  0.00     0.000 C 
BRANCH  16  17
ATOM     17  C   UNL     1     115.252 120.099 128.945  1.00  0.00    -0.000 C 
BRANCH  17  18
ATOM     18  C   UNL     1     116.188 120.950 128.079  1.00  0.00    -0.000 C 
BRANCH  18  19
ATOM     19  C   UNL     1     115.495 122.241 127.625  1.00  0.00    -0.003 C 
ATOM     20  C   UNL     1     114.049 122.289 128.108  1.00  0.00     0.004 C 
ENDBRANCH  18  19
ENDBRANCH  17  18
ENDBRANCH  16  17
ENDBRANCH  15  16
ENDBRANCH  14  15
ENDBRANCH  13  14
ENDBRANCH   2  13
TORSDOF 15
ENDMDL
MODEL 9
REMARK VINA RESULT:    -4.166      3.367      6.302
REMARK INTER + INTRA:         -10.350
REMARK INTER:                  -7.782
REMARK INTRA:                  -2.568
REMARK UNBOUND:                -2.531
REMARK SMILES CCCCCCCCC=CCCCCCCCC(=O)[O-]
REMARK SMILES IDX 10 1 9 2 11 3 12 4 13 5 14 6 15 7 16 8 17 9 18 10 19 11
REMARK SMILES IDX 20 12 8 13 7 14 6 15 5 16 4 17 3 18 2 19 1 20
REMARK H PARENT
REMARK Flexibility Score: inf
ROOT
ATOM      1  C   UNL     1     117.080 123.171 127.820  1.00  0.00    -0.031 C 
ATOM      2  C   UNL     1     117.487 123.670 126.642  1.00  0.00    -0.031 C 
ENDROOT
BRANCH   1   3
ATOM      3  C   UNL     1     115.622 123.089 128.175  1.00  0.00     0.027 C 
BRANCH   3   4
ATOM      4  C   UNL     1     114.923 121.977 127.378  1.00  0.00     0.004 C 
BRANCH   4   5
ATOM      5  C   UNL     1     115.449 120.576 127.729  1.00  0.00     0.000 C 
BRANCH   5   6
ATOM      6  C   UNL     1     115.154 120.180 129.186  1.00  0.00     0.000 C 
BRANCH   6   7
ATOM      7  C   UNL     1     116.430 119.859 129.980  1.00  0.00     0.000 C 
BRANCH   7   8
ATOM      8  C   UNL     1     116.792 120.961 130.991  1.00  0.00     0.006 C 
BRANCH   8   9
ATOM      9  C   UNL     1     115.582 121.399 131.829  1.00  0.00     0.053 C 
BRANCH   9  10
ATOM     10  C   UNL     1     115.724 120.996 133.265  1.00  0.00     0.041 C 
ATOM     11  O   UNL     1     116.857 120.994 133.813  1.00  0.00    -0.550 OA
ATOM     12  O   UNL     1     114.600 120.653 134.007  1.00  0.00    -0.550 OA
ENDBRANCH   9  10
ENDBRANCH   8   9
ENDBRANCH   7   8
ENDBRANCH   6   7
ENDBRANCH   5   6
ENDBRANCH   4   5
ENDBRANCH   3   4
ENDBRANCH   1   3
BRANCH   2  13
ATOM     13  C   UNL     1     118.946 123.747 126.279  1.00  0.00     0.027 C 
BRANCH  13  14
ATOM     14  C   UNL     1     119.714 124.765 127.139  1.00  0.00     0.004 C 
BRANCH  14  15
ATOM     15  C   UNL     1     119.099 126.180 127.159  1.00  0.00     0.000 C 
BRANCH  15  16
ATOM     16  C   UNL     1     118.932 126.796 128.559  1.00  0.00     0.000 C 
BRANCH  16  17
ATOM     17  C   UNL     1     117.481 126.752 129.063  1.00  0.00    -0.000 C 
BRANCH  17  18
ATOM     18  C   UNL     1     117.350 125.820 130.274  1.00  0.00    -0.000 C 
BRANCH  18  19
ATOM     19  C   UNL     1     118.724 125.496 130.870  1.00  0.00    -0.003 C 
ATOM     20  C   UNL     1     118.948 123.990 130.951  1.00  0.00     0.004 C 
ENDBRANCH  18  19
ENDBRANCH  17  18
ENDBRANCH  16  17
ENDBRANCH  15  16
ENDBRANCH  14  15
ENDBRANCH  13  14
ENDBRANCH   2  13
TORSDOF 15
ENDMDL
