MODEL 1
REMARK VINA RESULT:    -4.201      0.000      0.000
REMARK INTER + INTRA:          -4.806
REMARK INTER:                  -4.569
REMARK INTRA:                  -0.237
REMARK UNBOUND:                -0.237
REMARK SMILES O=C([O-])c1ccccc1O
REMARK SMILES IDX 4 1 9 2 5 3 8 4 6 5 7 6 2 7 1 8 3 9 10 10
REMARK H PARENT 10 11
REMARK Flexibility Score: inf
ROOT
ATOM      1  C   UNL     1      11.156  49.242  62.554  1.00  0.00     0.039 A 
ATOM      2  C   UNL     1      11.188  48.443  63.724  1.00  0.00     0.124 A 
ATOM      3  C   UNL     1      10.312  48.864  61.492  1.00  0.00     0.014 A 
ATOM      4  C   UNL     1      10.433  47.264  63.777  1.00  0.00     0.047 A 
ATOM      5  C   UNL     1       9.549  47.697  61.571  1.00  0.00     0.001 A 
ATOM      6  C   UNL     1       9.618  46.893  62.708  1.00  0.00     0.004 A 
ENDROOT
BRANCH   1   7
ATOM      7  C   UNL     1      12.006  50.443  62.389  1.00  0.00     0.075 C 
ATOM      8  O   UNL     1      13.249  50.369  62.576  1.00  0.00    -0.545 OA
ATOM      9  O   UNL     1      11.441  51.678  62.094  1.00  0.00    -0.545 OA
ENDBRANCH   1   7
BRANCH   2  10
ATOM     10  O   UNL     1      11.922  48.798  64.857  1.00  0.00    -0.507 OA
ATOM     11  H   UNL     1      12.881  48.519  65.009  1.00  0.00     0.293 HD
ENDBRANCH   2  10
TORSDOF 2
ENDMDL
MODEL 2
REMARK VINA RESULT:    -4.167      1.600      2.600
REMARK INTER + INTRA:          -4.770
REMARK INTER:                  -4.519
REMARK INTRA:                  -0.251
REMARK UNBOUND:                -0.237
REMARK SMILES O=C([O-])c1ccccc1O
REMARK SMILES IDX 4 1 9 2 5 3 8 4 6 5 7 6 2 7 1 8 3 9 10 10
REMARK H PARENT 10 11
REMARK Flexibility Score: inf
ROOT
ATOM      1  C   UNL     1      11.525  48.476  62.089  1.00  0.00     0.039 A 
ATOM      2  C   UNL     1      10.614  48.154  61.052  1.00  0.00     0.124 A 
ATOM      3  C   UNL     1      11.274  48.001  63.390  1.00  0.00     0.014 A 
ATOM      4  C   UNL     1       9.454  47.428  61.351  1.00  0.00     0.047 A 
ATOM      5  C   UNL     1      10.122  47.260  63.667  1.00  0.00     0.001 A 
ATOM      6  C   UNL     1       9.209  46.982  62.650  1.00  0.00     0.004 A 
ENDROOT
BRANCH   1   7
ATOM      7  C   UNL     1      12.716  49.327  61.864  1.00  0.00     0.075 C 
ATOM      8  O   UNL     1      13.035  50.205  62.709  1.00  0.00    -0.545 OA
ATOM      9  O   UNL     1      13.457  49.217  60.693  1.00  0.00    -0.545 OA
ENDBRANCH   1   7
BRANCH   2  10
ATOM     10  O   UNL     1      10.838  48.502  59.719  1.00  0.00    -0.507 OA
ATOM     11  H   UNL     1      11.401  47.949  59.087  1.00  0.00     0.293 HD
ENDBRANCH   2  10
TORSDOF 2
ENDMDL
MODEL 3
REMARK VINA RESULT:    -4.034      1.831      2.262
REMARK INTER + INTRA:          -4.625
REMARK INTER:                  -4.373
REMARK INTRA:                  -0.252
REMARK UNBOUND:                -0.237
REMARK SMILES O=C([O-])c1ccccc1O
REMARK SMILES IDX 4 1 9 2 5 3 8 4 6 5 7 6 2 7 1 8 3 9 10 10
REMARK H PARENT 10 11
REMARK Flexibility Score: inf
ROOT
ATOM      1  C   UNL     1      12.138  48.693  61.574  1.00  0.00     0.039 A 
ATOM      2  C   UNL     1      12.184  49.331  62.839  1.00  0.00     0.124 A 
ATOM      3  C   UNL     1      11.067  47.825  61.287  1.00  0.00     0.014 A 
ATOM      4  C   UNL     1      11.206  49.040  63.797  1.00  0.00     0.047 A 
ATOM      5  C   UNL     1      10.087  47.562  62.247  1.00  0.00     0.001 A 
ATOM      6  C   UNL     1      10.162  48.161  63.504  1.00  0.00     0.004 A 
ENDROOT
BRANCH   1   7
ATOM      7  C   UNL     1      13.194  48.875  60.553  1.00  0.00     0.075 C 
ATOM      8  O   UNL     1      13.729  47.872  60.010  1.00  0.00    -0.545 OA
ATOM      9  O   UNL     1      13.658  50.144  60.229  1.00  0.00    -0.545 OA
ENDBRANCH   1   7
BRANCH   2  10
ATOM     10  O   UNL     1      13.156  50.278  63.168  1.00  0.00    -0.507 OA
ATOM     11  H   UNL     1      13.440  51.022  62.546  1.00  0.00     0.293 HD
ENDBRANCH   2  10
TORSDOF 2
ENDMDL
MODEL 4
REMARK VINA RESULT:    -4.026      2.014      3.453
REMARK INTER + INTRA:          -4.616
REMARK INTER:                  -4.401
REMARK INTRA:                  -0.215
REMARK UNBOUND:                -0.237
REMARK SMILES O=C([O-])c1ccccc1O
REMARK SMILES IDX 4 1 9 2 5 3 8 4 6 5 7 6 2 7 1 8 3 9 10 10
REMARK H PARENT 10 11
REMARK Flexibility Score: inf
ROOT
ATOM      1  C   UNL     1      10.688  48.243  62.486  1.00  0.00     0.039 A 
ATOM      2  C   UNL     1      11.566  48.887  63.395  1.00  0.00     0.124 A 
ATOM      3  C   UNL     1      10.876  48.435  61.104  1.00  0.00     0.014 A 
ATOM      4  C   UNL     1      12.557  49.747  62.907  1.00  0.00     0.047 A 
ATOM      5  C   UNL     1      11.883  49.281  60.634  1.00  0.00     0.001 A 
ATOM      6  C   UNL     1      12.716  49.943  61.535  1.00  0.00     0.004 A 
ENDROOT
BRANCH   1   7
ATOM      7  C   UNL     1       9.555  47.403  62.936  1.00  0.00     0.075 C 
ATOM      8  O   UNL     1       9.168  47.451  64.134  1.00  0.00    -0.545 OA
ATOM      9  O   UNL     1       8.949  46.503  62.067  1.00  0.00    -0.545 OA
ENDBRANCH   1   7
BRANCH   2  10
ATOM     10  O   UNL     1      11.510  48.672  64.773  1.00  0.00    -0.507 OA
ATOM     11  H   UNL     1      12.209  49.013  65.418  1.00  0.00     0.293 HD
ENDBRANCH   2  10
TORSDOF 2
ENDMDL
MODEL 5
REMARK VINA RESULT:    -3.971      2.468      3.114
REMARK INTER + INTRA:          -4.556
REMARK INTER:                  -4.357
REMARK INTRA:                  -0.199
REMARK UNBOUND:                -0.237
REMARK SMILES O=C([O-])c1ccccc1O
REMARK SMILES IDX 4 1 9 2 5 3 8 4 6 5 7 6 2 7 1 8 3 9 10 10
REMARK H PARENT 10 11
REMARK Flexibility Score: inf
ROOT
ATOM      1  C   UNL     1       9.710  49.517  63.638  1.00  0.00     0.039 A 
ATOM      2  C   UNL     1       9.585  48.113  63.790  1.00  0.00     0.124 A 
ATOM      3  C   UNL     1      10.752  50.027  62.841  1.00  0.00     0.014 A 
ATOM      4  C   UNL     1      10.532  47.267  63.200  1.00  0.00     0.047 A 
ATOM      5  C   UNL     1      11.676  49.167  62.243  1.00  0.00     0.001 A 
ATOM      6  C   UNL     1      11.572  47.789  62.430  1.00  0.00     0.004 A 
ENDROOT
BRANCH   1   7
ATOM      7  C   UNL     1       8.806  50.473  64.318  1.00  0.00     0.075 C 
ATOM      8  O   UNL     1       8.963  51.712  64.161  1.00  0.00    -0.545 OA
ATOM      9  O   UNL     1       7.819  50.022  65.187  1.00  0.00    -0.545 OA
ENDBRANCH   1   7
BRANCH   2  10
ATOM     10  O   UNL     1       8.525  47.523  64.481  1.00  0.00    -0.507 OA
ATOM     11  H   UNL     1       8.419  47.572  65.484  1.00  0.00     0.293 HD
ENDBRANCH   2  10
TORSDOF 2
ENDMDL
MODEL 6
REMARK VINA RESULT:    -3.948      2.550      3.383
REMARK INTER + INTRA:          -4.532
REMARK INTER:                  -4.321
REMARK INTRA:                  -0.211
REMARK UNBOUND:                -0.237
REMARK SMILES O=C([O-])c1ccccc1O
REMARK SMILES IDX 4 1 9 2 5 3 8 4 6 5 7 6 2 7 1 8 3 9 10 10
REMARK H PARENT 10 11
REMARK Flexibility Score: inf
ROOT
ATOM      1  C   UNL     1      10.287  49.080  63.253  1.00  0.00     0.039 A 
ATOM      2  C   UNL     1       9.072  48.918  63.965  1.00  0.00     0.124 A 
ATOM      3  C   UNL     1      10.729  50.381  62.946  1.00  0.00     0.014 A 
ATOM      4  C   UNL     1       8.306  50.044  64.291  1.00  0.00     0.047 A 
ATOM      5  C   UNL     1       9.963  51.495  63.298  1.00  0.00     0.001 A 
ATOM      6  C   UNL     1       8.748  51.325  63.961  1.00  0.00     0.004 A 
ENDROOT
BRANCH   1   7
ATOM      7  C   UNL     1      11.095  47.930  62.787  1.00  0.00     0.075 C 
ATOM      8  O   UNL     1      10.924  46.790  63.295  1.00  0.00    -0.545 OA
ATOM      9  O   UNL     1      12.094  48.102  61.837  1.00  0.00    -0.545 OA
ENDBRANCH   1   7
BRANCH   2  10
ATOM     10  O   UNL     1       8.613  47.671  64.393  1.00  0.00    -0.507 OA
ATOM     11  H   UNL     1       8.006  47.546  65.192  1.00  0.00     0.293 HD
ENDBRANCH   2  10
TORSDOF 2
ENDMDL
MODEL 7
REMARK VINA RESULT:    -3.874      2.698      4.189
REMARK INTER + INTRA:          -4.451
REMARK INTER:                  -4.249
REMARK INTRA:                  -0.201
REMARK UNBOUND:                -0.237
REMARK SMILES O=C([O-])c1ccccc1O
REMARK SMILES IDX 4 1 9 2 5 3 8 4 6 5 7 6 2 7 1 8 3 9 10 10
REMARK H PARENT 10 11
REMARK Flexibility Score: inf
ROOT
ATOM      1  C   UNL     1      10.586  48.413  61.782  1.00  0.00     0.039 A 
ATOM      2  C   UNL     1      11.424  48.504  60.643  1.00  0.00     0.124 A 
ATOM      3  C   UNL     1      10.996  49.027  62.981  1.00  0.00     0.014 A 
ATOM      4  C   UNL     1      12.666  49.142  60.747  1.00  0.00     0.047 A 
ATOM      5  C   UNL     1      12.229  49.678  63.062  1.00  0.00     0.001 A 
ATOM      6  C   UNL     1      13.067  49.727  61.948  1.00  0.00     0.004 A 
ENDROOT
BRANCH   1   7
ATOM      7  C   UNL     1       9.308  47.665  61.771  1.00  0.00     0.075 C 
ATOM      8  O   UNL     1       8.346  48.068  61.066  1.00  0.00    -0.545 OA
ATOM      9  O   UNL     1       9.129  46.553  62.585  1.00  0.00    -0.545 OA
ENDBRANCH   1   7
BRANCH   2  10
ATOM     10  O   UNL     1      11.049  48.009  59.392  1.00  0.00    -0.507 OA
ATOM     11  H   UNL     1      10.811  48.601  58.608  1.00  0.00     0.293 HD
ENDBRANCH   2  10
TORSDOF 2
ENDMDL
MODEL 8
REMARK VINA RESULT:    -3.862      2.953      3.536
REMARK INTER + INTRA:          -4.438
REMARK INTER:                  -4.205
REMARK INTRA:                  -0.233
REMARK UNBOUND:                -0.237
REMARK SMILES O=C([O-])c1ccccc1O
REMARK SMILES IDX 4 1 9 2 5 3 8 4 6 5 7 6 2 7 1 8 3 9 10 10
REMARK H PARENT 10 11
REMARK Flexibility Score: inf
ROOT
ATOM      1  C   UNL     1       9.298  48.697  62.180  1.00  0.00     0.039 A 
ATOM      2  C   UNL     1       9.520  47.375  62.641  1.00  0.00     0.124 A 
ATOM      3  C   UNL     1      10.174  49.719  62.593  1.00  0.00     0.014 A 
ATOM      4  C   UNL     1      10.561  47.122  63.542  1.00  0.00     0.047 A 
ATOM      5  C   UNL     1      11.221  49.445  63.476  1.00  0.00     0.001 A 
ATOM      6  C   UNL     1      11.408  48.150  63.957  1.00  0.00     0.004 A 
ENDROOT
BRANCH   1   7
ATOM      7  C   UNL     1       8.155  49.053  61.309  1.00  0.00     0.075 C 
ATOM      8  O   UNL     1       8.013  48.492  60.191  1.00  0.00    -0.545 OA
ATOM      9  O   UNL     1       7.265  50.055  61.679  1.00  0.00    -0.545 OA
ENDBRANCH   1   7
BRANCH   2  10
ATOM     10  O   UNL     1       8.759  46.289  62.204  1.00  0.00    -0.507 OA
ATOM     11  H   UNL     1       8.508  45.510  62.797  1.00  0.00     0.293 HD
ENDBRANCH   2  10
TORSDOF 2
ENDMDL
MODEL 9
REMARK VINA RESULT:    -3.839      2.202      3.063
REMARK INTER + INTRA:          -4.412
REMARK INTER:                  -4.188
REMARK INTRA:                  -0.224
REMARK UNBOUND:                -0.237
REMARK SMILES O=C([O-])c1ccccc1O
REMARK SMILES IDX 4 1 9 2 5 3 8 4 6 5 7 6 2 7 1 8 3 9 10 10
REMARK H PARENT 10 11
REMARK Flexibility Score: inf
ROOT
ATOM      1  C   UNL     1      12.172  48.931  61.487  1.00  0.00     0.039 A 
ATOM      2  C   UNL     1      10.991  48.400  60.908  1.00  0.00     0.124 A 
ATOM      3  C   UNL     1      12.217  49.135  62.879  1.00  0.00     0.014 A 
ATOM      4  C   UNL     1       9.877  48.150  61.718  1.00  0.00     0.047 A 
ATOM      5  C   UNL     1      11.102  48.860  63.675  1.00  0.00     0.001 A 
ATOM      6  C   UNL     1       9.931  48.377  63.094  1.00  0.00     0.004 A 
ENDROOT
BRANCH   1   7
ATOM      7  C   UNL     1      13.350  49.315  60.676  1.00  0.00     0.075 C 
ATOM      8  O   UNL     1      13.738  50.513  60.653  1.00  0.00    -0.545 OA
ATOM      9  O   UNL     1      14.000  48.380  59.881  1.00  0.00    -0.545 OA
ENDBRANCH   1   7
BRANCH   2  10
ATOM     10  O   UNL     1      10.898  48.077  59.553  1.00  0.00    -0.507 OA
ATOM     11  H   UNL     1      10.019  47.935  59.075  1.00  0.00     0.293 HD
ENDBRANCH   2  10
TORSDOF 2
ENDMDL
