MODEL 1
REMARK VINA RESULT:    -1.487      0.000      0.000
REMARK INTER + INTRA:          -2.054
REMARK INTER:                  -1.965
REMARK INTRA:                  -0.089
REMARK UNBOUND:                -0.089
REMARK SMILES CC[C@H](C=C[C@@H](C)[C@@H]1CC[C@H]2[C@H]3CC=C4C[C@@H](O)CC[C@]4(C)[C@@H]3CC[C@]21C)C(C)C
REMARK SMILES IDX 6 1 7 2 5 3 4 4 3 5 2 6 1 7 28 8 29 9 30 10 8 11 9 12 26 13
REMARK SMILES IDX 10 14 11 15 25 16 27 17 12 18 24 19 23 20 13 21 21 22 14 23
REMARK SMILES IDX 15 24 20 25 22 26 16 27 19 28 17 29 18 30
REMARK H PARENT 18 31
REMARK Flexibility Score: inf
ROOT
ATOM      1  C   UNL     1      28.083  31.401  23.710  1.00  0.00     0.012 C 
ATOM      2  C   UNL     1      29.125  30.822  22.746  1.00  0.00     0.012 C 
ENDROOT
BRANCH   1   3
ATOM      3  C   UNL     1      28.389  32.861  23.983  1.00  0.00    -0.028 C 
ATOM      4  C   UNL     1      28.071  33.831  23.106  1.00  0.00    -0.027 C 
BRANCH   4   5
ATOM      5  C   UNL     1      28.435  35.294  23.296  1.00  0.00     0.014 C 
BRANCH   5   6
ATOM      6  C   UNL     1      29.125  35.912  22.050  1.00  0.00     0.004 C 
ATOM      7  C   UNL     1      29.087  34.975  20.842  1.00  0.00     0.004 C 
ENDBRANCH   5   6
BRANCH   5   8
ATOM      8  C   UNL     1      27.225  36.121  23.836  1.00  0.00    -0.011 C 
ATOM      9  C   UNL     1      26.908  35.882  25.321  1.00  0.00     0.008 C 
ATOM     10  C   UNL     1      25.960  35.897  22.989  1.00  0.00     0.008 C 
ENDBRANCH   5   8
ENDBRANCH   4   5
ENDBRANCH   1   3
BRANCH   1  11
ATOM     11  C   UNL     1      27.846  30.505  24.977  1.00  0.00     0.002 C 
ATOM     12  C   UNL     1      28.912  30.729  26.046  1.00  0.00     0.005 C 
ATOM     13  C   UNL     1      27.702  28.948  24.869  1.00  0.00    -0.026 C 
ATOM     14  C   UNL     1      28.736  29.610  27.054  1.00  0.00     0.005 C 
ATOM     15  C   UNL     1      28.098  28.425  26.300  1.00  0.00    -0.001 C 
ATOM     16  C   UNL     1      26.256  28.500  24.467  1.00  0.00     0.007 C 
ATOM     17  C   UNL     1      28.685  28.341  23.839  1.00  0.00     0.012 C 
ATOM     18  C   UNL     1      26.900  27.785  27.058  1.00  0.00     0.000 C 
ATOM     19  C   UNL     1      25.152  28.750  25.524  1.00  0.00     0.005 C 
ATOM     20  C   UNL     1      25.646  28.706  26.998  1.00  0.00     0.003 C 
ATOM     21  C   UNL     1      27.232  27.328  28.484  1.00  0.00     0.031 C 
ATOM     22  C   UNL     1      24.551  28.398  28.130  1.00  0.00    -0.008 C 
ATOM     23  C   UNL     1      26.043  26.580  29.013  1.00  0.00    -0.027 C 
ATOM     24  C   UNL     1      24.783  26.997  28.753  1.00  0.00    -0.065 C 
ATOM     25  C   UNL     1      23.070  28.600  27.636  1.00  0.00     0.014 C 
ATOM     26  C   UNL     1      24.745  29.420  29.287  1.00  0.00     0.016 C 
ATOM     27  C   UNL     1      23.673  25.994  29.026  1.00  0.00     0.063 C 
ATOM     28  C   UNL     1      22.332  27.296  27.336  1.00  0.00     0.033 C 
ATOM     29  C   UNL     1      22.267  26.434  28.595  1.00  0.00     0.118 C 
BRANCH  29  30
ATOM     30  O   UNL     1      21.631  27.137  29.633  1.00  0.00    -0.393 OA
ATOM     31  H   UNL     1      21.993  26.783  30.487  1.00  0.00     0.210 HD
ENDBRANCH  29  30
ENDBRANCH   1  11
TORSDOF 6
ENDMDL
MODEL 2
REMARK VINA RESULT:    -0.368      5.143     11.655
REMARK INTER + INTRA:          -0.576
REMARK INTER:                  -1.799
REMARK INTRA:                   1.223
REMARK UNBOUND:                -0.089
REMARK SMILES CC[C@H](C=C[C@@H](C)[C@@H]1CC[C@H]2[C@H]3CC=C4C[C@@H](O)CC[C@]4(C)[C@@H]3CC[C@]21C)C(C)C
REMARK SMILES IDX 6 1 7 2 5 3 4 4 3 5 2 6 1 7 28 8 29 9 30 10 8 11 9 12 26 13
REMARK SMILES IDX 10 14 11 15 25 16 27 17 12 18 24 19 23 20 13 21 21 22 14 23
REMARK SMILES IDX 15 24 20 25 22 26 16 27 19 28 17 29 18 30
REMARK H PARENT 18 31
REMARK Flexibility Score: inf
ROOT
ATOM      1  C   UNL     1      26.923  34.961  24.003  1.00  0.00     0.012 C 
ATOM      2  C   UNL     1      27.015  35.653  25.368  1.00  0.00     0.012 C 
ENDROOT
BRANCH   1   3
ATOM      3  C   UNL     1      28.070  33.979  23.846  1.00  0.00    -0.028 C 
ATOM      4  C   UNL     1      27.940  32.678  24.164  1.00  0.00    -0.027 C 
BRANCH   4   5
ATOM      5  C   UNL     1      29.082  31.677  24.106  1.00  0.00     0.014 C 
BRANCH   5   6
ATOM      6  C   UNL     1      29.125  30.736  25.340  1.00  0.00     0.004 C 
ATOM      7  C   UNL     1      27.842  29.917  25.488  1.00  0.00     0.004 C 
ENDBRANCH   5   6
BRANCH   5   8
ATOM      8  C   UNL     1      29.125  30.936  22.731  1.00  0.00    -0.011 C 
ATOM      9  C   UNL     1      28.750  31.815  21.527  1.00  0.00     0.008 C 
ATOM     10  C   UNL     1      28.257  29.666  22.741  1.00  0.00     0.008 C 
ENDBRANCH   5   8
ENDBRANCH   4   5
ENDBRANCH   1   3
BRANCH   1  11
ATOM     11  C   UNL     1      26.716  35.964  22.813  1.00  0.00     0.002 C 
ATOM     12  C   UNL     1      25.463  35.642  22.003  1.00  0.00     0.005 C 
ATOM     13  C   UNL     1      27.834  36.217  21.746  1.00  0.00    -0.026 C 
ATOM     14  C   UNL     1      25.553  36.480  20.743  1.00  0.00     0.005 C 
ATOM     15  C   UNL     1      27.051  36.741  20.484  1.00  0.00    -0.001 C 
ATOM     16  C   UNL     1      28.911  37.247  22.229  1.00  0.00     0.007 C 
ATOM     17  C   UNL     1      28.573  34.915  21.354  1.00  0.00     0.012 C 
ATOM     18  C   UNL     1      27.370  38.227  20.154  1.00  0.00     0.000 C 
ATOM     19  C   UNL     1      28.425  38.709  22.389  1.00  0.00     0.005 C 
ATOM     20  C   UNL     1      27.271  39.115  21.428  1.00  0.00     0.003 C 
ATOM     21  C   UNL     1      26.571  38.793  18.973  1.00  0.00     0.031 C 
ATOM     22  C   UNL     1      27.087  40.681  21.124  1.00  0.00    -0.008 C 
ATOM     23  C   UNL     1      27.112  40.158  18.667  1.00  0.00    -0.027 C 
ATOM     24  C   UNL     1      27.473  41.005  19.658  1.00  0.00    -0.065 C 
ATOM     25  C   UNL     1      27.823  41.608  22.160  1.00  0.00     0.014 C 
ATOM     26  C   UNL     1      25.576  41.028  21.257  1.00  0.00     0.016 C 
ATOM     27  C   UNL     1      28.323  42.197  19.247  1.00  0.00     0.063 C 
ATOM     28  C   UNL     1      29.125  42.216  21.636  1.00  0.00     0.033 C 
ATOM     29  C   UNL     1      28.839  43.068  20.401  1.00  0.00     0.118 C 
BRANCH  29  30
ATOM     30  O   UNL     1      27.909  44.076  20.711  1.00  0.00    -0.393 OA
ATOM     31  H   UNL     1      27.205  43.658  21.273  1.00  0.00     0.210 HD
ENDBRANCH  29  30
ENDBRANCH   1  11
TORSDOF 6
ENDMDL
