MODEL 1
REMARK VINA RESULT:    -7.067      0.000      0.000
REMARK INTER + INTRA:          -8.907
REMARK INTER:                  -8.307
REMARK INTRA:                  -0.600
REMARK UNBOUND:                -0.600
REMARK SMILES C=C(C)[C@@H]1CC[C@@]2(CO)CC[C@@]3(C)[C@@H](CC[C@@H]4[C@@]5(C)CC[C@@H](O)C(C)(C)[C@H]5CC[C@@]43C)[C@@H]12
REMARK SMILES IDX 4 1 5 2 6 3 7 4 32 5 14 6 15 7 16 8 17 9 18 10 20 11 21 12
REMARK SMILES IDX 22 13 24 14 27 15 28 16 29 17 30 18 12 19 11 20 10 21 13 22
REMARK SMILES IDX 31 23 25 24 26 25 19 26 2 27 3 28 1 29 8 30 9 31 23 33
REMARK H PARENT 9 32 23 34
REMARK Flexibility Score: inf
ROOT
ATOM      1  C   UNL     1      99.859  82.947  82.107  1.00  0.00     0.018 C 
ATOM      2  C   UNL     1      99.584  82.000  83.258  1.00  0.00     0.009 C 
ATOM      3  C   UNL     1      99.720  82.862  84.500  1.00  0.00     0.010 C 
ATOM      4  C   UNL     1      99.230  84.284  84.120  1.00  0.00    -0.003 C 
ATOM      5  C   UNL     1      99.190  84.270  82.544  1.00  0.00     0.008 C 
ATOM      6  C   UNL     1      99.666  85.593  81.883  1.00  0.00    -0.000 C 
ATOM      7  C   UNL     1      99.616  85.592  80.374  1.00  0.00     0.005 C 
ATOM      8  C   UNL     1      99.474  87.036  79.883  1.00  0.00     0.005 C 
ATOM      9  C   UNL     1     100.201  88.171  80.734  1.00  0.00     0.002 C 
ATOM     10  C   UNL     1     100.466  89.464  79.803  1.00  0.00    -0.026 C 
ATOM     11  C   UNL     1     100.973  90.766  80.543  1.00  0.00     0.010 C 
ATOM     12  C   UNL     1     102.445  91.179  80.235  1.00  0.00     0.033 C 
ATOM     13  C   UNL     1     102.734  91.423  78.740  1.00  0.00     0.120 C 
ATOM     14  C   UNL     1     102.023  90.352  77.805  1.00  0.00    -0.006 C 
ATOM     15  C   UNL     1     101.471  89.101  78.646  1.00  0.00     0.003 C 
ATOM     16  C   UNL     1     102.652  88.161  79.126  1.00  0.00     0.005 C 
ATOM     17  C   UNL     1     102.506  87.250  80.399  1.00  0.00     0.008 C 
ATOM     18  C   UNL     1     101.421  87.567  81.501  1.00  0.00    -0.024 C 
ATOM     19  C   UNL     1     100.990  86.250  82.415  1.00  0.00    -0.024 C 
ATOM     20  C   UNL     1     100.596  86.578  83.908  1.00  0.00     0.008 C 
ATOM     21  C   UNL     1     100.206  85.356  84.765  1.00  0.00     0.010 C 
ATOM     22  C   UNL     1     102.211  85.273  82.474  1.00  0.00     0.012 C 
ATOM     23  C   UNL     1     102.044  88.575  82.517  1.00  0.00     0.012 C 
ATOM     24  C   UNL     1     102.980  89.839  76.677  1.00  0.00     0.014 C 
ATOM     25  C   UNL     1     100.868  91.083  77.050  1.00  0.00     0.014 C 
ATOM     26  C   UNL     1      99.052  89.822  79.237  1.00  0.00     0.012 C 
ENDROOT
BRANCH   1  27
ATOM     27  C   UNL     1      99.390  82.377  80.769  1.00  0.00    -0.077 C 
ATOM     28  C   UNL     1      97.944  82.234  80.404  1.00  0.00     0.039 C 
ATOM     29  C   UNL     1     100.302  82.000  79.852  1.00  0.00     0.008 C 
ENDBRANCH   1  27
BRANCH   4  30
ATOM     30  C   UNL     1      97.804  84.479  84.710  1.00  0.00     0.163 C 
BRANCH  30  31
ATOM     31  O   UNL     1      97.522  83.477  85.646  1.00  0.00    -0.396 OA
ATOM     32  H   UNL     1      97.020  82.758  85.172  1.00  0.00     0.210 HD
ENDBRANCH  30  31
ENDBRANCH   4  30
BRANCH  13  33
ATOM     33  O   UNL     1     104.124  91.503  78.496  1.00  0.00    -0.393 OA
ATOM     34  H   UNL     1     104.329  92.315  77.962  1.00  0.00     0.210 HD
ENDBRANCH  13  33
TORSDOF 4
ENDMDL
MODEL 2
REMARK VINA RESULT:    -6.615      1.645      8.005
REMARK INTER + INTRA:          -8.375
REMARK INTER:                  -7.926
REMARK INTRA:                  -0.449
REMARK UNBOUND:                -0.600
REMARK SMILES C=C(C)[C@@H]1CC[C@@]2(CO)CC[C@@]3(C)[C@@H](CC[C@@H]4[C@@]5(C)CC[C@@H](O)C(C)(C)[C@H]5CC[C@@]43C)[C@@H]12
REMARK SMILES IDX 4 1 5 2 6 3 7 4 32 5 14 6 15 7 16 8 17 9 18 10 20 11 21 12
REMARK SMILES IDX 22 13 24 14 27 15 28 16 29 17 30 18 12 19 11 20 10 21 13 22
REMARK SMILES IDX 31 23 25 24 26 25 19 26 2 27 3 28 1 29 8 30 9 31 23 33
REMARK H PARENT 9 32 23 34
REMARK Flexibility Score: inf
ROOT
ATOM      1  C   UNL     1     102.702  90.858  81.520  1.00  0.00     0.018 C 
ATOM      2  C   UNL     1     103.512  91.840  80.697  1.00  0.00     0.009 C 
ATOM      3  C   UNL     1     103.761  91.120  79.385  1.00  0.00     0.010 C 
ATOM      4  C   UNL     1     102.517  90.235  79.110  1.00  0.00    -0.003 C 
ATOM      5  C   UNL     1     101.758  90.197  80.490  1.00  0.00     0.008 C 
ATOM      6  C   UNL     1     101.137  88.815  80.839  1.00  0.00    -0.000 C 
ATOM      7  C   UNL     1     100.395  88.775  82.153  1.00  0.00     0.005 C 
ATOM      8  C   UNL     1      99.342  87.665  82.092  1.00  0.00     0.005 C 
ATOM      9  C   UNL     1      99.704  86.360  81.252  1.00  0.00     0.002 C 
ATOM     10  C   UNL     1      98.818  85.114  81.771  1.00  0.00    -0.026 C 
ATOM     11  C   UNL     1      98.884  83.797  80.900  1.00  0.00     0.010 C 
ATOM     12  C   UNL     1      99.609  82.589  81.568  1.00  0.00     0.033 C 
ATOM     13  C   UNL     1      98.999  82.152  82.916  1.00  0.00     0.120 C 
ATOM     14  C   UNL     1      98.577  83.392  83.817  1.00  0.00    -0.006 C 
ATOM     15  C   UNL     1      99.192  84.768  83.262  1.00  0.00     0.003 C 
ATOM     16  C   UNL     1     100.747  84.863  83.547  1.00  0.00     0.005 C 
ATOM     17  C   UNL     1     101.689  85.745  82.650  1.00  0.00     0.008 C 
ATOM     18  C   UNL     1     101.254  86.173  81.195  1.00  0.00    -0.024 C 
ATOM     19  C   UNL     1     102.024  87.535  80.638  1.00  0.00    -0.024 C 
ATOM     20  C   UNL     1     102.270  87.568  79.079  1.00  0.00     0.008 C 
ATOM     21  C   UNL     1     102.996  88.826  78.559  1.00  0.00     0.010 C 
ATOM     22  C   UNL     1     103.430  87.617  81.320  1.00  0.00     0.012 C 
ATOM     23  C   UNL     1     101.682  85.039  80.210  1.00  0.00     0.012 C 
ATOM     24  C   UNL     1      99.004  83.198  85.311  1.00  0.00     0.014 C 
ATOM     25  C   UNL     1      97.016  83.439  83.848  1.00  0.00     0.014 C 
ATOM     26  C   UNL     1      97.343  85.623  81.659  1.00  0.00     0.012 C 
ENDROOT
BRANCH   1  27
ATOM     27  C   UNL     1     102.018  91.532  82.710  1.00  0.00    -0.077 C 
ATOM     28  C   UNL     1     100.644  92.123  82.634  1.00  0.00     0.039 C 
ATOM     29  C   UNL     1     102.654  91.588  83.896  1.00  0.00     0.008 C 
ENDBRANCH   1  27
BRANCH   4  30
ATOM     30  C   UNL     1     101.655  90.937  78.022  1.00  0.00     0.163 C 
BRANCH  30  31
ATOM     31  O   UNL     1     102.455  91.758  77.219  1.00  0.00    -0.396 OA
ATOM     32  H   UNL     1     103.285  91.250  77.006  1.00  0.00     0.210 HD
ENDBRANCH  30  31
ENDBRANCH   4  30
BRANCH  13  33
ATOM     33  O   UNL     1      99.860  81.265  83.602  1.00  0.00    -0.393 OA
ATOM     34  H   UNL     1     100.011  80.449  83.056  1.00  0.00     0.210 HD
ENDBRANCH  13  33
TORSDOF 4
ENDMDL
MODEL 3
REMARK VINA RESULT:    -6.477      4.886      8.319
REMARK INTER + INTRA:          -8.212
REMARK INTER:                  -7.518
REMARK INTRA:                  -0.694
REMARK UNBOUND:                -0.600
REMARK SMILES C=C(C)[C@@H]1CC[C@@]2(CO)CC[C@@]3(C)[C@@H](CC[C@@H]4[C@@]5(C)CC[C@@H](O)C(C)(C)[C@H]5CC[C@@]43C)[C@@H]12
REMARK SMILES IDX 4 1 5 2 6 3 7 4 32 5 14 6 15 7 16 8 17 9 18 10 20 11 21 12
REMARK SMILES IDX 22 13 24 14 27 15 28 16 29 17 30 18 12 19 11 20 10 21 13 22
REMARK SMILES IDX 31 23 25 24 26 25 19 26 2 27 3 28 1 29 8 30 9 31 23 33
REMARK H PARENT 9 32 23 34
REMARK Flexibility Score: inf
ROOT
ATOM      1  C   UNL     1      98.489  83.701  80.738  1.00  0.00     0.018 C 
ATOM      2  C   UNL     1      99.978  83.433  80.657  1.00  0.00     0.009 C 
ATOM      3  C   UNL     1     100.503  83.787  82.035  1.00  0.00     0.010 C 
ATOM      4  C   UNL     1      99.387  83.431  83.052  1.00  0.00    -0.003 C 
ATOM      5  C   UNL     1      98.102  83.235  82.160  1.00  0.00     0.008 C 
ATOM      6  C   UNL     1      96.797  83.794  82.792  1.00  0.00    -0.000 C 
ATOM      7  C   UNL     1      95.559  83.597  81.951  1.00  0.00     0.005 C 
ATOM      8  C   UNL     1      94.335  83.575  82.870  1.00  0.00     0.005 C 
ATOM      9  C   UNL     1      94.375  84.508  84.161  1.00  0.00     0.002 C 
ATOM     10  C   UNL     1      92.869  84.829  84.649  1.00  0.00    -0.026 C 
ATOM     11  C   UNL     1      92.725  85.553  86.047  1.00  0.00     0.010 C 
ATOM     12  C   UNL     1      92.216  87.025  85.988  1.00  0.00     0.033 C 
ATOM     13  C   UNL     1      90.845  87.193  85.303  1.00  0.00     0.120 C 
ATOM     14  C   UNL     1      90.699  86.276  84.013  1.00  0.00    -0.006 C 
ATOM     15  C   UNL     1      92.112  85.667  83.552  1.00  0.00     0.003 C 
ATOM     16  C   UNL     1      93.025  86.773  82.880  1.00  0.00     0.005 C 
ATOM     17  C   UNL     1      94.592  86.648  82.877  1.00  0.00     0.008 C 
ATOM     18  C   UNL     1      95.331  85.720  83.918  1.00  0.00    -0.024 C 
ATOM     19  C   UNL     1      96.840  85.231  83.427  1.00  0.00    -0.024 C 
ATOM     20  C   UNL     1      97.884  85.025  84.593  1.00  0.00     0.008 C 
ATOM     21  C   UNL     1      99.290  84.582  84.139  1.00  0.00     0.010 C 
ATOM     22  C   UNL     1      97.428  86.330  82.481  1.00  0.00     0.012 C 
ATOM     23  C   UNL     1      95.582  86.552  85.215  1.00  0.00     0.012 C 
ATOM     24  C   UNL     1      90.052  87.051  82.817  1.00  0.00     0.014 C 
ATOM     25  C   UNL     1      89.678  85.144  84.356  1.00  0.00     0.014 C 
ATOM     26  C   UNL     1      92.220  83.417  84.835  1.00  0.00     0.012 C 
ENDROOT
BRANCH   1  27
ATOM     27  C   UNL     1      97.721  83.041  79.593  1.00  0.00    -0.077 C 
ATOM     28  C   UNL     1      97.066  83.819  78.493  1.00  0.00     0.039 C 
ATOM     29  C   UNL     1      97.637  81.698  79.539  1.00  0.00     0.008 C 
ENDBRANCH   1  27
BRANCH   4  30
ATOM     30  C   UNL     1      99.781  82.101  83.757  1.00  0.00     0.163 C 
BRANCH  30  31
ATOM     31  O   UNL     1      98.957  81.055  83.323  1.00  0.00    -0.396 OA
ATOM     32  H   UNL     1      98.470  80.709  84.120  1.00  0.00     0.210 HD
ENDBRANCH  30  31
ENDBRANCH   4  30
BRANCH  13  33
ATOM     33  O   UNL     1      90.579  88.553  85.020  1.00  0.00    -0.393 OA
ATOM     34  H   UNL     1      89.688  88.806  85.379  1.00  0.00     0.210 HD
ENDBRANCH  13  33
TORSDOF 4
ENDMDL
MODEL 4
REMARK VINA RESULT:    -6.228      4.925      7.685
REMARK INTER + INTRA:          -7.920
REMARK INTER:                  -7.353
REMARK INTRA:                  -0.567
REMARK UNBOUND:                -0.600
REMARK SMILES C=C(C)[C@@H]1CC[C@@]2(CO)CC[C@@]3(C)[C@@H](CC[C@@H]4[C@@]5(C)CC[C@@H](O)C(C)(C)[C@H]5CC[C@@]43C)[C@@H]12
REMARK SMILES IDX 4 1 5 2 6 3 7 4 32 5 14 6 15 7 16 8 17 9 18 10 20 11 21 12
REMARK SMILES IDX 22 13 24 14 27 15 28 16 29 17 30 18 12 19 11 20 10 21 13 22
REMARK SMILES IDX 31 23 25 24 26 25 19 26 2 27 3 28 1 29 8 30 9 31 23 33
REMARK H PARENT 9 32 23 34
REMARK Flexibility Score: inf
ROOT
ATOM      1  C   UNL     1      91.739  85.128  80.069  1.00  0.00     0.018 C 
ATOM      2  C   UNL     1      90.589  84.960  79.095  1.00  0.00     0.009 C 
ATOM      3  C   UNL     1      91.259  84.751  77.750  1.00  0.00     0.010 C 
ATOM      4  C   UNL     1      92.580  83.983  78.016  1.00  0.00    -0.003 C 
ATOM      5  C   UNL     1      92.800  84.120  79.570  1.00  0.00     0.008 C 
ATOM      6  C   UNL     1      94.281  84.340  79.988  1.00  0.00    -0.000 C 
ATOM      7  C   UNL     1      94.501  84.456  81.477  1.00  0.00     0.005 C 
ATOM      8  C   UNL     1      95.936  84.031  81.800  1.00  0.00     0.005 C 
ATOM      9  C   UNL     1      97.058  84.371  80.720  1.00  0.00     0.002 C 
ATOM     10  C   UNL     1      98.505  84.423  81.436  1.00  0.00    -0.026 C 
ATOM     11  C   UNL     1      99.757  84.523  80.476  1.00  0.00     0.010 C 
ATOM     12  C   UNL     1     100.525  85.879  80.518  1.00  0.00     0.033 C 
ATOM     13  C   UNL     1     101.053  86.264  81.914  1.00  0.00     0.120 C 
ATOM     14  C   UNL     1     100.009  85.935  83.066  1.00  0.00    -0.006 C 
ATOM     15  C   UNL     1      98.553  85.606  82.474  1.00  0.00     0.003 C 
ATOM     16  C   UNL     1      97.832  86.916  81.952  1.00  0.00     0.005 C 
ATOM     17  C   UNL     1      96.727  86.851  80.836  1.00  0.00     0.008 C 
ATOM     18  C   UNL     1      96.626  85.608  79.869  1.00  0.00    -0.024 C 
ATOM     19  C   UNL     1      95.122  85.403  79.196  1.00  0.00    -0.024 C 
ATOM     20  C   UNL     1      95.123  84.781  77.745  1.00  0.00     0.008 C 
ATOM     21  C   UNL     1      93.728  84.601  77.111  1.00  0.00     0.010 C 
ATOM     22  C   UNL     1      94.438  86.807  79.086  1.00  0.00     0.012 C 
ATOM     23  C   UNL     1      97.577  85.859  78.657  1.00  0.00     0.012 C 
ATOM     24  C   UNL     1      99.897  87.103  84.102  1.00  0.00     0.014 C 
ATOM     25  C   UNL     1     100.576  84.729  83.881  1.00  0.00     0.014 C 
ATOM     26  C   UNL     1      98.627  83.035  82.148  1.00  0.00     0.012 C 
ENDROOT
BRANCH   1  27
ATOM     27  C   UNL     1      91.293  84.957  81.521  1.00  0.00    -0.077 C 
ATOM     28  C   UNL     1      91.482  86.016  82.564  1.00  0.00     0.039 C 
ATOM     29  C   UNL     1      90.680  83.818  81.897  1.00  0.00     0.008 C 
ENDBRANCH   1  27
BRANCH   4  30
ATOM     30  C   UNL     1      92.365  82.496  77.615  1.00  0.00     0.163 C 
BRANCH  30  31
ATOM     31  O   UNL     1      92.293  82.371  76.222  1.00  0.00    -0.396 OA
ATOM     32  H   UNL     1      93.209  82.523  75.861  1.00  0.00     0.210 HD
ENDBRANCH  30  31
ENDBRANCH   4  30
BRANCH  13  33
ATOM     33  O   UNL     1     101.472  87.615  81.947  1.00  0.00    -0.393 OA
ATOM     34  H   UNL     1     101.592  87.910  82.887  1.00  0.00     0.210 HD
ENDBRANCH  13  33
TORSDOF 4
ENDMDL
MODEL 5
REMARK VINA RESULT:    -6.220      5.310      8.566
REMARK INTER + INTRA:          -7.911
REMARK INTER:                  -7.203
REMARK INTRA:                  -0.708
REMARK UNBOUND:                -0.600
REMARK SMILES C=C(C)[C@@H]1CC[C@@]2(CO)CC[C@@]3(C)[C@@H](CC[C@@H]4[C@@]5(C)CC[C@@H](O)C(C)(C)[C@H]5CC[C@@]43C)[C@@H]12
REMARK SMILES IDX 4 1 5 2 6 3 7 4 32 5 14 6 15 7 16 8 17 9 18 10 20 11 21 12
REMARK SMILES IDX 22 13 24 14 27 15 28 16 29 17 30 18 12 19 11 20 10 21 13 22
REMARK SMILES IDX 31 23 25 24 26 25 19 26 2 27 3 28 1 29 8 30 9 31 23 33
REMARK H PARENT 9 32 23 34
REMARK Flexibility Score: inf
ROOT
ATOM      1  C   UNL     1      98.973  84.431  80.446  1.00  0.00     0.018 C 
ATOM      2  C   UNL     1     100.374  85.007  80.461  1.00  0.00     0.009 C 
ATOM      3  C   UNL     1     100.172  86.490  80.707  1.00  0.00     0.010 C 
ATOM      4  C   UNL     1      98.926  86.633  81.621  1.00  0.00    -0.003 C 
ATOM      5  C   UNL     1      98.232  85.219  81.550  1.00  0.00     0.008 C 
ATOM      6  C   UNL     1      96.680  85.273  81.505  1.00  0.00    -0.000 C 
ATOM      7  C   UNL     1      96.007  83.922  81.452  1.00  0.00     0.005 C 
ATOM      8  C   UNL     1      94.599  84.048  82.040  1.00  0.00     0.005 C 
ATOM      9  C   UNL     1      93.826  85.420  81.796  1.00  0.00     0.002 C 
ATOM     10  C   UNL     1      92.234  85.179  81.922  1.00  0.00    -0.026 C 
ATOM     11  C   UNL     1      91.328  86.475  81.933  1.00  0.00     0.010 C 
ATOM     12  C   UNL     1      90.438  86.679  80.671  1.00  0.00     0.033 C 
ATOM     13  C   UNL     1      89.471  85.512  80.382  1.00  0.00     0.120 C 
ATOM     14  C   UNL     1      90.147  84.095  80.626  1.00  0.00    -0.006 C 
ATOM     15  C   UNL     1      91.742  84.214  80.778  1.00  0.00     0.003 C 
ATOM     16  C   UNL     1      92.435  84.503  79.384  1.00  0.00     0.005 C 
ATOM     17  C   UNL     1      93.826  85.230  79.299  1.00  0.00     0.008 C 
ATOM     18  C   UNL     1      94.354  86.110  80.497  1.00  0.00    -0.024 C 
ATOM     19  C   UNL     1      96.004  86.293  80.519  1.00  0.00    -0.024 C 
ATOM     20  C   UNL     1      96.513  87.670  81.099  1.00  0.00     0.008 C 
ATOM     21  C   UNL     1      98.045  87.849  81.109  1.00  0.00     0.010 C 
ATOM     22  C   UNL     1      96.527  86.201  79.047  1.00  0.00     0.012 C 
ATOM     23  C   UNL     1      93.793  87.556  80.320  1.00  0.00     0.012 C 
ATOM     24  C   UNL     1      89.809  83.083  79.480  1.00  0.00     0.014 C 
ATOM     25  C   UNL     1      89.499  83.481  81.908  1.00  0.00     0.014 C 
ATOM     26  C   UNL     1      92.058  84.526  83.332  1.00  0.00     0.012 C 
ENDROOT
BRANCH   1  27
ATOM     27  C   UNL     1      98.974  82.910  80.605  1.00  0.00    -0.077 C 
ATOM     28  C   UNL     1      98.507  81.976  79.532  1.00  0.00     0.039 C 
ATOM     29  C   UNL     1      99.433  82.363  81.748  1.00  0.00     0.008 C 
ENDBRANCH   1  27
BRANCH   4  30
ATOM     30  C   UNL     1      99.418  86.937  83.065  1.00  0.00     0.163 C 
BRANCH  30  31
ATOM     31  O   UNL     1      99.457  85.763  83.826  1.00  0.00    -0.396 OA
ATOM     32  H   UNL     1      98.807  85.871  84.574  1.00  0.00     0.210 HD
ENDBRANCH  30  31
ENDBRANCH   4  30
BRANCH  13  33
ATOM     33  O   UNL     1      88.914  85.620  79.087  1.00  0.00    -0.393 OA
ATOM     34  H   UNL     1      88.020  85.187  79.065  1.00  0.00     0.210 HD
ENDBRANCH  13  33
TORSDOF 4
ENDMDL
MODEL 6
REMARK VINA RESULT:    -6.186      6.243      9.822
REMARK INTER + INTRA:          -7.871
REMARK INTER:                  -7.263
REMARK INTRA:                  -0.607
REMARK UNBOUND:                -0.600
REMARK SMILES C=C(C)[C@@H]1CC[C@@]2(CO)CC[C@@]3(C)[C@@H](CC[C@@H]4[C@@]5(C)CC[C@@H](O)C(C)(C)[C@H]5CC[C@@]43C)[C@@H]12
REMARK SMILES IDX 4 1 5 2 6 3 7 4 32 5 14 6 15 7 16 8 17 9 18 10 20 11 21 12
REMARK SMILES IDX 22 13 24 14 27 15 28 16 29 17 30 18 12 19 11 20 10 21 13 22
REMARK SMILES IDX 31 23 25 24 26 25 19 26 2 27 3 28 1 29 8 30 9 31 23 33
REMARK H PARENT 9 32 23 34
REMARK Flexibility Score: inf
ROOT
ATOM      1  C   UNL     1      97.290  86.159  80.581  1.00  0.00     0.018 C 
ATOM      2  C   UNL     1      98.751  85.826  80.807  1.00  0.00     0.009 C 
ATOM      3  C   UNL     1      98.730  84.670  81.789  1.00  0.00     0.010 C 
ATOM      4  C   UNL     1      97.459  83.836  81.480  1.00  0.00    -0.003 C 
ATOM      5  C   UNL     1      96.591  84.781  80.564  1.00  0.00     0.008 C 
ATOM      6  C   UNL     1      95.065  84.722  80.852  1.00  0.00    -0.000 C 
ATOM      7  C   UNL     1      94.226  85.613  79.967  1.00  0.00     0.005 C 
ATOM      8  C   UNL     1      92.812  85.032  79.879  1.00  0.00     0.005 C 
ATOM      9  C   UNL     1      92.243  84.298  81.175  1.00  0.00     0.002 C 
ATOM     10  C   UNL     1      90.628  84.300  81.136  1.00  0.00    -0.026 C 
ATOM     11  C   UNL     1      89.901  83.417  82.228  1.00  0.00     0.010 C 
ATOM     12  C   UNL     1      89.126  84.212  83.322  1.00  0.00     0.033 C 
ATOM     13  C   UNL     1      88.035  85.151  82.769  1.00  0.00     0.120 C 
ATOM     14  C   UNL     1      88.503  85.910  81.453  1.00  0.00    -0.006 C 
ATOM     15  C   UNL     1      90.087  85.777  81.220  1.00  0.00     0.003 C 
ATOM     16  C   UNL     1      90.898  86.676  82.241  1.00  0.00     0.005 C 
ATOM     17  C   UNL     1      92.376  86.321  82.646  1.00  0.00     0.008 C 
ATOM     18  C   UNL     1      92.938  84.859  82.457  1.00  0.00    -0.024 C 
ATOM     19  C   UNL     1      94.593  84.786  82.348  1.00  0.00    -0.024 C 
ATOM     20  C   UNL     1      95.240  83.471  82.935  1.00  0.00     0.008 C 
ATOM     21  C   UNL     1      96.778  83.404  82.847  1.00  0.00     0.010 C 
ATOM     22  C   UNL     1      95.191  85.984  83.157  1.00  0.00     0.012 C 
ATOM     23  C   UNL     1      92.583  84.036  83.735  1.00  0.00     0.012 C 
ATOM     24  C   UNL     1      88.108  87.425  81.483  1.00  0.00     0.014 C 
ATOM     25  C   UNL     1      87.701  85.309  80.256  1.00  0.00     0.014 C 
ATOM     26  C   UNL     1      90.279  83.644  79.759  1.00  0.00     0.012 C 
ENDROOT
BRANCH   1  27
ATOM     27  C   UNL     1      97.083  87.024  79.337  1.00  0.00    -0.077 C 
ATOM     28  C   UNL     1      96.584  88.435  79.398  1.00  0.00     0.039 C 
ATOM     29  C   UNL     1      97.376  86.520  78.123  1.00  0.00     0.008 C 
ENDBRANCH   1  27
BRANCH   4  30
ATOM     30  C   UNL     1      97.894  82.559  80.706  1.00  0.00     0.163 C 
BRANCH  30  31
ATOM     31  O   UNL     1      98.685  81.740  81.521  1.00  0.00    -0.396 OA
ATOM     32  H   UNL     1      98.980  82.288  82.299  1.00  0.00     0.210 HD
ENDBRANCH  30  31
ENDBRANCH   4  30
BRANCH  13  33
ATOM     33  O   UNL     1      87.580  86.046  83.765  1.00  0.00    -0.393 OA
ATOM     34  H   UNL     1      86.635  85.844  83.997  1.00  0.00     0.210 HD
ENDBRANCH  13  33
TORSDOF 4
ENDMDL
MODEL 7
REMARK VINA RESULT:    -6.136      1.603      7.688
REMARK INTER + INTRA:          -7.812
REMARK INTER:                  -7.114
REMARK INTRA:                  -0.698
REMARK UNBOUND:                -0.600
REMARK SMILES C=C(C)[C@@H]1CC[C@@]2(CO)CC[C@@]3(C)[C@@H](CC[C@@H]4[C@@]5(C)CC[C@@H](O)C(C)(C)[C@H]5CC[C@@]43C)[C@@H]12
REMARK SMILES IDX 4 1 5 2 6 3 7 4 32 5 14 6 15 7 16 8 17 9 18 10 20 11 21 12
REMARK SMILES IDX 22 13 24 14 27 15 28 16 29 17 30 18 12 19 11 20 10 21 13 22
REMARK SMILES IDX 31 23 25 24 26 25 19 26 2 27 3 28 1 29 8 30 9 31 23 33
REMARK H PARENT 9 32 23 34
REMARK Flexibility Score: inf
ROOT
ATOM      1  C   UNL     1      99.701  90.242  77.703  1.00  0.00     0.018 C 
ATOM      2  C   UNL     1     100.353  91.315  76.854  1.00  0.00     0.009 C 
ATOM      3  C   UNL     1     101.717  91.521  77.485  1.00  0.00     0.010 C 
ATOM      4  C   UNL     1     102.173  90.145  78.039  1.00  0.00    -0.003 C 
ATOM      5  C   UNL     1     100.859  89.274  78.036  1.00  0.00     0.008 C 
ATOM      6  C   UNL     1     100.710  88.340  79.269  1.00  0.00    -0.000 C 
ATOM      7  C   UNL     1      99.461  87.492  79.265  1.00  0.00     0.005 C 
ATOM      8  C   UNL     1      99.716  86.234  80.100  1.00  0.00     0.005 C 
ATOM      9  C   UNL     1     100.670  86.380  81.368  1.00  0.00     0.002 C 
ATOM     10  C   UNL     1     100.354  85.202  82.427  1.00  0.00    -0.026 C 
ATOM     11  C   UNL     1     101.361  85.061  83.638  1.00  0.00     0.010 C 
ATOM     12  C   UNL     1     100.784  85.444  85.035  1.00  0.00     0.033 C 
ATOM     13  C   UNL     1      99.538  84.635  85.448  1.00  0.00     0.120 C 
ATOM     14  C   UNL     1      98.535  84.412  84.236  1.00  0.00    -0.006 C 
ATOM     15  C   UNL     1      98.890  85.357  82.986  1.00  0.00     0.003 C 
ATOM     16  C   UNL     1      98.492  86.863  83.270  1.00  0.00     0.005 C 
ATOM     17  C   UNL     1      99.219  88.051  82.541  1.00  0.00     0.008 C 
ATOM     18  C   UNL     1     100.644  87.852  81.892  1.00  0.00    -0.024 C 
ATOM     19  C   UNL     1     100.992  88.944  80.691  1.00  0.00    -0.024 C 
ATOM     20  C   UNL     1     102.518  89.332  80.568  1.00  0.00     0.008 C 
ATOM     21  C   UNL     1     102.844  90.356  79.461  1.00  0.00     0.010 C 
ATOM     22  C   UNL     1     100.212  90.268  80.990  1.00  0.00     0.012 C 
ATOM     23  C   UNL     1     101.718  88.111  82.995  1.00  0.00     0.012 C 
ATOM     24  C   UNL     1      97.046  84.650  84.660  1.00  0.00     0.014 C 
ATOM     25  C   UNL     1      98.603  82.902  83.843  1.00  0.00     0.014 C 
ATOM     26  C   UNL     1     100.509  83.888  81.592  1.00  0.00     0.012 C 
ENDROOT
BRANCH   1  27
ATOM     27  C   UNL     1      98.492  89.615  77.007  1.00  0.00    -0.077 C 
ATOM     28  C   UNL     1      97.083  89.824  77.473  1.00  0.00     0.039 C 
ATOM     29  C   UNL     1      98.678  88.854  75.912  1.00  0.00     0.008 C 
ENDBRANCH   1  27
BRANCH   4  30
ATOM     30  C   UNL     1     103.231  89.556  77.063  1.00  0.00     0.163 C 
BRANCH  30  31
ATOM     31  O   UNL     1     102.617  88.721  76.122  1.00  0.00    -0.396 OA
ATOM     32  H   UNL     1     101.926  89.262  75.649  1.00  0.00     0.210 HD
ENDBRANCH  30  31
ENDBRANCH   4  30
BRANCH  13  33
ATOM     33  O   UNL     1      98.899  85.219  86.566  1.00  0.00    -0.393 OA
ATOM     34  H   UNL     1      99.577  85.599  87.184  1.00  0.00     0.210 HD
ENDBRANCH  13  33
TORSDOF 4
ENDMDL
MODEL 8
REMARK VINA RESULT:    -6.051      2.450      4.644
REMARK INTER + INTRA:          -7.712
REMARK INTER:                  -7.015
REMARK INTRA:                  -0.697
REMARK UNBOUND:                -0.600
REMARK SMILES C=C(C)[C@@H]1CC[C@@]2(CO)CC[C@@]3(C)[C@@H](CC[C@@H]4[C@@]5(C)CC[C@@H](O)C(C)(C)[C@H]5CC[C@@]43C)[C@@H]12
REMARK SMILES IDX 4 1 5 2 6 3 7 4 32 5 14 6 15 7 16 8 17 9 18 10 20 11 21 12
REMARK SMILES IDX 22 13 24 14 27 15 28 16 29 17 30 18 12 19 11 20 10 21 13 22
REMARK SMILES IDX 31 23 25 24 26 25 19 26 2 27 3 28 1 29 8 30 9 31 23 33
REMARK H PARENT 9 32 23 34
REMARK Flexibility Score: inf
ROOT
ATOM      1  C   UNL     1      95.525  85.044  81.887  1.00  0.00     0.018 C 
ATOM      2  C   UNL     1      94.296  84.223  81.549  1.00  0.00     0.009 C 
ATOM      3  C   UNL     1      94.301  84.139  80.035  1.00  0.00     0.010 C 
ATOM      4  C   UNL     1      95.786  84.110  79.587  1.00  0.00    -0.003 C 
ATOM      5  C   UNL     1      96.584  84.569  80.866  1.00  0.00     0.008 C 
ATOM      6  C   UNL     1      97.791  85.501  80.565  1.00  0.00    -0.000 C 
ATOM      7  C   UNL     1      98.569  85.932  81.785  1.00  0.00     0.005 C 
ATOM      8  C   UNL     1     100.003  86.264  81.364  1.00  0.00     0.005 C 
ATOM      9  C   UNL     1     100.210  86.908  79.921  1.00  0.00     0.002 C 
ATOM     10  C   UNL     1     101.604  87.723  79.883  1.00  0.00    -0.026 C 
ATOM     11  C   UNL     1     102.077  88.235  78.465  1.00  0.00     0.010 C 
ATOM     12  C   UNL     1     102.036  89.781  78.264  1.00  0.00     0.033 C 
ATOM     13  C   UNL     1     102.880  90.574  79.282  1.00  0.00     0.120 C 
ATOM     14  C   UNL     1     102.759  89.985  80.754  1.00  0.00    -0.006 C 
ATOM     15  C   UNL     1     101.545  88.942  80.880  1.00  0.00     0.003 C 
ATOM     16  C   UNL     1     100.145  89.681  80.870  1.00  0.00     0.005 C 
ATOM     17  C   UNL     1      98.837  88.948  80.395  1.00  0.00     0.008 C 
ATOM     18  C   UNL     1      98.916  87.664  79.481  1.00  0.00    -0.024 C 
ATOM     19  C   UNL     1      97.571  86.695  79.569  1.00  0.00    -0.024 C 
ATOM     20  C   UNL     1      97.216  85.928  78.236  1.00  0.00     0.008 C 
ATOM     21  C   UNL     1      95.960  85.036  78.310  1.00  0.00     0.010 C 
ATOM     22  C   UNL     1      96.339  87.597  79.914  1.00  0.00     0.012 C 
ATOM     23  C   UNL     1      98.976  88.133  77.993  1.00  0.00     0.012 C 
ATOM     24  C   UNL     1     102.585  91.117  81.821  1.00  0.00     0.014 C 
ATOM     25  C   UNL     1     104.125  89.312  81.102  1.00  0.00     0.014 C 
ATOM     26  C   UNL     1     102.672  86.672  80.332  1.00  0.00     0.012 C 
ENDROOT
BRANCH   1  27
ATOM     27  C   UNL     1      95.918  84.913  83.359  1.00  0.00    -0.077 C 
ATOM     28  C   UNL     1      95.824  86.047  84.333  1.00  0.00     0.039 C 
ATOM     29  C   UNL     1      96.350  83.727  83.827  1.00  0.00     0.008 C 
ENDBRANCH   1  27
BRANCH   4  30
ATOM     30  C   UNL     1      96.148  82.646  79.203  1.00  0.00     0.163 C 
BRANCH  30  31
ATOM     31  O   UNL     1      96.648  81.959  80.315  1.00  0.00    -0.396 OA
ATOM     32  H   UNL     1      96.066  82.184  81.092  1.00  0.00     0.210 HD
ENDBRANCH  30  31
ENDBRANCH   4  30
BRANCH  13  33
ATOM     33  O   UNL     1     102.573  91.953  79.235  1.00  0.00    -0.393 OA
ATOM     34  H   UNL     1     101.769  92.141  79.787  1.00  0.00     0.210 HD
ENDBRANCH  13  33
TORSDOF 4
ENDMDL
MODEL 9
REMARK VINA RESULT:    -6.023      4.283      6.286
REMARK INTER + INTRA:          -7.679
REMARK INTER:                  -7.103
REMARK INTRA:                  -0.576
REMARK UNBOUND:                -0.600
REMARK SMILES C=C(C)[C@@H]1CC[C@@]2(CO)CC[C@@]3(C)[C@@H](CC[C@@H]4[C@@]5(C)CC[C@@H](O)C(C)(C)[C@H]5CC[C@@]43C)[C@@H]12
REMARK SMILES IDX 4 1 5 2 6 3 7 4 32 5 14 6 15 7 16 8 17 9 18 10 20 11 21 12
REMARK SMILES IDX 22 13 24 14 27 15 28 16 29 17 30 18 12 19 11 20 10 21 13 22
REMARK SMILES IDX 31 23 25 24 26 25 19 26 2 27 3 28 1 29 8 30 9 31 23 33
REMARK H PARENT 9 32 23 34
REMARK Flexibility Score: inf
ROOT
ATOM      1  C   UNL     1      98.269  83.323  80.090  1.00  0.00     0.018 C 
ATOM      2  C   UNL     1      99.447  82.375  79.987  1.00  0.00     0.009 C 
ATOM      3  C   UNL     1     100.324  82.730  81.172  1.00  0.00     0.010 C 
ATOM      4  C   UNL     1      99.379  83.171  82.320  1.00  0.00    -0.003 C 
ATOM      5  C   UNL     1      97.995  83.415  81.608  1.00  0.00     0.008 C 
ATOM      6  C   UNL     1      97.210  84.645  82.144  1.00  0.00    -0.000 C 
ATOM      7  C   UNL     1      95.876  84.876  81.477  1.00  0.00     0.005 C 
ATOM      8  C   UNL     1      94.963  85.633  82.445  1.00  0.00     0.005 C 
ATOM      9  C   UNL     1      95.650  86.692  83.418  1.00  0.00     0.002 C 
ATOM     10  C   UNL     1      94.558  87.781  83.897  1.00  0.00    -0.026 C 
ATOM     11  C   UNL     1      95.012  88.771  85.043  1.00  0.00     0.010 C 
ATOM     12  C   UNL     1      95.195  90.257  84.609  1.00  0.00     0.033 C 
ATOM     13  C   UNL     1      93.932  90.898  83.997  1.00  0.00     0.120 C 
ATOM     14  C   UNL     1      93.159  89.902  83.029  1.00  0.00    -0.006 C 
ATOM     15  C   UNL     1      94.050  88.617  82.662  1.00  0.00     0.003 C 
ATOM     16  C   UNL     1      95.208  88.987  81.648  1.00  0.00     0.005 C 
ATOM     17  C   UNL     1      96.532  88.141  81.575  1.00  0.00     0.008 C 
ATOM     18  C   UNL     1      96.974  87.225  82.782  1.00  0.00    -0.024 C 
ATOM     19  C   UNL     1      97.995  85.990  82.347  1.00  0.00    -0.024 C 
ATOM     20  C   UNL     1      99.044  85.576  83.451  1.00  0.00     0.008 C 
ATOM     21  C   UNL     1     100.002  84.437  83.046  1.00  0.00     0.010 C 
ATOM     22  C   UNL     1      98.813  86.448  81.094  1.00  0.00     0.012 C 
ATOM     23  C   UNL     1      97.803  88.100  83.775  1.00  0.00     0.012 C 
ATOM     24  C   UNL     1      92.702  90.611  81.710  1.00  0.00     0.014 C 
ATOM     25  C   UNL     1      91.833  89.489  83.743  1.00  0.00     0.014 C 
ATOM     26  C   UNL     1      93.406  86.920  84.514  1.00  0.00     0.012 C 
ENDROOT
BRANCH   1  27
ATOM     27  C   UNL     1      97.089  82.871  79.229  1.00  0.00    -0.077 C 
ATOM     28  C   UNL     1      96.339  81.598  79.476  1.00  0.00     0.039 C 
ATOM     29  C   UNL     1      96.675  83.648  78.210  1.00  0.00     0.008 C 
ENDBRANCH   1  27
BRANCH   4  30
ATOM     30  C   UNL     1      99.279  82.001  83.341  1.00  0.00     0.163 C 
BRANCH  30  31
ATOM     31  O   UNL     1     100.375  82.019  84.213  1.00  0.00    -0.396 OA
ATOM     32  H   UNL     1     100.908  81.195  84.039  1.00  0.00     0.210 HD
ENDBRANCH  30  31
ENDBRANCH   4  30
BRANCH  13  33
ATOM     33  O   UNL     1      94.238  92.125  83.364  1.00  0.00    -0.393 OA
ATOM     34  H   UNL     1      95.058  92.027  82.813  1.00  0.00     0.210 HD
ENDBRANCH  13  33
TORSDOF 4
ENDMDL
