MODEL 1
REMARK VINA RESULT:    -1.897      0.000      0.000
REMARK INTER + INTRA:          -4.569
REMARK INTER:                  -3.560
REMARK INTRA:                  -1.009
REMARK UNBOUND:                -1.009
REMARK SMILES CCCCCCCCC=CCCCCCCCC(=O)[O-]
REMARK SMILES IDX 10 1 9 2 11 3 12 4 13 5 14 6 15 7 16 8 17 9 18 10 19 11
REMARK SMILES IDX 20 12 8 13 7 14 6 15 5 16 4 17 3 18 2 19 1 20
REMARK H PARENT
REMARK Flexibility Score: inf
ROOT
ATOM      1  C   UNL     1     -21.242  -1.460   7.119  1.00  0.00    -0.031 C 
ATOM      2  C   UNL     1     -20.701  -0.493   6.363  1.00  0.00    -0.031 C 
ENDROOT
BRANCH   1   3
ATOM      3  C   UNL     1     -20.514  -2.747   7.391  1.00  0.00     0.027 C 
BRANCH   3   4
ATOM      4  C   UNL     1     -20.186  -2.917   8.881  1.00  0.00     0.004 C 
BRANCH   4   5
ATOM      5  C   UNL     1     -20.719  -1.755   9.738  1.00  0.00     0.000 C 
BRANCH   5   6
ATOM      6  C   UNL     1     -20.186  -1.804  11.186  1.00  0.00     0.000 C 
BRANCH   6   7
ATOM      7  C   UNL     1     -21.277  -2.110  12.225  1.00  0.00     0.000 C 
BRANCH   7   8
ATOM      8  C   UNL     1     -21.049  -1.375  13.558  1.00  0.00     0.006 C 
BRANCH   8   9
ATOM      9  C   UNL     1     -22.103  -0.288  13.809  1.00  0.00     0.053 C 
BRANCH   9  10
ATOM     10  C   UNL     1     -21.812   0.974  13.057  1.00  0.00     0.041 C 
ATOM     11  O   UNL     1     -21.169   1.908  13.605  1.00  0.00    -0.550 OA
ATOM     12  O   UNL     1     -22.246   1.116  11.745  1.00  0.00    -0.550 OA
ENDBRANCH   9  10
ENDBRANCH   8   9
ENDBRANCH   7   8
ENDBRANCH   6   7
ENDBRANCH   5   6
ENDBRANCH   4   5
ENDBRANCH   3   4
ENDBRANCH   1   3
BRANCH   2  13
ATOM     13  C   UNL     1     -21.419   0.801   6.108  1.00  0.00     0.027 C 
BRANCH  13  14
ATOM     14  C   UNL     1     -21.043   1.858   7.153  1.00  0.00     0.004 C 
BRANCH  14  15
ATOM     15  C   UNL     1     -21.785   1.603   8.472  1.00  0.00     0.000 C 
BRANCH  15  16
ATOM     16  C   UNL     1     -22.298   2.897   9.128  1.00  0.00     0.000 C 
BRANCH  16  17
ATOM     17  C   UNL     1     -22.492   4.081   8.160  1.00  0.00    -0.000 C 
BRANCH  17  18
ATOM     18  C   UNL     1     -22.335   5.463   8.830  1.00  0.00    -0.000 C 
BRANCH  18  19
ATOM     19  C   UNL     1     -20.901   6.001   8.722  1.00  0.00    -0.003 C 
ATOM     20  C   UNL     1     -20.208   6.003  10.081  1.00  0.00     0.004 C 
ENDBRANCH  18  19
ENDBRANCH  17  18
ENDBRANCH  16  17
ENDBRANCH  15  16
ENDBRANCH  14  15
ENDBRANCH  13  14
ENDBRANCH   2  13
TORSDOF 15
ENDMDL
MODEL 2
REMARK VINA RESULT:    -1.825      2.002      6.100
REMARK INTER + INTRA:          -4.435
REMARK INTER:                  -3.517
REMARK INTRA:                  -0.918
REMARK UNBOUND:                -1.009
REMARK SMILES CCCCCCCCC=CCCCCCCCC(=O)[O-]
REMARK SMILES IDX 10 1 9 2 11 3 12 4 13 5 14 6 15 7 16 8 17 9 18 10 19 11
REMARK SMILES IDX 20 12 8 13 7 14 6 15 5 16 4 17 3 18 2 19 1 20
REMARK H PARENT
REMARK Flexibility Score: inf
ROOT
ATOM      1  C   UNL     1     -20.967   1.485   7.330  1.00  0.00    -0.031 C 
ATOM      2  C   UNL     1     -21.401   0.637   6.385  1.00  0.00    -0.031 C 
ENDROOT
BRANCH   1   3
ATOM      3  C   UNL     1     -21.739   2.725   7.688  1.00  0.00     0.027 C 
BRANCH   3   4
ATOM      4  C   UNL     1     -22.315   2.651   9.109  1.00  0.00     0.004 C 
BRANCH   4   5
ATOM      5  C   UNL     1     -21.768   1.455   9.907  1.00  0.00     0.000 C 
BRANCH   5   6
ATOM      6  C   UNL     1     -22.563   1.204  11.205  1.00  0.00     0.000 C 
BRANCH   6   7
ATOM      7  C   UNL     1     -21.736   1.438  12.480  1.00  0.00     0.000 C 
BRANCH   7   8
ATOM      8  C   UNL     1     -22.075   0.437  13.598  1.00  0.00     0.006 C 
BRANCH   8   9
ATOM      9  C   UNL     1     -21.002  -0.650  13.750  1.00  0.00     0.053 C 
BRANCH   9  10
ATOM     10  C   UNL     1     -21.153  -1.747  12.741  1.00  0.00     0.041 C 
ATOM     11  O   UNL     1     -20.617  -1.647  11.606  1.00  0.00    -0.550 OA
ATOM     12  O   UNL     1     -21.882  -2.886  13.059  1.00  0.00    -0.550 OA
ENDBRANCH   9  10
ENDBRANCH   8   9
ENDBRANCH   7   8
ENDBRANCH   6   7
ENDBRANCH   5   6
ENDBRANCH   4   5
ENDBRANCH   3   4
ENDBRANCH   1   3
BRANCH   2  13
ATOM     13  C   UNL     1     -20.642  -0.612   6.041  1.00  0.00     0.027 C 
BRANCH  13  14
ATOM     14  C   UNL     1     -21.147  -1.809   6.857  1.00  0.00     0.004 C 
BRANCH  14  15
ATOM     15  C   UNL     1     -20.633  -1.734   8.302  1.00  0.00     0.000 C 
BRANCH  15  16
ATOM     16  C   UNL     1     -20.260  -3.112   8.875  1.00  0.00     0.000 C 
BRANCH  16  17
ATOM     17  C   UNL     1     -19.895  -4.175   7.819  1.00  0.00    -0.000 C 
BRANCH  17  18
ATOM     18  C   UNL     1     -20.086  -5.627   8.307  1.00  0.00    -0.000 C 
BRANCH  18  19
ATOM     19  C   UNL     1     -21.458  -6.194   7.918  1.00  0.00    -0.003 C 
ATOM     20  C   UNL     1     -22.375  -6.306   9.132  1.00  0.00     0.004 C 
ENDBRANCH  18  19
ENDBRANCH  17  18
ENDBRANCH  16  17
ENDBRANCH  15  16
ENDBRANCH  14  15
ENDBRANCH  13  14
ENDBRANCH   2  13
TORSDOF 15
ENDMDL
MODEL 3
REMARK VINA RESULT:    -1.485      2.999      5.695
REMARK INTER + INTRA:          -3.796
REMARK INTER:                  -2.541
REMARK INTRA:                  -1.255
REMARK UNBOUND:                -1.009
REMARK SMILES CCCCCCCCC=CCCCCCCCC(=O)[O-]
REMARK SMILES IDX 10 1 9 2 11 3 12 4 13 5 14 6 15 7 16 8 17 9 18 10 19 11
REMARK SMILES IDX 20 12 8 13 7 14 6 15 5 16 4 17 3 18 2 19 1 20
REMARK H PARENT
REMARK Flexibility Score: inf
ROOT
ATOM      1  C   UNL     1     -21.383   0.829   6.511  1.00  0.00    -0.031 C 
ATOM      2  C   UNL     1     -21.179   1.618   7.577  1.00  0.00    -0.031 C 
ENDROOT
BRANCH   1   3
ATOM      3  C   UNL     1     -20.507  -0.362   6.235  1.00  0.00     0.027 C 
BRANCH   3   4
ATOM      4  C   UNL     1     -21.036  -1.633   6.913  1.00  0.00     0.004 C 
BRANCH   4   5
ATOM      5  C   UNL     1     -20.861  -1.604   8.441  1.00  0.00     0.000 C 
BRANCH   5   6
ATOM      6  C   UNL     1     -20.245  -2.910   8.984  1.00  0.00     0.000 C 
BRANCH   6   7
ATOM      7  C   UNL     1     -19.944  -3.943   7.886  1.00  0.00     0.000 C 
BRANCH   7   8
ATOM      8  C   UNL     1     -19.963  -5.389   8.411  1.00  0.00     0.006 C 
BRANCH   8   9
ATOM      9  C   UNL     1     -21.126  -6.204   7.827  1.00  0.00     0.053 C 
BRANCH   9  10
ATOM     10  C   UNL     1     -22.256  -6.363   8.798  1.00  0.00     0.041 C 
ATOM     11  O   UNL     1     -22.221  -5.782   9.915  1.00  0.00    -0.550 OA
ATOM     12  O   UNL     1     -23.352  -7.148   8.464  1.00  0.00    -0.550 OA
ENDBRANCH   9  10
ENDBRANCH   8   9
ENDBRANCH   7   8
ENDBRANCH   6   7
ENDBRANCH   5   6
ENDBRANCH   4   5
ENDBRANCH   3   4
ENDBRANCH   1   3
BRANCH   2  13
ATOM     13  C   UNL     1     -22.065   2.795   7.865  1.00  0.00     0.027 C 
BRANCH  13  14
ATOM     14  C   UNL     1     -22.451   2.848   9.348  1.00  0.00     0.004 C 
BRANCH  14  15
ATOM     15  C   UNL     1     -22.089   1.530  10.048  1.00  0.00     0.000 C 
BRANCH  15  16
ATOM     16  C   UNL     1     -21.528   1.741  11.465  1.00  0.00     0.000 C 
BRANCH  16  17
ATOM     17  C   UNL     1     -22.290   0.997  12.580  1.00  0.00    -0.000 C 
BRANCH  17  18
ATOM     18  C   UNL     1     -21.370   0.252  13.571  1.00  0.00    -0.000 C 
BRANCH  18  19
ATOM     19  C   UNL     1     -21.622  -1.262  13.571  1.00  0.00    -0.003 C 
ATOM     20  C   UNL     1     -21.070  -1.914  12.307  1.00  0.00     0.004 C 
ENDBRANCH  18  19
ENDBRANCH  17  18
ENDBRANCH  16  17
ENDBRANCH  15  16
ENDBRANCH  14  15
ENDBRANCH  13  14
ENDBRANCH   2  13
TORSDOF 15
ENDMDL
MODEL 4
REMARK VINA RESULT:    -1.426      1.495      3.165
REMARK INTER + INTRA:          -3.685
REMARK INTER:                  -3.023
REMARK INTRA:                  -0.662
REMARK UNBOUND:                -1.009
REMARK SMILES CCCCCCCCC=CCCCCCCCC(=O)[O-]
REMARK SMILES IDX 10 1 9 2 11 3 12 4 13 5 14 6 15 7 16 8 17 9 18 10 19 11
REMARK SMILES IDX 20 12 8 13 7 14 6 15 5 16 4 17 3 18 2 19 1 20
REMARK H PARENT
REMARK Flexibility Score: inf
ROOT
ATOM      1  C   UNL     1     -21.300   1.903   7.305  1.00  0.00    -0.031 C 
ATOM      2  C   UNL     1     -21.781   1.880   8.556  1.00  0.00    -0.031 C 
ENDROOT
BRANCH   1   3
ATOM      3  C   UNL     1     -20.539   0.738   6.733  1.00  0.00     0.027 C 
BRANCH   3   4
ATOM      4  C   UNL     1     -21.414  -0.517   6.617  1.00  0.00     0.004 C 
BRANCH   4   5
ATOM      5  C   UNL     1     -20.975  -1.634   7.580  1.00  0.00     0.000 C 
BRANCH   5   6
ATOM      6  C   UNL     1     -20.988  -1.176   9.053  1.00  0.00     0.000 C 
BRANCH   6   7
ATOM      7  C   UNL     1     -20.553  -2.276  10.036  1.00  0.00     0.000 C 
BRANCH   7   8
ATOM      8  C   UNL     1     -20.179  -1.719  11.421  1.00  0.00     0.006 C 
BRANCH   8   9
ATOM      9  C   UNL     1     -21.365  -1.742  12.396  1.00  0.00     0.053 C 
BRANCH   9  10
ATOM     10  C   UNL     1     -21.381  -0.551  13.304  1.00  0.00     0.041 C 
ATOM     11  O   UNL     1     -20.897  -0.629  14.464  1.00  0.00    -0.550 OA
ATOM     12  O   UNL     1     -21.925   0.650  12.865  1.00  0.00    -0.550 OA
ENDBRANCH   9  10
ENDBRANCH   8   9
ENDBRANCH   7   8
ENDBRANCH   6   7
ENDBRANCH   5   6
ENDBRANCH   4   5
ENDBRANCH   3   4
ENDBRANCH   1   3
BRANCH   2  13
ATOM     13  C   UNL     1     -22.558   3.034   9.121  1.00  0.00     0.027 C 
BRANCH  13  14
ATOM     14  C   UNL     1     -22.527   4.239   8.173  1.00  0.00     0.004 C 
BRANCH  14  15
ATOM     15  C   UNL     1     -22.175   5.522   8.939  1.00  0.00     0.000 C 
BRANCH  15  16
ATOM     16  C   UNL     1     -20.710   5.949   8.747  1.00  0.00     0.000 C 
BRANCH  16  17
ATOM     17  C   UNL     1     -19.986   6.379  10.039  1.00  0.00    -0.000 C 
BRANCH  17  18
ATOM     18  C   UNL     1     -18.497   6.728   9.830  1.00  0.00    -0.000 C 
BRANCH  18  19
ATOM     19  C   UNL     1     -18.286   8.219   9.532  1.00  0.00    -0.003 C 
ATOM     20  C   UNL     1     -16.811   8.598   9.626  1.00  0.00     0.004 C 
ENDBRANCH  18  19
ENDBRANCH  17  18
ENDBRANCH  16  17
ENDBRANCH  15  16
ENDBRANCH  14  15
ENDBRANCH  13  14
ENDBRANCH   2  13
TORSDOF 15
ENDMDL
MODEL 5
REMARK VINA RESULT:    -1.417      1.855      5.721
REMARK INTER + INTRA:          -3.669
REMARK INTER:                  -2.310
REMARK INTRA:                  -1.359
REMARK UNBOUND:                -1.009
REMARK SMILES CCCCCCCCC=CCCCCCCCC(=O)[O-]
REMARK SMILES IDX 10 1 9 2 11 3 12 4 13 5 14 6 15 7 16 8 17 9 18 10 19 11
REMARK SMILES IDX 20 12 8 13 7 14 6 15 5 16 4 17 3 18 2 19 1 20
REMARK H PARENT
REMARK Flexibility Score: inf
ROOT
ATOM      1  C   UNL     1     -20.764  -0.553   6.478  1.00  0.00    -0.031 C 
ATOM      2  C   UNL     1     -21.197  -1.471   7.354  1.00  0.00    -0.031 C 
ENDROOT
BRANCH   1   3
ATOM      3  C   UNL     1     -21.495   0.745   6.272  1.00  0.00     0.027 C 
BRANCH   3   4
ATOM      4  C   UNL     1     -21.099   1.797   7.317  1.00  0.00     0.004 C 
BRANCH   4   5
ATOM      5  C   UNL     1     -21.714   1.517   8.700  1.00  0.00     0.000 C 
BRANCH   5   6
ATOM      6  C   UNL     1     -22.422   2.755   9.287  1.00  0.00     0.000 C 
BRANCH   6   7
ATOM      7  C   UNL     1     -22.486   3.940   8.309  1.00  0.00     0.000 C 
BRANCH   7   8
ATOM      8  C   UNL     1     -22.338   5.299   9.015  1.00  0.00     0.006 C 
BRANCH   8   9
ATOM      9  C   UNL     1     -21.046   6.025   8.612  1.00  0.00     0.053 C 
BRANCH   9  10
ATOM     10  C   UNL     1     -20.090   6.167   9.756  1.00  0.00     0.041 C 
ATOM     11  O   UNL     1     -19.140   6.991   9.693  1.00  0.00    -0.550 OA
ATOM     12  O   UNL     1     -20.254   5.392  10.898  1.00  0.00    -0.550 OA
ENDBRANCH   9  10
ENDBRANCH   8   9
ENDBRANCH   7   8
ENDBRANCH   6   7
ENDBRANCH   5   6
ENDBRANCH   4   5
ENDBRANCH   3   4
ENDBRANCH   1   3
BRANCH   2  13
ATOM     13  C   UNL     1     -20.457  -2.759   7.575  1.00  0.00     0.027 C 
BRANCH  13  14
ATOM     14  C   UNL     1     -20.097  -2.943   9.054  1.00  0.00     0.004 C 
BRANCH  14  15
ATOM     15  C   UNL     1     -20.760  -1.857   9.912  1.00  0.00     0.000 C 
BRANCH  15  16
ATOM     16  C   UNL     1     -20.260  -1.857  11.367  1.00  0.00     0.000 C 
BRANCH  16  17
ATOM     17  C   UNL     1     -21.373  -1.865  12.434  1.00  0.00    -0.000 C 
BRANCH  17  18
ATOM     18  C   UNL     1     -21.456  -0.561  13.255  1.00  0.00    -0.000 C 
BRANCH  18  19
ATOM     19  C   UNL     1     -21.818   0.651  12.385  1.00  0.00    -0.003 C 
ATOM     20  C   UNL     1     -21.485   1.959  13.095  1.00  0.00     0.004 C 
ENDBRANCH  18  19
ENDBRANCH  17  18
ENDBRANCH  16  17
ENDBRANCH  15  16
ENDBRANCH  14  15
ENDBRANCH  13  14
ENDBRANCH   2  13
TORSDOF 15
ENDMDL
MODEL 6
REMARK VINA RESULT:    -1.381      2.044      4.841
REMARK INTER + INTRA:          -3.601
REMARK INTER:                  -2.181
REMARK INTRA:                  -1.420
REMARK UNBOUND:                -1.009
REMARK SMILES CCCCCCCCC=CCCCCCCCC(=O)[O-]
REMARK SMILES IDX 10 1 9 2 11 3 12 4 13 5 14 6 15 7 16 8 17 9 18 10 19 11
REMARK SMILES IDX 20 12 8 13 7 14 6 15 5 16 4 17 3 18 2 19 1 20
REMARK H PARENT
REMARK Flexibility Score: inf
ROOT
ATOM      1  C   UNL     1     -21.001  -0.844  13.003  1.00  0.00    -0.031 C 
ATOM      2  C   UNL     1     -21.927   0.109  13.192  1.00  0.00    -0.031 C 
ENDROOT
BRANCH   1   3
ATOM      3  C   UNL     1     -21.379  -2.294  12.877  1.00  0.00     0.027 C 
BRANCH   3   4
ATOM      4  C   UNL     1     -21.293  -2.785  11.425  1.00  0.00     0.004 C 
BRANCH   4   5
ATOM      5  C   UNL     1     -20.174  -2.088  10.632  1.00  0.00     0.000 C 
BRANCH   5   6
ATOM      6  C   UNL     1     -20.697  -1.428   9.338  1.00  0.00     0.000 C 
BRANCH   6   7
ATOM      7  C   UNL     1     -20.639  -2.358   8.115  1.00  0.00     0.000 C 
BRANCH   7   8
ATOM      8  C   UNL     1     -21.258  -1.723   6.858  1.00  0.00     0.006 C 
BRANCH   8   9
ATOM      9  C   UNL     1     -20.327  -0.688   6.211  1.00  0.00     0.053 C 
BRANCH   9  10
ATOM     10  C   UNL     1     -20.865   0.706   6.310  1.00  0.00     0.041 C 
ATOM     11  O   UNL     1     -20.225   1.592   6.937  1.00  0.00    -0.550 OA
ATOM     12  O   UNL     1     -22.072   1.029   5.703  1.00  0.00    -0.550 OA
ENDBRANCH   9  10
ENDBRANCH   8   9
ENDBRANCH   7   8
ENDBRANCH   6   7
ENDBRANCH   5   6
ENDBRANCH   4   5
ENDBRANCH   3   4
ENDBRANCH   1   3
BRANCH   2  13
ATOM     13  C   UNL     1     -21.552   1.559  13.298  1.00  0.00     0.027 C 
BRANCH  13  14
ATOM     14  C   UNL     1     -21.561   2.234  11.921  1.00  0.00     0.004 C 
BRANCH  14  15
ATOM     15  C   UNL     1     -22.315   1.371  10.900  1.00  0.00     0.000 C 
BRANCH  15  16
ATOM     16  C   UNL     1     -22.181   1.896   9.460  1.00  0.00     0.000 C 
BRANCH  16  17
ATOM     17  C   UNL     1     -22.928   3.216   9.180  1.00  0.00    -0.000 C 
BRANCH  17  18
ATOM     18  C   UNL     1     -22.194   4.148   8.192  1.00  0.00    -0.000 C 
BRANCH  18  19
ATOM     19  C   UNL     1     -22.141   5.598   8.693  1.00  0.00    -0.003 C 
ATOM     20  C   UNL     1     -20.894   5.845   9.538  1.00  0.00     0.004 C 
ENDBRANCH  18  19
ENDBRANCH  17  18
ENDBRANCH  16  17
ENDBRANCH  15  16
ENDBRANCH  14  15
ENDBRANCH  13  14
ENDBRANCH   2  13
TORSDOF 15
ENDMDL
MODEL 7
REMARK VINA RESULT:    -1.291      4.753      6.376
REMARK INTER + INTRA:          -3.432
REMARK INTER:                  -2.472
REMARK INTRA:                  -0.960
REMARK UNBOUND:                -1.009
REMARK SMILES CCCCCCCCC=CCCCCCCCC(=O)[O-]
REMARK SMILES IDX 10 1 9 2 11 3 12 4 13 5 14 6 15 7 16 8 17 9 18 10 19 11
REMARK SMILES IDX 20 12 8 13 7 14 6 15 5 16 4 17 3 18 2 19 1 20
REMARK H PARENT
REMARK Flexibility Score: inf
ROOT
ATOM      1  C   UNL     1     -20.620  -1.680   8.286  1.00  0.00    -0.031 C 
ATOM      2  C   UNL     1     -21.166  -1.595   7.063  1.00  0.00    -0.031 C 
ENDROOT
BRANCH   1   3
ATOM      3  C   UNL     1     -20.407  -3.006   8.962  1.00  0.00     0.027 C 
BRANCH   3   4
ATOM      4  C   UNL     1     -19.824  -4.052   8.002  1.00  0.00     0.004 C 
BRANCH   4   5
ATOM      5  C   UNL     1     -20.148  -5.494   8.431  1.00  0.00     0.000 C 
BRANCH   5   6
ATOM      6  C   UNL     1     -21.492  -5.988   7.856  1.00  0.00     0.000 C 
BRANCH   6   7
ATOM      7  C   UNL     1     -22.364  -6.719   8.890  1.00  0.00     0.000 C 
BRANCH   7   8
ATOM      8  C   UNL     1     -23.810  -6.925   8.407  1.00  0.00     0.006 C 
BRANCH   8   9
ATOM      9  C   UNL     1     -24.134  -8.404   8.155  1.00  0.00     0.053 C 
BRANCH   9  10
ATOM     10  C   UNL     1     -25.525  -8.605   7.639  1.00  0.00     0.041 C 
ATOM     11  O   UNL     1     -26.000  -7.827   6.769  1.00  0.00    -0.550 OA
ATOM     12  O   UNL     1     -26.297  -9.658   8.114  1.00  0.00    -0.550 OA
ENDBRANCH   9  10
ENDBRANCH   8   9
ENDBRANCH   7   8
ENDBRANCH   6   7
ENDBRANCH   5   6
ENDBRANCH   4   5
ENDBRANCH   3   4
ENDBRANCH   1   3
BRANCH   2  13
ATOM     13  C   UNL     1     -21.361  -0.273   6.379  1.00  0.00     0.027 C 
BRANCH  13  14
ATOM     14  C   UNL     1     -20.653   0.854   7.141  1.00  0.00     0.004 C 
BRANCH  14  15
ATOM     15  C   UNL     1     -21.555   2.093   7.235  1.00  0.00     0.000 C 
BRANCH  15  16
ATOM     16  C   UNL     1     -21.938   2.444   8.683  1.00  0.00     0.000 C 
BRANCH  16  17
ATOM     17  C   UNL     1     -21.788   1.287   9.691  1.00  0.00    -0.000 C 
BRANCH  17  18
ATOM     18  C   UNL     1     -22.624   1.471  10.976  1.00  0.00    -0.000 C 
BRANCH  18  19
ATOM     19  C   UNL     1     -21.745   1.565  12.231  1.00  0.00    -0.003 C 
ATOM     20  C   UNL     1     -21.675   0.226  12.958  1.00  0.00     0.004 C 
ENDBRANCH  18  19
ENDBRANCH  17  18
ENDBRANCH  16  17
ENDBRANCH  15  16
ENDBRANCH  14  15
ENDBRANCH  13  14
ENDBRANCH   2  13
TORSDOF 15
ENDMDL
MODEL 8
REMARK VINA RESULT:    -1.283      3.256      7.258
REMARK INTER + INTRA:          -3.417
REMARK INTER:                  -2.813
REMARK INTRA:                  -0.605
REMARK UNBOUND:                -1.009
REMARK SMILES CCCCCCCCC=CCCCCCCCC(=O)[O-]
REMARK SMILES IDX 10 1 9 2 11 3 12 4 13 5 14 6 15 7 16 8 17 9 18 10 19 11
REMARK SMILES IDX 20 12 8 13 7 14 6 15 5 16 4 17 3 18 2 19 1 20
REMARK H PARENT
REMARK Flexibility Score: inf
ROOT
ATOM      1  C   UNL     1     -21.026  -1.754   7.109  1.00  0.00    -0.031 C 
ATOM      2  C   UNL     1     -20.650  -1.844   8.393  1.00  0.00    -0.031 C 
ENDROOT
BRANCH   1   3
ATOM      3  C   UNL     1     -21.401  -0.437   6.489  1.00  0.00     0.027 C 
BRANCH   3   4
ATOM      4  C   UNL     1     -20.707   0.742   7.184  1.00  0.00     0.004 C 
BRANCH   4   5
ATOM      5  C   UNL     1     -21.635   1.477   8.168  1.00  0.00     0.000 C 
BRANCH   5   6
ATOM      6  C   UNL     1     -21.500   0.942   9.609  1.00  0.00     0.000 C 
BRANCH   6   7
ATOM      7  C   UNL     1     -22.536   1.538  10.578  1.00  0.00     0.000 C 
BRANCH   7   8
ATOM      8  C   UNL     1     -22.123   1.388  12.052  1.00  0.00     0.006 C 
BRANCH   8   9
ATOM      9  C   UNL     1     -21.512   0.011  12.347  1.00  0.00     0.053 C 
BRANCH   9  10
ATOM     10  C   UNL     1     -21.589  -0.349  13.799  1.00  0.00     0.041 C 
ATOM     11  O   UNL     1     -20.549  -0.360  14.509  1.00  0.00    -0.550 OA
ATOM     12  O   UNL     1     -22.815  -0.667  14.371  1.00  0.00    -0.550 OA
ENDBRANCH   9  10
ENDBRANCH   8   9
ENDBRANCH   7   8
ENDBRANCH   6   7
ENDBRANCH   5   6
ENDBRANCH   4   5
ENDBRANCH   3   4
ENDBRANCH   1   3
BRANCH   2  13
ATOM     13  C   UNL     1     -20.256  -3.156   9.007  1.00  0.00     0.027 C 
BRANCH  13  14
ATOM     14  C   UNL     1     -19.909  -4.190   7.929  1.00  0.00     0.004 C 
BRANCH  14  15
ATOM     15  C   UNL     1     -20.271  -5.605   8.399  1.00  0.00     0.000 C 
BRANCH  15  16
ATOM     16  C   UNL     1     -21.559  -6.140   7.748  1.00  0.00     0.000 C 
BRANCH  16  17
ATOM     17  C   UNL     1     -22.632  -6.627   8.741  1.00  0.00    -0.000 C 
BRANCH  17  18
ATOM     18  C   UNL     1     -23.443  -7.839   8.235  1.00  0.00    -0.000 C 
BRANCH  18  19
ATOM     19  C   UNL     1     -24.921  -7.495   8.007  1.00  0.00    -0.003 C 
ATOM     20  C   UNL     1     -25.720  -8.730   7.602  1.00  0.00     0.004 C 
ENDBRANCH  18  19
ENDBRANCH  17  18
ENDBRANCH  16  17
ENDBRANCH  15  16
ENDBRANCH  14  15
ENDBRANCH  13  14
ENDBRANCH   2  13
TORSDOF 15
ENDMDL
MODEL 9
REMARK VINA RESULT:    -1.041      3.180      6.249
REMARK INTER + INTRA:          -2.962
REMARK INTER:                  -1.999
REMARK INTRA:                  -0.963
REMARK UNBOUND:                -1.009
REMARK SMILES CCCCCCCCC=CCCCCCCCC(=O)[O-]
REMARK SMILES IDX 10 1 9 2 11 3 12 4 13 5 14 6 15 7 16 8 17 9 18 10 19 11
REMARK SMILES IDX 20 12 8 13 7 14 6 15 5 16 4 17 3 18 2 19 1 20
REMARK H PARENT
REMARK Flexibility Score: inf
ROOT
ATOM      1  C   UNL     1     -21.513   1.318   8.199  1.00  0.00    -0.031 C 
ATOM      2  C   UNL     1     -22.126   2.360   8.780  1.00  0.00    -0.031 C 
ENDROOT
BRANCH   1   3
ATOM      3  C   UNL     1     -20.798   1.458   6.884  1.00  0.00     0.027 C 
BRANCH   3   4
ATOM      4  C   UNL     1     -21.304   0.448   5.845  1.00  0.00     0.004 C 
BRANCH   4   5
ATOM      5  C   UNL     1     -21.792  -0.864   6.486  1.00  0.00     0.000 C 
BRANCH   5   6
ATOM      6  C   UNL     1     -20.626  -1.726   7.014  1.00  0.00     0.000 C 
BRANCH   6   7
ATOM      7  C   UNL     1     -20.617  -1.864   8.546  1.00  0.00     0.000 C 
BRANCH   7   8
ATOM      8  C   UNL     1     -20.587  -3.331   9.008  1.00  0.00     0.006 C 
BRANCH   8   9
ATOM      9  C   UNL     1     -19.760  -4.220   8.068  1.00  0.00     0.053 C 
BRANCH   9  10
ATOM     10  C   UNL     1     -20.280  -5.623   8.004  1.00  0.00     0.041 C 
ATOM     11  O   UNL     1     -19.710  -6.480   7.278  1.00  0.00    -0.550 OA
ATOM     12  O   UNL     1     -21.391  -5.987   8.754  1.00  0.00    -0.550 OA
ENDBRANCH   9  10
ENDBRANCH   8   9
ENDBRANCH   7   8
ENDBRANCH   6   7
ENDBRANCH   5   6
ENDBRANCH   4   5
ENDBRANCH   3   4
ENDBRANCH   1   3
BRANCH   2  13
ATOM     13  C   UNL     1     -22.823   2.226  10.103  1.00  0.00     0.027 C 
BRANCH  13  14
ATOM     14  C   UNL     1     -22.115   1.202  10.999  1.00  0.00     0.004 C 
BRANCH  14  15
ATOM     15  C   UNL     1     -21.431   1.901  12.182  1.00  0.00     0.000 C 
BRANCH  15  16
ATOM     16  C   UNL     1     -21.783   1.263  13.537  1.00  0.00     0.000 C 
BRANCH  16  17
ATOM     17  C   UNL     1     -20.993  -0.017  13.875  1.00  0.00    -0.000 C 
BRANCH  17  18
ATOM     18  C   UNL     1     -21.882  -1.264  14.068  1.00  0.00    -0.000 C 
BRANCH  18  19
ATOM     19  C   UNL     1     -21.748  -2.258  12.905  1.00  0.00    -0.003 C 
ATOM     20  C   UNL     1     -20.610  -1.862  11.969  1.00  0.00     0.004 C 
ENDBRANCH  18  19
ENDBRANCH  17  18
ENDBRANCH  16  17
ENDBRANCH  15  16
ENDBRANCH  14  15
ENDBRANCH  13  14
ENDBRANCH   2  13
TORSDOF 15
ENDMDL
