MODEL 1
REMARK VINA RESULT:    -4.134      0.000      0.000
REMARK INTER + INTRA:         -10.093
REMARK INTER:                  -8.002
REMARK INTRA:                  -2.091
REMARK UNBOUND:                -2.091
REMARK SMILES CCCCCCCCCCCCCCCCCC(=O)[O-]
REMARK SMILES IDX 10 1 11 2 12 3 13 4 14 5 15 6 16 7 17 8 18 9 19 10 20 11
REMARK SMILES IDX 9 12 8 13 7 14 6 15 5 16 4 17 3 18 2 19 1 20
REMARK H PARENT
REMARK Flexibility Score: inf
ROOT
ATOM      1  C   UNL     1      -0.726   1.412   5.034  1.00  0.00     0.000 C 
ENDROOT
BRANCH   1   2
ATOM      2  C   UNL     1       0.388   0.359   5.151  1.00  0.00     0.000 C 
BRANCH   2   3
ATOM      3  C   UNL     1       0.742   0.036   6.614  1.00  0.00     0.000 C 
BRANCH   3   4
ATOM      4  C   UNL     1       0.043  -1.238   7.120  1.00  0.00     0.000 C 
BRANCH   4   5
ATOM      5  C   UNL     1       0.565  -1.690   8.496  1.00  0.00     0.000 C 
BRANCH   5   6
ATOM      6  C   UNL     1      -0.562  -1.864   9.527  1.00  0.00     0.000 C 
BRANCH   6   7
ATOM      7  C   UNL     1      -1.959  -1.858   8.886  1.00  0.00     0.006 C 
BRANCH   7   8
ATOM      8  C   UNL     1      -2.933  -2.725   9.690  1.00  0.00     0.053 C 
BRANCH   8   9
ATOM      9  C   UNL     1      -3.213  -4.006   8.969  1.00  0.00     0.041 C 
ATOM     10  O   UNL     1      -4.365  -4.513   9.004  1.00  0.00    -0.550 OA
ATOM     11  O   UNL     1      -2.215  -4.613   8.217  1.00  0.00    -0.550 OA
ENDBRANCH   8   9
ENDBRANCH   7   8
ENDBRANCH   6   7
ENDBRANCH   5   6
ENDBRANCH   4   5
ENDBRANCH   3   4
ENDBRANCH   2   3
ENDBRANCH   1   2
BRANCH   1  12
ATOM     12  C   UNL     1      -2.135   0.795   5.096  1.00  0.00     0.000 C 
BRANCH  12  13
ATOM     13  C   UNL     1      -2.745   0.860   6.505  1.00  0.00    -0.000 C 
BRANCH  13  14
ATOM     14  C   UNL     1      -2.152   2.002   7.351  1.00  0.00    -0.000 C 
BRANCH  14  15
ATOM     15  C   UNL     1      -2.460   1.846   8.848  1.00  0.00    -0.000 C 
BRANCH  15  16
ATOM     16  C   UNL     1      -1.188   1.695   9.701  1.00  0.00    -0.000 C 
BRANCH  16  17
ATOM     17  C   UNL     1      -0.360   2.997   9.750  1.00  0.00    -0.000 C 
BRANCH  17  18
ATOM     18  C   UNL     1       0.780   3.046   8.714  1.00  0.00    -0.000 C 
BRANCH  18  19
ATOM     19  C   UNL     1       1.625   4.330   8.748  1.00  0.00    -0.003 C 
ATOM     20  C   UNL     1       2.311   4.622   7.413  1.00  0.00     0.004 C 
ENDBRANCH  18  19
ENDBRANCH  17  18
ENDBRANCH  16  17
ENDBRANCH  15  16
ENDBRANCH  14  15
ENDBRANCH  13  14
ENDBRANCH  12  13
ENDBRANCH   1  12
TORSDOF 16
ENDMDL
MODEL 2
REMARK VINA RESULT:    -4.123      3.016      5.279
REMARK INTER + INTRA:         -10.071
REMARK INTER:                  -8.221
REMARK INTRA:                  -1.850
REMARK UNBOUND:                -2.091
REMARK SMILES CCCCCCCCCCCCCCCCCC(=O)[O-]
REMARK SMILES IDX 10 1 11 2 12 3 13 4 14 5 15 6 16 7 17 8 18 9 19 10 20 11
REMARK SMILES IDX 9 12 8 13 7 14 6 15 5 16 4 17 3 18 2 19 1 20
REMARK H PARENT
REMARK Flexibility Score: inf
ROOT
ATOM      1  C   UNL     1      -0.976   2.321   8.874  1.00  0.00     0.000 C 
ENDROOT
BRANCH   1   2
ATOM      2  C   UNL     1      -2.383   1.814   9.233  1.00  0.00     0.000 C 
BRANCH   2   3
ATOM      3  C   UNL     1      -2.488   0.280   9.181  1.00  0.00     0.000 C 
BRANCH   3   4
ATOM      4  C   UNL     1      -1.115  -0.399   9.044  1.00  0.00     0.000 C 
BRANCH   4   5
ATOM      5  C   UNL     1      -1.057  -1.379   7.858  1.00  0.00     0.000 C 
BRANCH   5   6
ATOM      6  C   UNL     1       0.246  -1.254   7.051  1.00  0.00     0.000 C 
BRANCH   6   7
ATOM      7  C   UNL     1       0.568   0.198   6.665  1.00  0.00     0.006 C 
BRANCH   7   8
ATOM      8  C   UNL     1       0.628   0.360   5.143  1.00  0.00     0.053 C 
BRANCH   8   9
ATOM      9  C   UNL     1      -0.138   1.571   4.714  1.00  0.00     0.041 C 
ATOM     10  O   UNL     1      -1.228   1.862   5.274  1.00  0.00    -0.550 OA
ATOM     11  O   UNL     1       0.376   2.406   3.730  1.00  0.00    -0.550 OA
ENDBRANCH   8   9
ENDBRANCH   7   8
ENDBRANCH   6   7
ENDBRANCH   5   6
ENDBRANCH   4   5
ENDBRANCH   3   4
ENDBRANCH   2   3
ENDBRANCH   1   2
BRANCH   1  12
ATOM     12  C   UNL     1      -0.440   3.350   9.885  1.00  0.00     0.000 C 
BRANCH  12  13
ATOM     13  C   UNL     1       0.983   3.821   9.548  1.00  0.00    -0.000 C 
BRANCH  13  14
ATOM     14  C   UNL     1       1.392   3.472   8.106  1.00  0.00    -0.000 C 
BRANCH  14  15
ATOM     15  C   UNL     1       2.217   4.585   7.442  1.00  0.00    -0.000 C 
BRANCH  15  16
ATOM     16  C   UNL     1       3.338   5.114   8.354  1.00  0.00    -0.000 C 
BRANCH  16  17
ATOM     17  C   UNL     1       3.174   6.615   8.672  1.00  0.00    -0.000 C 
BRANCH  17  18
ATOM     18  C   UNL     1       2.186   7.341   7.738  1.00  0.00    -0.000 C 
BRANCH  18  19
ATOM     19  C   UNL     1       1.090   8.144   8.460  1.00  0.00    -0.003 C 
ATOM     20  C   UNL     1       0.639   7.488   9.766  1.00  0.00     0.004 C 
ENDBRANCH  18  19
ENDBRANCH  17  18
ENDBRANCH  16  17
ENDBRANCH  15  16
ENDBRANCH  14  15
ENDBRANCH  13  14
ENDBRANCH  12  13
ENDBRANCH   1  12
TORSDOF 16
ENDMDL
MODEL 3
REMARK VINA RESULT:    -4.113      3.276      5.494
REMARK INTER + INTRA:         -10.051
REMARK INTER:                  -8.686
REMARK INTRA:                  -1.365
REMARK UNBOUND:                -2.091
REMARK SMILES CCCCCCCCCCCCCCCCCC(=O)[O-]
REMARK SMILES IDX 10 1 11 2 12 3 13 4 14 5 15 6 16 7 17 8 18 9 19 10 20 11
REMARK SMILES IDX 9 12 8 13 7 14 6 15 5 16 4 17 3 18 2 19 1 20
REMARK H PARENT
REMARK Flexibility Score: inf
ROOT
ATOM      1  C   UNL     1      -1.103   2.449   8.913  1.00  0.00     0.000 C 
ENDROOT
BRANCH   1   2
ATOM      2  C   UNL     1      -2.465   1.854   9.305  1.00  0.00     0.000 C 
BRANCH   2   3
ATOM      3  C   UNL     1      -2.464   0.315   9.283  1.00  0.00     0.000 C 
BRANCH   3   4
ATOM      4  C   UNL     1      -2.025  -0.254   7.923  1.00  0.00     0.000 C 
BRANCH   4   5
ATOM      5  C   UNL     1      -0.980  -1.376   8.062  1.00  0.00     0.000 C 
BRANCH   5   6
ATOM      6  C   UNL     1       0.151  -1.262   7.028  1.00  0.00     0.000 C 
BRANCH   6   7
ATOM      7  C   UNL     1       0.484   0.195   6.670  1.00  0.00     0.006 C 
BRANCH   7   8
ATOM      8  C   UNL     1       0.656   0.361   5.157  1.00  0.00     0.053 C 
BRANCH   8   9
ATOM      9  C   UNL     1      -0.069   1.580   4.678  1.00  0.00     0.041 C 
ATOM     10  O   UNL     1      -1.183   1.890   5.176  1.00  0.00    -0.550 OA
ATOM     11  O   UNL     1       0.509   2.399   3.717  1.00  0.00    -0.550 OA
ENDBRANCH   8   9
ENDBRANCH   7   8
ENDBRANCH   6   7
ENDBRANCH   5   6
ENDBRANCH   4   5
ENDBRANCH   3   4
ENDBRANCH   2   3
ENDBRANCH   1   2
BRANCH   1  12
ATOM     12  C   UNL     1      -0.469   3.278  10.045  1.00  0.00     0.000 C 
BRANCH  12  13
ATOM     13  C   UNL     1       0.863   3.921   9.629  1.00  0.00    -0.000 C 
BRANCH  13  14
ATOM     14  C   UNL     1       1.330   3.460   8.236  1.00  0.00    -0.000 C 
BRANCH  14  15
ATOM     15  C   UNL     1       2.184   4.519   7.522  1.00  0.00    -0.000 C 
BRANCH  15  16
ATOM     16  C   UNL     1       2.591   5.676   8.451  1.00  0.00    -0.000 C 
BRANCH  16  17
ATOM     17  C   UNL     1       4.116   5.915   8.453  1.00  0.00    -0.000 C 
BRANCH  17  18
ATOM     18  C   UNL     1       4.558   7.101   7.574  1.00  0.00    -0.000 C 
BRANCH  18  19
ATOM     19  C   UNL     1       6.040   7.486   7.712  1.00  0.00    -0.003 C 
ATOM     20  C   UNL     1       6.661   7.934   6.388  1.00  0.00     0.004 C 
ENDBRANCH  18  19
ENDBRANCH  17  18
ENDBRANCH  16  17
ENDBRANCH  15  16
ENDBRANCH  14  15
ENDBRANCH  13  14
ENDBRANCH  12  13
ENDBRANCH   1  12
TORSDOF 16
ENDMDL
MODEL 4
REMARK VINA RESULT:    -4.091      2.382      3.938
REMARK INTER + INTRA:         -10.008
REMARK INTER:                  -8.745
REMARK INTRA:                  -1.264
REMARK UNBOUND:                -2.091
REMARK SMILES CCCCCCCCCCCCCCCCCC(=O)[O-]
REMARK SMILES IDX 10 1 11 2 12 3 13 4 14 5 15 6 16 7 17 8 18 9 19 10 20 11
REMARK SMILES IDX 9 12 8 13 7 14 6 15 5 16 4 17 3 18 2 19 1 20
REMARK H PARENT
REMARK Flexibility Score: inf
ROOT
ATOM      1  C   UNL     1      -0.131   1.377   5.158  1.00  0.00     0.000 C 
ENDROOT
BRANCH   1   2
ATOM      2  C   UNL     1      -1.421   1.617   5.960  1.00  0.00     0.000 C 
BRANCH   2   3
ATOM      3  C   UNL     1      -2.417   0.451   5.837  1.00  0.00     0.000 C 
BRANCH   3   4
ATOM      4  C   UNL     1      -2.391  -0.478   7.063  1.00  0.00     0.000 C 
BRANCH   4   5
ATOM      5  C   UNL     1      -1.953   0.252   8.346  1.00  0.00     0.000 C 
BRANCH   5   6
ATOM      6  C   UNL     1      -1.396  -0.707   9.410  1.00  0.00     0.000 C 
BRANCH   6   7
ATOM      7  C   UNL     1      -0.582  -1.860   8.802  1.00  0.00     0.006 C 
BRANCH   7   8
ATOM      8  C   UNL     1      -0.196  -2.883   9.875  1.00  0.00     0.053 C 
BRANCH   8   9
ATOM      9  C   UNL     1       1.280  -3.125   9.862  1.00  0.00     0.041 C 
ATOM     10  O   UNL     1       2.080  -2.155   9.781  1.00  0.00    -0.550 OA
ATOM     11  O   UNL     1       1.774  -4.417   9.989  1.00  0.00    -0.550 OA
ENDBRANCH   8   9
ENDBRANCH   7   8
ENDBRANCH   6   7
ENDBRANCH   5   6
ENDBRANCH   4   5
ENDBRANCH   3   4
ENDBRANCH   2   3
ENDBRANCH   1   2
BRANCH   1  12
ATOM     12  C   UNL     1       1.120   1.931   5.865  1.00  0.00     0.000 C 
BRANCH  12  13
ATOM     13  C   UNL     1       0.807   2.492   7.261  1.00  0.00    -0.000 C 
BRANCH  13  14
ATOM     14  C   UNL     1       1.773   3.617   7.673  1.00  0.00    -0.000 C 
BRANCH  14  15
ATOM     15  C   UNL     1       1.457   4.184   9.066  1.00  0.00    -0.000 C 
BRANCH  15  16
ATOM     16  C   UNL     1       1.874   5.657   9.214  1.00  0.00    -0.000 C 
BRANCH  16  17
ATOM     17  C   UNL     1       2.567   6.198   7.945  1.00  0.00    -0.000 C 
BRANCH  17  18
ATOM     18  C   UNL     1       4.082   6.424   8.116  1.00  0.00    -0.000 C 
BRANCH  18  19
ATOM     19  C   UNL     1       4.609   7.735   7.511  1.00  0.00    -0.003 C 
ATOM     20  C   UNL     1       3.506   8.577   6.868  1.00  0.00     0.004 C 
ENDBRANCH  18  19
ENDBRANCH  17  18
ENDBRANCH  16  17
ENDBRANCH  15  16
ENDBRANCH  14  15
ENDBRANCH  13  14
ENDBRANCH  12  13
ENDBRANCH   1  12
TORSDOF 16
ENDMDL
MODEL 5
REMARK VINA RESULT:    -4.044      4.423      7.546
REMARK INTER + INTRA:          -9.919
REMARK INTER:                  -8.022
REMARK INTRA:                  -1.897
REMARK UNBOUND:                -2.091
REMARK SMILES CCCCCCCCCCCCCCCCCC(=O)[O-]
REMARK SMILES IDX 10 1 11 2 12 3 13 4 14 5 15 6 16 7 17 8 18 9 19 10 20 11
REMARK SMILES IDX 9 12 8 13 7 14 6 15 5 16 4 17 3 18 2 19 1 20
REMARK H PARENT
REMARK Flexibility Score: inf
ROOT
ATOM      1  C   UNL     1      -1.861   0.212   9.586  1.00  0.00     0.000 C 
ENDROOT
BRANCH   1   2
ATOM      2  C   UNL     1      -2.544   1.580   9.420  1.00  0.00     0.000 C 
BRANCH   2   3
ATOM      3  C   UNL     1      -1.670   2.740   9.928  1.00  0.00     0.000 C 
BRANCH   3   4
ATOM      4  C   UNL     1      -0.288   2.776   9.251  1.00  0.00     0.000 C 
BRANCH   4   5
ATOM      5  C   UNL     1       0.642   3.836   9.866  1.00  0.00     0.000 C 
BRANCH   5   6
ATOM      6  C   UNL     1       1.766   4.264   8.908  1.00  0.00     0.000 C 
BRANCH   6   7
ATOM      7  C   UNL     1       2.678   5.346   9.507  1.00  0.00     0.006 C 
BRANCH   7   8
ATOM      8  C   UNL     1       3.535   6.002   8.421  1.00  0.00     0.053 C 
BRANCH   8   9
ATOM      9  C   UNL     1       4.950   6.144   8.884  1.00  0.00     0.041 C 
ATOM     10  O   UNL     1       5.436   5.315   9.699  1.00  0.00    -0.550 OA
ATOM     11  O   UNL     1       5.749   7.162   8.379  1.00  0.00    -0.550 OA
ENDBRANCH   8   9
ENDBRANCH   7   8
ENDBRANCH   6   7
ENDBRANCH   5   6
ENDBRANCH   4   5
ENDBRANCH   3   4
ENDBRANCH   2   3
ENDBRANCH   1   2
BRANCH   1  12
ATOM     12  C   UNL     1      -2.536  -0.894   8.754  1.00  0.00     0.000 C 
BRANCH  12  13
ATOM     13  C   UNL     1      -1.534  -1.938   8.239  1.00  0.00    -0.000 C 
BRANCH  13  14
ATOM     14  C   UNL     1      -0.076  -1.458   8.348  1.00  0.00    -0.000 C 
BRANCH  14  15
ATOM     15  C   UNL     1       0.528  -1.094   6.983  1.00  0.00    -0.000 C 
BRANCH  15  16
ATOM     16  C   UNL     1       0.637   0.426   6.771  1.00  0.00    -0.000 C 
BRANCH  16  17
ATOM     17  C   UNL     1       0.728   0.803   5.277  1.00  0.00    -0.000 C 
BRANCH  17  18
ATOM     18  C   UNL     1      -0.595   1.328   4.689  1.00  0.00    -0.000 C 
BRANCH  18  19
ATOM     19  C   UNL     1      -1.787   1.301   5.661  1.00  0.00    -0.003 C 
ATOM     20  C   UNL     1      -2.910   0.374   5.194  1.00  0.00     0.004 C 
ENDBRANCH  18  19
ENDBRANCH  17  18
ENDBRANCH  16  17
ENDBRANCH  15  16
ENDBRANCH  14  15
ENDBRANCH  13  14
ENDBRANCH  12  13
ENDBRANCH   1  12
TORSDOF 16
ENDMDL
MODEL 6
REMARK VINA RESULT:    -4.033      4.717      7.734
REMARK INTER + INTRA:          -9.897
REMARK INTER:                  -7.881
REMARK INTRA:                  -2.016
REMARK UNBOUND:                -2.091
REMARK SMILES CCCCCCCCCCCCCCCCCC(=O)[O-]
REMARK SMILES IDX 10 1 11 2 12 3 13 4 14 5 15 6 16 7 17 8 18 9 19 10 20 11
REMARK SMILES IDX 9 12 8 13 7 14 6 15 5 16 4 17 3 18 2 19 1 20
REMARK H PARENT
REMARK Flexibility Score: inf
ROOT
ATOM      1  C   UNL     1      -2.363   2.096   9.169  1.00  0.00     0.000 C 
ENDROOT
BRANCH   1   2
ATOM      2  C   UNL     1      -0.840   2.302   9.107  1.00  0.00     0.000 C 
BRANCH   2   3
ATOM      3  C   UNL     1      -0.368   3.474   9.986  1.00  0.00     0.000 C 
BRANCH   3   4
ATOM      4  C   UNL     1       1.037   3.969   9.602  1.00  0.00     0.000 C 
BRANCH   4   5
ATOM      5  C   UNL     1       1.392   3.660   8.136  1.00  0.00     0.000 C 
BRANCH   5   6
ATOM      6  C   UNL     1       2.646   4.410   7.661  1.00  0.00     0.000 C 
BRANCH   6   7
ATOM      7  C   UNL     1       3.045   5.556   8.603  1.00  0.00     0.006 C 
BRANCH   7   8
ATOM      8  C   UNL     1       2.932   6.910   7.897  1.00  0.00     0.053 C 
BRANCH   8   9
ATOM      9  C   UNL     1       4.253   7.315   7.322  1.00  0.00     0.041 C 
ATOM     10  O   UNL     1       4.303   8.119   6.355  1.00  0.00    -0.550 OA
ATOM     11  O   UNL     1       5.431   6.841   7.887  1.00  0.00    -0.550 OA
ENDBRANCH   8   9
ENDBRANCH   7   8
ENDBRANCH   6   7
ENDBRANCH   5   6
ENDBRANCH   4   5
ENDBRANCH   3   4
ENDBRANCH   2   3
ENDBRANCH   1   2
BRANCH   1  12
ATOM     12  C   UNL     1      -2.762   0.863   9.998  1.00  0.00     0.000 C 
BRANCH  12  13
ATOM     13  C   UNL     1      -1.874  -0.357   9.705  1.00  0.00    -0.000 C 
BRANCH  13  14
ATOM     14  C   UNL     1      -2.395  -1.193   8.523  1.00  0.00    -0.000 C 
BRANCH  14  15
ATOM     15  C   UNL     1      -1.260  -1.846   7.719  1.00  0.00    -0.000 C 
BRANCH  15  16
ATOM     16  C   UNL     1       0.065  -1.073   7.832  1.00  0.00    -0.000 C 
BRANCH  16  17
ATOM     17  C   UNL     1       0.536  -0.518   6.471  1.00  0.00    -0.000 C 
BRANCH  17  18
ATOM     18  C   UNL     1      -0.003   0.891   6.157  1.00  0.00    -0.000 C 
BRANCH  18  19
ATOM     19  C   UNL     1      -1.088   0.937   5.068  1.00  0.00    -0.003 C 
ATOM     20  C   UNL     1      -2.503   1.001   5.644  1.00  0.00     0.004 C 
ENDBRANCH  18  19
ENDBRANCH  17  18
ENDBRANCH  16  17
ENDBRANCH  15  16
ENDBRANCH  14  15
ENDBRANCH  13  14
ENDBRANCH  12  13
ENDBRANCH   1  12
TORSDOF 16
ENDMDL
MODEL 7
REMARK VINA RESULT:    -3.961      4.782      7.802
REMARK INTER + INTRA:          -9.756
REMARK INTER:                  -8.022
REMARK INTRA:                  -1.734
REMARK UNBOUND:                -2.091
REMARK SMILES CCCCCCCCCCCCCCCCCC(=O)[O-]
REMARK SMILES IDX 10 1 11 2 12 3 13 4 14 5 15 6 16 7 17 8 18 9 19 10 20 11
REMARK SMILES IDX 9 12 8 13 7 14 6 15 5 16 4 17 3 18 2 19 1 20
REMARK H PARENT
REMARK Flexibility Score: inf
ROOT
ATOM      1  C   UNL     1      -0.825   1.236   4.998  1.00  0.00     0.000 C 
ENDROOT
BRANCH   1   2
ATOM      2  C   UNL     1       0.482   0.960   5.760  1.00  0.00     0.000 C 
BRANCH   2   3
ATOM      3  C   UNL     1       1.098   2.238   6.356  1.00  0.00     0.000 C 
BRANCH   3   4
ATOM      4  C   UNL     1       0.648   2.488   7.805  1.00  0.00     0.000 C 
BRANCH   4   5
ATOM      5  C   UNL     1       1.367   3.688   8.448  1.00  0.00     0.000 C 
BRANCH   5   6
ATOM      6  C   UNL     1       2.510   4.229   7.574  1.00  0.00     0.000 C 
BRANCH   6   7
ATOM      7  C   UNL     1       3.103   5.539   8.117  1.00  0.00     0.006 C 
BRANCH   7   8
ATOM      8  C   UNL     1       4.477   5.297   8.749  1.00  0.00     0.053 C 
BRANCH   8   9
ATOM      9  C   UNL     1       5.358   6.492   8.562  1.00  0.00     0.041 C 
ATOM     10  O   UNL     1       5.312   7.151   7.490  1.00  0.00    -0.550 OA
ATOM     11  O   UNL     1       6.194   6.907   9.591  1.00  0.00    -0.550 OA
ENDBRANCH   8   9
ENDBRANCH   7   8
ENDBRANCH   6   7
ENDBRANCH   5   6
ENDBRANCH   4   5
ENDBRANCH   3   4
ENDBRANCH   2   3
ENDBRANCH   1   2
BRANCH   1  12
ATOM     12  C   UNL     1      -2.073   1.099   5.889  1.00  0.00     0.000 C 
BRANCH  12  13
ATOM     13  C   UNL     1      -2.004  -0.128   6.812  1.00  0.00    -0.000 C 
BRANCH  13  14
ATOM     14  C   UNL     1      -2.251   0.232   8.288  1.00  0.00    -0.000 C 
BRANCH  14  15
ATOM     15  C   UNL     1      -1.249  -0.447   9.235  1.00  0.00    -0.000 C 
BRANCH  15  16
ATOM     16  C   UNL     1      -0.281  -1.388   8.496  1.00  0.00    -0.000 C 
BRANCH  16  17
ATOM     17  C   UNL     1       0.108  -2.613   9.350  1.00  0.00    -0.000 C 
BRANCH  17  18
ATOM     18  C   UNL     1      -1.090  -3.295  10.038  1.00  0.00    -0.000 C 
BRANCH  18  19
ATOM     19  C   UNL     1      -1.938  -4.188   9.116  1.00  0.00    -0.003 C 
ATOM     20  C   UNL     1      -3.423  -3.823   9.140  1.00  0.00     0.004 C 
ENDBRANCH  18  19
ENDBRANCH  17  18
ENDBRANCH  16  17
ENDBRANCH  15  16
ENDBRANCH  14  15
ENDBRANCH  13  14
ENDBRANCH  12  13
ENDBRANCH   1  12
TORSDOF 16
ENDMDL
MODEL 8
REMARK VINA RESULT:    -3.941      5.578      8.993
REMARK INTER + INTRA:          -9.718
REMARK INTER:                  -8.295
REMARK INTRA:                  -1.423
REMARK UNBOUND:                -2.091
REMARK SMILES CCCCCCCCCCCCCCCCCC(=O)[O-]
REMARK SMILES IDX 10 1 11 2 12 3 13 4 14 5 15 6 16 7 17 8 18 9 19 10 20 11
REMARK SMILES IDX 9 12 8 13 7 14 6 15 5 16 4 17 3 18 2 19 1 20
REMARK H PARENT
REMARK Flexibility Score: inf
ROOT
ATOM      1  C   UNL     1       0.955   3.014   8.066  1.00  0.00     0.000 C 
ENDROOT
BRANCH   1   2
ATOM      2  C   UNL     1       1.749   4.235   8.560  1.00  0.00     0.000 C 
BRANCH   2   3
ATOM      3  C   UNL     1       2.769   4.734   7.521  1.00  0.00     0.000 C 
BRANCH   3   4
ATOM      4  C   UNL     1       3.540   5.975   8.002  1.00  0.00     0.000 C 
BRANCH   4   5
ATOM      5  C   UNL     1       4.838   5.611   8.747  1.00  0.00     0.000 C 
BRANCH   5   6
ATOM      6  C   UNL     1       5.944   6.661   8.555  1.00  0.00     0.000 C 
BRANCH   6   7
ATOM      7  C   UNL     1       5.504   7.829   7.659  1.00  0.00     0.006 C 
BRANCH   7   8
ATOM      8  C   UNL     1       6.683   8.367   6.842  1.00  0.00     0.053 C 
BRANCH   8   9
ATOM      9  C   UNL     1       6.525   8.013   5.397  1.00  0.00     0.041 C 
ATOM     10  O   UNL     1       5.381   7.786   4.923  1.00  0.00    -0.550 OA
ATOM     11  O   UNL     1       7.636   7.982   4.564  1.00  0.00    -0.550 OA
ENDBRANCH   8   9
ENDBRANCH   7   8
ENDBRANCH   6   7
ENDBRANCH   5   6
ENDBRANCH   4   5
ENDBRANCH   3   4
ENDBRANCH   2   3
ENDBRANCH   1   2
BRANCH   1  12
ATOM     12  C   UNL     1      -0.211   2.646   9.002  1.00  0.00     0.000 C 
BRANCH  12  13
ATOM     13  C   UNL     1      -1.472   2.224   8.233  1.00  0.00    -0.000 C 
BRANCH  13  14
ATOM     14  C   UNL     1      -2.406   1.337   9.076  1.00  0.00    -0.000 C 
BRANCH  14  15
ATOM     15  C   UNL     1      -2.215  -0.160   8.787  1.00  0.00    -0.000 C 
BRANCH  15  16
ATOM     16  C   UNL     1      -1.795  -0.432   7.332  1.00  0.00    -0.000 C 
BRANCH  16  17
ATOM     17  C   UNL     1      -0.415  -1.117   7.240  1.00  0.00    -0.000 C 
BRANCH  17  18
ATOM     18  C   UNL     1       0.554  -0.430   6.259  1.00  0.00    -0.000 C 
BRANCH  18  19
ATOM     19  C   UNL     1      -0.093   0.632   5.354  1.00  0.00    -0.003 C 
ATOM     20  C   UNL     1       0.936   1.474   4.601  1.00  0.00     0.004 C 
ENDBRANCH  18  19
ENDBRANCH  17  18
ENDBRANCH  16  17
ENDBRANCH  15  16
ENDBRANCH  14  15
ENDBRANCH  13  14
ENDBRANCH  12  13
ENDBRANCH   1  12
TORSDOF 16
ENDMDL
MODEL 9
REMARK VINA RESULT:    -3.896      5.796      9.572
REMARK INTER + INTRA:          -9.631
REMARK INTER:                  -8.205
REMARK INTRA:                  -1.426
REMARK UNBOUND:                -2.091
REMARK SMILES CCCCCCCCCCCCCCCCCC(=O)[O-]
REMARK SMILES IDX 10 1 11 2 12 3 13 4 14 5 15 6 16 7 17 8 18 9 19 10 20 11
REMARK SMILES IDX 9 12 8 13 7 14 6 15 5 16 4 17 3 18 2 19 1 20
REMARK H PARENT
REMARK Flexibility Score: inf
ROOT
ATOM      1  C   UNL     1       2.298   4.471   7.508  1.00  0.00     0.000 C 
ENDROOT
BRANCH   1   2
ATOM      2  C   UNL     1       2.772   5.866   7.947  1.00  0.00     0.000 C 
BRANCH   2   3
ATOM      3  C   UNL     1       2.935   5.980   9.474  1.00  0.00     0.000 C 
BRANCH   3   4
ATOM      4  C   UNL     1       4.382   6.298   9.889  1.00  0.00     0.000 C 
BRANCH   4   5
ATOM      5  C   UNL     1       5.407   5.895   8.813  1.00  0.00     0.000 C 
BRANCH   5   6
ATOM      6  C   UNL     1       6.333   7.056   8.415  1.00  0.00     0.000 C 
BRANCH   6   7
ATOM      7  C   UNL     1       5.695   7.995   7.379  1.00  0.00     0.006 C 
BRANCH   7   8
ATOM      8  C   UNL     1       6.767   8.657   6.508  1.00  0.00     0.053 C 
BRANCH   8   9
ATOM      9  C   UNL     1       6.680   8.158   5.100  1.00  0.00     0.041 C 
ATOM     10  O   UNL     1       5.563   7.858   4.603  1.00  0.00    -0.550 OA
ATOM     11  O   UNL     1       7.827   8.071   4.321  1.00  0.00    -0.550 OA
ENDBRANCH   8   9
ENDBRANCH   7   8
ENDBRANCH   6   7
ENDBRANCH   5   6
ENDBRANCH   4   5
ENDBRANCH   3   4
ENDBRANCH   2   3
ENDBRANCH   1   2
BRANCH   1  12
ATOM     12  C   UNL     1       1.420   3.781   8.567  1.00  0.00     0.000 C 
BRANCH  12  13
ATOM     13  C   UNL     1       0.639   2.587   7.998  1.00  0.00    -0.000 C 
BRANCH  13  14
ATOM     14  C   UNL     1       1.080   2.223   6.568  1.00  0.00    -0.000 C 
BRANCH  14  15
ATOM     15  C   UNL     1       0.032   1.380   5.826  1.00  0.00    -0.000 C 
BRANCH  15  16
ATOM     16  C   UNL     1       0.507  -0.060   5.565  1.00  0.00    -0.000 C 
BRANCH  16  17
ATOM     17  C   UNL     1       0.533  -0.909   6.854  1.00  0.00    -0.000 C 
BRANCH  17  18
ATOM     18  C   UNL     1      -0.868  -1.267   7.388  1.00  0.00    -0.000 C 
BRANCH  18  19
ATOM     19  C   UNL     1      -1.153  -0.786   8.820  1.00  0.00    -0.003 C 
ATOM     20  C   UNL     1      -2.211   0.317   8.874  1.00  0.00     0.004 C 
ENDBRANCH  18  19
ENDBRANCH  17  18
ENDBRANCH  16  17
ENDBRANCH  15  16
ENDBRANCH  14  15
ENDBRANCH  13  14
ENDBRANCH  12  13
ENDBRANCH   1  12
TORSDOF 16
ENDMDL
