MODEL 1
REMARK VINA RESULT:    -3.440      0.000      0.000
REMARK INTER + INTRA:          -8.676
REMARK INTER:                  -6.255
REMARK INTRA:                  -2.421
REMARK UNBOUND:                -2.421
REMARK SMILES CCCCCCCCCCCCCC[C@H](C)C(=O)[O-]
REMARK SMILES IDX 9 1 10 2 11 3 12 4 13 5 14 6 15 7 16 8 17 9 18 10 19 11 8 12
REMARK SMILES IDX 7 13 6 14 5 15 4 16 3 17 2 18 1 19
REMARK H PARENT
REMARK Flexibility Score: inf
ROOT
ATOM      1  C   UNL     1     -95.142 147.579 238.564  1.00  0.00     0.000 C 
ENDROOT
BRANCH   1   2
ATOM      2  C   UNL     1     -96.269 148.404 239.203  1.00  0.00     0.000 C 
BRANCH   2   3
ATOM      3  C   UNL     1     -96.209 149.865 238.744  1.00  0.00     0.000 C 
BRANCH   3   4
ATOM      4  C   UNL     1     -97.372 150.675 239.329  1.00  0.00     0.000 C 
BRANCH   4   5
ATOM      5  C   UNL     1     -98.701 149.929 239.163  1.00  0.00     0.001 C 
BRANCH   5   6
ATOM      6  C   UNL     1     -99.546 150.016 240.443  1.00  0.00     0.009 C 
BRANCH   6   7
ATOM      7  C   UNL     1     -98.715 149.719 241.709  1.00  0.00     0.032 C 
ATOM      8  C   UNL     1     -98.688 148.214 241.995  1.00  0.00     0.014 C 
BRANCH   7   9
ATOM      9  C   UNL     1     -99.260 150.453 242.905  1.00  0.00     0.044 C 
ATOM     10  O   UNL     1     -99.948 149.841 243.763  1.00  0.00    -0.550 OA
ATOM     11  O   UNL     1     -99.011 151.811 243.068  1.00  0.00    -0.550 OA
ENDBRANCH   7   9
ENDBRANCH   6   7
ENDBRANCH   5   6
ENDBRANCH   4   5
ENDBRANCH   3   4
ENDBRANCH   2   3
ENDBRANCH   1   2
BRANCH   1  12
ATOM     12  C   UNL     1     -94.243 148.410 237.630  1.00  0.00     0.000 C 
BRANCH  12  13
ATOM     13  C   UNL     1     -93.758 147.674 236.367  1.00  0.00    -0.000 C 
BRANCH  13  14
ATOM     14  C   UNL     1     -94.619 147.979 235.128  1.00  0.00    -0.000 C 
BRANCH  14  15
ATOM     15  C   UNL     1     -95.288 149.361 235.201  1.00  0.00    -0.000 C 
BRANCH  15  16
ATOM     16  C   UNL     1     -96.678 149.379 234.540  1.00  0.00    -0.000 C 
BRANCH  16  17
ATOM     17  C   UNL     1     -97.816 149.522 235.564  1.00  0.00    -0.000 C 
BRANCH  17  18
ATOM     18  C   UNL     1     -98.752 148.303 235.585  1.00  0.00    -0.003 C 
ATOM     19  C   UNL     1     -98.102 147.124 236.303  1.00  0.00     0.004 C 
ENDBRANCH  17  18
ENDBRANCH  16  17
ENDBRANCH  15  16
ENDBRANCH  14  15
ENDBRANCH  13  14
ENDBRANCH  12  13
ENDBRANCH   1  12
TORSDOF 14
ENDMDL
MODEL 2
REMARK VINA RESULT:    -3.388      4.524      7.134
REMARK INTER + INTRA:          -8.583
REMARK INTER:                  -7.088
REMARK INTRA:                  -1.495
REMARK UNBOUND:                -2.421
REMARK SMILES CCCCCCCCCCCCCC[C@H](C)C(=O)[O-]
REMARK SMILES IDX 9 1 10 2 11 3 12 4 13 5 14 6 15 7 16 8 17 9 18 10 19 11 8 12
REMARK SMILES IDX 7 13 6 14 5 15 4 16 3 17 2 18 1 19
REMARK H PARENT
REMARK Flexibility Score: inf
ROOT
ATOM      1  C   UNL     1     -96.823 149.242 234.663  1.00  0.00     0.000 C 
ENDROOT
BRANCH   1   2
ATOM      2  C   UNL     1     -96.945 150.177 233.451  1.00  0.00     0.000 C 
BRANCH   2   3
ATOM      3  C   UNL     1     -95.591 150.805 233.103  1.00  0.00     0.000 C 
BRANCH   3   4
ATOM      4  C   UNL     1     -95.770 152.050 232.226  1.00  0.00     0.000 C 
BRANCH   4   5
ATOM      5  C   UNL     1     -97.239 152.236 231.826  1.00  0.00     0.001 C 
BRANCH   5   6
ATOM      6  C   UNL     1     -97.638 153.720 231.867  1.00  0.00     0.009 C 
BRANCH   6   7
ATOM      7  C   UNL     1     -97.954 154.198 233.299  1.00  0.00     0.032 C 
ATOM      8  C   UNL     1     -98.989 153.281 233.958  1.00  0.00     0.014 C 
BRANCH   7   9
ATOM      9  C   UNL     1     -98.458 155.617 233.303  1.00  0.00     0.044 C 
ATOM     10  O   UNL     1     -99.663 155.858 233.573  1.00  0.00    -0.550 OA
ATOM     11  O   UNL     1     -97.599 156.668 233.004  1.00  0.00    -0.550 OA
ENDBRANCH   7   9
ENDBRANCH   6   7
ENDBRANCH   5   6
ENDBRANCH   4   5
ENDBRANCH   3   4
ENDBRANCH   2   3
ENDBRANCH   1   2
BRANCH   1  12
ATOM     12  C   UNL     1     -95.551 149.494 235.493  1.00  0.00     0.000 C 
BRANCH  12  13
ATOM     13  C   UNL     1     -94.717 148.239 235.807  1.00  0.00    -0.000 C 
BRANCH  13  14
ATOM     14  C   UNL     1     -93.871 148.385 237.084  1.00  0.00    -0.000 C 
BRANCH  14  15
ATOM     15  C   UNL     1     -94.651 149.038 238.236  1.00  0.00    -0.000 C 
BRANCH  15  16
ATOM     16  C   UNL     1     -95.594 148.049 238.944  1.00  0.00    -0.000 C 
BRANCH  16  17
ATOM     17  C   UNL     1     -96.874 148.723 239.464  1.00  0.00    -0.000 C 
BRANCH  17  18
ATOM     18  C   UNL     1     -96.894 150.237 239.208  1.00  0.00    -0.003 C 
ATOM     19  C   UNL     1     -98.252 150.687 238.680  1.00  0.00     0.004 C 
ENDBRANCH  17  18
ENDBRANCH  16  17
ENDBRANCH  15  16
ENDBRANCH  14  15
ENDBRANCH  13  14
ENDBRANCH  12  13
ENDBRANCH   1  12
TORSDOF 14
ENDMDL
MODEL 3
REMARK VINA RESULT:    -3.349      4.088      7.172
REMARK INTER + INTRA:          -8.512
REMARK INTER:                  -6.815
REMARK INTRA:                  -1.697
REMARK UNBOUND:                -2.421
REMARK SMILES CCCCCCCCCCCCCC[C@H](C)C(=O)[O-]
REMARK SMILES IDX 9 1 10 2 11 3 12 4 13 5 14 6 15 7 16 8 17 9 18 10 19 11 8 12
REMARK SMILES IDX 7 13 6 14 5 15 4 16 3 17 2 18 1 19
REMARK H PARENT
REMARK Flexibility Score: inf
ROOT
ATOM      1  C   UNL     1     -96.275 148.743 235.312  1.00  0.00     0.000 C 
ENDROOT
BRANCH   1   2
ATOM      2  C   UNL     1     -97.055 149.733 234.434  1.00  0.00     0.000 C 
BRANCH   2   3
ATOM      3  C   UNL     1     -96.796 149.470 232.947  1.00  0.00     0.000 C 
BRANCH   3   4
ATOM      4  C   UNL     1     -95.578 150.259 232.451  1.00  0.00     0.000 C 
BRANCH   4   5
ATOM      5  C   UNL     1     -95.738 151.757 232.739  1.00  0.00     0.001 C 
BRANCH   5   6
ATOM      6  C   UNL     1     -96.290 152.498 231.511  1.00  0.00     0.009 C 
BRANCH   6   7
ATOM      7  C   UNL     1     -97.727 153.011 231.738  1.00  0.00     0.032 C 
ATOM      8  C   UNL     1     -98.125 154.003 230.642  1.00  0.00     0.014 C 
BRANCH   7   9
ATOM      9  C   UNL     1     -97.867 153.662 233.088  1.00  0.00     0.044 C 
ATOM     10  O   UNL     1     -97.244 154.725 233.345  1.00  0.00    -0.550 OA
ATOM     11  O   UNL     1     -98.682 153.094 234.061  1.00  0.00    -0.550 OA
ENDBRANCH   7   9
ENDBRANCH   6   7
ENDBRANCH   5   6
ENDBRANCH   4   5
ENDBRANCH   3   4
ENDBRANCH   2   3
ENDBRANCH   1   2
BRANCH   1  12
ATOM     12  C   UNL     1     -94.955 149.325 235.850  1.00  0.00     0.000 C 
BRANCH  12  13
ATOM     13  C   UNL     1     -94.254 148.470 236.922  1.00  0.00    -0.000 C 
BRANCH  13  14
ATOM     14  C   UNL     1     -94.630 148.880 238.357  1.00  0.00    -0.000 C 
BRANCH  14  15
ATOM     15  C   UNL     1     -95.695 147.958 238.972  1.00  0.00    -0.000 C 
BRANCH  15  16
ATOM     16  C   UNL     1     -96.906 148.736 239.515  1.00  0.00    -0.000 C 
BRANCH  16  17
ATOM     17  C   UNL     1     -96.842 150.235 239.184  1.00  0.00    -0.000 C 
BRANCH  17  18
ATOM     18  C   UNL     1     -98.182 150.790 238.677  1.00  0.00    -0.003 C 
ATOM     19  C   UNL     1     -98.893 149.776 237.786  1.00  0.00     0.004 C 
ENDBRANCH  17  18
ENDBRANCH  16  17
ENDBRANCH  15  16
ENDBRANCH  14  15
ENDBRANCH  13  14
ENDBRANCH  12  13
ENDBRANCH   1  12
TORSDOF 14
ENDMDL
MODEL 4
REMARK VINA RESULT:    -3.313      2.618      5.762
REMARK INTER + INTRA:          -8.447
REMARK INTER:                  -6.062
REMARK INTRA:                  -2.385
REMARK UNBOUND:                -2.421
REMARK SMILES CCCCCCCCCCCCCC[C@H](C)C(=O)[O-]
REMARK SMILES IDX 9 1 10 2 11 3 12 4 13 5 14 6 15 7 16 8 17 9 18 10 19 11 8 12
REMARK SMILES IDX 7 13 6 14 5 15 4 16 3 17 2 18 1 19
REMARK H PARENT
REMARK Flexibility Score: inf
ROOT
ATOM      1  C   UNL     1     -94.645 148.885 238.114  1.00  0.00     0.000 C 
ENDROOT
BRANCH   1   2
ATOM      2  C   UNL     1     -93.811 148.073 237.112  1.00  0.00     0.000 C 
BRANCH   2   3
ATOM      3  C   UNL     1     -94.423 148.136 235.708  1.00  0.00     0.000 C 
BRANCH   3   4
ATOM      4  C   UNL     1     -95.239 149.421 235.520  1.00  0.00     0.000 C 
BRANCH   4   5
ATOM      5  C   UNL     1     -95.998 149.403 234.188  1.00  0.00     0.001 C 
BRANCH   5   6
ATOM      6  C   UNL     1     -97.400 148.799 234.361  1.00  0.00     0.009 C 
BRANCH   6   7
ATOM      7  C   UNL     1     -98.014 149.138 235.735  1.00  0.00     0.032 C 
ATOM      8  C   UNL     1     -98.504 147.867 236.435  1.00  0.00     0.014 C 
BRANCH   7   9
ATOM      9  C   UNL     1     -99.152 150.115 235.600  1.00  0.00     0.044 C 
ATOM     10  O   UNL     1     -99.028 151.132 234.869  1.00  0.00    -0.550 OA
ATOM     11  O   UNL     1    -100.344 149.902 236.282  1.00  0.00    -0.550 OA
ENDBRANCH   7   9
ENDBRANCH   6   7
ENDBRANCH   5   6
ENDBRANCH   4   5
ENDBRANCH   3   4
ENDBRANCH   2   3
ENDBRANCH   1   2
BRANCH   1  12
ATOM     12  C   UNL     1     -95.573 148.008 238.975  1.00  0.00     0.000 C 
BRANCH  12  13
ATOM     13  C   UNL     1     -96.770 148.746 239.603  1.00  0.00    -0.000 C 
BRANCH  13  14
ATOM     14  C   UNL     1     -96.873 150.214 239.153  1.00  0.00    -0.000 C 
BRANCH  14  15
ATOM     15  C   UNL     1     -98.311 150.752 239.224  1.00  0.00    -0.000 C 
BRANCH  15  16
ATOM     16  C   UNL     1     -99.321 149.678 239.667  1.00  0.00    -0.000 C 
BRANCH  16  17
ATOM     17  C   UNL     1    -100.105 150.089 240.924  1.00  0.00    -0.000 C 
BRANCH  17  18
ATOM     18  C   UNL     1     -99.344 149.788 242.224  1.00  0.00    -0.003 C 
ATOM     19  C   UNL     1     -98.932 151.076 242.930  1.00  0.00     0.004 C 
ENDBRANCH  17  18
ENDBRANCH  16  17
ENDBRANCH  15  16
ENDBRANCH  14  15
ENDBRANCH  13  14
ENDBRANCH  12  13
ENDBRANCH   1  12
TORSDOF 14
ENDMDL
MODEL 5
REMARK VINA RESULT:    -3.309      3.721      6.680
REMARK INTER + INTRA:          -8.439
REMARK INTER:                  -5.989
REMARK INTRA:                  -2.451
REMARK UNBOUND:                -2.421
REMARK SMILES CCCCCCCCCCCCCC[C@H](C)C(=O)[O-]
REMARK SMILES IDX 9 1 10 2 11 3 12 4 13 5 14 6 15 7 16 8 17 9 18 10 19 11 8 12
REMARK SMILES IDX 7 13 6 14 5 15 4 16 3 17 2 18 1 19
REMARK H PARENT
REMARK Flexibility Score: inf
ROOT
ATOM      1  C   UNL     1     -95.027 147.518 238.869  1.00  0.00     0.000 C 
ENDROOT
BRANCH   1   2
ATOM      2  C   UNL     1     -94.670 148.923 238.363  1.00  0.00     0.000 C 
BRANCH   2   3
ATOM      3  C   UNL     1     -94.139 148.872 236.926  1.00  0.00     0.000 C 
BRANCH   3   4
ATOM      4  C   UNL     1     -93.527 147.500 236.615  1.00  0.00     0.000 C 
BRANCH   4   5
ATOM      5  C   UNL     1     -93.800 147.093 235.161  1.00  0.00     0.001 C 
BRANCH   5   6
ATOM      6  C   UNL     1     -95.180 147.587 234.700  1.00  0.00     0.009 C 
BRANCH   6   7
ATOM      7  C   UNL     1     -95.168 148.057 233.231  1.00  0.00     0.032 C 
ATOM      8  C   UNL     1     -93.811 147.765 232.582  1.00  0.00     0.014 C 
BRANCH   7   9
ATOM      9  C   UNL     1     -95.475 149.527 233.125  1.00  0.00     0.044 C 
ATOM     10  O   UNL     1     -96.149 150.098 234.021  1.00  0.00    -0.550 OA
ATOM     11  O   UNL     1     -95.019 150.263 232.036  1.00  0.00    -0.550 OA
ENDBRANCH   7   9
ENDBRANCH   6   7
ENDBRANCH   5   6
ENDBRANCH   4   5
ENDBRANCH   3   4
ENDBRANCH   2   3
ENDBRANCH   1   2
BRANCH   1  12
ATOM     12  C   UNL     1     -96.546 147.282 238.970  1.00  0.00     0.000 C 
BRANCH  12  13
ATOM     13  C   UNL     1     -97.231 146.875 237.652  1.00  0.00    -0.000 C 
BRANCH  13  14
ATOM     14  C   UNL     1     -98.409 147.794 237.281  1.00  0.00    -0.000 C 
BRANCH  14  15
ATOM     15  C   UNL     1     -97.968 149.244 237.025  1.00  0.00    -0.000 C 
BRANCH  15  16
ATOM     16  C   UNL     1     -98.676 150.248 237.951  1.00  0.00    -0.000 C 
BRANCH  16  17
ATOM     17  C   UNL     1     -97.772 150.736 239.094  1.00  0.00    -0.000 C 
BRANCH  17  18
ATOM     18  C   UNL     1     -98.226 150.226 240.470  1.00  0.00    -0.003 C 
ATOM     19  C   UNL     1     -99.691 149.800 240.441  1.00  0.00     0.004 C 
ENDBRANCH  17  18
ENDBRANCH  16  17
ENDBRANCH  15  16
ENDBRANCH  14  15
ENDBRANCH  13  14
ENDBRANCH  12  13
ENDBRANCH   1  12
TORSDOF 14
ENDMDL
MODEL 6
REMARK VINA RESULT:    -3.298      2.909      4.287
REMARK INTER + INTRA:          -8.418
REMARK INTER:                  -6.975
REMARK INTRA:                  -1.443
REMARK UNBOUND:                -2.421
REMARK SMILES CCCCCCCCCCCCCC[C@H](C)C(=O)[O-]
REMARK SMILES IDX 9 1 10 2 11 3 12 4 13 5 14 6 15 7 16 8 17 9 18 10 19 11 8 12
REMARK SMILES IDX 7 13 6 14 5 15 4 16 3 17 2 18 1 19
REMARK H PARENT
REMARK Flexibility Score: inf
ROOT
ATOM      1  C   UNL     1     -94.629 148.111 235.087  1.00  0.00     0.000 C 
ENDROOT
BRANCH   1   2
ATOM      2  C   UNL     1     -93.980 147.663 236.404  1.00  0.00     0.000 C 
BRANCH   2   3
ATOM      3  C   UNL     1     -94.257 148.671 237.525  1.00  0.00     0.000 C 
BRANCH   3   4
ATOM      4  C   UNL     1     -95.003 148.008 238.690  1.00  0.00     0.000 C 
BRANCH   4   5
ATOM      5  C   UNL     1     -96.456 148.492 238.761  1.00  0.00     0.001 C 
BRANCH   5   6
ATOM      6  C   UNL     1     -96.521 150.018 238.932  1.00  0.00     0.009 C 
BRANCH   6   7
ATOM      7  C   UNL     1     -97.814 150.468 239.643  1.00  0.00     0.032 C 
ATOM      8  C   UNL     1     -98.119 149.557 240.836  1.00  0.00     0.014 C 
BRANCH   7   9
ATOM      9  C   UNL     1     -98.985 150.474 238.696  1.00  0.00     0.044 C 
ATOM     10  O   UNL     1    -100.131 150.153 239.106  1.00  0.00    -0.550 OA
ATOM     11  O   UNL     1     -98.809 150.830 237.364  1.00  0.00    -0.550 OA
ENDBRANCH   7   9
ENDBRANCH   6   7
ENDBRANCH   5   6
ENDBRANCH   4   5
ENDBRANCH   3   4
ENDBRANCH   2   3
ENDBRANCH   1   2
BRANCH   1  12
ATOM     12  C   UNL     1     -95.368 149.457 235.208  1.00  0.00     0.000 C 
BRANCH  12  13
ATOM     13  C   UNL     1     -96.820 149.452 234.693  1.00  0.00    -0.000 C 
BRANCH  13  14
ATOM     14  C   UNL     1     -97.056 150.464 233.557  1.00  0.00    -0.000 C 
BRANCH  14  15
ATOM     15  C   UNL     1     -95.748 151.080 233.036  1.00  0.00    -0.000 C 
BRANCH  15  16
ATOM     16  C   UNL     1     -95.988 152.327 232.167  1.00  0.00    -0.000 C 
BRANCH  16  17
ATOM     17  C   UNL     1     -96.853 153.382 232.876  1.00  0.00    -0.000 C 
BRANCH  17  18
ATOM     18  C   UNL     1     -98.027 153.866 232.012  1.00  0.00    -0.003 C 
ATOM     19  C   UNL     1     -97.809 153.515 230.544  1.00  0.00     0.004 C 
ENDBRANCH  17  18
ENDBRANCH  16  17
ENDBRANCH  15  16
ENDBRANCH  14  15
ENDBRANCH  13  14
ENDBRANCH  12  13
ENDBRANCH   1  12
TORSDOF 14
ENDMDL
MODEL 7
REMARK VINA RESULT:    -3.275      3.511      5.997
REMARK INTER + INTRA:          -8.377
REMARK INTER:                  -5.714
REMARK INTRA:                  -2.663
REMARK UNBOUND:                -2.421
REMARK SMILES CCCCCCCCCCCCCC[C@H](C)C(=O)[O-]
REMARK SMILES IDX 9 1 10 2 11 3 12 4 13 5 14 6 15 7 16 8 17 9 18 10 19 11 8 12
REMARK SMILES IDX 7 13 6 14 5 15 4 16 3 17 2 18 1 19
REMARK H PARENT
REMARK Flexibility Score: inf
ROOT
ATOM      1  C   UNL     1     -95.482 147.906 238.967  1.00  0.00     0.000 C 
ENDROOT
BRANCH   1   2
ATOM      2  C   UNL     1     -94.567 147.047 238.081  1.00  0.00     0.000 C 
BRANCH   2   3
ATOM      3  C   UNL     1     -93.737 147.924 237.137  1.00  0.00     0.000 C 
BRANCH   3   4
ATOM      4  C   UNL     1     -93.629 147.287 235.747  1.00  0.00     0.000 C 
BRANCH   4   5
ATOM      5  C   UNL     1     -94.863 147.610 234.895  1.00  0.00     0.001 C 
BRANCH   5   6
ATOM      6  C   UNL     1     -95.269 149.083 235.050  1.00  0.00     0.009 C 
BRANCH   6   7
ATOM      7  C   UNL     1     -96.786 149.247 235.283  1.00  0.00     0.032 C 
ATOM      8  C   UNL     1     -97.406 147.923 235.740  1.00  0.00     0.014 C 
BRANCH   7   9
ATOM      9  C   UNL     1     -97.481 149.730 234.038  1.00  0.00     0.044 C 
ATOM     10  O   UNL     1     -98.668 149.385 233.803  1.00  0.00    -0.550 OA
ATOM     11  O   UNL     1     -96.817 150.556 233.139  1.00  0.00    -0.550 OA
ENDBRANCH   7   9
ENDBRANCH   6   7
ENDBRANCH   5   6
ENDBRANCH   4   5
ENDBRANCH   3   4
ENDBRANCH   2   3
ENDBRANCH   1   2
BRANCH   1  12
ATOM     12  C   UNL     1     -95.361 149.413 238.677  1.00  0.00     0.000 C 
BRANCH  12  13
ATOM     13  C   UNL     1     -96.619 150.242 238.994  1.00  0.00    -0.000 C 
BRANCH  13  14
ATOM     14  C   UNL     1     -97.804 149.379 239.461  1.00  0.00    -0.000 C 
BRANCH  14  15
ATOM     15  C   UNL     1     -99.149 150.115 239.351  1.00  0.00    -0.000 C 
BRANCH  15  16
ATOM     16  C   UNL     1    -100.112 149.440 238.358  1.00  0.00    -0.000 C 
BRANCH  16  17
ATOM     17  C   UNL     1    -100.087 150.101 236.971  1.00  0.00    -0.000 C 
BRANCH  17  18
ATOM     18  C   UNL     1     -99.709 151.589 237.029  1.00  0.00    -0.003 C 
ATOM     19  C   UNL     1     -99.718 152.212 235.636  1.00  0.00     0.004 C 
ENDBRANCH  17  18
ENDBRANCH  16  17
ENDBRANCH  15  16
ENDBRANCH  14  15
ENDBRANCH  13  14
ENDBRANCH  12  13
ENDBRANCH   1  12
TORSDOF 14
ENDMDL
MODEL 8
REMARK VINA RESULT:    -3.237      3.852      6.496
REMARK INTER + INTRA:          -8.308
REMARK INTER:                  -6.565
REMARK INTRA:                  -1.743
REMARK UNBOUND:                -2.421
REMARK SMILES CCCCCCCCCCCCCC[C@H](C)C(=O)[O-]
REMARK SMILES IDX 9 1 10 2 11 3 12 4 13 5 14 6 15 7 16 8 17 9 18 10 19 11 8 12
REMARK SMILES IDX 7 13 6 14 5 15 4 16 3 17 2 18 1 19
REMARK H PARENT
REMARK Flexibility Score: inf
ROOT
ATOM      1  C   UNL     1     -95.171 148.072 234.193  1.00  0.00     0.000 C 
ENDROOT
BRANCH   1   2
ATOM      2  C   UNL     1     -95.415 149.470 234.783  1.00  0.00     0.000 C 
BRANCH   2   3
ATOM      3  C   UNL     1     -96.385 150.273 233.910  1.00  0.00     0.000 C 
BRANCH   3   4
ATOM      4  C   UNL     1     -95.635 151.028 232.805  1.00  0.00     0.000 C 
BRANCH   4   5
ATOM      5  C   UNL     1     -96.129 152.476 232.695  1.00  0.00     0.001 C 
BRANCH   5   6
ATOM      6  C   UNL     1     -97.614 152.524 232.303  1.00  0.00     0.009 C 
BRANCH   6   7
ATOM      7  C   UNL     1     -98.326 153.767 232.875  1.00  0.00     0.032 C 
ATOM      8  C   UNL     1     -97.309 154.744 233.473  1.00  0.00     0.014 C 
BRANCH   7   9
ATOM      9  C   UNL     1     -99.338 153.385 233.921  1.00  0.00     0.044 C 
ATOM     10  O   UNL     1    -100.280 154.169 234.206  1.00  0.00    -0.550 OA
ATOM     11  O   UNL     1     -99.239 152.166 234.582  1.00  0.00    -0.550 OA
ENDBRANCH   7   9
ENDBRANCH   6   7
ENDBRANCH   5   6
ENDBRANCH   4   5
ENDBRANCH   3   4
ENDBRANCH   2   3
ENDBRANCH   1   2
BRANCH   1  12
ATOM     12  C   UNL     1     -94.293 147.184 235.093  1.00  0.00     0.000 C 
BRANCH  12  13
ATOM     13  C   UNL     1     -93.817 147.846 236.399  1.00  0.00    -0.000 C 
BRANCH  13  14
ATOM     14  C   UNL     1     -94.045 146.962 237.638  1.00  0.00    -0.000 C 
BRANCH  14  15
ATOM     15  C   UNL     1     -94.869 147.672 238.724  1.00  0.00    -0.000 C 
BRANCH  15  16
ATOM     16  C   UNL     1     -94.896 149.199 238.540  1.00  0.00    -0.000 C 
BRANCH  16  17
ATOM     17  C   UNL     1     -96.317 149.779 238.624  1.00  0.00    -0.000 C 
BRANCH  17  18
ATOM     18  C   UNL     1     -97.370 148.865 237.978  1.00  0.00    -0.003 C 
ATOM     19  C   UNL     1     -98.312 149.661 237.081  1.00  0.00     0.004 C 
ENDBRANCH  17  18
ENDBRANCH  16  17
ENDBRANCH  15  16
ENDBRANCH  14  15
ENDBRANCH  13  14
ENDBRANCH  12  13
ENDBRANCH   1  12
TORSDOF 14
ENDMDL
MODEL 9
REMARK VINA RESULT:    -3.236      3.919      6.612
REMARK INTER + INTRA:          -8.305
REMARK INTER:                  -6.409
REMARK INTRA:                  -1.896
REMARK UNBOUND:                -2.421
REMARK SMILES CCCCCCCCCCCCCC[C@H](C)C(=O)[O-]
REMARK SMILES IDX 9 1 10 2 11 3 12 4 13 5 14 6 15 7 16 8 17 9 18 10 19 11 8 12
REMARK SMILES IDX 7 13 6 14 5 15 4 16 3 17 2 18 1 19
REMARK H PARENT
REMARK Flexibility Score: inf
ROOT
ATOM      1  C   UNL     1     -94.439 148.985 236.576  1.00  0.00     0.000 C 
ENDROOT
BRANCH   1   2
ATOM      2  C   UNL     1     -95.365 149.003 235.351  1.00  0.00     0.000 C 
BRANCH   2   3
ATOM      3  C   UNL     1     -96.798 148.624 235.739  1.00  0.00     0.000 C 
BRANCH   3   4
ATOM      4  C   UNL     1     -97.820 149.439 234.937  1.00  0.00     0.000 C 
BRANCH   4   5
ATOM      5  C   UNL     1     -97.142 150.191 233.784  1.00  0.00     0.001 C 
BRANCH   5   6
ATOM      6  C   UNL     1     -98.090 151.235 233.174  1.00  0.00     0.009 C 
BRANCH   6   7
ATOM      7  C   UNL     1     -97.326 152.361 232.448  1.00  0.00     0.032 C 
ATOM      8  C   UNL     1     -95.818 152.223 232.677  1.00  0.00     0.014 C 
BRANCH   7   9
ATOM      9  C   UNL     1     -97.788 153.718 232.906  1.00  0.00     0.044 C 
ATOM     10  O   UNL     1     -97.008 154.467 233.551  1.00  0.00    -0.550 OA
ATOM     11  O   UNL     1     -99.077 154.154 232.624  1.00  0.00    -0.550 OA
ENDBRANCH   7   9
ENDBRANCH   6   7
ENDBRANCH   5   6
ENDBRANCH   4   5
ENDBRANCH   3   4
ENDBRANCH   2   3
ENDBRANCH   1   2
BRANCH   1  12
ATOM     12  C   UNL     1     -94.611 147.724 237.442  1.00  0.00     0.000 C 
BRANCH  12  13
ATOM     13  C   UNL     1     -94.978 147.987 238.914  1.00  0.00    -0.000 C 
BRANCH  13  14
ATOM     14  C   UNL     1     -96.336 147.384 239.311  1.00  0.00    -0.000 C 
BRANCH  14  15
ATOM     15  C   UNL     1     -97.455 148.436 239.364  1.00  0.00    -0.000 C 
BRANCH  15  16
ATOM     16  C   UNL     1     -96.916 149.875 239.273  1.00  0.00    -0.000 C 
BRANCH  16  17
ATOM     17  C   UNL     1     -98.021 150.901 238.970  1.00  0.00    -0.000 C 
BRANCH  17  18
ATOM     18  C   UNL     1     -99.267 150.262 238.338  1.00  0.00    -0.003 C 
ATOM     19  C   UNL     1     -99.884 151.184 237.290  1.00  0.00     0.004 C 
ENDBRANCH  17  18
ENDBRANCH  16  17
ENDBRANCH  15  16
ENDBRANCH  14  15
ENDBRANCH  13  14
ENDBRANCH  12  13
ENDBRANCH   1  12
TORSDOF 14
ENDMDL
