MODEL 1
REMARK VINA RESULT:    -4.375      0.000      0.000
REMARK INTER + INTRA:          -7.072
REMARK INTER:                  -6.422
REMARK INTRA:                  -0.650
REMARK UNBOUND:                -0.650
REMARK SMILES O=C([O-])CCCCCCCC(=O)[O-]
REMARK SMILES IDX 7 1 6 2 5 3 4 4 2 5 1 6 3 7 8 8 9 9 10 10 11 11 12 12 13 13
REMARK H PARENT
REMARK Flexibility Score: inf
ROOT
ATOM      1  C   UNL     1     -10.368   4.826  -8.431  1.00  0.00     0.000 C 
ENDROOT
BRANCH   1   2
ATOM      2  C   UNL     1      -8.960   5.274  -8.010  1.00  0.00     0.000 C 
BRANCH   2   3
ATOM      3  C   UNL     1      -8.456   6.481  -8.821  1.00  0.00     0.006 C 
BRANCH   3   4
ATOM      4  C   UNL     1      -9.013   6.491 -10.250  1.00  0.00     0.053 C 
BRANCH   4   5
ATOM      5  C   UNL     1      -8.114   5.760 -11.201  1.00  0.00     0.041 C 
ATOM      6  O   UNL     1      -7.174   6.367 -11.780  1.00  0.00    -0.550 OA
ATOM      7  O   UNL     1      -8.335   4.415 -11.471  1.00  0.00    -0.550 OA
ENDBRANCH   4   5
ENDBRANCH   3   4
ENDBRANCH   2   3
ENDBRANCH   1   2
BRANCH   1   8
ATOM      8  C   UNL     1     -10.430   3.332  -8.796  1.00  0.00     0.000 C 
BRANCH   8   9
ATOM      9  C   UNL     1      -9.229   2.541  -8.255  1.00  0.00     0.006 C 
BRANCH   9  10
ATOM     10  C   UNL     1      -9.009   1.220  -9.002  1.00  0.00     0.053 C 
BRANCH  10  11
ATOM     11  C   UNL     1      -7.800   1.311  -9.878  1.00  0.00     0.041 C 
ATOM     12  O   UNL     1      -6.846   2.073  -9.567  1.00  0.00    -0.550 OA
ATOM     13  O   UNL     1      -7.701   0.516 -11.013  1.00  0.00    -0.550 OA
ENDBRANCH  10  11
ENDBRANCH   9  10
ENDBRANCH   8   9
ENDBRANCH   1   8
TORSDOF 8
ENDMDL
MODEL 2
REMARK VINA RESULT:    -4.345      0.739      4.261
REMARK INTER + INTRA:          -7.028
REMARK INTER:                  -6.476
REMARK INTRA:                  -0.552
REMARK UNBOUND:                -0.650
REMARK SMILES O=C([O-])CCCCCCCC(=O)[O-]
REMARK SMILES IDX 7 1 6 2 5 3 4 4 2 5 1 6 3 7 8 8 9 9 10 10 11 11 12 12 13 13
REMARK H PARENT
REMARK Flexibility Score: inf
ROOT
ATOM      1  C   UNL     1      -8.972   4.095  -7.611  1.00  0.00     0.000 C 
ENDROOT
BRANCH   1   2
ATOM      2  C   UNL     1      -9.718   3.111  -8.527  1.00  0.00     0.000 C 
BRANCH   2   3
ATOM      3  C   UNL     1      -9.168   1.678  -8.427  1.00  0.00     0.006 C 
BRANCH   3   4
ATOM      4  C   UNL     1      -8.962   1.040  -9.806  1.00  0.00     0.053 C 
BRANCH   4   5
ATOM      5  C   UNL     1      -7.562   1.232 -10.304  1.00  0.00     0.041 C 
ATOM      6  O   UNL     1      -6.721   1.858  -9.606  1.00  0.00    -0.550 OA
ATOM      7  O   UNL     1      -7.195   0.746 -11.552  1.00  0.00    -0.550 OA
ENDBRANCH   4   5
ENDBRANCH   3   4
ENDBRANCH   2   3
ENDBRANCH   1   2
BRANCH   1   8
ATOM      8  C   UNL     1      -9.191   5.564  -8.015  1.00  0.00     0.000 C 
BRANCH   8   9
ATOM      9  C   UNL     1      -9.733   5.708  -9.446  1.00  0.00     0.006 C 
BRANCH   9  10
ATOM     10  C   UNL     1      -8.864   6.625 -10.315  1.00  0.00     0.053 C 
BRANCH  10  11
ATOM     11  C   UNL     1      -8.052   5.817 -11.277  1.00  0.00     0.041 C 
ATOM     12  O   UNL     1      -7.092   6.345 -11.898  1.00  0.00    -0.550 OA
ATOM     13  O   UNL     1      -8.322   4.465 -11.451  1.00  0.00    -0.550 OA
ENDBRANCH  10  11
ENDBRANCH   9  10
ENDBRANCH   8   9
ENDBRANCH   1   8
TORSDOF 8
ENDMDL
MODEL 3
REMARK VINA RESULT:    -4.335      1.581      4.536
REMARK INTER + INTRA:          -7.012
REMARK INTER:                  -6.270
REMARK INTRA:                  -0.743
REMARK UNBOUND:                -0.650
REMARK SMILES O=C([O-])CCCCCCCC(=O)[O-]
REMARK SMILES IDX 7 1 6 2 5 3 4 4 2 5 1 6 3 7 8 8 9 9 10 10 11 11 12 12 13 13
REMARK H PARENT
REMARK Flexibility Score: inf
ROOT
ATOM      1  C   UNL     1     -10.897   4.393  -8.368  1.00  0.00     0.000 C 
ENDROOT
BRANCH   1   2
ATOM      2  C   UNL     1      -9.674   4.693  -7.487  1.00  0.00     0.000 C 
BRANCH   2   3
ATOM      3  C   UNL     1      -8.600   3.595  -7.574  1.00  0.00     0.006 C 
BRANCH   3   4
ATOM      4  C   UNL     1      -8.564   2.929  -8.956  1.00  0.00     0.053 C 
BRANCH   4   5
ATOM      5  C   UNL     1      -8.712   1.441  -8.860  1.00  0.00     0.041 C 
ATOM      6  O   UNL     1      -9.741   0.938  -8.336  1.00  0.00    -0.550 OA
ATOM      7  O   UNL     1      -7.698   0.611  -9.322  1.00  0.00    -0.550 OA
ENDBRANCH   4   5
ENDBRANCH   3   4
ENDBRANCH   2   3
ENDBRANCH   1   2
BRANCH   1   8
ATOM      8  C   UNL     1     -11.124   5.464  -9.451  1.00  0.00     0.000 C 
BRANCH   8   9
ATOM      9  C   UNL     1      -9.998   6.508  -9.495  1.00  0.00     0.006 C 
BRANCH   9  10
ATOM     10  C   UNL     1      -9.102   6.356 -10.731  1.00  0.00     0.053 C 
BRANCH  10  11
ATOM     11  C   UNL     1      -7.674   6.625 -10.376  1.00  0.00     0.041 C 
ATOM     12  O   UNL     1      -6.802   6.715 -11.280  1.00  0.00    -0.550 OA
ATOM     13  O   UNL     1      -7.312   6.826  -9.050  1.00  0.00    -0.550 OA
ENDBRANCH  10  11
ENDBRANCH   9  10
ENDBRANCH   8   9
ENDBRANCH   1   8
TORSDOF 8
ENDMDL
MODEL 4
REMARK VINA RESULT:    -4.334      1.141      4.331
REMARK INTER + INTRA:          -7.011
REMARK INTER:                  -6.414
REMARK INTRA:                  -0.597
REMARK UNBOUND:                -0.650
REMARK SMILES O=C([O-])CCCCCCCC(=O)[O-]
REMARK SMILES IDX 7 1 6 2 5 3 4 4 2 5 1 6 3 7 8 8 9 9 10 10 11 11 12 12 13 13
REMARK H PARENT
REMARK Flexibility Score: inf
ROOT
ATOM      1  C   UNL     1      -9.500   4.642  -7.584  1.00  0.00     0.000 C 
ENDROOT
BRANCH   1   2
ATOM      2  C   UNL     1      -8.754   3.323  -7.843  1.00  0.00     0.000 C 
BRANCH   2   3
ATOM      3  C   UNL     1      -9.549   2.363  -8.745  1.00  0.00     0.006 C 
BRANCH   3   4
ATOM      4  C   UNL     1      -8.725   1.134  -9.149  1.00  0.00     0.053 C 
BRANCH   4   5
ATOM      5  C   UNL     1      -7.749   1.453 -10.240  1.00  0.00     0.041 C 
ATOM      6  O   UNL     1      -8.067   2.250 -11.163  1.00  0.00    -0.550 OA
ATOM      7  O   UNL     1      -6.499   0.848 -10.254  1.00  0.00    -0.550 OA
ENDBRANCH   4   5
ENDBRANCH   3   4
ENDBRANCH   2   3
ENDBRANCH   1   2
BRANCH   1   8
ATOM      8  C   UNL     1     -10.473   5.006  -8.720  1.00  0.00     0.000 C 
BRANCH   8   9
ATOM      9  C   UNL     1     -10.009   6.230  -9.525  1.00  0.00     0.006 C 
BRANCH   9  10
ATOM     10  C   UNL     1      -9.198   5.843 -10.768  1.00  0.00     0.053 C 
BRANCH  10  11
ATOM     11  C   UNL     1      -7.796   6.353 -10.655  1.00  0.00     0.041 C 
ATOM     12  O   UNL     1      -7.037   6.350 -11.660  1.00  0.00    -0.550 OA
ATOM     13  O   UNL     1      -7.342   6.879  -9.452  1.00  0.00    -0.550 OA
ENDBRANCH  10  11
ENDBRANCH   9  10
ENDBRANCH   8   9
ENDBRANCH   1   8
TORSDOF 8
ENDMDL
MODEL 5
REMARK VINA RESULT:    -4.026     15.165     17.223
REMARK INTER + INTRA:          -6.560
REMARK INTER:                  -5.790
REMARK INTRA:                  -0.769
REMARK UNBOUND:                -0.650
REMARK SMILES O=C([O-])CCCCCCCC(=O)[O-]
REMARK SMILES IDX 7 1 6 2 5 3 4 4 2 5 1 6 3 7 8 8 9 9 10 10 11 11 12 12 13 13
REMARK H PARENT
REMARK Flexibility Score: inf
ROOT
ATOM      1  C   UNL     1      -2.432 -10.188 -10.363  1.00  0.00     0.000 C 
ENDROOT
BRANCH   1   2
ATOM      2  C   UNL     1      -1.633 -10.891  -9.255  1.00  0.00     0.000 C 
BRANCH   2   3
ATOM      3  C   UNL     1      -1.547 -12.413  -9.463  1.00  0.00     0.006 C 
BRANCH   3   4
ATOM      4  C   UNL     1      -0.133 -12.953  -9.211  1.00  0.00     0.053 C 
BRANCH   4   5
ATOM      5  C   UNL     1       0.807 -12.587 -10.319  1.00  0.00     0.041 C 
ATOM      6  O   UNL     1       1.857 -11.936 -10.071  1.00  0.00    -0.550 OA
ATOM      7  O   UNL     1       0.508 -12.938 -11.629  1.00  0.00    -0.550 OA
ENDBRANCH   4   5
ENDBRANCH   3   4
ENDBRANCH   2   3
ENDBRANCH   1   2
BRANCH   1   8
ATOM      8  C   UNL     1      -1.653 -10.097 -11.688  1.00  0.00     0.000 C 
BRANCH   8   9
ATOM      9  C   UNL     1      -0.831  -8.804 -11.804  1.00  0.00     0.006 C 
BRANCH   9  10
ATOM     10  C   UNL     1       0.641  -9.007 -11.422  1.00  0.00     0.053 C 
BRANCH  10  11
ATOM     11  C   UNL     1       0.971  -8.234 -10.185  1.00  0.00     0.041 C 
ATOM     12  O   UNL     1       0.052  -7.847  -9.415  1.00  0.00    -0.550 OA
ATOM     13  O   UNL     1       2.296  -7.983  -9.854  1.00  0.00    -0.550 OA
ENDBRANCH  10  11
ENDBRANCH   9  10
ENDBRANCH   8   9
ENDBRANCH   1   8
TORSDOF 8
ENDMDL
MODEL 6
REMARK VINA RESULT:    -3.847      2.043      4.315
REMARK INTER + INTRA:          -6.297
REMARK INTER:                  -5.537
REMARK INTRA:                  -0.760
REMARK UNBOUND:                -0.650
REMARK SMILES O=C([O-])CCCCCCCC(=O)[O-]
REMARK SMILES IDX 7 1 6 2 5 3 4 4 2 5 1 6 3 7 8 8 9 9 10 10 11 11 12 12 13 13
REMARK H PARENT
REMARK Flexibility Score: inf
ROOT
ATOM      1  C   UNL     1     -10.802   4.644 -10.892  1.00  0.00     0.000 C 
ENDROOT
BRANCH   1   2
ATOM      2  C   UNL     1     -10.403   3.161 -10.946  1.00  0.00     0.000 C 
BRANCH   2   3
ATOM      3  C   UNL     1      -8.912   2.961 -11.271  1.00  0.00     0.006 C 
BRANCH   3   4
ATOM      4  C   UNL     1      -8.480   1.496 -11.127  1.00  0.00     0.053 C 
BRANCH   4   5
ATOM      5  C   UNL     1      -7.691   1.271  -9.873  1.00  0.00     0.041 C 
ATOM      6  O   UNL     1      -6.432   1.306  -9.901  1.00  0.00    -0.550 OA
ATOM      7  O   UNL     1      -8.346   0.991  -8.680  1.00  0.00    -0.550 OA
ENDBRANCH   4   5
ENDBRANCH   3   4
ENDBRANCH   2   3
ENDBRANCH   1   2
BRANCH   1   8
ATOM      8  C   UNL     1      -9.586   5.580 -10.765  1.00  0.00     0.000 C 
BRANCH   8   9
ATOM      9  C   UNL     1      -9.662   6.481  -9.522  1.00  0.00     0.006 C 
BRANCH   9  10
ATOM     10  C   UNL     1      -8.472   6.278  -8.575  1.00  0.00     0.053 C 
BRANCH  10  11
ATOM     11  C   UNL     1      -8.396   4.852  -8.131  1.00  0.00     0.041 C 
ATOM     12  O   UNL     1      -7.317   4.211  -8.236  1.00  0.00    -0.550 OA
ATOM     13  O   UNL     1      -9.503   4.243  -7.553  1.00  0.00    -0.550 OA
ENDBRANCH  10  11
ENDBRANCH   9  10
ENDBRANCH   8   9
ENDBRANCH   1   8
TORSDOF 8
ENDMDL
MODEL 7
REMARK VINA RESULT:    -3.726     11.962     14.163
REMARK INTER + INTRA:          -6.119
REMARK INTER:                  -5.713
REMARK INTRA:                  -0.407
REMARK UNBOUND:                -0.650
REMARK SMILES O=C([O-])CCCCCCCC(=O)[O-]
REMARK SMILES IDX 7 1 6 2 5 3 4 4 2 5 1 6 3 7 8 8 9 9 10 10 11 11 12 12 13 13
REMARK H PARENT
REMARK Flexibility Score: inf
ROOT
ATOM      1  C   UNL     1      -0.817  -4.442 -10.879  1.00  0.00     0.000 C 
ENDROOT
BRANCH   1   2
ATOM      2  C   UNL     1      -1.497  -5.744 -11.329  1.00  0.00     0.000 C 
BRANCH   2   3
ATOM      3  C   UNL     1      -0.505  -6.914 -11.461  1.00  0.00     0.006 C 
BRANCH   3   4
ATOM      4  C   UNL     1      -0.254  -7.614 -10.120  1.00  0.00     0.053 C 
BRANCH   4   5
ATOM      5  C   UNL     1       1.118  -8.211 -10.052  1.00  0.00     0.041 C 
ATOM      6  O   UNL     1       2.067  -7.565  -9.534  1.00  0.00    -0.550 OA
ATOM      7  O   UNL     1       1.355  -9.470 -10.590  1.00  0.00    -0.550 OA
ENDBRANCH   4   5
ENDBRANCH   3   4
ENDBRANCH   2   3
ENDBRANCH   1   2
BRANCH   1   8
ATOM      8  C   UNL     1       0.197  -3.915 -11.912  1.00  0.00     0.000 C 
BRANCH   8   9
ATOM      9  C   UNL     1       1.644  -3.961 -11.397  1.00  0.00     0.006 C 
BRANCH   9  10
ATOM     10  C   UNL     1       2.402  -2.654 -11.657  1.00  0.00     0.053 C 
BRANCH  10  11
ATOM     11  C   UNL     1       2.776  -2.001 -10.364  1.00  0.00     0.041 C 
ATOM     12  O   UNL     1       1.996  -2.058  -9.376  1.00  0.00    -0.550 OA
ATOM     13  O   UNL     1       4.007  -1.372 -10.232  1.00  0.00    -0.550 OA
ENDBRANCH  10  11
ENDBRANCH   9  10
ENDBRANCH   8   9
ENDBRANCH   1   8
TORSDOF 8
ENDMDL
MODEL 8
REMARK VINA RESULT:    -3.693      1.771      4.608
REMARK INTER + INTRA:          -6.070
REMARK INTER:                  -5.560
REMARK INTRA:                  -0.510
REMARK UNBOUND:                -0.650
REMARK SMILES O=C([O-])CCCCCCCC(=O)[O-]
REMARK SMILES IDX 7 1 6 2 5 3 4 4 2 5 1 6 3 7 8 8 9 9 10 10 11 11 12 12 13 13
REMARK H PARENT
REMARK Flexibility Score: inf
ROOT
ATOM      1  C   UNL     1     -10.318   3.111 -10.994  1.00  0.00     0.000 C 
ENDROOT
BRANCH   1   2
ATOM      2  C   UNL     1     -10.804   2.458  -9.691  1.00  0.00     0.000 C 
BRANCH   2   3
ATOM      3  C   UNL     1      -9.643   2.021  -8.780  1.00  0.00     0.006 C 
BRANCH   3   4
ATOM      4  C   UNL     1      -8.778   0.932  -9.427  1.00  0.00     0.053 C 
BRANCH   4   5
ATOM      5  C   UNL     1      -7.440   1.460  -9.845  1.00  0.00     0.041 C 
ATOM      6  O   UNL     1      -7.012   2.547  -9.375  1.00  0.00    -0.550 OA
ATOM      7  O   UNL     1      -6.679   0.765 -10.777  1.00  0.00    -0.550 OA
ENDBRANCH   4   5
ENDBRANCH   3   4
ENDBRANCH   2   3
ENDBRANCH   1   2
BRANCH   1   8
ATOM      8  C   UNL     1     -10.607   4.622 -11.044  1.00  0.00     0.000 C 
BRANCH   8   9
ATOM      9  C   UNL     1      -9.329   5.472 -10.961  1.00  0.00     0.006 C 
BRANCH   9  10
ATOM     10  C   UNL     1      -9.402   6.540  -9.863  1.00  0.00     0.053 C 
BRANCH  10  11
ATOM     11  C   UNL     1      -8.406   6.250  -8.785  1.00  0.00     0.041 C 
ATOM     12  O   UNL     1      -8.570   5.264  -8.019  1.00  0.00    -0.550 OA
ATOM     13  O   UNL     1      -7.270   7.038  -8.658  1.00  0.00    -0.550 OA
ENDBRANCH  10  11
ENDBRANCH   9  10
ENDBRANCH   8   9
ENDBRANCH   1   8
TORSDOF 8
ENDMDL
MODEL 9
REMARK VINA RESULT:    -3.576     14.509     16.376
REMARK INTER + INTRA:          -5.898
REMARK INTER:                  -5.174
REMARK INTRA:                  -0.725
REMARK UNBOUND:                -0.650
REMARK SMILES O=C([O-])CCCCCCCC(=O)[O-]
REMARK SMILES IDX 7 1 6 2 5 3 4 4 2 5 1 6 3 7 8 8 9 9 10 10 11 11 12 12 13 13
REMARK H PARENT
REMARK Flexibility Score: inf
ROOT
ATOM      1  C   UNL     1      -2.675 -10.106 -10.524  1.00  0.00     0.000 C 
ENDROOT
BRANCH   1   2
ATOM      2  C   UNL     1      -2.088  -9.349 -11.725  1.00  0.00     0.000 C 
BRANCH   2   3
ATOM      3  C   UNL     1      -1.412  -8.027 -11.319  1.00  0.00     0.006 C 
BRANCH   3   4
ATOM      4  C   UNL     1       0.077  -8.001 -11.689  1.00  0.00     0.053 C 
BRANCH   4   5
ATOM      5  C   UNL     1       0.952  -8.011 -10.473  1.00  0.00     0.041 C 
ATOM      6  O   UNL     1       0.451  -7.850  -9.329  1.00  0.00    -0.550 OA
ATOM      7  O   UNL     1       2.326  -8.169 -10.607  1.00  0.00    -0.550 OA
ENDBRANCH   4   5
ENDBRANCH   3   4
ENDBRANCH   2   3
ENDBRANCH   1   2
BRANCH   1   8
ATOM      8  C   UNL     1      -1.594 -10.581  -9.537  1.00  0.00     0.000 C 
BRANCH   8   9
ATOM      9  C   UNL     1      -1.474 -12.112  -9.483  1.00  0.00     0.006 C 
BRANCH   9  10
ATOM     10  C   UNL     1      -0.776 -12.691 -10.720  1.00  0.00     0.053 C 
BRANCH  10  11
ATOM     11  C   UNL     1       0.553 -12.036 -10.924  1.00  0.00     0.041 C 
ATOM     12  O   UNL     1       0.789 -11.396 -11.983  1.00  0.00    -0.550 OA
ATOM     13  O   UNL     1       1.515 -12.087  -9.923  1.00  0.00    -0.550 OA
ENDBRANCH  10  11
ENDBRANCH   9  10
ENDBRANCH   8   9
ENDBRANCH   1   8
TORSDOF 8
ENDMDL
