MODEL 1
REMARK VINA RESULT:    13.613      0.000      0.000
REMARK INTER + INTRA:          28.385
REMARK INTER:                  29.530
REMARK INTRA:                  -1.145
REMARK UNBOUND:                -1.145
REMARK SMILES CCCCCCCCCCCCCCCCCCCCCC(=O)[O-]
REMARK SMILES IDX 12 1 11 2 10 3 9 4 8 5 7 6 6 7 5 8 4 9 3 10 2 11 1 12 13 13
REMARK SMILES IDX 14 14 15 15 16 16 17 17 18 18 19 19 20 20 21 21 22 22 23 23
REMARK SMILES IDX 24 24
REMARK H PARENT
REMARK Flexibility Score: inf
ROOT
ATOM      1  C   UNL     1       0.319   8.744  -6.260  1.00  0.00     0.000 C 
ENDROOT
BRANCH   1   2
ATOM      2  C   UNL     1       0.647   8.972  -4.765  1.00  0.00     0.000 C 
BRANCH   2   3
ATOM      3  C   UNL     1       0.165   7.809  -3.873  1.00  0.00     0.000 C 
BRANCH   3   4
ATOM      4  C   UNL     1       1.334   6.948  -3.360  1.00  0.00    -0.000 C 
BRANCH   4   5
ATOM      5  C   UNL     1       2.679   7.703  -3.414  1.00  0.00    -0.000 C 
BRANCH   5   6
ATOM      6  C   UNL     1       3.667   7.254  -2.320  1.00  0.00    -0.000 C 
BRANCH   6   7
ATOM      7  C   UNL     1       5.132   7.652  -2.597  1.00  0.00    -0.000 C 
BRANCH   7   8
ATOM      8  C   UNL     1       6.087   6.450  -2.658  1.00  0.00    -0.000 C 
BRANCH   8   9
ATOM      9  C   UNL     1       5.385   5.219  -3.260  1.00  0.00    -0.000 C 
BRANCH   9  10
ATOM     10  C   UNL     1       6.027   4.770  -4.586  1.00  0.00    -0.000 C 
BRANCH  10  11
ATOM     11  C   UNL     1       6.874   3.501  -4.425  1.00  0.00    -0.003 C 
ATOM     12  C   UNL     1       6.884   3.026  -2.974  1.00  0.00     0.004 C 
ENDBRANCH  10  11
ENDBRANCH   9  10
ENDBRANCH   8   9
ENDBRANCH   7   8
ENDBRANCH   6   7
ENDBRANCH   5   6
ENDBRANCH   4   5
ENDBRANCH   3   4
ENDBRANCH   2   3
ENDBRANCH   1   2
BRANCH   1  13
ATOM     13  C   UNL     1       1.556   8.323  -7.073  1.00  0.00     0.000 C 
BRANCH  13  14
ATOM     14  C   UNL     1       1.379   8.555  -8.585  1.00  0.00     0.000 C 
BRANCH  14  15
ATOM     15  C   UNL     1      -0.085   8.393  -9.037  1.00  0.00     0.000 C 
BRANCH  15  16
ATOM     16  C   UNL     1      -0.285   8.653 -10.538  1.00  0.00     0.000 C 
BRANCH  16  17
ATOM     17  C   UNL     1      -0.946   7.467 -11.261  1.00  0.00     0.000 C 
BRANCH  17  18
ATOM     18  C   UNL     1      -0.359   7.242 -12.664  1.00  0.00     0.000 C 
BRANCH  18  19
ATOM     19  C   UNL     1       0.131   8.552 -13.308  1.00  0.00     0.000 C 
BRANCH  19  20
ATOM     20  C   UNL     1       1.663   8.697 -13.248  1.00  0.00     0.006 C 
BRANCH  20  21
ATOM     21  C   UNL     1       2.168  10.091 -13.663  1.00  0.00     0.053 C 
BRANCH  21  22
ATOM     22  C   UNL     1       2.723  10.849 -12.497  1.00  0.00     0.041 C 
ATOM     23  O   UNL     1       2.802  12.107 -12.535  1.00  0.00    -0.550 OA
ATOM     24  O   UNL     1       3.191  10.164 -11.385  1.00  0.00    -0.550 OA
ENDBRANCH  21  22
ENDBRANCH  20  21
ENDBRANCH  19  20
ENDBRANCH  18  19
ENDBRANCH  17  18
ENDBRANCH  16  17
ENDBRANCH  15  16
ENDBRANCH  14  15
ENDBRANCH  13  14
ENDBRANCH   1  13
TORSDOF 20
ENDMDL
MODEL 2
REMARK VINA RESULT:    13.614      5.011      7.312
REMARK INTER + INTRA:          28.387
REMARK INTER:                  29.626
REMARK INTRA:                  -1.239
REMARK UNBOUND:                -1.145
REMARK SMILES CCCCCCCCCCCCCCCCCCCCCC(=O)[O-]
REMARK SMILES IDX 12 1 11 2 10 3 9 4 8 5 7 6 6 7 5 8 4 9 3 10 2 11 1 12 13 13
REMARK SMILES IDX 14 14 15 15 16 16 17 17 18 18 19 19 20 20 21 21 22 22 23 23
REMARK SMILES IDX 24 24
REMARK H PARENT
REMARK Flexibility Score: inf
ROOT
ATOM      1  C   UNL     1       0.868   8.664  -4.856  1.00  0.00     0.000 C 
ENDROOT
BRANCH   1   2
ATOM      2  C   UNL     1       0.391   7.328  -4.238  1.00  0.00     0.000 C 
BRANCH   2   3
ATOM      3  C   UNL     1       1.412   6.745  -3.238  1.00  0.00     0.000 C 
BRANCH   3   4
ATOM      4  C   UNL     1       2.676   7.617  -3.126  1.00  0.00    -0.000 C 
BRANCH   4   5
ATOM      5  C   UNL     1       3.676   7.058  -2.091  1.00  0.00    -0.000 C 
BRANCH   5   6
ATOM      6  C   UNL     1       5.129   7.500  -2.356  1.00  0.00    -0.000 C 
BRANCH   6   7
ATOM      7  C   UNL     1       6.043   6.369  -2.872  1.00  0.00    -0.000 C 
BRANCH   7   8
ATOM      8  C   UNL     1       5.271   5.223  -3.545  1.00  0.00    -0.000 C 
BRANCH   8   9
ATOM      9  C   UNL     1       6.043   4.678  -4.760  1.00  0.00    -0.000 C 
BRANCH   9  10
ATOM     10  C   UNL     1       7.073   3.603  -4.365  1.00  0.00    -0.000 C 
BRANCH  10  11
ATOM     11  C   UNL     1       6.586   2.725  -3.205  1.00  0.00    -0.003 C 
ATOM     12  C   UNL     1       7.747   2.308  -2.306  1.00  0.00     0.004 C 
ENDBRANCH  10  11
ENDBRANCH   9  10
ENDBRANCH   8   9
ENDBRANCH   7   8
ENDBRANCH   6   7
ENDBRANCH   5   6
ENDBRANCH   4   5
ENDBRANCH   3   4
ENDBRANCH   2   3
ENDBRANCH   1   2
BRANCH   1  13
ATOM     13  C   UNL     1      -0.137   9.807  -4.627  1.00  0.00     0.000 C 
BRANCH  13  14
ATOM     14  C   UNL     1      -0.631   9.879  -3.171  1.00  0.00     0.000 C 
BRANCH  14  15
ATOM     15  C   UNL     1      -1.099  11.293  -2.778  1.00  0.00     0.000 C 
BRANCH  15  16
ATOM     16  C   UNL     1      -1.295  11.465  -1.263  1.00  0.00     0.000 C 
BRANCH  16  17
ATOM     17  C   UNL     1      -0.647  12.752  -0.724  1.00  0.00     0.000 C 
BRANCH  17  18
ATOM     18  C   UNL     1      -0.659  13.887  -1.760  1.00  0.00     0.000 C 
BRANCH  18  19
ATOM     19  C   UNL     1      -0.166  15.221  -1.170  1.00  0.00     0.000 C 
BRANCH  19  20
ATOM     20  C   UNL     1       1.026  15.802  -1.952  1.00  0.00     0.006 C 
BRANCH  20  21
ATOM     21  C   UNL     1       0.649  16.338  -3.345  1.00  0.00     0.053 C 
BRANCH  21  22
ATOM     22  C   UNL     1       1.635  15.912  -4.388  1.00  0.00     0.041 C 
ATOM     23  O   UNL     1       2.867  16.125  -4.225  1.00  0.00    -0.550 OA
ATOM     24  O   UNL     1       1.190  15.316  -5.559  1.00  0.00    -0.550 OA
ENDBRANCH  21  22
ENDBRANCH  20  21
ENDBRANCH  19  20
ENDBRANCH  18  19
ENDBRANCH  17  18
ENDBRANCH  16  17
ENDBRANCH  15  16
ENDBRANCH  14  15
ENDBRANCH  13  14
ENDBRANCH   1  13
TORSDOF 20
ENDMDL
MODEL 3
REMARK VINA RESULT:    13.673      4.778      7.359
REMARK INTER + INTRA:          28.514
REMARK INTER:                  29.527
REMARK INTRA:                  -1.013
REMARK UNBOUND:                -1.145
REMARK SMILES CCCCCCCCCCCCCCCCCCCCCC(=O)[O-]
REMARK SMILES IDX 12 1 11 2 10 3 9 4 8 5 7 6 6 7 5 8 4 9 3 10 2 11 1 12 13 13
REMARK SMILES IDX 14 14 15 15 16 16 17 17 18 18 19 19 20 20 21 21 22 22 23 23
REMARK SMILES IDX 24 24
REMARK H PARENT
REMARK Flexibility Score: inf
ROOT
ATOM      1  C   UNL     1       0.221   9.951  -4.780  1.00  0.00     0.000 C 
ENDROOT
BRANCH   1   2
ATOM      2  C   UNL     1       0.794   8.639  -5.367  1.00  0.00     0.000 C 
BRANCH   2   3
ATOM      3  C   UNL     1       0.408   7.403  -4.528  1.00  0.00     0.000 C 
BRANCH   3   4
ATOM      4  C   UNL     1       1.243   7.292  -3.240  1.00  0.00    -0.000 C 
BRANCH   4   5
ATOM      5  C   UNL     1       2.749   7.505  -3.504  1.00  0.00    -0.000 C 
BRANCH   5   6
ATOM      6  C   UNL     1       3.640   7.019  -2.343  1.00  0.00    -0.000 C 
BRANCH   6   7
ATOM      7  C   UNL     1       5.068   7.603  -2.364  1.00  0.00    -0.000 C 
BRANCH   7   8
ATOM      8  C   UNL     1       6.156   6.537  -2.571  1.00  0.00    -0.000 C 
BRANCH   8   9
ATOM      9  C   UNL     1       5.544   5.215  -3.069  1.00  0.00    -0.000 C 
BRANCH   9  10
ATOM     10  C   UNL     1       6.079   4.807  -4.454  1.00  0.00    -0.000 C 
BRANCH  10  11
ATOM     11  C   UNL     1       6.727   3.417  -4.445  1.00  0.00    -0.003 C 
ATOM     12  C   UNL     1       7.051   2.971  -3.021  1.00  0.00     0.004 C 
ENDBRANCH  10  11
ENDBRANCH   9  10
ENDBRANCH   8   9
ENDBRANCH   7   8
ENDBRANCH   6   7
ENDBRANCH   5   6
ENDBRANCH   4   5
ENDBRANCH   3   4
ENDBRANCH   2   3
ENDBRANCH   1   2
BRANCH   1  13
ATOM     13  C   UNL     1      -0.913   9.696  -3.772  1.00  0.00     0.000 C 
BRANCH  13  14
ATOM     14  C   UNL     1      -0.654  10.360  -2.407  1.00  0.00     0.000 C 
BRANCH  14  15
ATOM     15  C   UNL     1      -1.651  11.494  -2.105  1.00  0.00     0.000 C 
BRANCH  15  16
ATOM     16  C   UNL     1      -1.488  12.082  -0.695  1.00  0.00     0.000 C 
BRANCH  16  17
ATOM     17  C   UNL     1      -0.364  13.129  -0.616  1.00  0.00     0.000 C 
BRANCH  17  18
ATOM     18  C   UNL     1      -0.712  14.414  -1.384  1.00  0.00     0.000 C 
BRANCH  18  19
ATOM     19  C   UNL     1       0.426  15.451  -1.332  1.00  0.00     0.000 C 
BRANCH  19  20
ATOM     20  C   UNL     1       0.576  16.222  -2.656  1.00  0.00     0.006 C 
BRANCH  20  21
ATOM     21  C   UNL     1       2.021  16.263  -3.186  1.00  0.00     0.053 C 
BRANCH  21  22
ATOM     22  C   UNL     1       2.101  15.816  -4.613  1.00  0.00     0.041 C 
ATOM     23  O   UNL     1       3.214  15.514  -5.124  1.00  0.00    -0.550 OA
ATOM     24  O   UNL     1       0.953  15.771  -5.390  1.00  0.00    -0.550 OA
ENDBRANCH  21  22
ENDBRANCH  20  21
ENDBRANCH  19  20
ENDBRANCH  18  19
ENDBRANCH  17  18
ENDBRANCH  16  17
ENDBRANCH  15  16
ENDBRANCH  14  15
ENDBRANCH  13  14
ENDBRANCH   1  13
TORSDOF 20
ENDMDL
MODEL 4
REMARK VINA RESULT:    14.064      1.729      2.721
REMARK INTER + INTRA:          29.363
REMARK INTER:                  30.678
REMARK INTRA:                  -1.315
REMARK UNBOUND:                -1.145
REMARK SMILES CCCCCCCCCCCCCCCCCCCCCC(=O)[O-]
REMARK SMILES IDX 12 1 11 2 10 3 9 4 8 5 7 6 6 7 5 8 4 9 3 10 2 11 1 12 13 13
REMARK SMILES IDX 14 14 15 15 16 16 17 17 18 18 19 19 20 20 21 21 22 22 23 23
REMARK SMILES IDX 24 24
REMARK H PARENT
REMARK Flexibility Score: inf
ROOT
ATOM      1  C   UNL     1       0.201   8.416  -6.927  1.00  0.00     0.000 C 
ENDROOT
BRANCH   1   2
ATOM      2  C   UNL     1       0.939   8.818  -5.628  1.00  0.00     0.000 C 
BRANCH   2   3
ATOM      3  C   UNL     1       0.172   8.389  -4.360  1.00  0.00     0.000 C 
BRANCH   3   4
ATOM      4  C   UNL     1       0.975   7.391  -3.505  1.00  0.00    -0.000 C 
BRANCH   4   5
ATOM      5  C   UNL     1       2.497   7.620  -3.624  1.00  0.00    -0.000 C 
BRANCH   5   6
ATOM      6  C   UNL     1       3.306   6.863  -2.551  1.00  0.00    -0.000 C 
BRANCH   6   7
ATOM      7  C   UNL     1       4.621   7.562  -2.149  1.00  0.00    -0.000 C 
BRANCH   7   8
ATOM      8  C   UNL     1       5.872   6.879  -2.725  1.00  0.00    -0.000 C 
BRANCH   8   9
ATOM      9  C   UNL     1       5.620   5.379  -2.963  1.00  0.00    -0.000 C 
BRANCH   9  10
ATOM     10  C   UNL     1       6.177   4.899  -4.316  1.00  0.00    -0.000 C 
BRANCH  10  11
ATOM     11  C   UNL     1       6.534   3.407  -4.305  1.00  0.00    -0.003 C 
ATOM     12  C   UNL     1       7.024   2.969  -2.927  1.00  0.00     0.004 C 
ENDBRANCH  10  11
ENDBRANCH   9  10
ENDBRANCH   8   9
ENDBRANCH   7   8
ENDBRANCH   6   7
ENDBRANCH   5   6
ENDBRANCH   4   5
ENDBRANCH   3   4
ENDBRANCH   2   3
ENDBRANCH   1   2
BRANCH   1  13
ATOM     13  C   UNL     1       1.146   8.347  -8.140  1.00  0.00     0.000 C 
BRANCH  13  14
ATOM     14  C   UNL     1       2.501   9.029  -7.876  1.00  0.00     0.000 C 
BRANCH  14  15
ATOM     15  C   UNL     1       3.436   8.972  -9.099  1.00  0.00     0.000 C 
BRANCH  15  16
ATOM     16  C   UNL     1       3.279  10.180 -10.036  1.00  0.00     0.000 C 
BRANCH  16  17
ATOM     17  C   UNL     1       3.435   9.803 -11.519  1.00  0.00     0.000 C 
BRANCH  17  18
ATOM     18  C   UNL     1       2.760  10.820 -12.452  1.00  0.00     0.000 C 
BRANCH  18  19
ATOM     19  C   UNL     1       1.944  10.138 -13.566  1.00  0.00     0.000 C 
BRANCH  19  20
ATOM     20  C   UNL     1       1.505   8.713 -13.184  1.00  0.00     0.006 C 
BRANCH  20  21
ATOM     21  C   UNL     1      -0.005   8.465 -13.350  1.00  0.00     0.053 C 
BRANCH  21  22
ATOM     22  C   UNL     1      -0.574   7.708 -12.191  1.00  0.00     0.041 C 
ATOM     23  O   UNL     1      -0.832   8.301 -11.108  1.00  0.00    -0.550 OA
ATOM     24  O   UNL     1      -0.782   6.340 -12.292  1.00  0.00    -0.550 OA
ENDBRANCH  21  22
ENDBRANCH  20  21
ENDBRANCH  19  20
ENDBRANCH  18  19
ENDBRANCH  17  18
ENDBRANCH  16  17
ENDBRANCH  15  16
ENDBRANCH  14  15
ENDBRANCH  13  14
ENDBRANCH   1  13
TORSDOF 20
ENDMDL
MODEL 5
REMARK VINA RESULT:    14.545      1.706      2.749
REMARK INTER + INTRA:          30.407
REMARK INTER:                  30.902
REMARK INTRA:                  -0.494
REMARK UNBOUND:                -1.145
REMARK SMILES CCCCCCCCCCCCCCCCCCCCCC(=O)[O-]
REMARK SMILES IDX 12 1 11 2 10 3 9 4 8 5 7 6 6 7 5 8 4 9 3 10 2 11 1 12 13 13
REMARK SMILES IDX 14 14 15 15 16 16 17 17 18 18 19 19 20 20 21 21 22 22 23 23
REMARK SMILES IDX 24 24
REMARK H PARENT
REMARK Flexibility Score: inf
ROOT
ATOM      1  C   UNL     1      -0.096   8.350  -3.357  1.00  0.00     0.000 C 
ENDROOT
BRANCH   1   2
ATOM      2  C   UNL     1       0.891   7.166  -3.492  1.00  0.00     0.000 C 
BRANCH   2   3
ATOM      3  C   UNL     1       2.364   7.623  -3.468  1.00  0.00     0.000 C 
BRANCH   3   4
ATOM      4  C   UNL     1       3.223   6.766  -2.519  1.00  0.00    -0.000 C 
BRANCH   4   5
ATOM      5  C   UNL     1       4.304   7.602  -1.801  1.00  0.00    -0.000 C 
BRANCH   5   6
ATOM      6  C   UNL     1       5.709   7.421  -2.411  1.00  0.00    -0.000 C 
BRANCH   6   7
ATOM      7  C   UNL     1       6.105   5.949  -2.644  1.00  0.00    -0.000 C 
BRANCH   7   8
ATOM      8  C   UNL     1       6.077   5.540  -4.126  1.00  0.00    -0.000 C 
BRANCH   8   9
ATOM      9  C   UNL     1       5.752   4.043  -4.277  1.00  0.00    -0.000 C 
BRANCH   9  10
ATOM     10  C   UNL     1       7.009   3.159  -4.187  1.00  0.00    -0.000 C 
BRANCH  10  11
ATOM     11  C   UNL     1       7.345   2.765  -2.743  1.00  0.00    -0.003 C 
ATOM     12  C   UNL     1       7.257   1.253  -2.550  1.00  0.00     0.004 C 
ENDBRANCH  10  11
ENDBRANCH   9  10
ENDBRANCH   8   9
ENDBRANCH   7   8
ENDBRANCH   6   7
ENDBRANCH   5   6
ENDBRANCH   4   5
ENDBRANCH   3   4
ENDBRANCH   2   3
ENDBRANCH   1   2
BRANCH   1  13
ATOM     13  C   UNL     1      -0.126   9.233  -4.617  1.00  0.00     0.000 C 
BRANCH  13  14
ATOM     14  C   UNL     1       0.901   8.792  -5.675  1.00  0.00     0.000 C 
BRANCH  14  15
ATOM     15  C   UNL     1       0.237   8.359  -6.996  1.00  0.00     0.000 C 
BRANCH  15  16
ATOM     16  C   UNL     1       1.170   8.485  -8.210  1.00  0.00     0.000 C 
BRANCH  16  17
ATOM     17  C   UNL     1       2.585   8.952  -7.825  1.00  0.00     0.000 C 
BRANCH  17  18
ATOM     18  C   UNL     1       3.487   9.148  -9.053  1.00  0.00     0.000 C 
BRANCH  18  19
ATOM     19  C   UNL     1       2.755   9.856 -10.208  1.00  0.00     0.000 C 
BRANCH  19  20
ATOM     20  C   UNL     1       3.610   9.934 -11.485  1.00  0.00     0.006 C 
BRANCH  20  21
ATOM     21  C   UNL     1       2.790   9.850 -12.785  1.00  0.00     0.053 C 
BRANCH  21  22
ATOM     22  C   UNL     1       2.277  11.193 -13.204  1.00  0.00     0.041 C 
ATOM     23  O   UNL     1       1.294  11.282 -13.990  1.00  0.00    -0.550 OA
ATOM     24  O   UNL     1       2.908  12.345 -12.760  1.00  0.00    -0.550 OA
ENDBRANCH  21  22
ENDBRANCH  20  21
ENDBRANCH  19  20
ENDBRANCH  18  19
ENDBRANCH  17  18
ENDBRANCH  16  17
ENDBRANCH  15  16
ENDBRANCH  14  15
ENDBRANCH  13  14
ENDBRANCH   1  13
TORSDOF 20
ENDMDL
MODEL 6
REMARK VINA RESULT:    14.742      2.963      9.304
REMARK INTER + INTRA:          30.833
REMARK INTER:                  32.279
REMARK INTRA:                  -1.446
REMARK UNBOUND:                -1.145
REMARK SMILES CCCCCCCCCCCCCCCCCCCCCC(=O)[O-]
REMARK SMILES IDX 12 1 11 2 10 3 9 4 8 5 7 6 6 7 5 8 4 9 3 10 2 11 1 12 13 13
REMARK SMILES IDX 14 14 15 15 16 16 17 17 18 18 19 19 20 20 21 21 22 22 23 23
REMARK SMILES IDX 24 24
REMARK H PARENT
REMARK Flexibility Score: inf
ROOT
ATOM      1  C   UNL     1       0.117   8.524  -7.017  1.00  0.00     0.000 C 
ENDROOT
BRANCH   1   2
ATOM      2  C   UNL     1       1.181   8.371  -8.130  1.00  0.00     0.000 C 
BRANCH   2   3
ATOM      3  C   UNL     1       2.597   8.745  -7.645  1.00  0.00     0.000 C 
BRANCH   3   4
ATOM      4  C   UNL     1       3.525   9.139  -8.809  1.00  0.00    -0.000 C 
BRANCH   4   5
ATOM      5  C   UNL     1       2.791   9.977  -9.878  1.00  0.00    -0.000 C 
BRANCH   5   6
ATOM      6  C   UNL     1       3.348   9.763 -11.299  1.00  0.00    -0.000 C 
BRANCH   6   7
ATOM      7  C   UNL     1       2.881  10.820 -12.321  1.00  0.00    -0.000 C 
BRANCH   7   8
ATOM      8  C   UNL     1       2.025  10.233 -13.454  1.00  0.00    -0.000 C 
BRANCH   8   9
ATOM      9  C   UNL     1       1.586   8.795 -13.123  1.00  0.00    -0.000 C 
BRANCH   9  10
ATOM     10  C   UNL     1       0.129   8.518 -13.537  1.00  0.00    -0.000 C 
BRANCH  10  11
ATOM     11  C   UNL     1      -0.567   7.524 -12.598  1.00  0.00    -0.003 C 
ATOM     12  C   UNL     1      -0.592   8.047 -11.164  1.00  0.00     0.004 C 
ENDBRANCH  10  11
ENDBRANCH   9  10
ENDBRANCH   8   9
ENDBRANCH   7   8
ENDBRANCH   6   7
ENDBRANCH   5   6
ENDBRANCH   4   5
ENDBRANCH   3   4
ENDBRANCH   2   3
ENDBRANCH   1   2
BRANCH   1  13
ATOM     13  C   UNL     1       0.622   9.375  -5.837  1.00  0.00     0.000 C 
BRANCH  13  14
ATOM     14  C   UNL     1       0.224   8.787  -4.471  1.00  0.00     0.000 C 
BRANCH  14  15
ATOM     15  C   UNL     1       0.552   7.286  -4.358  1.00  0.00     0.000 C 
BRANCH  15  16
ATOM     16  C   UNL     1       1.467   6.956  -3.168  1.00  0.00     0.000 C 
BRANCH  16  17
ATOM     17  C   UNL     1       2.829   7.666  -3.254  1.00  0.00     0.000 C 
BRANCH  17  18
ATOM     18  C   UNL     1       3.680   7.444  -1.994  1.00  0.00     0.000 C 
BRANCH  18  19
ATOM     19  C   UNL     1       5.188   7.589  -2.274  1.00  0.00     0.000 C 
BRANCH  19  20
ATOM     20  C   UNL     1       5.841   6.254  -2.674  1.00  0.00     0.006 C 
BRANCH  20  21
ATOM     21  C   UNL     1       5.162   5.567  -3.873  1.00  0.00     0.053 C 
BRANCH  21  22
ATOM     22  C   UNL     1       6.017   4.482  -4.449  1.00  0.00     0.041 C 
ATOM     23  O   UNL     1       5.930   4.185  -5.672  1.00  0.00    -0.550 OA
ATOM     24  O   UNL     1       6.882   3.773  -3.629  1.00  0.00    -0.550 OA
ENDBRANCH  21  22
ENDBRANCH  20  21
ENDBRANCH  19  20
ENDBRANCH  18  19
ENDBRANCH  17  18
ENDBRANCH  16  17
ENDBRANCH  15  16
ENDBRANCH  14  15
ENDBRANCH  13  14
ENDBRANCH   1  13
TORSDOF 20
ENDMDL
MODEL 7
REMARK VINA RESULT:    14.848      5.677      9.730
REMARK INTER + INTRA:          31.062
REMARK INTER:                  32.274
REMARK INTRA:                  -1.212
REMARK UNBOUND:                -1.145
REMARK SMILES CCCCCCCCCCCCCCCCCCCCCC(=O)[O-]
REMARK SMILES IDX 12 1 11 2 10 3 9 4 8 5 7 6 6 7 5 8 4 9 3 10 2 11 1 12 13 13
REMARK SMILES IDX 14 14 15 15 16 16 17 17 18 18 19 19 20 20 21 21 22 22 23 23
REMARK SMILES IDX 24 24
REMARK H PARENT
REMARK Flexibility Score: inf
ROOT
ATOM      1  C   UNL     1       0.082   9.855  -4.605  1.00  0.00     0.000 C 
ENDROOT
BRANCH   1   2
ATOM      2  C   UNL     1      -0.559   9.771  -3.199  1.00  0.00     0.000 C 
BRANCH   2   3
ATOM      3  C   UNL     1      -1.301  11.068  -2.814  1.00  0.00     0.000 C 
BRANCH   3   4
ATOM      4  C   UNL     1      -1.481  11.203  -1.291  1.00  0.00    -0.000 C 
BRANCH   4   5
ATOM      5  C   UNL     1      -0.727  12.425  -0.724  1.00  0.00    -0.000 C 
BRANCH   5   6
ATOM      6  C   UNL     1      -0.612  13.585  -1.733  1.00  0.00    -0.000 C 
BRANCH   6   7
ATOM      7  C   UNL     1      -0.272  14.945  -1.088  1.00  0.00    -0.000 C 
BRANCH   7   8
ATOM      8  C   UNL     1       0.137  16.016  -2.111  1.00  0.00    -0.000 C 
BRANCH   8   9
ATOM      9  C   UNL     1       1.659  16.247  -2.089  1.00  0.00    -0.000 C 
BRANCH   9  10
ATOM     10  C   UNL     1       2.293  16.104  -3.485  1.00  0.00    -0.000 C 
BRANCH  10  11
ATOM     11  C   UNL     1       1.248  15.848  -4.579  1.00  0.00    -0.003 C 
ATOM     12  C   UNL     1       1.737  14.796  -5.571  1.00  0.00     0.004 C 
ENDBRANCH  10  11
ENDBRANCH   9  10
ENDBRANCH   8   9
ENDBRANCH   7   8
ENDBRANCH   6   7
ENDBRANCH   5   6
ENDBRANCH   4   5
ENDBRANCH   3   4
ENDBRANCH   2   3
ENDBRANCH   1   2
BRANCH   1  13
ATOM     13  C   UNL     1       0.828   8.564  -4.986  1.00  0.00     0.000 C 
BRANCH  13  14
ATOM     14  C   UNL     1       0.374   7.350  -4.155  1.00  0.00     0.000 C 
BRANCH  14  15
ATOM     15  C   UNL     1       1.397   6.964  -3.069  1.00  0.00     0.000 C 
BRANCH  15  16
ATOM     16  C   UNL     1       2.793   7.557  -3.318  1.00  0.00     0.000 C 
BRANCH  16  17
ATOM     17  C   UNL     1       3.778   7.251  -2.176  1.00  0.00     0.000 C 
BRANCH  17  18
ATOM     18  C   UNL     1       5.241   7.448  -2.603  1.00  0.00     0.000 C 
BRANCH  18  19
ATOM     19  C   UNL     1       6.042   6.133  -2.568  1.00  0.00     0.000 C 
BRANCH  19  20
ATOM     20  C   UNL     1       5.482   5.079  -3.541  1.00  0.00     0.006 C 
BRANCH  20  21
ATOM     21  C   UNL     1       6.567   4.349  -4.353  1.00  0.00     0.053 C 
BRANCH  21  22
ATOM     22  C   UNL     1       6.882   3.005  -3.774  1.00  0.00     0.041 C 
ATOM     23  O   UNL     1       7.220   2.896  -2.564  1.00  0.00    -0.550 OA
ATOM     24  O   UNL     1       6.842   1.877  -4.581  1.00  0.00    -0.550 OA
ENDBRANCH  21  22
ENDBRANCH  20  21
ENDBRANCH  19  20
ENDBRANCH  18  19
ENDBRANCH  17  18
ENDBRANCH  16  17
ENDBRANCH  15  16
ENDBRANCH  14  15
ENDBRANCH  13  14
ENDBRANCH   1  13
TORSDOF 20
ENDMDL
MODEL 8
REMARK VINA RESULT:    14.855      2.904      9.639
REMARK INTER + INTRA:          31.079
REMARK INTER:                  32.596
REMARK INTRA:                  -1.517
REMARK UNBOUND:                -1.145
REMARK SMILES CCCCCCCCCCCCCCCCCCCCCC(=O)[O-]
REMARK SMILES IDX 12 1 11 2 10 3 9 4 8 5 7 6 6 7 5 8 4 9 3 10 2 11 1 12 13 13
REMARK SMILES IDX 14 14 15 15 16 16 17 17 18 18 19 19 20 20 21 21 22 22 23 23
REMARK SMILES IDX 24 24
REMARK H PARENT
REMARK Flexibility Score: inf
ROOT
ATOM      1  C   UNL     1       1.450   8.401  -7.032  1.00  0.00     0.000 C 
ENDROOT
BRANCH   1   2
ATOM      2  C   UNL     1       0.941   8.338  -8.492  1.00  0.00     0.000 C 
BRANCH   2   3
ATOM      3  C   UNL     1      -0.508   8.852  -8.631  1.00  0.00     0.000 C 
BRANCH   3   4
ATOM      4  C   UNL     1      -0.980   8.867 -10.096  1.00  0.00    -0.000 C 
BRANCH   4   5
ATOM      5  C   UNL     1      -0.360   7.716 -10.918  1.00  0.00    -0.000 C 
BRANCH   5   6
ATOM      6  C   UNL     1      -0.908   7.639 -12.356  1.00  0.00    -0.000 C 
BRANCH   6   7
ATOM      7  C   UNL     1      -0.003   8.315 -13.408  1.00  0.00    -0.000 C 
BRANCH   7   8
ATOM      8  C   UNL     1       1.459   7.848 -13.340  1.00  0.00    -0.000 C 
BRANCH   8   9
ATOM      9  C   UNL     1       2.424   9.034 -13.524  1.00  0.00    -0.000 C 
BRANCH   9  10
ATOM     10  C   UNL     1       2.906   9.610 -12.179  1.00  0.00    -0.000 C 
BRANCH  10  11
ATOM     11  C   UNL     1       2.775  11.137 -12.117  1.00  0.00    -0.003 C 
ATOM     12  C   UNL     1       2.313  11.705 -13.457  1.00  0.00     0.004 C 
ENDBRANCH  10  11
ENDBRANCH   9  10
ENDBRANCH   8   9
ENDBRANCH   7   8
ENDBRANCH   6   7
ENDBRANCH   5   6
ENDBRANCH   4   5
ENDBRANCH   3   4
ENDBRANCH   2   3
ENDBRANCH   1   2
BRANCH   1  13
ATOM     13  C   UNL     1       0.361   8.868  -6.051  1.00  0.00     0.000 C 
BRANCH  13  14
ATOM     14  C   UNL     1       0.817   8.799  -4.582  1.00  0.00     0.000 C 
BRANCH  14  15
ATOM     15  C   UNL     1       0.235   7.580  -3.842  1.00  0.00     0.000 C 
BRANCH  15  16
ATOM     16  C   UNL     1       1.293   6.790  -3.055  1.00  0.00     0.000 C 
BRANCH  16  17
ATOM     17  C   UNL     1       2.700   7.400  -3.177  1.00  0.00     0.000 C 
BRANCH  17  18
ATOM     18  C   UNL     1       3.586   7.062  -1.968  1.00  0.00     0.000 C 
BRANCH  18  19
ATOM     19  C   UNL     1       5.006   7.643  -2.105  1.00  0.00     0.000 C 
BRANCH  19  20
ATOM     20  C   UNL     1       5.957   6.694  -2.858  1.00  0.00     0.006 C 
BRANCH  20  21
ATOM     21  C   UNL     1       5.452   5.242  -2.930  1.00  0.00     0.053 C 
BRANCH  21  22
ATOM     22  C   UNL     1       6.122   4.476  -4.028  1.00  0.00     0.041 C 
ATOM     23  O   UNL     1       6.008   4.850  -5.227  1.00  0.00    -0.550 OA
ATOM     24  O   UNL     1       6.839   3.326  -3.733  1.00  0.00    -0.550 OA
ENDBRANCH  21  22
ENDBRANCH  20  21
ENDBRANCH  19  20
ENDBRANCH  18  19
ENDBRANCH  17  18
ENDBRANCH  16  17
ENDBRANCH  15  16
ENDBRANCH  14  15
ENDBRANCH  13  14
ENDBRANCH   1  13
TORSDOF 20
ENDMDL
MODEL 9
REMARK VINA RESULT:    15.346      3.602      9.840
REMARK INTER + INTRA:          32.144
REMARK INTER:                  33.415
REMARK INTRA:                  -1.271
REMARK UNBOUND:                -1.145
REMARK SMILES CCCCCCCCCCCCCCCCCCCCCC(=O)[O-]
REMARK SMILES IDX 12 1 11 2 10 3 9 4 8 5 7 6 6 7 5 8 4 9 3 10 2 11 1 12 13 13
REMARK SMILES IDX 14 14 15 15 16 16 17 17 18 18 19 19 20 20 21 21 22 22 23 23
REMARK SMILES IDX 24 24
REMARK H PARENT
REMARK Flexibility Score: inf
ROOT
ATOM      1  C   UNL     1       0.459   9.388  -5.872  1.00  0.00     0.000 C 
ENDROOT
BRANCH   1   2
ATOM      2  C   UNL     1       1.417   8.472  -6.669  1.00  0.00     0.000 C 
BRANCH   2   3
ATOM      3  C   UNL     1       0.805   8.004  -8.006  1.00  0.00     0.000 C 
BRANCH   3   4
ATOM      4  C   UNL     1       0.021   9.127  -8.710  1.00  0.00    -0.000 C 
BRANCH   4   5
ATOM      5  C   UNL     1      -0.940   8.578  -9.786  1.00  0.00    -0.000 C 
BRANCH   5   6
ATOM      6  C   UNL     1      -0.242   7.653 -10.802  1.00  0.00    -0.000 C 
BRANCH   6   7
ATOM      7  C   UNL     1      -0.925   7.614 -12.186  1.00  0.00    -0.000 C 
BRANCH   7   8
ATOM      8  C   UNL     1       0.070   7.664 -13.355  1.00  0.00    -0.000 C 
BRANCH   8   9
ATOM      9  C   UNL     1       0.536   9.107 -13.621  1.00  0.00    -0.000 C 
BRANCH   9  10
ATOM     10  C   UNL     1       2.002   9.335 -13.206  1.00  0.00    -0.000 C 
BRANCH  10  11
ATOM     11  C   UNL     1       2.431  10.800 -13.356  1.00  0.00    -0.003 C 
ATOM     12  C   UNL     1       2.921  11.369 -12.027  1.00  0.00     0.004 C 
ENDBRANCH  10  11
ENDBRANCH   9  10
ENDBRANCH   8   9
ENDBRANCH   7   8
ENDBRANCH   6   7
ENDBRANCH   5   6
ENDBRANCH   4   5
ENDBRANCH   3   4
ENDBRANCH   2   3
ENDBRANCH   1   2
BRANCH   1  13
ATOM     13  C   UNL     1       0.133   8.823  -4.478  1.00  0.00     0.000 C 
BRANCH  13  14
ATOM     14  C   UNL     1       0.498   7.334  -4.342  1.00  0.00     0.000 C 
BRANCH  14  15
ATOM     15  C   UNL     1       1.413   7.060  -3.133  1.00  0.00     0.000 C 
BRANCH  15  16
ATOM     16  C   UNL     1       2.841   7.597  -3.323  1.00  0.00     0.000 C 
BRANCH  16  17
ATOM     17  C   UNL     1       3.772   7.231  -2.154  1.00  0.00     0.000 C 
BRANCH  17  18
ATOM     18  C   UNL     1       5.227   7.645  -2.419  1.00  0.00     0.000 C 
BRANCH  18  19
ATOM     19  C   UNL     1       6.159   6.430  -2.585  1.00  0.00     0.000 C 
BRANCH  19  20
ATOM     20  C   UNL     1       5.446   5.228  -3.231  1.00  0.00     0.006 C 
BRANCH  20  21
ATOM     21  C   UNL     1       6.290   4.511  -4.300  1.00  0.00     0.053 C 
BRANCH  21  22
ATOM     22  C   UNL     1       6.832   3.208  -3.798  1.00  0.00     0.041 C 
ATOM     23  O   UNL     1       6.922   2.216  -4.572  1.00  0.00    -0.550 OA
ATOM     24  O   UNL     1       7.200   3.079  -2.467  1.00  0.00    -0.550 OA
ENDBRANCH  21  22
ENDBRANCH  20  21
ENDBRANCH  19  20
ENDBRANCH  18  19
ENDBRANCH  17  18
ENDBRANCH  16  17
ENDBRANCH  15  16
ENDBRANCH  14  15
ENDBRANCH  13  14
ENDBRANCH   1  13
TORSDOF 20
ENDMDL
