MODEL 1
REMARK VINA RESULT:    -3.133      0.000      0.000
REMARK INTER + INTRA:          -3.807
REMARK INTER:                  -3.774
REMARK INTRA:                  -0.034
REMARK UNBOUND:                -0.034
REMARK SMILES OCC(O)CO
REMARK SMILES IDX 3 1 5 2 6 3 2 5 1 6 4 8
REMARK H PARENT 6 4 1 7 4 9
REMARK Flexibility Score: inf
ROOT
ATOM      1  C   UNL     1      24.697 -43.125 -11.973  1.00  0.00     0.165 C 
ENDROOT
BRANCH   1   2
ATOM      2  C   UNL     1      26.068 -42.723 -12.541  1.00  0.00     0.190 C 
BRANCH   2   3
ATOM      3  O   UNL     1      25.935 -42.226 -13.845  1.00  0.00    -0.394 OA
ATOM      4  H   UNL     1      26.386 -41.342 -13.859  1.00  0.00     0.210 HD
ENDBRANCH   2   3
ENDBRANCH   1   2
BRANCH   1   5
ATOM      5  C   UNL     1      24.264 -42.146 -10.875  1.00  0.00     0.190 C 
BRANCH   5   6
ATOM      6  O   UNL     1      23.647 -41.020 -11.439  1.00  0.00    -0.394 OA
ATOM      7  H   UNL     1      24.343 -40.548 -11.968  1.00  0.00     0.210 HD
ENDBRANCH   5   6
ENDBRANCH   1   5
BRANCH   1   8
ATOM      8  O   UNL     1      23.736 -43.124 -12.997  1.00  0.00    -0.388 OA
ATOM      9  H   UNL     1      23.982 -43.853 -13.625  1.00  0.00     0.211 HD
ENDBRANCH   1   8
TORSDOF 5
ENDMDL
MODEL 2
REMARK VINA RESULT:    -2.952      7.174      7.683
REMARK INTER + INTRA:          -3.590
REMARK INTER:                  -3.587
REMARK INTRA:                  -0.003
REMARK UNBOUND:                -0.034
REMARK SMILES OCC(O)CO
REMARK SMILES IDX 3 1 5 2 6 3 2 5 1 6 4 8
REMARK H PARENT 6 4 1 7 4 9
REMARK Flexibility Score: inf
ROOT
ATOM      1  C   UNL     1      22.461 -41.238 -18.922  1.00  0.00     0.165 C 
ENDROOT
BRANCH   1   2
ATOM      2  C   UNL     1      22.094 -41.149 -20.412  1.00  0.00     0.190 C 
BRANCH   2   3
ATOM      3  O   UNL     1      20.704 -41.074 -20.575  1.00  0.00    -0.394 OA
ATOM      4  H   UNL     1      20.303 -41.280 -19.690  1.00  0.00     0.210 HD
ENDBRANCH   2   3
ENDBRANCH   1   2
BRANCH   1   5
ATOM      5  C   UNL     1      23.983 -41.289 -18.746  1.00  0.00     0.190 C 
BRANCH   5   6
ATOM      6  O   UNL     1      24.326 -42.139 -17.684  1.00  0.00    -0.394 OA
ATOM      7  H   UNL     1      24.809 -42.910 -18.081  1.00  0.00     0.210 HD
ENDBRANCH   5   6
ENDBRANCH   1   5
BRANCH   1   8
ATOM      8  O   UNL     1      21.955 -40.120 -18.238  1.00  0.00    -0.388 OA
ATOM      9  H   UNL     1      22.303 -39.315 -18.702  1.00  0.00     0.211 HD
ENDBRANCH   1   8
TORSDOF 5
ENDMDL
MODEL 3
REMARK VINA RESULT:    -2.932      7.190      7.627
REMARK INTER + INTRA:          -3.566
REMARK INTER:                  -3.552
REMARK INTRA:                  -0.014
REMARK UNBOUND:                -0.034
REMARK SMILES OCC(O)CO
REMARK SMILES IDX 3 1 5 2 6 3 2 5 1 6 4 8
REMARK H PARENT 6 4 1 7 4 9
REMARK Flexibility Score: inf
ROOT
ATOM      1  C   UNL     1      22.655 -40.581 -19.230  1.00  0.00     0.165 C 
ENDROOT
BRANCH   1   2
ATOM      2  C   UNL     1      23.630 -41.545 -18.535  1.00  0.00     0.190 C 
BRANCH   2   3
ATOM      3  O   UNL     1      23.132 -41.934 -17.284  1.00  0.00    -0.394 OA
ATOM      4  H   UNL     1      22.983 -41.101 -16.766  1.00  0.00     0.210 HD
ENDBRANCH   2   3
ENDBRANCH   1   2
BRANCH   1   5
ATOM      5  C   UNL     1      21.907 -41.298 -20.361  1.00  0.00     0.190 C 
BRANCH   5   6
ATOM      6  O   UNL     1      20.527 -41.295 -20.114  1.00  0.00    -0.394 OA
ATOM      7  H   UNL     1      20.184 -40.416 -20.426  1.00  0.00     0.210 HD
ENDBRANCH   5   6
ENDBRANCH   1   5
BRANCH   1   8
ATOM      8  O   UNL     1      21.724 -40.091 -18.300  1.00  0.00    -0.388 OA
ATOM      9  H   UNL     1      22.027 -39.183 -18.038  1.00  0.00     0.211 HD
ENDBRANCH   1   8
TORSDOF 5
ENDMDL
MODEL 4
REMARK VINA RESULT:    -2.930      7.765      8.032
REMARK INTER + INTRA:          -3.563
REMARK INTER:                  -3.344
REMARK INTRA:                  -0.219
REMARK UNBOUND:                -0.034
REMARK SMILES OCC(O)CO
REMARK SMILES IDX 3 1 5 2 6 3 2 5 1 6 4 8
REMARK H PARENT 6 4 1 7 4 9
REMARK Flexibility Score: inf
ROOT
ATOM      1  C   UNL     1      21.858 -41.318 -19.971  1.00  0.00     0.165 C 
ENDROOT
BRANCH   1   2
ATOM      2  C   UNL     1      22.963 -40.816 -19.027  1.00  0.00     0.190 C 
BRANCH   2   3
ATOM      3  O   UNL     1      22.959 -41.544 -17.830  1.00  0.00    -0.394 OA
ATOM      4  H   UNL     1      22.311 -41.096 -17.227  1.00  0.00     0.210 HD
ENDBRANCH   2   3
ENDBRANCH   1   2
BRANCH   1   5
ATOM      5  C   UNL     1      20.547 -40.566 -19.709  1.00  0.00     0.190 C 
BRANCH   5   6
ATOM      6  O   UNL     1      20.677 -39.730 -18.591  1.00  0.00    -0.394 OA
ATOM      7  H   UNL     1      20.382 -38.825 -18.875  1.00  0.00     0.210 HD
ENDBRANCH   5   6
ENDBRANCH   1   5
BRANCH   1   8
ATOM      8  O   UNL     1      22.244 -41.121 -21.307  1.00  0.00    -0.388 OA
ATOM      9  H   UNL     1      22.658 -41.968 -21.616  1.00  0.00     0.211 HD
ENDBRANCH   1   8
TORSDOF 5
ENDMDL
MODEL 5
REMARK VINA RESULT:    -2.442      7.963      8.542
REMARK INTER + INTRA:          -2.976
REMARK INTER:                  -2.973
REMARK INTRA:                  -0.003
REMARK UNBOUND:                -0.034
REMARK SMILES OCC(O)CO
REMARK SMILES IDX 3 1 5 2 6 3 2 5 1 6 4 8
REMARK H PARENT 6 4 1 7 4 9
REMARK Flexibility Score: inf
ROOT
ATOM      1  C   UNL     1      21.907 -40.559 -20.042  1.00  0.00     0.165 C 
ENDROOT
BRANCH   1   2
ATOM      2  C   UNL     1      20.400 -40.640 -19.752  1.00  0.00     0.190 C 
BRANCH   2   3
ATOM      3  O   UNL     1      19.936 -41.953 -19.913  1.00  0.00    -0.394 OA
ATOM      4  H   UNL     1      20.581 -42.542 -19.440  1.00  0.00     0.210 HD
ENDBRANCH   2   3
ENDBRANCH   1   2
BRANCH   1   5
ATOM      5  C   UNL     1      22.714 -40.974 -18.806  1.00  0.00     0.190 C 
BRANCH   5   6
ATOM      6  O   UNL     1      24.076 -41.081 -19.123  1.00  0.00    -0.394 OA
ATOM      7  H   UNL     1      24.563 -40.484 -18.497  1.00  0.00     0.210 HD
ENDBRANCH   5   6
ENDBRANCH   1   5
BRANCH   1   8
ATOM      8  O   UNL     1      22.235 -41.407 -21.113  1.00  0.00    -0.388 OA
ATOM      9  H   UNL     1      22.785 -40.876 -21.745  1.00  0.00     0.211 HD
ENDBRANCH   1   8
TORSDOF 5
ENDMDL
MODEL 6
REMARK VINA RESULT:    -1.990     15.735     16.268
REMARK INTER + INTRA:          -2.431
REMARK INTER:                  -2.405
REMARK INTRA:                  -0.026
REMARK UNBOUND:                -0.034
REMARK SMILES OCC(O)CO
REMARK SMILES IDX 3 1 5 2 6 3 2 5 1 6 4 8
REMARK H PARENT 6 4 1 7 4 9
REMARK Flexibility Score: inf
ROOT
ATOM      1  C   UNL     1      14.340 -33.700 -19.583  1.00  0.00     0.165 C 
ENDROOT
BRANCH   1   2
ATOM      2  C   UNL     1      13.466 -32.945 -18.569  1.00  0.00     0.190 C 
BRANCH   2   3
ATOM      3  O   UNL     1      12.296 -32.473 -19.181  1.00  0.00    -0.394 OA
ATOM      4  H   UNL     1      12.201 -31.522 -18.915  1.00  0.00     0.210 HD
ENDBRANCH   2   3
ENDBRANCH   1   2
BRANCH   1   5
ATOM      5  C   UNL     1      13.899 -33.379 -21.016  1.00  0.00     0.190 C 
BRANCH   5   6
ATOM      6  O   UNL     1      13.894 -34.542 -21.800  1.00  0.00    -0.394 OA
ATOM      7  H   UNL     1      14.740 -34.538 -22.320  1.00  0.00     0.210 HD
ENDBRANCH   5   6
ENDBRANCH   1   5
BRANCH   1   8
ATOM      8  O   UNL     1      15.686 -33.333 -19.422  1.00  0.00    -0.388 OA
ATOM      9  H   UNL     1      16.053 -33.172 -20.330  1.00  0.00     0.211 HD
ENDBRANCH   1   8
TORSDOF 5
ENDMDL
MODEL 7
REMARK VINA RESULT:    -1.971     15.754     16.099
REMARK INTER + INTRA:          -2.408
REMARK INTER:                  -2.379
REMARK INTRA:                  -0.029
REMARK UNBOUND:                -0.034
REMARK SMILES OCC(O)CO
REMARK SMILES IDX 3 1 5 2 6 3 2 5 1 6 4 8
REMARK H PARENT 6 4 1 7 4 9
REMARK Flexibility Score: inf
ROOT
ATOM      1  C   UNL     1      14.487 -32.951 -19.813  1.00  0.00     0.165 C 
ENDROOT
BRANCH   1   2
ATOM      2  C   UNL     1      13.838 -33.341 -21.151  1.00  0.00     0.190 C 
BRANCH   2   3
ATOM      3  O   UNL     1      14.075 -34.692 -21.439  1.00  0.00    -0.394 OA
ATOM      4  H   UNL     1      14.348 -35.121 -20.587  1.00  0.00     0.210 HD
ENDBRANCH   2   3
ENDBRANCH   1   2
BRANCH   1   5
ATOM      5  C   UNL     1      13.455 -33.004 -18.680  1.00  0.00     0.190 C 
BRANCH   5   6
ATOM      6  O   UNL     1      12.202 -32.574 -19.140  1.00  0.00    -0.394 OA
ATOM      7  H   UNL     1      11.603 -33.366 -19.118  1.00  0.00     0.210 HD
ENDBRANCH   5   6
ENDBRANCH   1   5
BRANCH   1   8
ATOM      8  O   UNL     1      15.541 -33.833 -19.518  1.00  0.00    -0.388 OA
ATOM      9  H   UNL     1      15.867 -33.601 -18.610  1.00  0.00     0.211 HD
ENDBRANCH   1   8
TORSDOF 5
ENDMDL
MODEL 8
REMARK VINA RESULT:    -1.804     15.848     16.251
REMARK INTER + INTRA:          -2.207
REMARK INTER:                  -1.985
REMARK INTRA:                  -0.222
REMARK UNBOUND:                -0.034
REMARK SMILES OCC(O)CO
REMARK SMILES IDX 3 1 5 2 6 3 2 5 1 6 4 8
REMARK H PARENT 6 4 1 7 4 9
REMARK Flexibility Score: inf
ROOT
ATOM      1  C   UNL     1      13.163 -33.244 -19.545  1.00  0.00     0.165 C 
ENDROOT
BRANCH   1   2
ATOM      2  C   UNL     1      13.608 -33.116 -21.010  1.00  0.00     0.190 C 
BRANCH   2   3
ATOM      3  O   UNL     1      13.990 -34.364 -21.521  1.00  0.00    -0.394 OA
ATOM      4  H   UNL     1      13.457 -35.045 -21.034  1.00  0.00     0.210 HD
ENDBRANCH   2   3
ENDBRANCH   1   2
BRANCH   1   5
ATOM      5  C   UNL     1      14.368 -33.115 -18.605  1.00  0.00     0.190 C 
BRANCH   5   6
ATOM      6  O   UNL     1      15.554 -33.428 -19.284  1.00  0.00    -0.394 OA
ATOM      7  H   UNL     1      15.973 -32.565 -19.541  1.00  0.00     0.210 HD
ENDBRANCH   5   6
ENDBRANCH   1   5
BRANCH   1   8
ATOM      8  O   UNL     1      12.230 -32.239 -19.239  1.00  0.00    -0.388 OA
ATOM      9  H   UNL     1      11.907 -32.415 -18.317  1.00  0.00     0.211 HD
ENDBRANCH   1   8
TORSDOF 5
ENDMDL
MODEL 9
REMARK VINA RESULT:    -1.466      8.313      8.788
REMARK INTER + INTRA:          -1.800
REMARK INTER:                  -1.626
REMARK INTRA:                  -0.174
REMARK UNBOUND:                -0.034
REMARK SMILES OCC(O)CO
REMARK SMILES IDX 3 1 5 2 6 3 2 5 1 6 4 8
REMARK H PARENT 6 4 1 7 4 9
REMARK Flexibility Score: inf
ROOT
ATOM      1  C   UNL     1      20.699 -40.853 -20.021  1.00  0.00     0.165 C 
ENDROOT
BRANCH   1   2
ATOM      2  C   UNL     1      21.100 -40.080 -18.753  1.00  0.00     0.190 C 
BRANCH   2   3
ATOM      3  O   UNL     1      22.450 -40.300 -18.447  1.00  0.00    -0.394 OA
ATOM      4  H   UNL     1      22.979 -39.832 -19.145  1.00  0.00     0.210 HD
ENDBRANCH   2   3
ENDBRANCH   1   2
BRANCH   1   5
ATOM      5  C   UNL     1      21.946 -41.357 -20.758  1.00  0.00     0.190 C 
BRANCH   5   6
ATOM      6  O   UNL     1      22.433 -40.371 -21.628  1.00  0.00    -0.394 OA
ATOM      7  H   UNL     1      22.712 -39.604 -21.062  1.00  0.00     0.210 HD
ENDBRANCH   5   6
ENDBRANCH   1   5
BRANCH   1   8
ATOM      8  O   UNL     1      19.892 -41.949 -19.677  1.00  0.00    -0.388 OA
ATOM      9  H   UNL     1      19.831 -41.965 -18.687  1.00  0.00     0.211 HD
ENDBRANCH   1   8
TORSDOF 5
ENDMDL
