MODEL 1
REMARK VINA RESULT:    -3.810      0.000      0.000
REMARK INTER + INTRA:          -3.810
REMARK INTER:                  -3.810
REMARK INTRA:                   0.000
REMARK UNBOUND:                 0.000
REMARK SMILES CC(C)=C1CC[C@H](C)CC1=O
REMARK SMILES IDX 8 1 7 2 6 3 5 4 4 5 2 6 1 7 3 8 10 9 11 10 9 11
REMARK H PARENT
REMARK Flexibility Score: inf
ROOT
ATOM      1  C   UNL     1       8.237   9.530   0.985  1.00  0.00     0.008 C 
ATOM      2  C   UNL     1       6.985   8.638   1.020  1.00  0.00    -0.006 C 
ATOM      3  C   UNL     1       5.697   9.431   0.736  1.00  0.00     0.008 C 
ATOM      4  C   UNL     1       5.625   9.968  -0.702  1.00  0.00     0.039 C 
ATOM      5  C   UNL     1       5.930   8.904  -1.749  1.00  0.00    -0.006 C 
ATOM      6  C   UNL     1       5.369   8.957  -2.993  1.00  0.00    -0.070 C 
ATOM      7  C   UNL     1       5.617   7.880  -4.025  1.00  0.00     0.039 C 
ATOM      8  C   UNL     1       4.438  10.081  -3.386  1.00  0.00     0.039 C 
ATOM      9  C   UNL     1       6.957   7.886  -1.378  1.00  0.00     0.159 C 
ATOM     10  O   UNL     1       7.722   7.384  -2.244  1.00  0.00    -0.295 OA
ATOM     11  C   UNL     1       7.104   7.452   0.051  1.00  0.00     0.084 C 
ENDROOT
TORSDOF 0
ENDMDL
MODEL 2
REMARK VINA RESULT:    -3.723      8.320     10.071
REMARK INTER + INTRA:          -3.723
REMARK INTER:                  -3.723
REMARK INTRA:                   0.000
REMARK UNBOUND:                 0.000
REMARK SMILES CC(C)=C1CC[C@H](C)CC1=O
REMARK SMILES IDX 8 1 7 2 6 3 5 4 4 5 2 6 1 7 3 8 10 9 11 10 9 11
REMARK H PARENT
REMARK Flexibility Score: inf
ROOT
ATOM      1  C   UNL     1       6.821  -1.676  -5.167  1.00  0.00     0.008 C 
ATOM      2  C   UNL     1       6.989  -1.491  -6.684  1.00  0.00    -0.006 C 
ATOM      3  C   UNL     1       5.810  -0.726  -7.311  1.00  0.00     0.008 C 
ATOM      4  C   UNL     1       5.730   0.739  -6.852  1.00  0.00     0.039 C 
ATOM      5  C   UNL     1       7.061   1.470  -6.965  1.00  0.00    -0.006 C 
ATOM      6  C   UNL     1       7.110   2.815  -7.198  1.00  0.00    -0.070 C 
ATOM      7  C   UNL     1       8.422   3.546  -7.368  1.00  0.00     0.039 C 
ATOM      8  C   UNL     1       5.846   3.632  -7.337  1.00  0.00     0.039 C 
ATOM      9  C   UNL     1       8.285   0.662  -6.687  1.00  0.00     0.159 C 
ATOM     10  O   UNL     1       9.304   1.179  -6.156  1.00  0.00    -0.295 OA
ATOM     11  C   UNL     1       8.316  -0.799  -7.029  1.00  0.00     0.084 C 
ENDROOT
TORSDOF 0
ENDMDL
MODEL 3
REMARK VINA RESULT:    -3.691      8.054     10.257
REMARK INTER + INTRA:          -3.691
REMARK INTER:                  -3.691
REMARK INTRA:                   0.000
REMARK UNBOUND:                 0.000
REMARK SMILES CC(C)=C1CC[C@H](C)CC1=O
REMARK SMILES IDX 8 1 7 2 6 3 5 4 4 5 2 6 1 7 3 8 10 9 11 10 9 11
REMARK H PARENT
REMARK Flexibility Score: inf
ROOT
ATOM      1  C   UNL     1       8.601  -0.743  -7.160  1.00  0.00     0.008 C 
ATOM      2  C   UNL     1       7.159  -1.084  -7.571  1.00  0.00    -0.006 C 
ATOM      3  C   UNL     1       6.165  -0.910  -6.409  1.00  0.00     0.008 C 
ATOM      4  C   UNL     1       5.998   0.555  -5.974  1.00  0.00     0.039 C 
ATOM      5  C   UNL     1       5.741   1.497  -7.144  1.00  0.00    -0.006 C 
ATOM      6  C   UNL     1       5.003   2.634  -6.985  1.00  0.00    -0.070 C 
ATOM      7  C   UNL     1       4.692   3.550  -8.147  1.00  0.00     0.039 C 
ATOM      8  C   UNL     1       4.425   3.013  -5.640  1.00  0.00     0.039 C 
ATOM      9  C   UNL     1       6.437   1.168  -8.423  1.00  0.00     0.159 C 
ATOM     10  O   UNL     1       6.821   2.073  -9.210  1.00  0.00    -0.295 OA
ATOM     11  C   UNL     1       6.705  -0.263  -8.787  1.00  0.00     0.084 C 
ENDROOT
TORSDOF 0
ENDMDL
MODEL 4
REMARK VINA RESULT:    -3.621      9.328     10.786
REMARK INTER + INTRA:          -3.621
REMARK INTER:                  -3.621
REMARK INTRA:                   0.000
REMARK UNBOUND:                 0.000
REMARK SMILES CC(C)=C1CC[C@H](C)CC1=O
REMARK SMILES IDX 8 1 7 2 6 3 5 4 4 5 2 6 1 7 3 8 10 9 11 10 9 11
REMARK H PARENT
REMARK Flexibility Score: inf
ROOT
ATOM      1  C   UNL     1       6.083  -2.243  -5.503  1.00  0.00     0.008 C 
ATOM      2  C   UNL     1       7.214  -1.366  -6.066  1.00  0.00    -0.006 C 
ATOM      3  C   UNL     1       7.315  -1.459  -7.599  1.00  0.00     0.008 C 
ATOM      4  C   UNL     1       6.099  -0.855  -8.320  1.00  0.00     0.039 C 
ATOM      5  C   UNL     1       5.739   0.536  -7.815  1.00  0.00    -0.006 C 
ATOM      6  C   UNL     1       5.155   1.456  -8.638  1.00  0.00    -0.070 C 
ATOM      7  C   UNL     1       4.843   2.859  -8.169  1.00  0.00     0.039 C 
ATOM      8  C   UNL     1       4.828   1.126 -10.076  1.00  0.00     0.039 C 
ATOM      9  C   UNL     1       5.948   0.786  -6.358  1.00  0.00     0.159 C 
ATOM     10  O   UNL     1       5.192   1.559  -5.712  1.00  0.00    -0.295 OA
ATOM     11  C   UNL     1       7.067   0.100  -5.630  1.00  0.00     0.084 C 
ENDROOT
TORSDOF 0
ENDMDL
MODEL 5
REMARK VINA RESULT:    -3.573     19.739     20.855
REMARK INTER + INTRA:          -3.573
REMARK INTER:                  -3.573
REMARK INTRA:                   0.000
REMARK UNBOUND:                 0.000
REMARK SMILES CC(C)=C1CC[C@H](C)CC1=O
REMARK SMILES IDX 8 1 7 2 6 3 5 4 4 5 2 6 1 7 3 8 10 9 11 10 9 11
REMARK H PARENT
REMARK Flexibility Score: inf
ROOT
ATOM      1  C   UNL     1      -0.453  -8.928   7.459  1.00  0.00     0.008 C 
ATOM      2  C   UNL     1      -1.906  -9.424   7.541  1.00  0.00    -0.006 C 
ATOM      3  C   UNL     1      -2.552  -9.111   8.902  1.00  0.00     0.008 C 
ATOM      4  C   UNL     1      -2.750  -7.606   9.143  1.00  0.00     0.039 C 
ATOM      5  C   UNL     1      -3.422  -6.900   7.972  1.00  0.00    -0.006 C 
ATOM      6  C   UNL     1      -4.207  -5.800   8.168  1.00  0.00    -0.070 C 
ATOM      7  C   UNL     1      -4.925  -5.121   7.023  1.00  0.00     0.039 C 
ATOM      8  C   UNL     1      -4.427  -5.230   9.550  1.00  0.00     0.039 C 
ATOM      9  C   UNL     1      -3.075  -7.403   6.610  1.00  0.00     0.159 C 
ATOM     10  O   UNL     1      -3.025  -6.627   5.619  1.00  0.00    -0.295 OA
ATOM     11  C   UNL     1      -2.765  -8.857   6.402  1.00  0.00     0.084 C 
ENDROOT
TORSDOF 0
ENDMDL
MODEL 6
REMARK VINA RESULT:    -3.509      8.051      9.507
REMARK INTER + INTRA:          -3.509
REMARK INTER:                  -3.509
REMARK INTRA:                   0.000
REMARK UNBOUND:                 0.000
REMARK SMILES CC(C)=C1CC[C@H](C)CC1=O
REMARK SMILES IDX 8 1 7 2 6 3 5 4 4 5 2 6 1 7 3 8 10 9 11 10 9 11
REMARK H PARENT
REMARK Flexibility Score: inf
ROOT
ATOM      1  C   UNL     1       4.461   3.441  -8.467  1.00  0.00     0.008 C 
ATOM      2  C   UNL     1       5.163   3.830  -7.155  1.00  0.00    -0.006 C 
ATOM      3  C   UNL     1       4.783   2.896  -5.993  1.00  0.00     0.008 C 
ATOM      4  C   UNL     1       5.302   1.461  -6.179  1.00  0.00     0.039 C 
ATOM      5  C   UNL     1       6.778   1.406  -6.549  1.00  0.00    -0.006 C 
ATOM      6  C   UNL     1       7.558   0.345  -6.186  1.00  0.00    -0.070 C 
ATOM      7  C   UNL     1       9.037   0.301  -6.496  1.00  0.00     0.039 C 
ATOM      8  C   UNL     1       6.984  -0.823  -5.418  1.00  0.00     0.039 C 
ATOM      9  C   UNL     1       7.283   2.506  -7.423  1.00  0.00     0.159 C 
ATOM     10  O   UNL     1       8.198   2.306  -8.265  1.00  0.00    -0.295 OA
ATOM     11  C   UNL     1       6.689   3.881  -7.320  1.00  0.00     0.084 C 
ENDROOT
TORSDOF 0
ENDMDL
MODEL 7
REMARK VINA RESULT:    -3.492      7.571      9.934
REMARK INTER + INTRA:          -3.492
REMARK INTER:                  -3.492
REMARK INTRA:                   0.000
REMARK UNBOUND:                 0.000
REMARK SMILES CC(C)=C1CC[C@H](C)CC1=O
REMARK SMILES IDX 8 1 7 2 6 3 5 4 4 5 2 6 1 7 3 8 10 9 11 10 9 11
REMARK H PARENT
REMARK Flexibility Score: inf
ROOT
ATOM      1  C   UNL     1       6.344   4.331  -6.746  1.00  0.00     0.008 C 
ATOM      2  C   UNL     1       4.931   3.726  -6.798  1.00  0.00    -0.006 C 
ATOM      3  C   UNL     1       4.531   3.303  -8.222  1.00  0.00     0.008 C 
ATOM      4  C   UNL     1       5.365   2.128  -8.758  1.00  0.00     0.039 C 
ATOM      5  C   UNL     1       5.452   0.965  -7.777  1.00  0.00    -0.006 C 
ATOM      6  C   UNL     1       5.586  -0.321  -8.217  1.00  0.00    -0.070 C 
ATOM      7  C   UNL     1       5.617  -1.490  -7.260  1.00  0.00     0.039 C 
ATOM      8  C   UNL     1       5.671  -0.639  -9.692  1.00  0.00     0.039 C 
ATOM      9  C   UNL     1       5.503   1.324  -6.329  1.00  0.00     0.159 C 
ATOM     10  O   UNL     1       6.153   0.627  -5.505  1.00  0.00    -0.295 OA
ATOM     11  C   UNL     1       4.783   2.543  -5.830  1.00  0.00     0.084 C 
ENDROOT
TORSDOF 0
ENDMDL
MODEL 8
REMARK VINA RESULT:    -3.434      8.196     10.394
REMARK INTER + INTRA:          -3.434
REMARK INTER:                  -3.434
REMARK INTRA:                   0.000
REMARK UNBOUND:                 0.000
REMARK SMILES CC(C)=C1CC[C@H](C)CC1=O
REMARK SMILES IDX 8 1 7 2 6 3 5 4 4 5 2 6 1 7 3 8 10 9 11 10 9 11
REMARK H PARENT
REMARK Flexibility Score: inf
ROOT
ATOM      1  C   UNL     1       8.156  -1.358  -8.340  1.00  0.00     0.008 C 
ATOM      2  C   UNL     1       7.253  -1.110  -7.121  1.00  0.00    -0.006 C 
ATOM      3  C   UNL     1       7.791   0.013  -6.216  1.00  0.00     0.008 C 
ATOM      4  C   UNL     1       7.751   1.396  -6.886  1.00  0.00     0.039 C 
ATOM      5  C   UNL     1       6.401   1.714  -7.515  1.00  0.00    -0.006 C 
ATOM      6  C   UNL     1       5.951   2.999  -7.609  1.00  0.00    -0.070 C 
ATOM      7  C   UNL     1       4.589   3.326  -8.180  1.00  0.00     0.039 C 
ATOM      8  C   UNL     1       6.780   4.159  -7.107  1.00  0.00     0.039 C 
ATOM      9  C   UNL     1       5.668   0.564  -8.124  1.00  0.00     0.159 C 
ATOM     10  O   UNL     1       4.937   0.717  -9.138  1.00  0.00    -0.295 OA
ATOM     11  C   UNL     1       5.805  -0.810  -7.536  1.00  0.00     0.084 C 
ENDROOT
TORSDOF 0
ENDMDL
