MODEL 1
REMARK VINA RESULT:    -4.351      0.000      0.000
REMARK INTER + INTRA:          -4.478
REMARK INTER:                  -4.478
REMARK INTRA:                   0.000
REMARK UNBOUND:                 0.000
REMARK SMILES O=c1ccc2ccc(O)cc2o1
REMARK SMILES IDX 6 1 7 2 8 3 10 4 11 5 5 6 4 7 3 8 2 9 1 10 12 11 9 12
REMARK H PARENT 9 13
REMARK Flexibility Score: inf
ROOT
ATOM      1  C   UNL     1      49.752  48.927  13.749  1.00  0.00     0.016 A 
ATOM      2  C   UNL     1      50.153  47.732  14.353  1.00  0.00     0.047 A 
ATOM      3  C   UNL     1      51.290  47.052  13.890  1.00  0.00     0.119 A 
ATOM      4  C   UNL     1      52.027  47.572  12.820  1.00  0.00     0.094 A 
ATOM      5  C   UNL     1      51.634  48.768  12.210  1.00  0.00     0.142 A 
ATOM      6  C   UNL     1      50.489  49.451  12.678  1.00  0.00     0.018 A 
ATOM      7  C   UNL     1      50.120  50.643  12.048  1.00  0.00     0.019 A 
ATOM      8  C   UNL     1      50.887  51.121  10.985  1.00  0.00     0.094 A 
ATOM      9  C   UNL     1      52.008  50.392  10.576  1.00  0.00     0.336 A 
ATOM     10  O   UNL     1      52.712  50.807   9.619  1.00  0.00    -0.246 OA
ATOM     11  O   UNL     1      52.337  49.259  11.192  1.00  0.00    -0.423 OA
ENDROOT
BRANCH   3  12
ATOM     12  O   UNL     1      51.695  45.860  14.487  1.00  0.00    -0.508 OA
ATOM     13  H   UNL     1      52.673  45.660  14.660  1.00  0.00     0.293 HD
ENDBRANCH   3  12
TORSDOF 1
ENDMDL
MODEL 2
REMARK VINA RESULT:    -4.321      0.847      4.230
REMARK INTER + INTRA:          -4.447
REMARK INTER:                  -4.447
REMARK INTRA:                   0.000
REMARK UNBOUND:                 0.000
REMARK SMILES O=c1ccc2ccc(O)cc2o1
REMARK SMILES IDX 6 1 7 2 8 3 10 4 11 5 5 6 4 7 3 8 2 9 1 10 12 11 9 12
REMARK H PARENT 9 13
REMARK Flexibility Score: inf
ROOT
ATOM      1  C   UNL     1      50.190  50.771  11.508  1.00  0.00     0.016 A 
ATOM      2  C   UNL     1      50.990  51.125  10.417  1.00  0.00     0.047 A 
ATOM      3  C   UNL     1      52.126  50.367  10.097  1.00  0.00     0.119 A 
ATOM      4  C   UNL     1      52.462  49.250  10.871  1.00  0.00     0.094 A 
ATOM      5  C   UNL     1      51.667  48.888  11.965  1.00  0.00     0.142 A 
ATOM      6  C   UNL     1      50.524  49.653  12.285  1.00  0.00     0.018 A 
ATOM      7  C   UNL     1      49.750  49.266  13.384  1.00  0.00     0.019 A 
ATOM      8  C   UNL     1      50.125  48.147  14.125  1.00  0.00     0.094 A 
ATOM      9  C   UNL     1      51.270  47.437  13.749  1.00  0.00     0.336 A 
ATOM     10  O   UNL     1      51.626  46.423  14.406  1.00  0.00    -0.246 OA
ATOM     11  O   UNL     1      51.990  47.826  12.700  1.00  0.00    -0.423 OA
ENDROOT
BRANCH   3  12
ATOM     12  O   UNL     1      52.927  50.714   9.011  1.00  0.00    -0.508 OA
ATOM     13  H   UNL     1      53.346  50.010   8.415  1.00  0.00     0.293 HD
ENDBRANCH   3  12
TORSDOF 1
ENDMDL
MODEL 3
REMARK VINA RESULT:    -4.027     13.917     14.996
REMARK INTER + INTRA:          -4.145
REMARK INTER:                  -4.145
REMARK INTRA:                   0.000
REMARK UNBOUND:                 0.000
REMARK SMILES O=c1ccc2ccc(O)cc2o1
REMARK SMILES IDX 6 1 7 2 8 3 10 4 11 5 5 6 4 7 3 8 2 9 1 10 12 11 9 12
REMARK H PARENT 9 13
REMARK Flexibility Score: inf
ROOT
ATOM      1  C   UNL     1      63.928  40.624  16.411  1.00  0.00     0.016 A 
ATOM      2  C   UNL     1      63.810  40.033  17.672  1.00  0.00     0.047 A 
ATOM      3  C   UNL     1      63.668  40.831  18.817  1.00  0.00     0.119 A 
ATOM      4  C   UNL     1      63.645  42.225  18.698  1.00  0.00     0.094 A 
ATOM      5  C   UNL     1      63.763  42.826  17.440  1.00  0.00     0.142 A 
ATOM      6  C   UNL     1      63.906  42.020  16.288  1.00  0.00     0.018 A 
ATOM      7  C   UNL     1      64.021  42.649  15.045  1.00  0.00     0.019 A 
ATOM      8  C   UNL     1      63.994  44.041  14.977  1.00  0.00     0.094 A 
ATOM      9  C   UNL     1      63.850  44.775  16.159  1.00  0.00     0.336 A 
ATOM     10  O   UNL     1      63.823  46.033  16.118  1.00  0.00    -0.246 OA
ATOM     11  O   UNL     1      63.742  44.153  17.330  1.00  0.00    -0.423 OA
ENDROOT
BRANCH   3  12
ATOM     12  O   UNL     1      63.549  40.249  20.077  1.00  0.00    -0.508 OA
ATOM     13  H   UNL     1      64.277  39.655  20.457  1.00  0.00     0.293 HD
ENDBRANCH   3  12
TORSDOF 1
ENDMDL
MODEL 4
REMARK VINA RESULT:    -3.995     13.661     14.974
REMARK INTER + INTRA:          -4.111
REMARK INTER:                  -4.111
REMARK INTRA:                   0.000
REMARK UNBOUND:                 0.000
REMARK SMILES O=c1ccc2ccc(O)cc2o1
REMARK SMILES IDX 6 1 7 2 8 3 10 4 11 5 5 6 4 7 3 8 2 9 1 10 12 11 9 12
REMARK H PARENT 9 13
REMARK Flexibility Score: inf
ROOT
ATOM      1  C   UNL     1      46.155  35.037   9.011  1.00  0.00     0.016 A 
ATOM      2  C   UNL     1      46.359  34.653   7.682  1.00  0.00     0.047 A 
ATOM      3  C   UNL     1      47.658  34.439   7.198  1.00  0.00     0.119 A 
ATOM      4  C   UNL     1      48.757  34.610   8.048  1.00  0.00     0.094 A 
ATOM      5  C   UNL     1      48.563  34.994   9.380  1.00  0.00     0.142 A 
ATOM      6  C   UNL     1      47.253  35.209   9.865  1.00  0.00     0.018 A 
ATOM      7  C   UNL     1      47.092  35.592  11.199  1.00  0.00     0.019 A 
ATOM      8  C   UNL     1      48.217  35.750  12.007  1.00  0.00     0.094 A 
ATOM      9  C   UNL     1      49.483  35.519  11.459  1.00  0.00     0.336 A 
ATOM     10  O   UNL     1      50.511  35.657  12.173  1.00  0.00    -0.246 OA
ATOM     11  O   UNL     1      49.610  35.157  10.186  1.00  0.00    -0.423 OA
ENDROOT
BRANCH   3  12
ATOM     12  O   UNL     1      47.868  34.056   5.875  1.00  0.00    -0.508 OA
ATOM     13  H   UNL     1      48.801  33.918   5.505  1.00  0.00     0.293 HD
ENDBRANCH   3  12
TORSDOF 1
ENDMDL
MODEL 5
REMARK VINA RESULT:    -3.978     15.800     17.293
REMARK INTER + INTRA:          -4.094
REMARK INTER:                  -4.094
REMARK INTRA:                   0.000
REMARK UNBOUND:                 0.000
REMARK SMILES O=c1ccc2ccc(O)cc2o1
REMARK SMILES IDX 6 1 7 2 8 3 10 4 11 5 5 6 4 7 3 8 2 9 1 10 12 11 9 12
REMARK H PARENT 9 13
REMARK Flexibility Score: inf
ROOT
ATOM      1  C   UNL     1      60.633  33.806  15.333  1.00  0.00     0.016 A 
ATOM      2  C   UNL     1      61.844  33.926  14.645  1.00  0.00     0.047 A 
ATOM      3  C   UNL     1      61.853  34.228  13.275  1.00  0.00     0.119 A 
ATOM      4  C   UNL     1      60.645  34.410  12.592  1.00  0.00     0.094 A 
ATOM      5  C   UNL     1      59.428  34.293  13.273  1.00  0.00     0.142 A 
ATOM      6  C   UNL     1      59.421  33.989  14.652  1.00  0.00     0.018 A 
ATOM      7  C   UNL     1      58.190  33.877  15.304  1.00  0.00     0.019 A 
ATOM      8  C   UNL     1      57.013  34.068  14.581  1.00  0.00     0.094 A 
ATOM      9  C   UNL     1      57.096  34.367  13.217  1.00  0.00     0.336 A 
ATOM     10  O   UNL     1      56.044  34.541  12.547  1.00  0.00    -0.246 OA
ATOM     11  O   UNL     1      58.280  34.466  12.620  1.00  0.00    -0.423 OA
ENDROOT
BRANCH   3  12
ATOM     12  O   UNL     1      63.056  34.349  12.584  1.00  0.00    -0.508 OA
ATOM     13  H   UNL     1      63.760  33.620  12.613  1.00  0.00     0.293 HD
ENDBRANCH   3  12
TORSDOF 1
ENDMDL
MODEL 6
REMARK VINA RESULT:    -3.974     13.972     15.571
REMARK INTER + INTRA:          -4.091
REMARK INTER:                  -4.091
REMARK INTRA:                   0.000
REMARK UNBOUND:                 0.000
REMARK SMILES O=c1ccc2ccc(O)cc2o1
REMARK SMILES IDX 6 1 7 2 8 3 10 4 11 5 5 6 4 7 3 8 2 9 1 10 12 11 9 12
REMARK H PARENT 9 13
REMARK Flexibility Score: inf
ROOT
ATOM      1  C   UNL     1      64.051  42.700  15.017  1.00  0.00     0.016 A 
ATOM      2  C   UNL     1      64.055  44.097  14.952  1.00  0.00     0.047 A 
ATOM      3  C   UNL     1      63.948  44.860  16.124  1.00  0.00     0.119 A 
ATOM      4  C   UNL     1      63.837  44.223  17.365  1.00  0.00     0.094 A 
ATOM      5  C   UNL     1      63.832  42.826  17.441  1.00  0.00     0.142 A 
ATOM      6  C   UNL     1      63.940  42.059  16.259  1.00  0.00     0.018 A 
ATOM      7  C   UNL     1      63.932  40.665  16.367  1.00  0.00     0.019 A 
ATOM      8  C   UNL     1      63.818  40.077  17.626  1.00  0.00     0.094 A 
ATOM      9  C   UNL     1      63.715  40.899  18.752  1.00  0.00     0.336 A 
ATOM     10  O   UNL     1      63.611  40.386  19.897  1.00  0.00    -0.246 OA
ATOM     11  O   UNL     1      63.724  42.223  18.623  1.00  0.00    -0.423 OA
ENDROOT
BRANCH   3  12
ATOM     12  O   UNL     1      63.952  46.253  16.065  1.00  0.00    -0.508 OA
ATOM     13  H   UNL     1      64.801  46.772  15.880  1.00  0.00     0.293 HD
ENDBRANCH   3  12
TORSDOF 1
ENDMDL
MODEL 7
REMARK VINA RESULT:    -3.967      1.952      5.122
REMARK INTER + INTRA:          -4.083
REMARK INTER:                  -4.083
REMARK INTRA:                   0.000
REMARK UNBOUND:                 0.000
REMARK SMILES O=c1ccc2ccc(O)cc2o1
REMARK SMILES IDX 6 1 7 2 8 3 10 4 11 5 5 6 4 7 3 8 2 9 1 10 12 11 9 12
REMARK H PARENT 9 13
REMARK Flexibility Score: inf
ROOT
ATOM      1  C   UNL     1      52.154  47.348  12.924  1.00  0.00     0.016 A 
ATOM      2  C   UNL     1      52.251  48.606  12.320  1.00  0.00     0.047 A 
ATOM      3  C   UNL     1      51.251  49.568  12.526  1.00  0.00     0.119 A 
ATOM      4  C   UNL     1      50.152  49.270  13.339  1.00  0.00     0.094 A 
ATOM      5  C   UNL     1      50.047  48.015  13.948  1.00  0.00     0.142 A 
ATOM      6  C   UNL     1      51.054  47.047  13.739  1.00  0.00     0.018 A 
ATOM      7  C   UNL     1      50.921  45.802  14.360  1.00  0.00     0.019 A 
ATOM      8  C   UNL     1      49.807  45.552  15.161  1.00  0.00     0.094 A 
ATOM      9  C   UNL     1      48.849  46.558  15.322  1.00  0.00     0.336 A 
ATOM     10  O   UNL     1      47.836  46.352  16.041  1.00  0.00    -0.246 OA
ATOM     11  O   UNL     1      48.999  47.735  14.720  1.00  0.00    -0.423 OA
ENDROOT
BRANCH   3  12
ATOM     12  O   UNL     1      51.342  50.823  11.928  1.00  0.00    -0.508 OA
ATOM     13  H   UNL     1      51.929  51.553  12.314  1.00  0.00     0.293 HD
ENDBRANCH   3  12
TORSDOF 1
ENDMDL
MODEL 8
REMARK VINA RESULT:    -3.909     16.610     18.360
REMARK INTER + INTRA:          -4.023
REMARK INTER:                  -4.023
REMARK INTRA:                   0.000
REMARK UNBOUND:                 0.000
REMARK SMILES O=c1ccc2ccc(O)cc2o1
REMARK SMILES IDX 6 1 7 2 8 3 10 4 11 5 5 6 4 7 3 8 2 9 1 10 12 11 9 12
REMARK H PARENT 9 13
REMARK Flexibility Score: inf
ROOT
ATOM      1  C   UNL     1      59.652  33.744  15.073  1.00  0.00     0.016 A 
ATOM      2  C   UNL     1      58.682  34.013  14.102  1.00  0.00     0.047 A 
ATOM      3  C   UNL     1      59.063  34.320  12.788  1.00  0.00     0.119 A 
ATOM      4  C   UNL     1      60.419  34.358  12.444  1.00  0.00     0.094 A 
ATOM      5  C   UNL     1      61.397  34.090  13.408  1.00  0.00     0.142 A 
ATOM      6  C   UNL     1      61.011  33.781  14.732  1.00  0.00     0.018 A 
ATOM      7  C   UNL     1      62.010  33.518  15.673  1.00  0.00     0.019 A 
ATOM      8  C   UNL     1      63.348  33.568  15.282  1.00  0.00     0.094 A 
ATOM      9  C   UNL     1      63.656  33.881  13.954  1.00  0.00     0.336 A 
ATOM     10  O   UNL     1      64.858  33.932  13.583  1.00  0.00    -0.246 OA
ATOM     11  O   UNL     1      62.686  34.128  13.078  1.00  0.00    -0.423 OA
ENDROOT
BRANCH   3  12
ATOM     12  O   UNL     1      58.101  34.589  11.816  1.00  0.00    -0.508 OA
ATOM     13  H   UNL     1      57.788  35.534  11.627  1.00  0.00     0.293 HD
ENDBRANCH   3  12
TORSDOF 1
ENDMDL
