MODEL 1
REMARK VINA RESULT:    -5.024      0.000      0.000
REMARK INTER + INTRA:          -8.450
REMARK INTER:                  -7.667
REMARK INTRA:                  -0.782
REMARK UNBOUND:                -0.782
REMARK SMILES O=C([O-])CCCCCCCCC(=O)[O-]
REMARK SMILES IDX 7 1 6 2 5 3 4 4 2 5 1 6 3 7 8 8 9 9 10 10 11 11 12 12 13 13
REMARK SMILES IDX 14 14
REMARK H PARENT
REMARK Flexibility Score: inf
ROOT
ATOM      1  C   UNL     1      94.472  -4.767  10.211  1.00  0.00     0.000 C 
ENDROOT
BRANCH   1   2
ATOM      2  C   UNL     1      93.475  -3.747   9.624  1.00  0.00     0.000 C 
BRANCH   2   3
ATOM      3  C   UNL     1      93.399  -3.722   8.085  1.00  0.00     0.006 C 
BRANCH   3   4
ATOM      4  C   UNL     1      93.625  -2.336   7.460  1.00  0.00     0.053 C 
BRANCH   4   5
ATOM      5  C   UNL     1      92.395  -1.822   6.776  1.00  0.00     0.041 C 
ATOM      6  O   UNL     1      92.386  -0.667   6.276  1.00  0.00    -0.550 OA
ATOM      7  O   UNL     1      91.249  -2.605   6.722  1.00  0.00    -0.550 OA
ENDBRANCH   4   5
ENDBRANCH   3   4
ENDBRANCH   2   3
ENDBRANCH   1   2
BRANCH   1   8
ATOM      8  C   UNL     1      95.612  -4.158  11.051  1.00  0.00     0.000 C 
BRANCH   8   9
ATOM      9  C   UNL     1      96.978  -4.098  10.345  1.00  0.00     0.000 C 
BRANCH   9  10
ATOM     10  C   UNL     1      97.042  -3.012   9.260  1.00  0.00     0.006 C 
BRANCH  10  11
ATOM     11  C   UNL     1      97.143  -3.636   7.866  1.00  0.00     0.053 C 
BRANCH  11  12
ATOM     12  C   UNL     1      98.279  -3.032   7.103  1.00  0.00     0.041 C 
ATOM     13  O   UNL     1      98.761  -1.923   7.453  1.00  0.00    -0.550 OA
ATOM     14  O   UNL     1      98.776  -3.671   5.974  1.00  0.00    -0.550 OA
ENDBRANCH  11  12
ENDBRANCH  10  11
ENDBRANCH   9  10
ENDBRANCH   8   9
ENDBRANCH   1   8
TORSDOF 9
ENDMDL
MODEL 2
REMARK VINA RESULT:    -5.019      3.098      4.166
REMARK INTER + INTRA:          -8.442
REMARK INTER:                  -7.643
REMARK INTRA:                  -0.799
REMARK UNBOUND:                -0.782
REMARK SMILES O=C([O-])CCCCCCCCC(=O)[O-]
REMARK SMILES IDX 7 1 6 2 5 3 4 4 2 5 1 6 3 7 8 8 9 9 10 10 11 11 12 12 13 13
REMARK SMILES IDX 14 14
REMARK H PARENT
REMARK Flexibility Score: inf
ROOT
ATOM      1  C   UNL     1      94.697  -4.128   8.311  1.00  0.00     0.000 C 
ENDROOT
BRANCH   1   2
ATOM      2  C   UNL     1      94.149  -4.145   9.752  1.00  0.00     0.000 C 
BRANCH   2   3
ATOM      3  C   UNL     1      95.034  -4.881  10.778  1.00  0.00     0.006 C 
BRANCH   3   4
ATOM      4  C   UNL     1      96.500  -4.419  10.799  1.00  0.00     0.053 C 
BRANCH   4   5
ATOM      5  C   UNL     1      96.626  -2.969  11.151  1.00  0.00     0.041 C 
ATOM      6  O   UNL     1      97.435  -2.234  10.526  1.00  0.00    -0.550 OA
ATOM      7  O   UNL     1      95.875  -2.437  12.191  1.00  0.00    -0.550 OA
ENDBRANCH   4   5
ENDBRANCH   3   4
ENDBRANCH   2   3
ENDBRANCH   1   2
BRANCH   1   8
ATOM      8  C   UNL     1      95.049  -2.731   7.761  1.00  0.00     0.000 C 
BRANCH   8   9
ATOM      9  C   UNL     1      96.469  -2.600   7.181  1.00  0.00     0.000 C 
BRANCH   9  10
ATOM     10  C   UNL     1      97.234  -3.932   7.168  1.00  0.00     0.006 C 
BRANCH  10  11
ATOM     11  C   UNL     1      98.607  -3.768   6.511  1.00  0.00     0.053 C 
BRANCH  11  12
ATOM     12  C   UNL     1      99.134  -5.093   6.060  1.00  0.00     0.041 C 
ATOM     13  O   UNL     1      98.820  -5.550   4.930  1.00  0.00    -0.550 OA
ATOM     14  O   UNL     1      99.933  -5.849   6.909  1.00  0.00    -0.550 OA
ENDBRANCH  11  12
ENDBRANCH  10  11
ENDBRANCH   9  10
ENDBRANCH   8   9
ENDBRANCH   1   8
TORSDOF 9
ENDMDL
MODEL 3
REMARK VINA RESULT:    -4.985     10.338     14.104
REMARK INTER + INTRA:          -8.390
REMARK INTER:                  -7.670
REMARK INTRA:                  -0.720
REMARK UNBOUND:                -0.782
REMARK SMILES O=C([O-])CCCCCCCCC(=O)[O-]
REMARK SMILES IDX 7 1 6 2 5 3 4 4 2 5 1 6 3 7 8 8 9 9 10 10 11 11 12 12 13 13
REMARK SMILES IDX 14 14
REMARK H PARENT
REMARK Flexibility Score: inf
ROOT
ATOM      1  C   UNL     1      83.550  -3.638   3.235  1.00  0.00     0.000 C 
ENDROOT
BRANCH   1   2
ATOM      2  C   UNL     1      84.187  -2.247   3.039  1.00  0.00     0.000 C 
BRANCH   2   3
ATOM      3  C   UNL     1      85.284  -2.180   1.959  1.00  0.00     0.006 C 
BRANCH   3   4
ATOM      4  C   UNL     1      86.685  -2.577   2.450  1.00  0.00     0.053 C 
BRANCH   4   5
ATOM      5  C   UNL     1      87.763  -2.055   1.551  1.00  0.00     0.041 C 
ATOM      6  O   UNL     1      88.807  -2.732   1.356  1.00  0.00    -0.550 OA
ATOM      7  O   UNL     1      87.632  -0.807   0.956  1.00  0.00    -0.550 OA
ENDBRANCH   4   5
ENDBRANCH   3   4
ENDBRANCH   2   3
ENDBRANCH   1   2
BRANCH   1   8
ATOM      8  C   UNL     1      82.449  -4.003   2.219  1.00  0.00     0.000 C 
BRANCH   8   9
ATOM      9  C   UNL     1      81.119  -3.251   2.404  1.00  0.00     0.000 C 
BRANCH   9  10
ATOM     10  C   UNL     1      80.631  -2.574   1.115  1.00  0.00     0.006 C 
BRANCH  10  11
ATOM     11  C   UNL     1      81.809  -2.230   0.198  1.00  0.00     0.053 C 
BRANCH  11  12
ATOM     12  C   UNL     1      82.092  -0.762   0.236  1.00  0.00     0.041 C 
ATOM     13  O   UNL     1      82.469  -0.161  -0.804  1.00  0.00    -0.550 OA
ATOM     14  O   UNL     1      81.987  -0.065   1.433  1.00  0.00    -0.550 OA
ENDBRANCH  11  12
ENDBRANCH  10  11
ENDBRANCH   9  10
ENDBRANCH   8   9
ENDBRANCH   1   8
TORSDOF 9
ENDMDL
MODEL 4
REMARK VINA RESULT:    -4.967     10.748     14.425
REMARK INTER + INTRA:          -8.363
REMARK INTER:                  -7.632
REMARK INTRA:                  -0.730
REMARK UNBOUND:                -0.782
REMARK SMILES O=C([O-])CCCCCCCCC(=O)[O-]
REMARK SMILES IDX 7 1 6 2 5 3 4 4 2 5 1 6 3 7 8 8 9 9 10 10 11 11 12 12 13 13
REMARK SMILES IDX 14 14
REMARK H PARENT
REMARK Flexibility Score: inf
ROOT
ATOM      1  C   UNL     1      81.132  -3.365   2.844  1.00  0.00     0.000 C 
ENDROOT
BRANCH   1   2
ATOM      2  C   UNL     1      82.524  -4.019   2.733  1.00  0.00     0.000 C 
BRANCH   2   3
ATOM      3  C   UNL     1      83.657  -3.270   3.463  1.00  0.00     0.006 C 
BRANCH   3   4
ATOM      4  C   UNL     1      84.706  -2.642   2.531  1.00  0.00     0.053 C 
BRANCH   4   5
ATOM      5  C   UNL     1      86.052  -2.556   3.181  1.00  0.00     0.041 C 
ATOM      6  O   UNL     1      87.096  -2.541   2.475  1.00  0.00    -0.550 OA
ATOM      7  O   UNL     1      86.158  -2.526   4.565  1.00  0.00    -0.550 OA
ENDBRANCH   4   5
ENDBRANCH   3   4
ENDBRANCH   2   3
ENDBRANCH   1   2
BRANCH   1   8
ATOM      8  C   UNL     1      80.497  -2.947   1.502  1.00  0.00     0.000 C 
BRANCH   8   9
ATOM      9  C   UNL     1      81.359  -3.232   0.259  1.00  0.00     0.000 C 
BRANCH   9  10
ATOM     10  C   UNL     1      82.014  -1.967  -0.316  1.00  0.00     0.006 C 
BRANCH  10  11
ATOM     11  C   UNL     1      81.928  -0.806   0.677  1.00  0.00     0.053 C 
BRANCH  11  12
ATOM     12  C   UNL     1      82.947   0.239   0.352  1.00  0.00     0.041 C 
ATOM     13  O   UNL     1      84.170  -0.057   0.317  1.00  0.00    -0.550 OA
ATOM     14  O   UNL     1      82.552   1.553   0.135  1.00  0.00    -0.550 OA
ENDBRANCH  11  12
ENDBRANCH  10  11
ENDBRANCH   9  10
ENDBRANCH   8   9
ENDBRANCH   1   8
TORSDOF 9
ENDMDL
MODEL 5
REMARK VINA RESULT:    -4.955      0.478      5.130
REMARK INTER + INTRA:          -8.345
REMARK INTER:                  -7.496
REMARK INTRA:                  -0.849
REMARK UNBOUND:                -0.782
REMARK SMILES O=C([O-])CCCCCCCCC(=O)[O-]
REMARK SMILES IDX 7 1 6 2 5 3 4 4 2 5 1 6 3 7 8 8 9 9 10 10 11 11 12 12 13 13
REMARK SMILES IDX 14 14
REMARK H PARENT
REMARK Flexibility Score: inf
ROOT
ATOM      1  C   UNL     1      95.675  -4.673  10.362  1.00  0.00     0.000 C 
ENDROOT
BRANCH   1   2
ATOM      2  C   UNL     1      96.132  -3.222  10.612  1.00  0.00     0.000 C 
BRANCH   2   3
ATOM      3  C   UNL     1      97.161  -2.679   9.601  1.00  0.00     0.006 C 
BRANCH   3   4
ATOM      4  C   UNL     1      97.147  -3.389   8.237  1.00  0.00     0.053 C 
BRANCH   4   5
ATOM      5  C   UNL     1      98.213  -2.868   7.324  1.00  0.00     0.041 C 
ATOM      6  O   UNL     1      98.830  -1.808   7.610  1.00  0.00    -0.550 OA
ATOM      7  O   UNL     1      98.503  -3.535   6.139  1.00  0.00    -0.550 OA
ENDBRANCH   4   5
ENDBRANCH   3   4
ENDBRANCH   2   3
ENDBRANCH   1   2
BRANCH   1   8
ATOM      8  C   UNL     1      94.157  -4.856  10.161  1.00  0.00     0.000 C 
BRANCH   8   9
ATOM      9  C   UNL     1      93.432  -3.644   9.549  1.00  0.00     0.000 C 
BRANCH   9  10
ATOM     10  C   UNL     1      93.354  -3.707   8.016  1.00  0.00     0.006 C 
BRANCH  10  11
ATOM     11  C   UNL     1      93.589  -2.326   7.398  1.00  0.00     0.053 C 
BRANCH  11  12
ATOM     12  C   UNL     1      92.319  -1.788   6.820  1.00  0.00     0.041 C 
ATOM     13  O   UNL     1      91.310  -2.531   6.703  1.00  0.00    -0.550 OA
ATOM     14  O   UNL     1      92.264  -0.476   6.364  1.00  0.00    -0.550 OA
ENDBRANCH  11  12
ENDBRANCH  10  11
ENDBRANCH   9  10
ENDBRANCH   8   9
ENDBRANCH   1   8
TORSDOF 9
ENDMDL
MODEL 6
REMARK VINA RESULT:    -4.932      9.941     13.074
REMARK INTER + INTRA:          -8.310
REMARK INTER:                  -7.667
REMARK INTRA:                  -0.643
REMARK UNBOUND:                -0.782
REMARK SMILES O=C([O-])CCCCCCCCC(=O)[O-]
REMARK SMILES IDX 7 1 6 2 5 3 4 4 2 5 1 6 3 7 8 8 9 9 10 10 11 11 12 12 13 13
REMARK SMILES IDX 14 14
REMARK H PARENT
REMARK Flexibility Score: inf
ROOT
ATOM      1  C   UNL     1      81.377  -3.579   2.510  1.00  0.00     0.000 C 
ENDROOT
BRANCH   1   2
ATOM      2  C   UNL     1      81.714  -3.810   1.022  1.00  0.00     0.000 C 
BRANCH   2   3
ATOM      3  C   UNL     1      81.405  -2.620   0.092  1.00  0.00     0.006 C 
BRANCH   3   4
ATOM      4  C   UNL     1      81.559  -1.241   0.752  1.00  0.00     0.053 C 
BRANCH   4   5
ATOM      5  C   UNL     1      82.694  -0.461   0.163  1.00  0.00     0.041 C 
ATOM      6  O   UNL     1      83.835  -0.505   0.695  1.00  0.00    -0.550 OA
ATOM      7  O   UNL     1      82.485   0.339  -0.953  1.00  0.00    -0.550 OA
ENDBRANCH   4   5
ENDBRANCH   3   4
ENDBRANCH   2   3
ENDBRANCH   1   2
BRANCH   1   8
ATOM      8  C   UNL     1      82.597  -3.435   3.442  1.00  0.00     0.000 C 
BRANCH   8   9
ATOM      9  C   UNL     1      83.962  -3.437   2.731  1.00  0.00     0.000 C 
BRANCH   9  10
ATOM     10  C   UNL     1      85.008  -2.567   3.444  1.00  0.00     0.006 C 
BRANCH  10  11
ATOM     11  C   UNL     1      86.375  -2.686   2.764  1.00  0.00     0.053 C 
BRANCH  11  12
ATOM     12  C   UNL     1      87.474  -2.498   3.760  1.00  0.00     0.041 C 
ATOM     13  O   UNL     1      88.605  -2.089   3.388  1.00  0.00    -0.550 OA
ATOM     14  O   UNL     1      87.266  -2.823   5.095  1.00  0.00    -0.550 OA
ENDBRANCH  11  12
ENDBRANCH  10  11
ENDBRANCH   9  10
ENDBRANCH   8   9
ENDBRANCH   1   8
TORSDOF 9
ENDMDL
MODEL 7
REMARK VINA RESULT:    -4.906      9.378     12.209
REMARK INTER + INTRA:          -8.270
REMARK INTER:                  -7.862
REMARK INTRA:                  -0.408
REMARK UNBOUND:                -0.782
REMARK SMILES O=C([O-])CCCCCCCCC(=O)[O-]
REMARK SMILES IDX 7 1 6 2 5 3 4 4 2 5 1 6 3 7 8 8 9 9 10 10 11 11 12 12 13 13
REMARK SMILES IDX 14 14
REMARK H PARENT
REMARK Flexibility Score: inf
ROOT
ATOM      1  C   UNL     1      83.866  -2.992   3.350  1.00  0.00     0.000 C 
ENDROOT
BRANCH   1   2
ATOM      2  C   UNL     1      82.735  -3.804   2.686  1.00  0.00     0.000 C 
BRANCH   2   3
ATOM      3  C   UNL     1      81.334  -3.168   2.780  1.00  0.00     0.006 C 
BRANCH   3   4
ATOM      4  C   UNL     1      80.586  -3.077   1.440  1.00  0.00     0.053 C 
BRANCH   4   5
ATOM      5  C   UNL     1      81.346  -2.278   0.427  1.00  0.00     0.041 C 
ATOM      6  O   UNL     1      81.601  -2.768  -0.705  1.00  0.00    -0.550 OA
ATOM      7  O   UNL     1      81.802  -1.004   0.743  1.00  0.00    -0.550 OA
ENDBRANCH   4   5
ENDBRANCH   3   4
ENDBRANCH   2   3
ENDBRANCH   1   2
BRANCH   1   8
ATOM      8  C   UNL     1      84.854  -2.326   2.371  1.00  0.00     0.000 C 
BRANCH   8   9
ATOM      9  C   UNL     1      86.335  -2.673   2.606  1.00  0.00     0.000 C 
BRANCH   9  10
ATOM     10  C   UNL     1      87.285  -1.890   1.688  1.00  0.00     0.006 C 
BRANCH  10  11
ATOM     11  C   UNL     1      88.595  -2.654   1.476  1.00  0.00     0.053 C 
BRANCH  11  12
ATOM     12  C   UNL     1      89.525  -2.428   2.626  1.00  0.00     0.041 C 
ATOM     13  O   UNL     1      90.272  -1.414   2.648  1.00  0.00    -0.550 OA
ATOM     14  O   UNL     1      89.605  -3.362   3.651  1.00  0.00    -0.550 OA
ENDBRANCH  11  12
ENDBRANCH  10  11
ENDBRANCH   9  10
ENDBRANCH   8   9
ENDBRANCH   1   8
TORSDOF 9
ENDMDL
MODEL 8
REMARK VINA RESULT:    -4.897      2.006      6.208
REMARK INTER + INTRA:          -8.255
REMARK INTER:                  -7.859
REMARK INTRA:                  -0.397
REMARK UNBOUND:                -0.782
REMARK SMILES O=C([O-])CCCCCCCCC(=O)[O-]
REMARK SMILES IDX 7 1 6 2 5 3 4 4 2 5 1 6 3 7 8 8 9 9 10 10 11 11 12 12 13 13
REMARK SMILES IDX 14 14
REMARK H PARENT
REMARK Flexibility Score: inf
ROOT
ATOM      1  C   UNL     1      93.497  -3.955   8.740  1.00  0.00     0.000 C 
ENDROOT
BRANCH   1   2
ATOM      2  C   UNL     1      94.035  -3.844  10.182  1.00  0.00     0.000 C 
BRANCH   2   3
ATOM      3  C   UNL     1      95.131  -4.864  10.549  1.00  0.00     0.006 C 
BRANCH   3   4
ATOM      4  C   UNL     1      96.427  -4.237  11.089  1.00  0.00     0.053 C 
BRANCH   4   5
ATOM      5  C   UNL     1      96.863  -3.060  10.272  1.00  0.00     0.041 C 
ATOM      6  O   UNL     1      96.889  -1.909  10.783  1.00  0.00    -0.550 OA
ATOM      7  O   UNL     1      97.210  -3.228   8.937  1.00  0.00    -0.550 OA
ENDBRANCH   4   5
ENDBRANCH   3   4
ENDBRANCH   2   3
ENDBRANCH   1   2
BRANCH   1   8
ATOM      8  C   UNL     1      93.666  -2.688   7.879  1.00  0.00     0.000 C 
BRANCH   8   9
ATOM      9  C   UNL     1      92.405  -2.251   7.111  1.00  0.00     0.000 C 
BRANCH   9  10
ATOM     10  C   UNL     1      92.598  -0.933   6.346  1.00  0.00     0.006 C 
BRANCH  10  11
ATOM     11  C   UNL     1      91.641  -0.847   5.154  1.00  0.00     0.053 C 
BRANCH  11  12
ATOM     12  C   UNL     1      90.357  -0.197   5.559  1.00  0.00     0.041 C 
ATOM     13  O   UNL     1      90.339   1.015   5.900  1.00  0.00    -0.550 OA
ATOM     14  O   UNL     1      89.185  -0.941   5.608  1.00  0.00    -0.550 OA
ENDBRANCH  11  12
ENDBRANCH  10  11
ENDBRANCH   9  10
ENDBRANCH   8   9
ENDBRANCH   1   8
TORSDOF 9
ENDMDL
MODEL 9
REMARK VINA RESULT:    -4.889     11.988     14.960
REMARK INTER + INTRA:          -8.243
REMARK INTER:                  -7.541
REMARK INTRA:                  -0.702
REMARK UNBOUND:                -0.782
REMARK SMILES O=C([O-])CCCCCCCCC(=O)[O-]
REMARK SMILES IDX 7 1 6 2 5 3 4 4 2 5 1 6 3 7 8 8 9 9 10 10 11 11 12 12 13 13
REMARK SMILES IDX 14 14
REMARK H PARENT
REMARK Flexibility Score: inf
ROOT
ATOM      1  C   UNL     1      81.651  -2.634  -0.021  1.00  0.00     0.000 C 
ENDROOT
BRANCH   1   2
ATOM      2  C   UNL     1      82.158  -1.232  -0.417  1.00  0.00     0.000 C 
BRANCH   2   3
ATOM      3  C   UNL     1      81.951  -0.138   0.649  1.00  0.00     0.006 C 
BRANCH   3   4
ATOM      4  C   UNL     1      82.307   1.281   0.180  1.00  0.00     0.053 C 
BRANCH   4   5
ATOM      5  C   UNL     1      81.456   2.320   0.843  1.00  0.00     0.041 C 
ATOM      6  O   UNL     1      81.992   3.267   1.477  1.00  0.00    -0.550 OA
ATOM      7  O   UNL     1      80.071   2.225   0.790  1.00  0.00    -0.550 OA
ENDBRANCH   4   5
ENDBRANCH   3   4
ENDBRANCH   2   3
ENDBRANCH   1   2
BRANCH   1   8
ATOM      8  C   UNL     1      80.607  -2.656   1.113  1.00  0.00     0.000 C 
BRANCH   8   9
ATOM      9  C   UNL     1      81.052  -3.386   2.393  1.00  0.00     0.000 C 
BRANCH   9  10
ATOM     10  C   UNL     1      82.512  -3.859   2.333  1.00  0.00     0.006 C 
BRANCH  10  11
ATOM     11  C   UNL     1      83.283  -3.415   3.580  1.00  0.00     0.053 C 
BRANCH  11  12
ATOM     12  C   UNL     1      84.498  -2.633   3.194  1.00  0.00     0.041 C 
ATOM     13  O   UNL     1      85.373  -2.356   4.055  1.00  0.00    -0.550 OA
ATOM     14  O   UNL     1      84.640  -2.165   1.894  1.00  0.00    -0.550 OA
ENDBRANCH  11  12
ENDBRANCH  10  11
ENDBRANCH   9  10
ENDBRANCH   8   9
ENDBRANCH   1   8
TORSDOF 9
ENDMDL
