MODEL 1
REMARK VINA RESULT:    -4.824      0.000      0.000
REMARK INTER + INTRA:          -6.322
REMARK INTER:                  -5.811
REMARK INTRA:                  -0.511
REMARK UNBOUND:                -0.511
REMARK SMILES CCCCc1oc(O)c2ccccc12
REMARK SMILES IDX 4 1 5 2 7 3 6 4 9 5 14 6 10 7 13 8 11 9 12 10 8 11 3 13 2 14
REMARK SMILES IDX 1 15
REMARK H PARENT 8 12
REMARK Flexibility Score: inf
ROOT
ATOM      1  C   UNL     1      16.170  42.477  61.143  1.00  0.00     0.076 C 
ENDROOT
BRANCH   1   2
ATOM      2  C   UNL     1      17.589  42.071  60.888  1.00  0.00     0.116 A 
ATOM      3  C   UNL     1      19.345  41.457  59.822  1.00  0.00     0.290 A 
ATOM      4  O   UNL     1      18.060  41.731  59.701  1.00  0.00    -0.430 OA
ATOM      5  C   UNL     1      19.736  41.627  61.130  1.00  0.00     0.066 A 
ATOM      6  C   UNL     1      18.617  42.021  61.814  1.00  0.00     0.027 A 
ATOM      7  C   UNL     1      20.970  41.474  61.757  1.00  0.00     0.016 A 
ATOM      8  C   UNL     1      18.653  42.297  63.180  1.00  0.00     0.012 A 
ATOM      9  C   UNL     1      21.038  41.742  63.138  1.00  0.00     0.001 A 
ATOM     10  C   UNL     1      19.885  42.152  63.846  1.00  0.00     0.001 A 
BRANCH   3  11
ATOM     11  O   UNL     1      20.166  41.060  58.773  1.00  0.00    -0.480 OA
ATOM     12  H   UNL     1      20.666  41.748  58.226  1.00  0.00     0.297 HD
ENDBRANCH   3  11
ENDBRANCH   1   2
BRANCH   1  13
ATOM     13  C   UNL     1      15.378  41.307  61.742  1.00  0.00     0.008 C 
BRANCH  13  14
ATOM     14  C   UNL     1      15.037  41.525  63.224  1.00  0.00    -0.003 C 
ATOM     15  C   UNL     1      14.996  43.003  63.611  1.00  0.00     0.004 C 
ENDBRANCH  13  14
ENDBRANCH   1  13
TORSDOF 4
ENDMDL
MODEL 2
REMARK VINA RESULT:    -4.690     17.074     19.281
REMARK INTER + INTRA:          -6.160
REMARK INTER:                  -5.651
REMARK INTRA:                  -0.509
REMARK UNBOUND:                -0.511
REMARK SMILES CCCCc1oc(O)c2ccccc12
REMARK SMILES IDX 4 1 5 2 7 3 6 4 9 5 14 6 10 7 13 8 11 9 12 10 8 11 3 13 2 14
REMARK SMILES IDX 1 15
REMARK H PARENT 8 12
REMARK Flexibility Score: inf
ROOT
ATOM      1  C   UNL     1       7.989  43.634  48.567  1.00  0.00     0.076 C 
ENDROOT
BRANCH   1   2
ATOM      2  C   UNL     1       6.569  43.172  48.678  1.00  0.00     0.116 A 
ATOM      3  C   UNL     1       4.770  42.385  49.540  1.00  0.00     0.290 A 
ATOM      4  O   UNL     1       6.039  42.662  49.776  1.00  0.00    -0.430 OA
ATOM      5  C   UNL     1       4.451  42.727  48.247  1.00  0.00     0.066 A 
ATOM      6  C   UNL     1       5.597  43.233  47.693  1.00  0.00     0.027 A 
ATOM      7  C   UNL     1       3.260  42.641  47.531  1.00  0.00     0.016 A 
ATOM      8  C   UNL     1       5.633  43.694  46.378  1.00  0.00     0.012 A 
ATOM      9  C   UNL     1       3.264  43.096  46.199  1.00  0.00     0.001 A 
ATOM     10  C   UNL     1       4.445  43.622  45.625  1.00  0.00     0.001 A 
BRANCH   3  11
ATOM     11  O   UNL     1       3.901  41.832  50.474  1.00  0.00    -0.480 OA
ATOM     12  H   UNL     1       3.565  40.885  50.362  1.00  0.00     0.297 HD
ENDBRANCH   3  11
ENDBRANCH   1   2
BRANCH   1  13
ATOM     13  C   UNL     1       8.852  42.556  47.898  1.00  0.00     0.008 C 
BRANCH  13  14
ATOM     14  C   UNL     1       9.217  42.911  46.448  1.00  0.00    -0.003 C 
ATOM     15  C   UNL     1       9.316  44.419  46.216  1.00  0.00     0.004 C 
ENDBRANCH  13  14
ENDBRANCH   1  13
TORSDOF 4
ENDMDL
MODEL 3
REMARK VINA RESULT:    -4.670     15.426     17.444
REMARK INTER + INTRA:          -6.137
REMARK INTER:                  -5.645
REMARK INTRA:                  -0.492
REMARK UNBOUND:                -0.511
REMARK SMILES CCCCc1oc(O)c2ccccc12
REMARK SMILES IDX 4 1 5 2 7 3 6 4 9 5 14 6 10 7 13 8 11 9 12 10 8 11 3 13 2 14
REMARK SMILES IDX 1 15
REMARK H PARENT 8 12
REMARK Flexibility Score: inf
ROOT
ATOM      1  C   UNL     1       6.723  43.254  47.076  1.00  0.00     0.076 C 
ENDROOT
BRANCH   1   2
ATOM      2  C   UNL     1       6.142  43.044  48.441  1.00  0.00     0.116 A 
ATOM      3  C   UNL     1       4.794  42.391  49.974  1.00  0.00     0.290 A 
ATOM      4  O   UNL     1       4.997  42.426  48.671  1.00  0.00    -0.430 OA
ATOM      5  C   UNL     1       5.840  43.001  50.626  1.00  0.00     0.066 A 
ATOM      6  C   UNL     1       6.704  43.418  49.649  1.00  0.00     0.027 A 
ATOM      7  C   UNL     1       6.095  43.211  51.979  1.00  0.00     0.016 A 
ATOM      8  C   UNL     1       7.896  44.075  49.957  1.00  0.00     0.012 A 
ATOM      9  C   UNL     1       7.289  43.874  52.322  1.00  0.00     0.001 A 
ATOM     10  C   UNL     1       8.185  44.303  51.316  1.00  0.00     0.001 A 
BRANCH   3  11
ATOM     11  O   UNL     1       3.682  41.816  50.581  1.00  0.00    -0.480 OA
ATOM     12  H   UNL     1       3.671  41.652  51.579  1.00  0.00     0.297 HD
ENDBRANCH   3  11
ENDBRANCH   1   2
BRANCH   1  13
ATOM     13  C   UNL     1       7.811  42.209  46.793  1.00  0.00     0.008 C 
BRANCH  13  14
ATOM     14  C   UNL     1       9.220  42.822  46.756  1.00  0.00    -0.003 C 
ATOM     15  C   UNL     1       9.221  44.274  46.278  1.00  0.00     0.004 C 
ENDBRANCH  13  14
ENDBRANCH   1  13
TORSDOF 4
ENDMDL
MODEL 4
REMARK VINA RESULT:    -4.546      1.739      2.930
REMARK INTER + INTRA:          -5.986
REMARK INTER:                  -5.712
REMARK INTRA:                  -0.274
REMARK UNBOUND:                -0.511
REMARK SMILES CCCCc1oc(O)c2ccccc12
REMARK SMILES IDX 4 1 5 2 7 3 6 4 9 5 14 6 10 7 13 8 11 9 12 10 8 11 3 13 2 14
REMARK SMILES IDX 1 15
REMARK H PARENT 8 12
REMARK Flexibility Score: inf
ROOT
ATOM      1  C   UNL     1      16.387  41.971  61.097  1.00  0.00     0.076 C 
ENDROOT
BRANCH   1   2
ATOM      2  C   UNL     1      17.880  41.847  61.099  1.00  0.00     0.116 A 
ATOM      3  C   UNL     1      19.874  41.564  61.835  1.00  0.00     0.290 A 
ATOM      4  O   UNL     1      18.605  41.652  62.187  1.00  0.00    -0.430 OA
ATOM      5  C   UNL     1      19.990  41.700  60.471  1.00  0.00     0.066 A 
ATOM      6  C   UNL     1      18.718  41.879  59.997  1.00  0.00     0.027 A 
ATOM      7  C   UNL     1      21.096  41.673  59.626  1.00  0.00     0.016 A 
ATOM      8  C   UNL     1      18.459  42.040  58.636  1.00  0.00     0.012 A 
ATOM      9  C   UNL     1      20.868  41.836  58.246  1.00  0.00     0.001 A 
ATOM     10  C   UNL     1      19.556  42.018  57.754  1.00  0.00     0.001 A 
BRANCH   3  11
ATOM     11  O   UNL     1      20.923  41.360  62.724  1.00  0.00    -0.480 OA
ATOM     12  H   UNL     1      20.742  41.235  63.711  1.00  0.00     0.297 HD
ENDBRANCH   3  11
ENDBRANCH   1   2
BRANCH   1  13
ATOM     13  C   UNL     1      15.780  41.142  62.236  1.00  0.00     0.008 C 
BRANCH  13  14
ATOM     14  C   UNL     1      15.046  42.009  63.269  1.00  0.00    -0.003 C 
ATOM     15  C   UNL     1      15.995  42.669  64.269  1.00  0.00     0.004 C 
ENDBRANCH  13  14
ENDBRANCH   1  13
TORSDOF 4
ENDMDL
MODEL 5
REMARK VINA RESULT:    -4.454     17.649     19.279
REMARK INTER + INTRA:          -5.876
REMARK INTER:                  -5.591
REMARK INTRA:                  -0.285
REMARK UNBOUND:                -0.511
REMARK SMILES CCCCc1oc(O)c2ccccc12
REMARK SMILES IDX 4 1 5 2 7 3 6 4 9 5 14 6 10 7 13 8 11 9 12 10 8 11 3 13 2 14
REMARK SMILES IDX 1 15
REMARK H PARENT 8 12
REMARK Flexibility Score: inf
ROOT
ATOM      1  C   UNL     1       7.934  42.677  47.931  1.00  0.00     0.076 C 
ENDROOT
BRANCH   1   2
ATOM      2  C   UNL     1       6.462  42.822  47.693  1.00  0.00     0.116 A 
ATOM      3  C   UNL     1       4.607  43.047  46.643  1.00  0.00     0.290 A 
ATOM      4  O   UNL     1       5.917  42.977  46.499  1.00  0.00    -0.430 OA
ATOM      5  C   UNL     1       4.276  42.929  47.973  1.00  0.00     0.066 A 
ATOM      6  C   UNL     1       5.459  42.783  48.647  1.00  0.00     0.027 A 
ATOM      7  C   UNL     1       3.047  42.932  48.628  1.00  0.00     0.016 A 
ATOM      8  C   UNL     1       5.498  42.624  50.032  1.00  0.00     0.012 A 
ATOM      9  C   UNL     1       3.054  42.776  50.027  1.00  0.00     0.001 A 
ATOM     10  C   UNL     1       4.273  42.622  50.725  1.00  0.00     0.001 A 
BRANCH   3  11
ATOM     11  O   UNL     1       3.709  43.212  45.594  1.00  0.00    -0.480 OA
ATOM     12  H   UNL     1       2.765  42.858  45.667  1.00  0.00     0.297 HD
ENDBRANCH   3  11
ENDBRANCH   1   2
BRANCH   1  13
ATOM     13  C   UNL     1       8.695  42.693  46.599  1.00  0.00     0.008 C 
BRANCH  13  14
ATOM     14  C   UNL     1       9.351  44.052  46.312  1.00  0.00    -0.003 C 
ATOM     15  C   UNL     1       8.581  44.875  45.279  1.00  0.00     0.004 C 
ENDBRANCH  13  14
ENDBRANCH   1  13
TORSDOF 4
ENDMDL
MODEL 6
REMARK VINA RESULT:    -4.410      1.985      4.738
REMARK INTER + INTRA:          -5.823
REMARK INTER:                  -5.528
REMARK INTRA:                  -0.295
REMARK UNBOUND:                -0.511
REMARK SMILES CCCCc1oc(O)c2ccccc12
REMARK SMILES IDX 4 1 5 2 7 3 6 4 9 5 14 6 10 7 13 8 11 9 12 10 8 11 3 13 2 14
REMARK SMILES IDX 1 15
REMARK H PARENT 8 12
REMARK Flexibility Score: inf
ROOT
ATOM      1  C   UNL     1      18.867  41.538  59.189  1.00  0.00     0.076 C 
ENDROOT
BRANCH   1   2
ATOM      2  C   UNL     1      18.775  41.660  60.679  1.00  0.00     0.116 A 
ATOM      3  C   UNL     1      19.390  41.801  62.728  1.00  0.00     0.290 A 
ATOM      4  O   UNL     1      19.819  41.646  61.490  1.00  0.00    -0.430 OA
ATOM      5  C   UNL     1      18.020  41.925  62.735  1.00  0.00     0.066 A 
ATOM      6  C   UNL     1      17.624  41.838  61.428  1.00  0.00     0.027 A 
ATOM      7  C   UNL     1      17.111  42.112  63.773  1.00  0.00     0.016 A 
ATOM      8  C   UNL     1      16.282  41.936  61.061  1.00  0.00     0.012 A 
ATOM      9  C   UNL     1      15.748  42.212  63.436  1.00  0.00     0.001 A 
ATOM     10  C   UNL     1      15.335  42.126  62.086  1.00  0.00     0.001 A 
BRANCH   3  11
ATOM     11  O   UNL     1      20.216  41.833  63.846  1.00  0.00    -0.480 OA
ATOM     12  H   UNL     1      20.404  40.988  64.369  1.00  0.00     0.297 HD
ENDBRANCH   3  11
ENDBRANCH   1   2
BRANCH   1  13
ATOM     13  C   UNL     1      19.745  42.658  58.614  1.00  0.00     0.008 C 
BRANCH  13  14
ATOM     14  C   UNL     1      20.917  42.118  57.781  1.00  0.00    -0.003 C 
ATOM     15  C   UNL     1      21.944  41.363  58.624  1.00  0.00     0.004 C 
ENDBRANCH  13  14
ENDBRANCH   1  13
TORSDOF 4
ENDMDL
MODEL 7
REMARK VINA RESULT:    -4.404     15.563     17.422
REMARK INTER + INTRA:          -5.816
REMARK INTER:                  -5.628
REMARK INTRA:                  -0.188
REMARK UNBOUND:                -0.511
REMARK SMILES CCCCc1oc(O)c2ccccc12
REMARK SMILES IDX 4 1 5 2 7 3 6 4 9 5 14 6 10 7 13 8 11 9 12 10 8 11 3 13 2 14
REMARK SMILES IDX 1 15
REMARK H PARENT 8 12
REMARK Flexibility Score: inf
ROOT
ATOM      1  C   UNL     1       6.114  43.395  51.318  1.00  0.00     0.076 C 
ENDROOT
BRANCH   1   2
ATOM      2  C   UNL     1       5.977  43.164  49.844  1.00  0.00     0.116 A 
ATOM      3  C   UNL     1       5.066  42.732  47.952  1.00  0.00     0.290 A 
ATOM      4  O   UNL     1       4.844  42.831  49.249  1.00  0.00    -0.430 OA
ATOM      5  C   UNL     1       6.385  43.013  47.681  1.00  0.00     0.066 A 
ATOM      6  C   UNL     1       6.969  43.292  48.888  1.00  0.00     0.027 A 
ATOM      7  C   UNL     1       7.100  43.051  46.487  1.00  0.00     0.016 A 
ATOM      8  C   UNL     1       8.318  43.635  48.986  1.00  0.00     0.012 A 
ATOM      9  C   UNL     1       8.464  43.391  46.553  1.00  0.00     0.001 A 
ATOM     10  C   UNL     1       9.070  43.683  47.797  1.00  0.00     0.001 A 
BRANCH   3  11
ATOM     11  O   UNL     1       4.097  42.395  47.013  1.00  0.00    -0.480 OA
ATOM     12  H   UNL     1       4.333  41.815  46.219  1.00  0.00     0.297 HD
ENDBRANCH   3  11
ENDBRANCH   1   2
BRANCH   1  13
ATOM     13  C   UNL     1       5.463  42.248  52.102  1.00  0.00     0.008 C 
BRANCH  13  14
ATOM     14  C   UNL     1       5.960  42.170  53.553  1.00  0.00    -0.003 C 
ATOM     15  C   UNL     1       5.838  40.766  54.146  1.00  0.00     0.004 C 
ENDBRANCH  13  14
ENDBRANCH   1  13
TORSDOF 4
ENDMDL
MODEL 8
REMARK VINA RESULT:    -4.326     16.479     18.273
REMARK INTER + INTRA:          -5.722
REMARK INTER:                  -5.391
REMARK INTRA:                  -0.331
REMARK UNBOUND:                -0.511
REMARK SMILES CCCCc1oc(O)c2ccccc12
REMARK SMILES IDX 4 1 5 2 7 3 6 4 9 5 14 6 10 7 13 8 11 9 12 10 8 11 3 13 2 14
REMARK SMILES IDX 1 15
REMARK H PARENT 8 12
REMARK Flexibility Score: inf
ROOT
ATOM      1  C   UNL     1       5.121  42.312  50.035  1.00  0.00     0.076 C 
ENDROOT
BRANCH   1   2
ATOM      2  C   UNL     1       5.345  42.705  48.606  1.00  0.00     0.116 A 
ATOM      3  C   UNL     1       4.912  43.264  46.582  1.00  0.00     0.290 A 
ATOM      4  O   UNL     1       4.373  42.908  47.734  1.00  0.00    -0.430 OA
ATOM      5  C   UNL     1       6.282  43.301  46.700  1.00  0.00     0.066 A 
ATOM      6  C   UNL     1       6.562  42.946  47.993  1.00  0.00     0.027 A 
ATOM      7  C   UNL     1       7.284  43.621  45.787  1.00  0.00     0.016 A 
ATOM      8  C   UNL     1       7.871  42.890  48.469  1.00  0.00     0.012 A 
ATOM      9  C   UNL     1       8.617  43.570  46.237  1.00  0.00     0.001 A 
ATOM     10  C   UNL     1       8.909  43.207  47.572  1.00  0.00     0.001 A 
BRANCH   3  11
ATOM     11  O   UNL     1       4.186  43.557  45.433  1.00  0.00    -0.480 OA
ATOM     12  H   UNL     1       4.119  42.881  44.684  1.00  0.00     0.297 HD
ENDBRANCH   3  11
ENDBRANCH   1   2
BRANCH   1  13
ATOM     13  C   UNL     1       5.251  43.536  50.952  1.00  0.00     0.008 C 
BRANCH  13  14
ATOM     14  C   UNL     1       6.091  43.245  52.205  1.00  0.00    -0.003 C 
ATOM     15  C   UNL     1       5.663  41.964  52.920  1.00  0.00     0.004 C 
ENDBRANCH  13  14
ENDBRANCH   1  13
TORSDOF 4
ENDMDL
MODEL 9
REMARK VINA RESULT:    -4.175     15.715     17.693
REMARK INTER + INTRA:          -5.539
REMARK INTER:                  -4.999
REMARK INTRA:                  -0.541
REMARK UNBOUND:                -0.511
REMARK SMILES CCCCc1oc(O)c2ccccc12
REMARK SMILES IDX 4 1 5 2 7 3 6 4 9 5 14 6 10 7 13 8 11 9 12 10 8 11 3 13 2 14
REMARK SMILES IDX 1 15
REMARK H PARENT 8 12
REMARK Flexibility Score: inf
ROOT
ATOM      1  C   UNL     1       8.248  42.955  46.391  1.00  0.00     0.076 C 
ENDROOT
BRANCH   1   2
ATOM      2  C   UNL     1       8.258  43.399  47.822  1.00  0.00     0.116 A 
ATOM      3  C   UNL     1       8.937  44.305  49.642  1.00  0.00     0.290 A 
ATOM      4  O   UNL     1       9.263  44.042  48.391  1.00  0.00    -0.430 OA
ATOM      5  C   UNL     1       7.676  43.825  49.907  1.00  0.00     0.066 A 
ATOM      6  C   UNL     1       7.238  43.248  48.745  1.00  0.00     0.027 A 
ATOM      7  C   UNL     1       6.892  43.860  51.057  1.00  0.00     0.016 A 
ATOM      8  C   UNL     1       5.975  42.663  48.649  1.00  0.00     0.012 A 
ATOM      9  C   UNL     1       5.613  43.274  50.993  1.00  0.00     0.001 A 
ATOM     10  C   UNL     1       5.157  42.680  49.795  1.00  0.00     0.001 A 
BRANCH   3  11
ATOM     11  O   UNL     1       9.759  44.972  50.544  1.00  0.00    -0.480 OA
ATOM     12  H   UNL     1      10.490  45.588  50.213  1.00  0.00     0.297 HD
ENDBRANCH   3  11
ENDBRANCH   1   2
BRANCH   1  13
ATOM     13  C   UNL     1       7.961  44.143  45.465  1.00  0.00     0.008 C 
BRANCH  13  14
ATOM     14  C   UNL     1       6.499  44.182  44.994  1.00  0.00    -0.003 C 
ATOM     15  C   UNL     1       5.642  45.154  45.806  1.00  0.00     0.004 C 
ENDBRANCH  13  14
ENDBRANCH   1  13
TORSDOF 4
ENDMDL
