MODEL 1
REMARK VINA RESULT:    -3.971      0.000      0.000
REMARK INTER + INTRA:          -6.816
REMARK INTER:                  -6.060
REMARK INTRA:                  -0.757
REMARK UNBOUND:                -0.757
REMARK SMILES O=C([O-])CCCCCCCCC(=O)[O-]
REMARK SMILES IDX 7 1 6 2 5 3 4 4 2 5 1 6 3 7 8 8 9 9 10 10 11 11 12 12 13 13
REMARK SMILES IDX 14 14
REMARK H PARENT
REMARK Flexibility Score: inf
ROOT
ATOM      1  C   UNL     1       4.938  -0.432  -5.291  1.00  0.00     0.000 C 
ENDROOT
BRANCH   1   2
ATOM      2  C   UNL     1       6.156  -1.346  -5.549  1.00  0.00     0.000 C 
BRANCH   2   3
ATOM      3  C   UNL     1       5.811  -2.612  -6.356  1.00  0.00     0.006 C 
BRANCH   3   4
ATOM      4  C   UNL     1       5.647  -3.875  -5.496  1.00  0.00     0.053 C 
BRANCH   4   5
ATOM      5  C   UNL     1       6.962  -4.541  -5.226  1.00  0.00     0.041 C 
ATOM      6  O   UNL     1       7.880  -4.500  -6.086  1.00  0.00    -0.550 OA
ATOM      7  O   UNL     1       7.181  -5.191  -4.019  1.00  0.00    -0.550 OA
ENDBRANCH   4   5
ENDBRANCH   3   4
ENDBRANCH   2   3
ENDBRANCH   1   2
BRANCH   1   8
ATOM      8  C   UNL     1       5.350   1.029  -5.045  1.00  0.00     0.000 C 
BRANCH   8   9
ATOM      9  C   UNL     1       4.888   1.981  -6.163  1.00  0.00     0.000 C 
BRANCH   9  10
ATOM     10  C   UNL     1       3.774   1.425  -7.070  1.00  0.00     0.006 C 
BRANCH  10  11
ATOM     11  C   UNL     1       4.162   1.412  -8.554  1.00  0.00     0.053 C 
BRANCH  11  12
ATOM     12  C   UNL     1       4.863   0.137  -8.899  1.00  0.00     0.041 C 
ATOM     13  O   UNL     1       4.205  -0.860  -9.301  1.00  0.00    -0.550 OA
ATOM     14  O   UNL     1       6.248   0.063  -8.827  1.00  0.00    -0.550 OA
ENDBRANCH  11  12
ENDBRANCH  10  11
ENDBRANCH   9  10
ENDBRANCH   8   9
ENDBRANCH   1   8
TORSDOF 9
ENDMDL
MODEL 2
REMARK VINA RESULT:    -3.945      1.962      5.969
REMARK INTER + INTRA:          -6.777
REMARK INTER:                  -6.189
REMARK INTRA:                  -0.588
REMARK UNBOUND:                -0.757
REMARK SMILES O=C([O-])CCCCCCCCC(=O)[O-]
REMARK SMILES IDX 7 1 6 2 5 3 4 4 2 5 1 6 3 7 8 8 9 9 10 10 11 11 12 12 13 13
REMARK SMILES IDX 14 14
REMARK H PARENT
REMARK Flexibility Score: inf
ROOT
ATOM      1  C   UNL     1       4.537  -0.039  -5.254  1.00  0.00     0.000 C 
ENDROOT
BRANCH   1   2
ATOM      2  C   UNL     1       4.069   0.833  -6.440  1.00  0.00     0.000 C 
BRANCH   2   3
ATOM      3  C   UNL     1       4.644   2.262  -6.415  1.00  0.00     0.006 C 
BRANCH   3   4
ATOM      4  C   UNL     1       5.430   2.640  -7.680  1.00  0.00     0.053 C 
BRANCH   4   5
ATOM      5  C   UNL     1       6.881   2.873  -7.387  1.00  0.00     0.041 C 
ATOM      6  O   UNL     1       7.522   2.056  -6.676  1.00  0.00    -0.550 OA
ATOM      7  O   UNL     1       7.531   3.982  -7.913  1.00  0.00    -0.550 OA
ENDBRANCH   4   5
ENDBRANCH   3   4
ENDBRANCH   2   3
ENDBRANCH   1   2
BRANCH   1   8
ATOM      8  C   UNL     1       5.824  -0.816  -5.575  1.00  0.00     0.000 C 
BRANCH   8   9
ATOM      9  C   UNL     1       5.763  -1.549  -6.928  1.00  0.00     0.000 C 
BRANCH   9  10
ATOM     10  C   UNL     1       6.087  -3.054  -6.865  1.00  0.00     0.006 C 
BRANCH  10  11
ATOM     11  C   UNL     1       5.864  -3.656  -5.473  1.00  0.00     0.053 C 
BRANCH  11  12
ATOM     12  C   UNL     1       6.730  -4.859  -5.279  1.00  0.00     0.041 C 
ATOM     13  O   UNL     1       7.049  -5.576  -6.264  1.00  0.00    -0.550 OA
ATOM     14  O   UNL     1       7.230  -5.161  -4.019  1.00  0.00    -0.550 OA
ENDBRANCH  11  12
ENDBRANCH  10  11
ENDBRANCH   9  10
ENDBRANCH   8   9
ENDBRANCH   1   8
TORSDOF 9
ENDMDL
MODEL 3
REMARK VINA RESULT:    -3.944      1.887      2.953
REMARK INTER + INTRA:          -6.777
REMARK INTER:                  -5.904
REMARK INTRA:                  -0.873
REMARK UNBOUND:                -0.757
REMARK SMILES O=C([O-])CCCCCCCCC(=O)[O-]
REMARK SMILES IDX 7 1 6 2 5 3 4 4 2 5 1 6 3 7 8 8 9 9 10 10 11 11 12 12 13 13
REMARK SMILES IDX 14 14
REMARK H PARENT
REMARK Flexibility Score: inf
ROOT
ATOM      1  C   UNL     1       6.352  -2.179  -8.181  1.00  0.00     0.000 C 
ENDROOT
BRANCH   1   2
ATOM      2  C   UNL     1       7.288  -2.193  -6.952  1.00  0.00     0.000 C 
BRANCH   2   3
ATOM      3  C   UNL     1       6.550  -2.435  -5.622  1.00  0.00     0.006 C 
BRANCH   3   4
ATOM      4  C   UNL     1       5.819  -3.783  -5.551  1.00  0.00     0.053 C 
BRANCH   4   5
ATOM      5  C   UNL     1       6.763  -4.919  -5.297  1.00  0.00     0.041 C 
ATOM      6  O   UNL     1       7.173  -5.152  -4.130  1.00  0.00    -0.550 OA
ATOM      7  O   UNL     1       7.178  -5.731  -6.344  1.00  0.00    -0.550 OA
ENDBRANCH   4   5
ENDBRANCH   3   4
ENDBRANCH   2   3
ENDBRANCH   1   2
BRANCH   1   8
ATOM      8  C   UNL     1       6.086  -0.755  -8.694  1.00  0.00     0.000 C 
BRANCH   8   9
ATOM      9  C   UNL     1       4.617  -0.322  -8.535  1.00  0.00     0.000 C 
BRANCH   9  10
ATOM     10  C   UNL     1       4.384   0.829  -7.540  1.00  0.00     0.006 C 
BRANCH  10  11
ATOM     11  C   UNL     1       4.345   0.359  -6.080  1.00  0.00     0.053 C 
BRANCH  11  12
ATOM     12  C   UNL     1       5.475   0.962  -5.307  1.00  0.00     0.041 C 
ATOM     13  O   UNL     1       5.375   1.126  -4.063  1.00  0.00    -0.550 OA
ATOM     14  O   UNL     1       6.659   1.294  -5.953  1.00  0.00    -0.550 OA
ENDBRANCH  11  12
ENDBRANCH  10  11
ENDBRANCH   9  10
ENDBRANCH   8   9
ENDBRANCH   1   8
TORSDOF 9
ENDMDL
MODEL 4
REMARK VINA RESULT:    -3.937      1.911      2.353
REMARK INTER + INTRA:          -6.764
REMARK INTER:                  -6.179
REMARK INTRA:                  -0.586
REMARK UNBOUND:                -0.757
REMARK SMILES O=C([O-])CCCCCCCCC(=O)[O-]
REMARK SMILES IDX 7 1 6 2 5 3 4 4 2 5 1 6 3 7 8 8 9 9 10 10 11 11 12 12 13 13
REMARK SMILES IDX 14 14
REMARK H PARENT
REMARK Flexibility Score: inf
ROOT
ATOM      1  C   UNL     1       5.903  -0.806  -5.287  1.00  0.00     0.000 C 
ENDROOT
BRANCH   1   2
ATOM      2  C   UNL     1       5.644  -1.381  -6.697  1.00  0.00     0.000 C 
BRANCH   2   3
ATOM      3  C   UNL     1       6.011  -2.871  -6.827  1.00  0.00     0.006 C 
BRANCH   3   4
ATOM      4  C   UNL     1       5.686  -3.705  -5.579  1.00  0.00     0.053 C 
BRANCH   4   5
ATOM      5  C   UNL     1       6.743  -4.731  -5.302  1.00  0.00     0.041 C 
ATOM      6  O   UNL     1       7.267  -4.807  -4.160  1.00  0.00    -0.550 OA
ATOM      7  O   UNL     1       7.136  -5.616  -6.297  1.00  0.00    -0.550 OA
ENDBRANCH   4   5
ENDBRANCH   3   4
ENDBRANCH   2   3
ENDBRANCH   1   2
BRANCH   1   8
ATOM      8  C   UNL     1       5.148   0.512  -5.049  1.00  0.00     0.000 C 
BRANCH   8   9
ATOM      9  C   UNL     1       4.122   0.827  -6.153  1.00  0.00     0.000 C 
BRANCH   9  10
ATOM     10  C   UNL     1       4.172   2.268  -6.693  1.00  0.00     0.006 C 
BRANCH  10  11
ATOM     11  C   UNL     1       5.084   2.416  -7.918  1.00  0.00     0.053 C 
BRANCH  11  12
ATOM     12  C   UNL     1       6.349   3.122  -7.545  1.00  0.00     0.041 C 
ATOM     13  O   UNL     1       7.276   2.496  -6.967  1.00  0.00    -0.550 OA
ATOM     14  O   UNL     1       6.525   4.457  -7.881  1.00  0.00    -0.550 OA
ENDBRANCH  11  12
ENDBRANCH  10  11
ENDBRANCH   9  10
ENDBRANCH   8   9
ENDBRANCH   1   8
TORSDOF 9
ENDMDL
MODEL 5
REMARK VINA RESULT:    -3.886      0.853      5.638
REMARK INTER + INTRA:          -6.687
REMARK INTER:                  -6.020
REMARK INTRA:                  -0.668
REMARK UNBOUND:                -0.757
REMARK SMILES O=C([O-])CCCCCCCCC(=O)[O-]
REMARK SMILES IDX 7 1 6 2 5 3 4 4 2 5 1 6 3 7 8 8 9 9 10 10 11 11 12 12 13 13
REMARK SMILES IDX 14 14
REMARK H PARENT
REMARK Flexibility Score: inf
ROOT
ATOM      1  C   UNL     1       5.251   0.764  -5.023  1.00  0.00     0.000 C 
ENDROOT
BRANCH   1   2
ATOM      2  C   UNL     1       4.798   1.822  -6.053  1.00  0.00     0.000 C 
BRANCH   2   3
ATOM      3  C   UNL     1       4.046   1.222  -7.257  1.00  0.00     0.006 C 
BRANCH   3   4
ATOM      4  C   UNL     1       4.626   1.628  -8.620  1.00  0.00     0.053 C 
BRANCH   4   5
ATOM      5  C   UNL     1       6.096   1.348  -8.707  1.00  0.00     0.041 C 
ATOM      6  O   UNL     1       6.920   2.299  -8.741  1.00  0.00    -0.550 OA
ATOM      7  O   UNL     1       6.558   0.038  -8.733  1.00  0.00    -0.550 OA
ENDBRANCH   4   5
ENDBRANCH   3   4
ENDBRANCH   2   3
ENDBRANCH   1   2
BRANCH   1   8
ATOM      8  C   UNL     1       4.970  -0.671  -5.499  1.00  0.00     0.000 C 
BRANCH   8   9
ATOM      9  C   UNL     1       6.248  -1.514  -5.655  1.00  0.00     0.000 C 
BRANCH   9  10
ATOM     10  C   UNL     1       6.067  -2.828  -6.437  1.00  0.00     0.006 C 
BRANCH  10  11
ATOM     11  C   UNL     1       5.759  -4.026  -5.531  1.00  0.00     0.053 C 
BRANCH  11  12
ATOM     12  C   UNL     1       7.025  -4.706  -5.115  1.00  0.00     0.041 C 
ATOM     13  O   UNL     1       7.997  -4.778  -5.913  1.00  0.00    -0.550 OA
ATOM     14  O   UNL     1       7.151  -5.214  -3.829  1.00  0.00    -0.550 OA
ENDBRANCH  11  12
ENDBRANCH  10  11
ENDBRANCH   9  10
ENDBRANCH   8   9
ENDBRANCH   1   8
TORSDOF 9
ENDMDL
MODEL 6
REMARK VINA RESULT:    -3.881      1.958      5.623
REMARK INTER + INTRA:          -6.680
REMARK INTER:                  -6.140
REMARK INTRA:                  -0.540
REMARK UNBOUND:                -0.757
REMARK SMILES O=C([O-])CCCCCCCCC(=O)[O-]
REMARK SMILES IDX 7 1 6 2 5 3 4 4 2 5 1 6 3 7 8 8 9 9 10 10 11 11 12 12 13 13
REMARK SMILES IDX 14 14
REMARK H PARENT
REMARK Flexibility Score: inf
ROOT
ATOM      1  C   UNL     1       4.503  -1.046  -9.195  1.00  0.00     0.000 C 
ENDROOT
BRANCH   1   2
ATOM      2  C   UNL     1       5.126   0.228  -8.583  1.00  0.00     0.000 C 
BRANCH   2   3
ATOM      3  C   UNL     1       4.188   0.961  -7.607  1.00  0.00     0.006 C 
BRANCH   3   4
ATOM      4  C   UNL     1       4.911   1.620  -6.423  1.00  0.00     0.053 C 
BRANCH   4   5
ATOM      5  C   UNL     1       4.912   0.740  -5.209  1.00  0.00     0.041 C 
ATOM      6  O   UNL     1       5.469   1.127  -4.148  1.00  0.00    -0.550 OA
ATOM      7  O   UNL     1       4.282  -0.497  -5.242  1.00  0.00    -0.550 OA
ENDBRANCH   4   5
ENDBRANCH   3   4
ENDBRANCH   2   3
ENDBRANCH   1   2
BRANCH   1   8
ATOM      8  C   UNL     1       5.422  -2.270  -9.052  1.00  0.00     0.000 C 
BRANCH   8   9
ATOM      9  C   UNL     1       5.929  -2.478  -7.613  1.00  0.00     0.000 C 
BRANCH   9  10
ATOM     10  C   UNL     1       5.825  -3.923  -7.091  1.00  0.00     0.006 C 
BRANCH  10  11
ATOM     11  C   UNL     1       5.813  -4.005  -5.559  1.00  0.00     0.053 C 
BRANCH  11  12
ATOM     12  C   UNL     1       7.028  -4.723  -5.065  1.00  0.00     0.041 C 
ATOM     13  O   UNL     1       7.098  -5.100  -3.865  1.00  0.00    -0.550 OA
ATOM     14  O   UNL     1       8.063  -5.021  -5.941  1.00  0.00    -0.550 OA
ENDBRANCH  11  12
ENDBRANCH  10  11
ENDBRANCH   9  10
ENDBRANCH   8   9
ENDBRANCH   1   8
TORSDOF 9
ENDMDL
MODEL 7
REMARK VINA RESULT:    -3.862      1.674      6.060
REMARK INTER + INTRA:          -6.651
REMARK INTER:                  -5.968
REMARK INTRA:                  -0.683
REMARK UNBOUND:                -0.757
REMARK SMILES O=C([O-])CCCCCCCCC(=O)[O-]
REMARK SMILES IDX 7 1 6 2 5 3 4 4 2 5 1 6 3 7 8 8 9 9 10 10 11 11 12 12 13 13
REMARK SMILES IDX 14 14
REMARK H PARENT
REMARK Flexibility Score: inf
ROOT
ATOM      1  C   UNL     1       7.178  -1.644  -6.299  1.00  0.00     0.000 C 
ENDROOT
BRANCH   1   2
ATOM      2  C   UNL     1       6.745  -0.163  -6.235  1.00  0.00     0.000 C 
BRANCH   2   3
ATOM      3  C   UNL     1       5.712   0.126  -5.130  1.00  0.00     0.006 C 
BRANCH   3   4
ATOM      4  C   UNL     1       4.277   0.307  -5.649  1.00  0.00     0.053 C 
BRANCH   4   5
ATOM      5  C   UNL     1       4.211   1.295  -6.774  1.00  0.00     0.041 C 
ATOM      6  O   UNL     1       3.909   0.913  -7.935  1.00  0.00    -0.550 OA
ATOM      7  O   UNL     1       4.464   2.641  -6.538  1.00  0.00    -0.550 OA
ENDBRANCH   4   5
ENDBRANCH   3   4
ENDBRANCH   2   3
ENDBRANCH   1   2
BRANCH   1   8
ATOM      8  C   UNL     1       6.039  -2.564  -6.770  1.00  0.00     0.000 C 
BRANCH   8   9
ATOM      9  C   UNL     1       5.673  -3.645  -5.736  1.00  0.00     0.000 C 
BRANCH   9  10
ATOM     10  C   UNL     1       6.812  -4.039  -4.778  1.00  0.00     0.006 C 
BRANCH  10  11
ATOM     11  C   UNL     1       7.168  -5.529  -4.854  1.00  0.00     0.053 C 
BRANCH  11  12
ATOM     12  C   UNL     1       7.936  -5.820  -6.104  1.00  0.00     0.041 C 
ATOM     13  O   UNL     1       7.763  -6.907  -6.716  1.00  0.00    -0.550 OA
ATOM     14  O   UNL     1       8.806  -4.869  -6.622  1.00  0.00    -0.550 OA
ENDBRANCH  11  12
ENDBRANCH  10  11
ENDBRANCH   9  10
ENDBRANCH   8   9
ENDBRANCH   1   8
TORSDOF 9
ENDMDL
MODEL 8
REMARK VINA RESULT:    -3.806      1.858      2.856
REMARK INTER + INTRA:          -6.566
REMARK INTER:                  -5.871
REMARK INTRA:                  -0.695
REMARK UNBOUND:                -0.757
REMARK SMILES O=C([O-])CCCCCCCCC(=O)[O-]
REMARK SMILES IDX 7 1 6 2 5 3 4 4 2 5 1 6 3 7 8 8 9 9 10 10 11 11 12 12 13 13
REMARK SMILES IDX 14 14
REMARK H PARENT
REMARK Flexibility Score: inf
ROOT
ATOM      1  C   UNL     1       7.289  -2.350  -7.350  1.00  0.00     0.000 C 
ENDROOT
BRANCH   1   2
ATOM      2  C   UNL     1       6.193  -3.257  -7.951  1.00  0.00     0.000 C 
BRANCH   2   3
ATOM      3  C   UNL     1       5.768  -4.406  -7.017  1.00  0.00     0.006 C 
BRANCH   3   4
ATOM      4  C   UNL     1       6.002  -4.116  -5.527  1.00  0.00     0.053 C 
BRANCH   4   5
ATOM      5  C   UNL     1       7.117  -4.944  -4.965  1.00  0.00     0.041 C 
ATOM      6  O   UNL     1       7.150  -5.210  -3.735  1.00  0.00    -0.550 OA
ATOM      7  O   UNL     1       8.111  -5.438  -5.800  1.00  0.00    -0.550 OA
ENDBRANCH   4   5
ENDBRANCH   3   4
ENDBRANCH   2   3
ENDBRANCH   1   2
BRANCH   1   8
ATOM      8  C   UNL     1       6.832  -0.887  -7.229  1.00  0.00     0.000 C 
BRANCH   8   9
ATOM      9  C   UNL     1       5.306  -0.742  -7.091  1.00  0.00     0.000 C 
BRANCH   9  10
ATOM     10  C   UNL     1       4.814  -0.373  -5.679  1.00  0.00     0.006 C 
BRANCH  10  11
ATOM     11  C   UNL     1       5.202   1.052  -5.265  1.00  0.00     0.053 C 
BRANCH  11  12
ATOM     12  C   UNL     1       4.757   2.036  -6.300  1.00  0.00     0.041 C 
ATOM     13  O   UNL     1       3.530   2.209  -6.524  1.00  0.00    -0.550 OA
ATOM     14  O   UNL     1       5.696   2.800  -6.981  1.00  0.00    -0.550 OA
ENDBRANCH  11  12
ENDBRANCH  10  11
ENDBRANCH   9  10
ENDBRANCH   8   9
ENDBRANCH   1   8
TORSDOF 9
ENDMDL
MODEL 9
REMARK VINA RESULT:    -3.644      1.623      2.074
REMARK INTER + INTRA:          -6.318
REMARK INTER:                  -5.847
REMARK INTRA:                  -0.471
REMARK UNBOUND:                -0.757
REMARK SMILES O=C([O-])CCCCCCCCC(=O)[O-]
REMARK SMILES IDX 7 1 6 2 5 3 4 4 2 5 1 6 3 7 8 8 9 9 10 10 11 11 12 12 13 13
REMARK SMILES IDX 14 14
REMARK H PARENT
REMARK Flexibility Score: inf
ROOT
ATOM      1  C   UNL     1       5.202  -0.854  -5.825  1.00  0.00     0.000 C 
ENDROOT
BRANCH   1   2
ATOM      2  C   UNL     1       6.304  -1.909  -5.581  1.00  0.00     0.000 C 
BRANCH   2   3
ATOM      3  C   UNL     1       5.790  -3.359  -5.647  1.00  0.00     0.006 C 
BRANCH   3   4
ATOM      4  C   UNL     1       6.751  -4.390  -5.036  1.00  0.00     0.053 C 
BRANCH   4   5
ATOM      5  C   UNL     1       7.420  -5.222  -6.088  1.00  0.00     0.041 C 
ATOM      6  O   UNL     1       8.548  -5.736  -5.866  1.00  0.00    -0.550 OA
ATOM      7  O   UNL     1       6.791  -5.448  -7.306  1.00  0.00    -0.550 OA
ENDBRANCH   4   5
ENDBRANCH   3   4
ENDBRANCH   2   3
ENDBRANCH   1   2
BRANCH   1   8
ATOM      8  C   UNL     1       5.580   0.525  -5.259  1.00  0.00     0.000 C 
BRANCH   8   9
ATOM      9  C   UNL     1       6.684   1.226  -6.071  1.00  0.00     0.000 C 
BRANCH   9  10
ATOM     10  C   UNL     1       6.221   1.830  -7.410  1.00  0.00     0.006 C 
BRANCH  10  11
ATOM     11  C   UNL     1       4.912   2.619  -7.289  1.00  0.00     0.053 C 
BRANCH  11  12
ATOM     12  C   UNL     1       3.940   2.183  -8.339  1.00  0.00     0.041 C 
ATOM     13  O   UNL     1       3.273   3.038  -8.980  1.00  0.00    -0.550 OA
ATOM     14  O   UNL     1       3.806   0.835  -8.645  1.00  0.00    -0.550 OA
ENDBRANCH  11  12
ENDBRANCH  10  11
ENDBRANCH   9  10
ENDBRANCH   8   9
ENDBRANCH   1   8
TORSDOF 9
ENDMDL
