MODEL 1
REMARK VINA RESULT:    -0.381      0.000      0.000
REMARK INTER + INTRA:          -0.699
REMARK INTER:                  -0.471
REMARK INTRA:                  -0.228
REMARK UNBOUND:                -0.228
REMARK SMILES C=CC(=C)CCC=C(C)C
REMARK SMILES IDX 5 1 6 2 7 3 9 4 8 5 10 6 3 7 4 8 2 9 1 10
REMARK H PARENT
REMARK Flexibility Score: inf
ROOT
ATOM      1  C   UNL     1       0.594   5.232  -9.977  1.00  0.00     0.039 C 
ENDROOT
BRANCH   1   2
ATOM      2  C   UNL     1       0.026   6.090 -11.112  1.00  0.00     0.032 C 
BRANCH   2   3
ATOM      3  C   UNL     1      -1.355   5.623 -11.496  1.00  0.00    -0.028 C 
ATOM      4  C   UNL     1      -0.726   5.205 -13.884  1.00  0.00     0.039 C 
ATOM      5  C   UNL     1      -1.715   5.247 -12.743  1.00  0.00    -0.080 C 
ATOM      6  C   UNL     1      -3.146   4.842 -12.987  1.00  0.00     0.039 C 
ENDBRANCH   2   3
ENDBRANCH   1   2
BRANCH   1   7
ATOM      7  C   UNL     1       0.463   5.942  -8.648  1.00  0.00    -0.055 C 
ATOM      8  C   UNL     1       1.443   5.819  -7.747  1.00  0.00     0.012 C 
BRANCH   7   9
ATOM      9  C   UNL     1      -0.744   6.732  -8.287  1.00  0.00    -0.005 C 
ATOM     10  C   UNL     1      -0.763   7.678  -7.348  1.00  0.00     0.009 C 
ENDBRANCH   7   9
ENDBRANCH   1   7
TORSDOF 4
ENDMDL
MODEL 2
REMARK VINA RESULT:    -0.086      0.847      4.928
REMARK INTER + INTRA:          -0.334
REMARK INTER:                  -0.072
REMARK INTRA:                  -0.263
REMARK UNBOUND:                -0.228
REMARK SMILES C=CC(=C)CCC=C(C)C
REMARK SMILES IDX 5 1 6 2 7 3 9 4 8 5 10 6 3 7 4 8 2 9 1 10
REMARK H PARENT
REMARK Flexibility Score: inf
ROOT
ATOM      1  C   UNL     1       0.077   6.176 -11.476  1.00  0.00     0.039 C 
ENDROOT
BRANCH   1   2
ATOM      2  C   UNL     1       0.453   5.151 -10.401  1.00  0.00     0.032 C 
BRANCH   2   3
ATOM      3  C   UNL     1       0.792   5.838  -9.102  1.00  0.00    -0.028 C 
ATOM      4  C   UNL     1      -1.592   6.421  -8.602  1.00  0.00     0.039 C 
ATOM      5  C   UNL     1      -0.113   6.435  -8.296  1.00  0.00    -0.080 C 
ATOM      6  C   UNL     1       0.378   7.119  -7.046  1.00  0.00     0.039 C 
ENDBRANCH   2   3
ENDBRANCH   1   2
BRANCH   1   7
ATOM      7  C   UNL     1      -0.908   5.587 -12.461  1.00  0.00    -0.055 C 
ATOM      8  C   UNL     1      -0.500   5.323 -13.707  1.00  0.00     0.012 C 
BRANCH   7   9
ATOM      9  C   UNL     1      -2.330   5.337 -12.108  1.00  0.00    -0.005 C 
ATOM     10  C   UNL     1      -3.198   4.712 -12.903  1.00  0.00     0.009 C 
ENDBRANCH   7   9
ENDBRANCH   1   7
TORSDOF 4
ENDMDL
MODEL 3
REMARK VINA RESULT:     0.216      0.926      1.968
REMARK INTER + INTRA:           0.039
REMARK INTER:                  -0.045
REMARK INTRA:                   0.084
REMARK UNBOUND:                -0.228
REMARK SMILES C=CC(=C)CCC=C(C)C
REMARK SMILES IDX 5 1 6 2 7 3 9 4 8 5 10 6 3 7 4 8 2 9 1 10
REMARK H PARENT
REMARK Flexibility Score: inf
ROOT
ATOM      1  C   UNL     1      -0.762   6.340  -9.465  1.00  0.00     0.039 C 
ENDROOT
BRANCH   1   2
ATOM      2  C   UNL     1      -0.567   6.018 -10.951  1.00  0.00     0.032 C 
BRANCH   2   3
ATOM      3  C   UNL     1      -1.857   5.536 -11.568  1.00  0.00    -0.028 C 
ATOM      4  C   UNL     1      -0.831   5.177 -13.824  1.00  0.00     0.039 C 
ATOM      5  C   UNL     1      -1.996   5.180 -12.864  1.00  0.00    -0.080 C 
ATOM      6  C   UNL     1      -3.359   4.757 -13.349  1.00  0.00     0.039 C 
ENDBRANCH   2   3
ENDBRANCH   1   2
BRANCH   1   7
ATOM      7  C   UNL     1       0.469   5.970  -8.668  1.00  0.00    -0.055 C 
ATOM      8  C   UNL     1       0.599   6.436  -7.422  1.00  0.00     0.012 C 
BRANCH   7   9
ATOM      9  C   UNL     1       1.565   5.144  -9.240  1.00  0.00    -0.005 C 
ATOM     10  C   UNL     1       1.390   3.933  -9.766  1.00  0.00     0.009 C 
ENDBRANCH   7   9
ENDBRANCH   1   7
TORSDOF 4
ENDMDL
MODEL 4
REMARK VINA RESULT:     0.461      9.760     12.404
REMARK INTER + INTRA:           0.341
REMARK INTER:                   0.671
REMARK INTRA:                  -0.330
REMARK UNBOUND:                -0.228
REMARK SMILES C=CC(=C)CCC=C(C)C
REMARK SMILES IDX 5 1 6 2 7 3 9 4 8 5 10 6 3 7 4 8 2 9 1 10
REMARK H PARENT
REMARK Flexibility Score: inf
ROOT
ATOM      1  C   UNL     1      11.998   7.512  -7.403  1.00  0.00     0.039 C 
ENDROOT
BRANCH   1   2
ATOM      2  C   UNL     1      10.984   8.260  -6.531  1.00  0.00     0.032 C 
BRANCH   2   3
ATOM      3  C   UNL     1       9.820   7.369  -6.179  1.00  0.00    -0.028 C 
ATOM      4  C   UNL     1       8.107   9.057  -6.878  1.00  0.00     0.039 C 
ATOM      5  C   UNL     1       8.522   7.722  -6.306  1.00  0.00    -0.080 C 
ATOM      6  C   UNL     1       7.464   6.739  -5.875  1.00  0.00     0.039 C 
ENDBRANCH   2   3
ENDBRANCH   1   2
BRANCH   1   7
ATOM      7  C   UNL     1      11.915   7.973  -8.841  1.00  0.00    -0.055 C 
ATOM      8  C   UNL     1      10.712   8.144  -9.400  1.00  0.00     0.012 C 
BRANCH   7   9
ATOM      9  C   UNL     1      13.126   8.194  -9.674  1.00  0.00    -0.005 C 
ATOM     10  C   UNL     1      13.194   9.074 -10.673  1.00  0.00     0.009 C 
ENDBRANCH   7   9
ENDBRANCH   1   7
TORSDOF 4
ENDMDL
MODEL 5
REMARK VINA RESULT:     0.572      8.990     11.602
REMARK INTER + INTRA:           0.477
REMARK INTER:                   0.667
REMARK INTRA:                  -0.189
REMARK UNBOUND:                -0.228
REMARK SMILES C=CC(=C)CCC=C(C)C
REMARK SMILES IDX 5 1 6 2 7 3 9 4 8 5 10 6 3 7 4 8 2 9 1 10
REMARK H PARENT
REMARK Flexibility Score: inf
ROOT
ATOM      1  C   UNL     1      10.318   8.445  -6.956  1.00  0.00     0.039 C 
ENDROOT
BRANCH   1   2
ATOM      2  C   UNL     1       9.177   7.550  -6.462  1.00  0.00     0.032 C 
BRANCH   2   3
ATOM      3  C   UNL     1       8.060   8.379  -5.878  1.00  0.00    -0.028 C 
ATOM      4  C   UNL     1       7.107   8.966  -8.119  1.00  0.00     0.039 C 
ATOM      5  C   UNL     1       7.138   9.042  -6.610  1.00  0.00    -0.080 C 
ATOM      6  C   UNL     1       6.103   9.865  -5.888  1.00  0.00     0.039 C 
ENDBRANCH   2   3
ENDBRANCH   1   2
BRANCH   1   7
ATOM      7  C   UNL     1      11.620   7.677  -7.012  1.00  0.00    -0.055 C 
ATOM      8  C   UNL     1      12.083   7.103  -5.896  1.00  0.00     0.012 C 
BRANCH   7   9
ATOM      9  C   UNL     1      12.430   7.580  -8.254  1.00  0.00    -0.005 C 
ATOM     10  C   UNL     1      12.256   8.358  -9.322  1.00  0.00     0.009 C 
ENDBRANCH   7   9
ENDBRANCH   1   7
TORSDOF 4
ENDMDL
MODEL 6
REMARK VINA RESULT:     0.653     11.014     13.135
REMARK INTER + INTRA:           0.578
REMARK INTER:                   0.814
REMARK INTRA:                  -0.236
REMARK UNBOUND:                -0.228
REMARK SMILES C=CC(=C)CCC=C(C)C
REMARK SMILES IDX 5 1 6 2 7 3 9 4 8 5 10 6 3 7 4 8 2 9 1 10
REMARK H PARENT
REMARK Flexibility Score: inf
ROOT
ATOM      1  C   UNL     1      11.239   8.457  -7.518  1.00  0.00     0.039 C 
ENDROOT
BRANCH   1   2
ATOM      2  C   UNL     1      12.034   7.788  -8.645  1.00  0.00     0.032 C 
BRANCH   2   3
ATOM      3  C   UNL     1      12.411   8.794  -9.703  1.00  0.00    -0.028 C 
ATOM      4  C   UNL     1      14.392   7.472 -10.482  1.00  0.00     0.039 C 
ATOM      5  C   UNL     1      13.483   8.678 -10.519  1.00  0.00    -0.080 C 
ATOM      6  C   UNL     1      13.758   9.785 -11.504  1.00  0.00     0.039 C 
ENDBRANCH   2   3
ENDBRANCH   1   2
BRANCH   1   7
ATOM      7  C   UNL     1      10.974   7.481  -6.393  1.00  0.00    -0.055 C 
ATOM      8  C   UNL     1      11.997   6.794  -5.876  1.00  0.00     0.012 C 
BRANCH   7   9
ATOM      9  C   UNL     1       9.605   7.222  -5.875  1.00  0.00    -0.005 C 
ATOM     10  C   UNL     1       8.519   7.887  -6.269  1.00  0.00     0.009 C 
ENDBRANCH   7   9
ENDBRANCH   1   7
TORSDOF 4
ENDMDL
MODEL 7
REMARK VINA RESULT:     0.930      0.925      5.220
REMARK INTER + INTRA:           0.919
REMARK INTER:                   1.037
REMARK INTRA:                  -0.119
REMARK UNBOUND:                -0.228
REMARK SMILES C=CC(=C)CCC=C(C)C
REMARK SMILES IDX 5 1 6 2 7 3 9 4 8 5 10 6 3 7 4 8 2 9 1 10
REMARK H PARENT
REMARK Flexibility Score: inf
ROOT
ATOM      1  C   UNL     1      -0.118   6.263 -11.367  1.00  0.00     0.039 C 
ENDROOT
BRANCH   1   2
ATOM      2  C   UNL     1       0.385   5.217 -10.367  1.00  0.00     0.032 C 
BRANCH   2   3
ATOM      3  C   UNL     1       0.762   5.866  -9.058  1.00  0.00    -0.028 C 
ATOM      4  C   UNL     1      -1.600   6.485  -8.500  1.00  0.00     0.039 C 
ATOM      5  C   UNL     1      -0.116   6.463  -8.222  1.00  0.00    -0.080 C 
ATOM      6  C   UNL     1       0.413   7.106  -6.965  1.00  0.00     0.039 C 
ENDBRANCH   2   3
ENDBRANCH   1   2
BRANCH   1   7
ATOM      7  C   UNL     1      -0.913   5.610 -12.475  1.00  0.00    -0.055 C 
ATOM      8  C   UNL     1      -2.180   5.253 -12.241  1.00  0.00     0.012 C 
BRANCH   7   9
ATOM      9  C   UNL     1      -0.319   5.304 -13.803  1.00  0.00    -0.005 C 
ATOM     10  C   UNL     1      -1.029   4.944 -14.873  1.00  0.00     0.009 C 
ENDBRANCH   7   9
ENDBRANCH   1   7
TORSDOF 4
ENDMDL
MODEL 8
REMARK VINA RESULT:     1.836     11.763     14.235
REMARK INTER + INTRA:           2.038
REMARK INTER:                   2.277
REMARK INTRA:                  -0.239
REMARK UNBOUND:                -0.228
REMARK SMILES C=CC(=C)CCC=C(C)C
REMARK SMILES IDX 5 1 6 2 7 3 9 4 8 5 10 6 3 7 4 8 2 9 1 10
REMARK H PARENT
REMARK Flexibility Score: inf
ROOT
ATOM      1  C   UNL     1      12.364   9.008  -9.711  1.00  0.00     0.039 C 
ENDROOT
BRANCH   1   2
ATOM      2  C   UNL     1      12.382   7.816  -8.748  1.00  0.00     0.032 C 
BRANCH   2   3
ATOM      3  C   UNL     1      11.124   7.779  -7.918  1.00  0.00    -0.028 C 
ATOM      4  C   UNL     1      12.300   6.920  -5.881  1.00  0.00     0.039 C 
ATOM      5  C   UNL     1      11.067   7.355  -6.636  1.00  0.00    -0.080 C 
ATOM      6  C   UNL     1       9.728   7.336  -5.944  1.00  0.00     0.039 C 
ENDBRANCH   2   3
ENDBRANCH   1   2
BRANCH   1   7
ATOM      7  C   UNL     1      13.486   8.902 -10.720  1.00  0.00    -0.055 C 
ATOM      8  C   UNL     1      13.840   9.990 -11.412  1.00  0.00     0.012 C 
BRANCH   7   9
ATOM      9  C   UNL     1      14.176   7.617 -11.007  1.00  0.00    -0.005 C 
ATOM     10  C   UNL     1      15.342   7.522 -11.644  1.00  0.00     0.009 C 
ENDBRANCH   7   9
ENDBRANCH   1   7
TORSDOF 4
ENDMDL
