MODEL 1
REMARK VINA RESULT:     1.098      0.000      0.000
REMARK INTER + INTRA:           2.068
REMARK INTER:                   1.612
REMARK INTRA:                   0.456
REMARK UNBOUND:                 0.456
REMARK SMILES C=C1C=C[C@@H](C(C)C)CCC(C)=CCC1
REMARK SMILES IDX 3 1 4 2 5 3 9 4 10 5 11 6 12 7 13 8 6 10 7 11 8 12 2 13 1 14
REMARK SMILES IDX 15 15 14 16
REMARK H PARENT
REMARK Flexibility Score: 70.00
ROOT
ATOM      1  C   UNL     1     -13.551  -2.809  16.886  1.00  0.00    -0.001 C 
ATOM      2  C   UNL     1     -13.545  -2.373  18.159  1.00  0.00    -0.023 C 
ENDROOT
BRANCH   2   3
ATOM      3  C   UNL     1     -14.615  -2.598  19.225  1.00  0.00     0.014 C 
BRANCH   3   4
ATOM      4  C   UNL     1     -15.723  -1.507  19.087  1.00  0.00     0.012 C 
BRANCH   4   5
ATOM      5  C   UNL     1     -15.609  -0.522  17.891  1.00  0.00     0.031 C 
BRANCH   5   6
ATOM      6  C   UNL     1     -16.869  -0.279  17.067  1.00  0.00    -0.077 C 
ATOM      7  C   UNL     1     -17.851   0.773  17.524  1.00  0.00     0.039 C 
ATOM      8  C   UNL     1     -17.123  -0.890  15.888  1.00  0.00    -0.028 CG0
ATOM      9  G   UNL     1     -16.264  -1.948  15.254  1.00  0.00     0.000 G0
ENDBRANCH   5   6
ENDBRANCH   4   5
ENDBRANCH   3   4
BRANCH   3  10
ATOM     10  C   UNL     1     -13.926  -2.602  20.636  1.00  0.00    -0.010 C 
ATOM     11  C   UNL     1     -14.971  -2.442  21.759  1.00  0.00     0.008 C 
ATOM     12  C   UNL     1     -12.857  -1.515  20.813  1.00  0.00     0.008 C 
ENDBRANCH   3  10
ENDBRANCH   2   3
BRANCH   1  13
ATOM     13  C   UNL     1     -14.608  -3.598  16.210  1.00  0.00    -0.055 C 
ATOM     14  C   UNL     1     -14.289  -4.807  15.735  1.00  0.00     0.012 C 
BRANCH  13  15
ATOM     15  C   UNL     1     -16.051  -3.159  16.181  1.00  0.00     0.039 C 
BRANCH  15  16
ATOM     16  C   UNL     1     -16.271  -1.951  15.245  1.00  0.00     0.032 CG0
ATOM     17  G   UNL     1     -17.123  -0.901  15.902  1.00  0.00     0.000 G0
ENDBRANCH  15  16
ENDBRANCH  13  15
ENDBRANCH   1  13
TORSDOF 1
ENDMDL
MODEL 2
REMARK VINA RESULT:     2.247      1.185      3.379
REMARK INTER + INTRA:           3.753
REMARK INTER:                   3.545
REMARK INTRA:                   0.209
REMARK UNBOUND:                 0.456
REMARK SMILES C=C1C=C[C@@H](C(C)C)CCC(C)=CCC1
REMARK SMILES IDX 3 1 4 2 5 3 9 4 10 5 11 6 12 7 13 8 6 10 7 11 8 12 2 13 1 14
REMARK SMILES IDX 15 15 14 16
REMARK H PARENT
REMARK Flexibility Score: 70.00
ROOT
ATOM      1  C   UNL     1     -16.613  -1.873  18.528  1.00  0.00    -0.001 C 
ATOM      2  C   UNL     1     -15.756  -2.238  19.499  1.00  0.00    -0.023 C 
ENDROOT
BRANCH   2   3
ATOM      3  C   UNL     1     -14.271  -1.898  19.605  1.00  0.00     0.014 C 
BRANCH   3   4
ATOM      4  C   UNL     1     -13.468  -2.752  18.574  1.00  0.00     0.012 C 
BRANCH   4   5
ATOM      5  C   UNL     1     -13.177  -2.110  17.189  1.00  0.00     0.031 C 
BRANCH   5   6
ATOM      6  C   UNL     1     -13.285  -3.015  15.966  1.00  0.00    -0.077 C 
ATOM      7  C   UNL     1     -12.022  -3.467  15.276  1.00  0.00     0.039 C 
ATOM      8  C   UNL     1     -14.454  -3.519  15.509  1.00  0.00    -0.028 CG0
ATOM      9  G   UNL     1     -15.814  -3.207  16.068  1.00  0.00     0.000 G0
ENDBRANCH   5   6
ENDBRANCH   4   5
ENDBRANCH   3   4
BRANCH   3  10
ATOM     10  C   UNL     1     -13.807  -2.125  21.088  1.00  0.00    -0.010 C 
ATOM     11  C   UNL     1     -14.975  -2.632  21.958  1.00  0.00     0.008 C 
ATOM     12  C   UNL     1     -13.213  -0.877  21.755  1.00  0.00     0.008 C 
ENDBRANCH   3  10
ENDBRANCH   2   3
BRANCH   1  13
ATOM     13  C   UNL     1     -16.314  -1.070  17.318  1.00  0.00    -0.055 C 
ATOM     14  C   UNL     1     -16.054   0.233  17.473  1.00  0.00     0.012 C 
BRANCH  13  15
ATOM     15  C   UNL     1     -16.136  -1.692  15.956  1.00  0.00     0.039 C 
BRANCH  15  16
ATOM     16  C   UNL     1     -15.832  -3.203  16.044  1.00  0.00     0.032 CG0
ATOM     17  G   UNL     1     -14.458  -3.513  15.518  1.00  0.00     0.000 G0
ENDBRANCH  15  16
ENDBRANCH  13  15
ENDBRANCH   1  13
TORSDOF 1
ENDMDL
MODEL 3
REMARK VINA RESULT:     2.655      1.841      4.170
REMARK INTER + INTRA:           4.352
REMARK INTER:                   3.611
REMARK INTRA:                   0.741
REMARK UNBOUND:                 0.456
REMARK SMILES C=C1C=C[C@@H](C(C)C)CCC(C)=CCC1
REMARK SMILES IDX 3 1 4 2 5 3 9 4 10 5 11 6 12 7 13 8 6 10 7 11 8 12 2 13 1 14
REMARK SMILES IDX 15 15 14 16
REMARK H PARENT
REMARK Flexibility Score: 70.00
ROOT
ATOM      1  C   UNL     1     -16.186  -2.705  15.413  1.00  0.00    -0.001 C 
ATOM      2  C   UNL     1     -16.658  -1.574  15.968  1.00  0.00    -0.023 C 
ENDROOT
BRANCH   2   3
ATOM      3  C   UNL     1     -16.038  -0.766  17.106  1.00  0.00     0.014 C 
BRANCH   3   4
ATOM      4  C   UNL     1     -16.264  -1.514  18.457  1.00  0.00     0.012 C 
BRANCH   4   5
ATOM      5  C   UNL     1     -15.314  -2.702  18.783  1.00  0.00     0.031 C 
BRANCH   5   6
ATOM      6  C   UNL     1     -13.878  -2.359  19.162  1.00  0.00    -0.077 C 
ATOM      7  C   UNL     1     -13.616  -1.636  20.461  1.00  0.00     0.039 C 
ATOM      8  C   UNL     1     -12.800  -2.746  18.443  1.00  0.00    -0.028 CG0
ATOM      9  G   UNL     1     -12.847  -3.488  17.137  1.00  0.00     0.000 G0
ENDBRANCH   5   6
ENDBRANCH   4   5
ENDBRANCH   3   4
BRANCH   3  10
ATOM     10  C   UNL     1     -16.652   0.679  17.091  1.00  0.00    -0.010 C 
ATOM     11  C   UNL     1     -15.650   1.708  17.650  1.00  0.00     0.008 C 
ATOM     12  C   UNL     1     -17.966   0.808  17.874  1.00  0.00     0.008 C 
ENDBRANCH   3  10
ENDBRANCH   2   3
BRANCH   1  13
ATOM     13  C   UNL     1     -14.959  -3.447  15.788  1.00  0.00    -0.055 C 
ATOM     14  C   UNL     1     -14.979  -4.783  15.712  1.00  0.00     0.012 C 
BRANCH  13  15
ATOM     15  C   UNL     1     -13.655  -2.754  16.094  1.00  0.00     0.039 C 
BRANCH  15  16
ATOM     16  C   UNL     1     -12.830  -3.511  17.156  1.00  0.00     0.032 CG0
ATOM     17  G   UNL     1     -12.796  -2.758  18.457  1.00  0.00     0.000 G0
ENDBRANCH  15  16
ENDBRANCH  13  15
ENDBRANCH   1  13
TORSDOF 1
ENDMDL
