MODEL 1
REMARK VINA RESULT:    -6.083      0.000      0.000
REMARK INTER + INTRA:          -7.724
REMARK INTER:                  -7.150
REMARK INTRA:                  -0.574
REMARK UNBOUND:                -0.574
REMARK SMILES C=C(C)[C@H]1CC[C@]2(CO)CC[C@]3(C)[C@H](CC[C@@H]4[C@]5(C)CC[C@H](O)C(C)(C)[C@H]5CC[C@]43C)[C@H]12
REMARK SMILES IDX 4 1 5 2 6 3 7 4 32 5 14 6 15 7 16 8 17 9 18 10 20 11 21 12
REMARK SMILES IDX 22 13 24 14 27 15 28 16 29 17 30 18 12 19 11 20 10 21 13 22
REMARK SMILES IDX 31 23 25 24 26 25 19 26 2 27 3 28 1 29 8 30 9 31 23 33
REMARK H PARENT 9 32 23 34
REMARK Flexibility Score: inf
ROOT
ATOM      1  C   UNL     1      14.942  -2.306  33.476  1.00  0.00     0.018 C 
ATOM      2  C   UNL     1      14.626  -3.416  32.469  1.00  0.00     0.009 C 
ATOM      3  C   UNL     1      14.051  -2.722  31.243  1.00  0.00     0.010 C 
ATOM      4  C   UNL     1      13.316  -1.468  31.764  1.00  0.00    -0.003 C 
ATOM      5  C   UNL     1      14.035  -1.101  33.101  1.00  0.00     0.008 C 
ATOM      6  C   UNL     1      14.733   0.299  33.076  1.00  0.00    -0.000 C 
ATOM      7  C   UNL     1      15.480   0.613  34.387  1.00  0.00     0.005 C 
ATOM      8  C   UNL     1      15.946   2.079  34.471  1.00  0.00     0.005 C 
ATOM      9  C   UNL     1      16.752   2.504  33.214  1.00  0.00     0.002 C 
ATOM     10  C   UNL     1      17.612   3.876  33.279  1.00  0.00    -0.026 C 
ATOM     11  C   UNL     1      17.565   4.647  34.653  1.00  0.00     0.010 C 
ATOM     12  C   UNL     1      16.552   5.793  34.680  1.00  0.00     0.033 C 
ATOM     13  C   UNL     1      16.924   6.914  33.679  1.00  0.00     0.120 C 
ATOM     14  C   UNL     1      17.499   6.377  32.294  1.00  0.00    -0.006 C 
ATOM     15  C   UNL     1      17.127   4.847  32.139  1.00  0.00     0.003 C 
ATOM     16  C   UNL     1      17.267   4.212  30.730  1.00  0.00     0.005 C 
ATOM     17  C   UNL     1      16.855   2.711  30.682  1.00  0.00     0.008 C 
ATOM     18  C   UNL     1      15.934   2.237  31.867  1.00  0.00    -0.024 C 
ATOM     19  C   UNL     1      15.560   0.662  31.772  1.00  0.00    -0.024 C 
ATOM     20  C   UNL     1      14.706   0.342  30.481  1.00  0.00     0.008 C 
ATOM     21  C   UNL     1      13.331  -0.305  30.731  1.00  0.00     0.010 C 
ATOM     22  C   UNL     1      16.841  -0.237  31.656  1.00  0.00     0.012 C 
ATOM     23  C   UNL     1      14.591   3.074  31.808  1.00  0.00     0.012 C 
ATOM     24  C   UNL     1      16.883   7.180  31.112  1.00  0.00     0.014 C 
ATOM     25  C   UNL     1      19.025   6.636  32.235  1.00  0.00     0.014 C 
ATOM     26  C   UNL     1      19.115   3.474  33.072  1.00  0.00     0.012 C 
ENDROOT
BRANCH   1  27
ATOM     27  C   UNL     1      14.795  -2.766  34.927  1.00  0.00    -0.077 C 
ATOM     28  C   UNL     1      13.448  -2.720  35.603  1.00  0.00     0.039 C 
ATOM     29  C   UNL     1      15.846  -3.213  35.635  1.00  0.00     0.008 C 
ENDBRANCH   1  27
BRANCH   4  30
ATOM     30  C   UNL     1      11.828  -1.837  32.055  1.00  0.00     0.163 C 
BRANCH  30  31
ATOM     31  O   UNL     1      11.299  -2.676  31.059  1.00  0.00    -0.396 OA
ATOM     32  H   UNL     1      12.059  -2.969  30.491  1.00  0.00     0.210 HD
ENDBRANCH  30  31
ENDBRANCH   4  30
BRANCH  13  33
ATOM     33  O   UNL     1      15.771   7.702  33.497  1.00  0.00    -0.393 OA
ATOM     34  H   UNL     1      15.599   7.758  32.520  1.00  0.00     0.210 HD
ENDBRANCH  13  33
TORSDOF 4
ENDMDL
MODEL 2
REMARK VINA RESULT:    -5.857      1.606      2.232
REMARK INTER + INTRA:          -7.458
REMARK INTER:                  -7.029
REMARK INTRA:                  -0.430
REMARK UNBOUND:                -0.574
REMARK SMILES C=C(C)[C@H]1CC[C@]2(CO)CC[C@]3(C)[C@H](CC[C@@H]4[C@]5(C)CC[C@H](O)C(C)(C)[C@H]5CC[C@]43C)[C@H]12
REMARK SMILES IDX 4 1 5 2 6 3 7 4 32 5 14 6 15 7 16 8 17 9 18 10 20 11 21 12
REMARK SMILES IDX 22 13 24 14 27 15 28 16 29 17 30 18 12 19 11 20 10 21 13 22
REMARK SMILES IDX 31 23 25 24 26 25 19 26 2 27 3 28 1 29 8 30 9 31 23 33
REMARK H PARENT 9 32 23 34
REMARK Flexibility Score: inf
ROOT
ATOM      1  C   UNL     1      14.070  -3.752  32.804  1.00  0.00     0.018 C 
ATOM      2  C   UNL     1      12.961  -4.493  32.053  1.00  0.00     0.009 C 
ATOM      3  C   UNL     1      12.032  -3.419  31.506  1.00  0.00     0.010 C 
ATOM      4  C   UNL     1      12.087  -2.249  32.512  1.00  0.00    -0.003 C 
ATOM      5  C   UNL     1      13.488  -2.365  33.194  1.00  0.00     0.008 C 
ATOM      6  C   UNL     1      14.417  -1.134  32.933  1.00  0.00    -0.000 C 
ATOM      7  C   UNL     1      15.811  -1.297  33.571  1.00  0.00     0.005 C 
ATOM      8  C   UNL     1      16.636   0.004  33.543  1.00  0.00     0.005 C 
ATOM      9  C   UNL     1      16.705   0.615  32.118  1.00  0.00     0.002 C 
ATOM     10  C   UNL     1      17.805   1.770  31.829  1.00  0.00    -0.026 C 
ATOM     11  C   UNL     1      18.734   2.149  33.044  1.00  0.00     0.010 C 
ATOM     12  C   UNL     1      18.270   3.389  33.810  1.00  0.00     0.033 C 
ATOM     13  C   UNL     1      18.332   4.664  32.932  1.00  0.00     0.120 C 
ATOM     14  C   UNL     1      17.879   4.429  31.423  1.00  0.00    -0.006 C 
ATOM     15  C   UNL     1      17.071   3.072  31.331  1.00  0.00     0.003 C 
ATOM     16  C   UNL     1      16.235   2.818  30.049  1.00  0.00     0.005 C 
ATOM     17  C   UNL     1      15.463   1.466  30.069  1.00  0.00     0.008 C 
ATOM     18  C   UNL     1      15.249   0.844  31.499  1.00  0.00    -0.024 C 
ATOM     19  C   UNL     1      14.460  -0.572  31.450  1.00  0.00    -0.024 C 
ATOM     20  C   UNL     1      12.992  -0.402  30.891  1.00  0.00     0.008 C 
ATOM     21  C   UNL     1      11.861  -0.871  31.827  1.00  0.00     0.010 C 
ATOM     22  C   UNL     1      15.156  -1.596  30.486  1.00  0.00     0.012 C 
ATOM     23  C   UNL     1      14.391   1.865  32.353  1.00  0.00     0.012 C 
ATOM     24  C   UNL     1      16.972   5.601  30.949  1.00  0.00     0.014 C 
ATOM     25  C   UNL     1      19.124   4.454  30.502  1.00  0.00     0.014 C 
ATOM     26  C   UNL     1      18.765   1.210  30.722  1.00  0.00     0.012 C 
ENDROOT
BRANCH   1  27
ATOM     27  C   UNL     1      14.618  -4.550  33.987  1.00  0.00    -0.077 C 
ATOM     28  C   UNL     1      14.525  -3.991  35.385  1.00  0.00     0.039 C 
ATOM     29  C   UNL     1      15.194  -5.752  33.822  1.00  0.00     0.008 C 
ENDBRANCH   1  27
BRANCH   4  30
ATOM     30  C   UNL     1      10.967  -2.446  33.582  1.00  0.00     0.163 C 
BRANCH  30  31
ATOM     31  O   UNL     1       9.687  -2.323  33.017  1.00  0.00    -0.396 OA
ATOM     32  H   UNL     1       9.637  -2.968  32.264  1.00  0.00     0.210 HD
ENDBRANCH  30  31
ENDBRANCH   4  30
BRANCH  13  33
ATOM     33  O   UNL     1      17.542   5.641  33.570  1.00  0.00    -0.393 OA
ATOM     34  H   UNL     1      16.914   5.167  34.177  1.00  0.00     0.210 HD
ENDBRANCH  13  33
TORSDOF 4
ENDMDL
MODEL 3
REMARK VINA RESULT:    -5.265      2.297      8.944
REMARK INTER + INTRA:          -6.763
REMARK INTER:                  -6.139
REMARK INTRA:                  -0.624
REMARK UNBOUND:                -0.574
REMARK SMILES C=C(C)[C@H]1CC[C@]2(CO)CC[C@]3(C)[C@H](CC[C@@H]4[C@]5(C)CC[C@H](O)C(C)(C)[C@H]5CC[C@]43C)[C@H]12
REMARK SMILES IDX 4 1 5 2 6 3 7 4 32 5 14 6 15 7 16 8 17 9 18 10 20 11 21 12
REMARK SMILES IDX 22 13 24 14 27 15 28 16 29 17 30 18 12 19 11 20 10 21 13 22
REMARK SMILES IDX 31 23 25 24 26 25 19 26 2 27 3 28 1 29 8 30 9 31 23 33
REMARK H PARENT 9 32 23 34
REMARK Flexibility Score: inf
ROOT
ATOM      1  C   UNL     1      17.948   9.682  33.193  1.00  0.00     0.018 C 
ATOM      2  C   UNL     1      18.435  10.505  34.389  1.00  0.00     0.009 C 
ATOM      3  C   UNL     1      17.881   9.816  35.627  1.00  0.00     0.010 C 
ATOM      4  C   UNL     1      16.540   9.181  35.203  1.00  0.00    -0.003 C 
ATOM      5  C   UNL     1      16.680   8.921  33.669  1.00  0.00     0.008 C 
ATOM      6  C   UNL     1      16.604   7.408  33.279  1.00  0.00    -0.000 C 
ATOM      7  C   UNL     1      16.800   7.173  31.768  1.00  0.00     0.005 C 
ATOM      8  C   UNL     1      16.471   5.731  31.341  1.00  0.00     0.005 C 
ATOM      9  C   UNL     1      17.226   4.684  32.203  1.00  0.00     0.002 C 
ATOM     10  C   UNL     1      17.281   3.151  31.680  1.00  0.00    -0.026 C 
ATOM     11  C   UNL     1      16.569   2.874  30.302  1.00  0.00     0.010 C 
ATOM     12  C   UNL     1      15.152   2.316  30.444  1.00  0.00     0.033 C 
ATOM     13  C   UNL     1      15.147   0.918  31.110  1.00  0.00     0.120 C 
ATOM     14  C   UNL     1      16.197   0.768  32.299  1.00  0.00    -0.006 C 
ATOM     15  C   UNL     1      16.651   2.207  32.773  1.00  0.00     0.003 C 
ATOM     16  C   UNL     1      17.384   2.319  34.135  1.00  0.00     0.005 C 
ATOM     17  C   UNL     1      17.768   3.779  34.517  1.00  0.00     0.008 C 
ATOM     18  C   UNL     1      16.955   4.897  33.765  1.00  0.00    -0.024 C 
ATOM     19  C   UNL     1      17.417   6.393  34.188  1.00  0.00    -0.024 C 
ATOM     20  C   UNL     1      17.129   6.681  35.715  1.00  0.00     0.008 C 
ATOM     21  C   UNL     1      16.218   7.889  36.008  1.00  0.00     0.010 C 
ATOM     22  C   UNL     1      18.962   6.600  34.011  1.00  0.00     0.012 C 
ATOM     23  C   UNL     1      15.425   4.722  34.135  1.00  0.00     0.012 C 
ATOM     24  C   UNL     1      15.546   0.014  33.495  1.00  0.00     0.014 C 
ATOM     25  C   UNL     1      17.380  -0.116  31.831  1.00  0.00     0.014 C 
ATOM     26  C   UNL     1      18.795   2.809  31.450  1.00  0.00     0.012 C 
ENDROOT
BRANCH   1  27
ATOM     27  C   UNL     1      17.727  10.533  31.942  1.00  0.00    -0.077 C 
ATOM     28  C   UNL     1      16.380  11.158  31.680  1.00  0.00     0.039 C 
ATOM     29  C   UNL     1      18.709  10.743  31.049  1.00  0.00     0.008 C 
ENDBRANCH   1  27
BRANCH   4  30
ATOM     30  C   UNL     1      15.390  10.206  35.456  1.00  0.00     0.163 C 
BRANCH  30  31
ATOM     31  O   UNL     1      14.282   9.953  34.629  1.00  0.00    -0.396 OA
ATOM     32  H   UNL     1      13.559  10.572  34.913  1.00  0.00     0.210 HD
ENDBRANCH  30  31
ENDBRANCH   4  30
BRANCH  13  33
ATOM     33  O   UNL     1      13.828   0.673  31.542  1.00  0.00    -0.393 OA
ATOM     34  H   UNL     1      13.864   0.487  32.518  1.00  0.00     0.210 HD
ENDBRANCH  13  33
TORSDOF 4
ENDMDL
MODEL 4
REMARK VINA RESULT:    -5.066      1.788      8.454
REMARK INTER + INTRA:          -6.529
REMARK INTER:                  -5.966
REMARK INTRA:                  -0.563
REMARK UNBOUND:                -0.574
REMARK SMILES C=C(C)[C@H]1CC[C@]2(CO)CC[C@]3(C)[C@H](CC[C@@H]4[C@]5(C)CC[C@H](O)C(C)(C)[C@H]5CC[C@]43C)[C@H]12
REMARK SMILES IDX 4 1 5 2 6 3 7 4 32 5 14 6 15 7 16 8 17 9 18 10 20 11 21 12
REMARK SMILES IDX 22 13 24 14 27 15 28 16 29 17 30 18 12 19 11 20 10 21 13 22
REMARK SMILES IDX 31 23 25 24 26 25 19 26 2 27 3 28 1 29 8 30 9 31 23 33
REMARK H PARENT 9 32 23 34
REMARK Flexibility Score: inf
ROOT
ATOM      1  C   UNL     1      18.375   7.780  31.019  1.00  0.00     0.018 C 
ATOM      2  C   UNL     1      18.972   8.966  31.782  1.00  0.00     0.009 C 
ATOM      3  C   UNL     1      18.380   8.908  33.182  1.00  0.00     0.010 C 
ATOM      4  C   UNL     1      16.970   8.298  33.028  1.00  0.00    -0.003 C 
ATOM      5  C   UNL     1      17.047   7.417  31.739  1.00  0.00     0.008 C 
ATOM      6  C   UNL     1      16.806   5.895  32.004  1.00  0.00    -0.000 C 
ATOM      7  C   UNL     1      16.940   5.041  30.726  1.00  0.00     0.005 C 
ATOM      8  C   UNL     1      16.454   3.593  30.922  1.00  0.00     0.005 C 
ATOM      9  C   UNL     1      17.118   2.921  32.154  1.00  0.00     0.002 C 
ATOM     10  C   UNL     1      17.002   1.312  32.308  1.00  0.00    -0.026 C 
ATOM     11  C   UNL     1      16.233   0.568  31.151  1.00  0.00     0.010 C 
ATOM     12  C   UNL     1      14.769   0.269  31.480  1.00  0.00     0.033 C 
ATOM     13  C   UNL     1      14.635  -0.723  32.661  1.00  0.00     0.120 C 
ATOM     14  C   UNL     1      15.692  -0.480  33.828  1.00  0.00    -0.006 C 
ATOM     15  C   UNL     1      16.304   0.971  33.678  1.00  0.00     0.003 C 
ATOM     16  C   UNL     1      17.077   1.555  34.890  1.00  0.00     0.005 C 
ATOM     17  C   UNL     1      17.618   2.994  34.646  1.00  0.00     0.008 C 
ATOM     18  C   UNL     1      16.907   3.783  33.485  1.00  0.00    -0.024 C 
ATOM     19  C   UNL     1      17.531   5.264  33.266  1.00  0.00    -0.024 C 
ATOM     20  C   UNL     1      17.310   6.182  34.533  1.00  0.00     0.008 C 
ATOM     21  C   UNL     1      16.536   7.491  34.285  1.00  0.00     0.010 C 
ATOM     22  C   UNL     1      19.085   5.218  33.052  1.00  0.00     0.012 C 
ATOM     23  C   UNL     1      15.376   3.936  33.862  1.00  0.00     0.012 C 
ATOM     24  C   UNL     1      14.995  -0.605  35.214  1.00  0.00     0.014 C 
ATOM     25  C   UNL     1      16.767  -1.596  33.790  1.00  0.00     0.014 C 
ATOM     26  C   UNL     1      18.466   0.751  32.271  1.00  0.00     0.012 C 
ENDROOT
BRANCH   1  27
ATOM     27  C   UNL     1      18.214   8.060  29.524  1.00  0.00    -0.077 C 
ATOM     28  C   UNL     1      19.010   7.270  28.516  1.00  0.00     0.039 C 
ATOM     29  C   UNL     1      17.374   9.006  29.070  1.00  0.00     0.008 C 
ENDBRANCH   1  27
BRANCH   4  30
ATOM     30  C   UNL     1      15.939   9.449  32.813  1.00  0.00     0.163 C 
BRANCH  30  31
ATOM     31  O   UNL     1      14.776   9.249  33.575  1.00  0.00    -0.396 OA
ATOM     32  H   UNL     1      14.979   8.537  34.236  1.00  0.00     0.210 HD
ENDBRANCH  30  31
ENDBRANCH   4  30
BRANCH  13  33
ATOM     33  O   UNL     1      13.309  -0.631  33.128  1.00  0.00    -0.393 OA
ATOM     34  H   UNL     1      13.038   0.323  33.069  1.00  0.00     0.210 HD
ENDBRANCH  13  33
TORSDOF 4
ENDMDL
MODEL 5
REMARK VINA RESULT:    -4.912      3.082      4.890
REMARK INTER + INTRA:          -6.347
REMARK INTER:                  -5.819
REMARK INTRA:                  -0.529
REMARK UNBOUND:                -0.574
REMARK SMILES C=C(C)[C@H]1CC[C@]2(CO)CC[C@]3(C)[C@H](CC[C@@H]4[C@]5(C)CC[C@H](O)C(C)(C)[C@H]5CC[C@]43C)[C@H]12
REMARK SMILES IDX 4 1 5 2 6 3 7 4 32 5 14 6 15 7 16 8 17 9 18 10 20 11 21 12
REMARK SMILES IDX 22 13 24 14 27 15 28 16 29 17 30 18 12 19 11 20 10 21 13 22
REMARK SMILES IDX 31 23 25 24 26 25 19 26 2 27 3 28 1 29 8 30 9 31 23 33
REMARK H PARENT 9 32 23 34
REMARK Flexibility Score: inf
ROOT
ATOM      1  C   UNL     1      12.517  -1.915  34.766  1.00  0.00     0.018 C 
ATOM      2  C   UNL     1      12.873  -2.554  36.111  1.00  0.00     0.009 C 
ATOM      3  C   UNL     1      14.274  -3.123  35.950  1.00  0.00     0.010 C 
ATOM      4  C   UNL     1      14.404  -3.536  34.469  1.00  0.00    -0.003 C 
ATOM      5  C   UNL     1      13.410  -2.609  33.699  1.00  0.00     0.008 C 
ATOM      6  C   UNL     1      14.104  -1.661  32.667  1.00  0.00    -0.000 C 
ATOM      7  C   UNL     1      13.108  -0.719  31.961  1.00  0.00     0.005 C 
ATOM      8  C   UNL     1      13.736   0.028  30.769  1.00  0.00     0.005 C 
ATOM      9  C   UNL     1      15.052   0.750  31.166  1.00  0.00     0.002 C 
ATOM     10  C   UNL     1      15.655   1.861  30.152  1.00  0.00    -0.026 C 
ATOM     11  C   UNL     1      14.813   2.124  28.847  1.00  0.00     0.010 C 
ATOM     12  C   UNL     1      15.322   1.362  27.622  1.00  0.00     0.033 C 
ATOM     13  C   UNL     1      16.740   1.826  27.205  1.00  0.00     0.120 C 
ATOM     14  C   UNL     1      17.709   2.120  28.434  1.00  0.00    -0.006 C 
ATOM     15  C   UNL     1      17.116   1.443  29.734  1.00  0.00     0.003 C 
ATOM     16  C   UNL     1      18.054   1.293  30.961  1.00  0.00     0.005 C 
ATOM     17  C   UNL     1      17.379   0.596  32.178  1.00  0.00     0.008 C 
ATOM     18  C   UNL     1      16.102  -0.255  31.831  1.00  0.00    -0.024 C 
ATOM     19  C   UNL     1      15.433  -0.936  33.143  1.00  0.00    -0.024 C 
ATOM     20  C   UNL     1      16.408  -1.980  33.819  1.00  0.00     0.008 C 
ATOM     21  C   UNL     1      15.865  -3.416  33.949  1.00  0.00     0.010 C 
ATOM     22  C   UNL     1      15.122   0.124  34.257  1.00  0.00     0.012 C 
ATOM     23  C   UNL     1      16.538  -1.409  30.837  1.00  0.00     0.012 C 
ATOM     24  C   UNL     1      19.124   1.538  28.150  1.00  0.00     0.014 C 
ATOM     25  C   UNL     1      17.900   3.651  28.583  1.00  0.00     0.014 C 
ATOM     26  C   UNL     1      15.663   3.222  30.931  1.00  0.00     0.012 C 
ENDROOT
BRANCH   1  27
ATOM     27  C   UNL     1      11.021  -1.978  34.458  1.00  0.00    -0.077 C 
ATOM     28  C   UNL     1      10.514  -2.857  33.343  1.00  0.00     0.039 C 
ATOM     29  C   UNL     1      10.126  -1.260  35.158  1.00  0.00     0.008 C 
ENDBRANCH   1  27
BRANCH   4  30
ATOM     30  C   UNL     1      13.957  -5.023  34.315  1.00  0.00     0.163 C 
BRANCH  30  31
ATOM     31  O   UNL     1      13.934  -5.418  32.967  1.00  0.00    -0.396 OA
ATOM     32  H   UNL     1      14.726  -5.009  32.529  1.00  0.00     0.210 HD
ENDBRANCH  30  31
ENDBRANCH   4  30
BRANCH  13  33
ATOM     33  O   UNL     1      17.263   0.833  26.352  1.00  0.00    -0.393 OA
ATOM     34  H   UNL     1      16.495   0.318  25.988  1.00  0.00     0.210 HD
ENDBRANCH  13  33
TORSDOF 4
ENDMDL
MODEL 6
REMARK VINA RESULT:    -4.896      2.919      5.556
REMARK INTER + INTRA:          -6.328
REMARK INTER:                  -5.753
REMARK INTRA:                  -0.575
REMARK UNBOUND:                -0.574
REMARK SMILES C=C(C)[C@H]1CC[C@]2(CO)CC[C@]3(C)[C@H](CC[C@@H]4[C@]5(C)CC[C@H](O)C(C)(C)[C@H]5CC[C@]43C)[C@H]12
REMARK SMILES IDX 4 1 5 2 6 3 7 4 32 5 14 6 15 7 16 8 17 9 18 10 20 11 21 12
REMARK SMILES IDX 22 13 24 14 27 15 28 16 29 17 30 18 12 19 11 20 10 21 13 22
REMARK SMILES IDX 31 23 25 24 26 25 19 26 2 27 3 28 1 29 8 30 9 31 23 33
REMARK H PARENT 9 32 23 34
REMARK Flexibility Score: inf
ROOT
ATOM      1  C   UNL     1      17.043   2.314  32.043  1.00  0.00     0.018 C 
ATOM      2  C   UNL     1      17.909   1.388  31.184  1.00  0.00     0.009 C 
ATOM      3  C   UNL     1      18.355   2.217  29.989  1.00  0.00     0.010 C 
ATOM      4  C   UNL     1      17.219   3.226  29.717  1.00  0.00    -0.003 C 
ATOM      5  C   UNL     1      16.513   3.425  31.096  1.00  0.00     0.008 C 
ATOM      6  C   UNL     1      16.600   4.889  31.641  1.00  0.00    -0.000 C 
ATOM      7  C   UNL     1      15.944   5.046  33.027  1.00  0.00     0.005 C 
ATOM      8  C   UNL     1      15.795   6.519  33.453  1.00  0.00     0.005 C 
ATOM      9  C   UNL     1      17.137   7.292  33.344  1.00  0.00     0.002 C 
ATOM     10  C   UNL     1      17.256   8.734  34.074  1.00  0.00    -0.026 C 
ATOM     11  C   UNL     1      15.977   9.208  34.863  1.00  0.00     0.010 C 
ATOM     12  C   UNL     1      15.087  10.168  34.071  1.00  0.00     0.033 C 
ATOM     13  C   UNL     1      15.809  11.505  33.770  1.00  0.00     0.120 C 
ATOM     14  C   UNL     1      17.349  11.336  33.397  1.00  0.00    -0.006 C 
ATOM     15  C   UNL     1      17.622   9.829  33.002  1.00  0.00     0.003 C 
ATOM     16  C   UNL     1      18.950   9.507  32.267  1.00  0.00     0.005 C 
ATOM     17  C   UNL     1      19.111   8.001  31.906  1.00  0.00     0.008 C 
ATOM     18  C   UNL     1      17.770   7.178  31.880  1.00  0.00    -0.024 C 
ATOM     19  C   UNL     1      18.006   5.614  31.520  1.00  0.00    -0.024 C 
ATOM     20  C   UNL     1      18.587   5.433  30.062  1.00  0.00     0.008 C 
ATOM     21  C   UNL     1      17.747   4.558  29.111  1.00  0.00     0.010 C 
ATOM     22  C   UNL     1      19.061   4.948  32.473  1.00  0.00     0.012 C 
ATOM     23  C   UNL     1      16.829   7.808  30.772  1.00  0.00     0.012 C 
ATOM     24  C   UNL     1      17.711  12.257  32.196  1.00  0.00     0.014 C 
ATOM     25  C   UNL     1      18.222  11.818  34.582  1.00  0.00     0.014 C 
ATOM     26  C   UNL     1      18.391   8.601  35.149  1.00  0.00     0.012 C 
ENDROOT
BRANCH   1  27
ATOM     27  C   UNL     1      15.944   1.564  32.797  1.00  0.00    -0.077 C 
ATOM     28  C   UNL     1      14.727   1.064  32.060  1.00  0.00     0.039 C 
ATOM     29  C   UNL     1      16.024   1.335  34.118  1.00  0.00     0.008 C 
ENDBRANCH   1  27
BRANCH   4  30
ATOM     30  C   UNL     1      16.215   2.598  28.701  1.00  0.00     0.163 C 
BRANCH  30  31
ATOM     31  O   UNL     1      16.843   1.655  27.870  1.00  0.00    -0.396 OA
ATOM     32  H   UNL     1      16.933   0.817  28.396  1.00  0.00     0.210 HD
ENDBRANCH  30  31
ENDBRANCH   4  30
BRANCH  13  33
ATOM     33  O   UNL     1      15.087  12.139  32.740  1.00  0.00    -0.393 OA
ATOM     34  H   UNL     1      14.681  11.427  32.178  1.00  0.00     0.210 HD
ENDBRANCH  13  33
TORSDOF 4
ENDMDL
MODEL 7
REMARK VINA RESULT:    -4.863      3.741      7.834
REMARK INTER + INTRA:          -6.290
REMARK INTER:                  -5.970
REMARK INTRA:                  -0.320
REMARK UNBOUND:                -0.574
REMARK SMILES C=C(C)[C@H]1CC[C@]2(CO)CC[C@]3(C)[C@H](CC[C@@H]4[C@]5(C)CC[C@H](O)C(C)(C)[C@H]5CC[C@]43C)[C@H]12
REMARK SMILES IDX 4 1 5 2 6 3 7 4 32 5 14 6 15 7 16 8 17 9 18 10 20 11 21 12
REMARK SMILES IDX 22 13 24 14 27 15 28 16 29 17 30 18 12 19 11 20 10 21 13 22
REMARK SMILES IDX 31 23 25 24 26 25 19 26 2 27 3 28 1 29 8 30 9 31 23 33
REMARK H PARENT 9 32 23 34
REMARK Flexibility Score: inf
ROOT
ATOM      1  C   UNL     1      15.079  -0.648  34.157  1.00  0.00     0.018 C 
ATOM      2  C   UNL     1      14.445  -1.141  35.461  1.00  0.00     0.009 C 
ATOM      3  C   UNL     1      13.497  -2.264  35.071  1.00  0.00     0.010 C 
ATOM      4  C   UNL     1      12.979  -1.919  33.659  1.00  0.00    -0.003 C 
ATOM      5  C   UNL     1      14.101  -1.043  33.016  1.00  0.00     0.008 C 
ATOM      6  C   UNL     1      14.753  -1.688  31.749  1.00  0.00    -0.000 C 
ATOM      7  C   UNL     1      15.894  -0.830  31.166  1.00  0.00     0.005 C 
ATOM      8  C   UNL     1      16.364  -1.322  29.784  1.00  0.00     0.005 C 
ATOM      9  C   UNL     1      16.708  -2.835  29.793  1.00  0.00     0.002 C 
ATOM     10  C   UNL     1      17.543  -3.442  28.544  1.00  0.00    -0.026 C 
ATOM     11  C   UNL     1      17.956  -2.406  27.430  1.00  0.00     0.010 C 
ATOM     12  C   UNL     1      17.011  -2.387  26.228  1.00  0.00     0.033 C 
ATOM     13  C   UNL     1      17.032  -3.731  25.458  1.00  0.00     0.120 C 
ATOM     14  C   UNL     1      17.114  -5.012  26.402  1.00  0.00    -0.006 C 
ATOM     15  C   UNL     1      16.708  -4.597  27.873  1.00  0.00     0.003 C 
ATOM     16  C   UNL     1      16.372  -5.733  28.875  1.00  0.00     0.005 C 
ATOM     17  C   UNL     1      15.965  -5.217  30.286  1.00  0.00     0.008 C 
ATOM     18  C   UNL     1      15.489  -3.718  30.333  1.00  0.00    -0.024 C 
ATOM     19  C   UNL     1      15.102  -3.234  31.832  1.00  0.00    -0.024 C 
ATOM     20  C   UNL     1      13.867  -4.039  32.403  1.00  0.00     0.008 C 
ATOM     21  C   UNL     1      12.652  -3.190  32.823  1.00  0.00     0.010 C 
ATOM     22  C   UNL     1      16.270  -3.488  32.848  1.00  0.00     0.012 C 
ATOM     23  C   UNL     1      14.204  -3.584  29.417  1.00  0.00     0.012 C 
ATOM     24  C   UNL     1      16.142  -6.115  25.891  1.00  0.00     0.014 C 
ATOM     25  C   UNL     1      18.535  -5.624  26.317  1.00  0.00     0.014 C 
ATOM     26  C   UNL     1      18.891  -3.992  29.129  1.00  0.00     0.012 C 
ENDROOT
BRANCH   1  27
ATOM     27  C   UNL     1      15.422   0.842  34.192  1.00  0.00    -0.077 C 
ATOM     28  C   UNL     1      14.996   1.743  33.061  1.00  0.00     0.039 C 
ATOM     29  C   UNL     1      16.105   1.385  35.214  1.00  0.00     0.008 C 
ENDBRANCH   1  27
BRANCH   4  30
ATOM     30  C   UNL     1      11.670  -1.078  33.790  1.00  0.00     0.163 C 
BRANCH  30  31
ATOM     31  O   UNL     1      11.320  -0.474  32.570  1.00  0.00    -0.396 OA
ATOM     32  H   UNL     1      12.036   0.179  32.352  1.00  0.00     0.210 HD
ENDBRANCH  30  31
ENDBRANCH   4  30
BRANCH  13  33
ATOM     33  O   UNL     1      15.885  -3.755  24.641  1.00  0.00    -0.393 OA
ATOM     34  H   UNL     1      15.377  -2.919  24.816  1.00  0.00     0.210 HD
ENDBRANCH  13  33
TORSDOF 4
ENDMDL
MODEL 8
REMARK VINA RESULT:    -4.829      3.371      5.589
REMARK INTER + INTRA:          -6.250
REMARK INTER:                  -5.953
REMARK INTRA:                  -0.296
REMARK UNBOUND:                -0.574
REMARK SMILES C=C(C)[C@H]1CC[C@]2(CO)CC[C@]3(C)[C@H](CC[C@@H]4[C@]5(C)CC[C@H](O)C(C)(C)[C@H]5CC[C@]43C)[C@H]12
REMARK SMILES IDX 4 1 5 2 6 3 7 4 32 5 14 6 15 7 16 8 17 9 18 10 20 11 21 12
REMARK SMILES IDX 22 13 24 14 27 15 28 16 29 17 30 18 12 19 11 20 10 21 13 22
REMARK SMILES IDX 31 23 25 24 26 25 19 26 2 27 3 28 1 29 8 30 9 31 23 33
REMARK H PARENT 9 32 23 34
REMARK Flexibility Score: inf
ROOT
ATOM      1  C   UNL     1      15.791  -4.464  28.179  1.00  0.00     0.018 C 
ATOM      2  C   UNL     1      15.298  -5.847  28.615  1.00  0.00     0.009 C 
ATOM      3  C   UNL     1      15.681  -5.988  30.081  1.00  0.00     0.010 C 
ATOM      4  C   UNL     1      16.979  -5.175  30.267  1.00  0.00    -0.003 C 
ATOM      5  C   UNL     1      16.934  -4.075  29.158  1.00  0.00     0.008 C 
ATOM      6  C   UNL     1      16.885  -2.617  29.721  1.00  0.00    -0.000 C 
ATOM      7  C   UNL     1      16.785  -1.554  28.608  1.00  0.00     0.005 C 
ATOM      8  C   UNL     1      16.998  -0.121  29.132  1.00  0.00     0.005 C 
ATOM      9  C   UNL     1      16.075   0.198  30.338  1.00  0.00     0.002 C 
ATOM     10  C   UNL     1      15.905   1.745  30.789  1.00  0.00    -0.026 C 
ATOM     11  C   UNL     1      16.690   2.800  29.920  1.00  0.00     0.010 C 
ATOM     12  C   UNL     1      18.028   3.224  30.529  1.00  0.00     0.033 C 
ATOM     13  C   UNL     1      17.838   3.971  31.873  1.00  0.00     0.120 C 
ATOM     14  C   UNL     1      16.689   3.362  32.792  1.00  0.00    -0.006 C 
ATOM     15  C   UNL     1      16.348   1.900  32.292  1.00  0.00     0.003 C 
ATOM     16  C   UNL     1      15.525   0.989  33.241  1.00  0.00     0.005 C 
ATOM     17  C   UNL     1      15.264  -0.434  32.664  1.00  0.00     0.008 C 
ATOM     18  C   UNL     1      16.243  -0.873  31.513  1.00  0.00    -0.024 C 
ATOM     19  C   UNL     1      15.904  -2.352  30.939  1.00  0.00    -0.024 C 
ATOM     20  C   UNL     1      16.100  -3.465  32.045  1.00  0.00     0.008 C 
ATOM     21  C   UNL     1      17.103  -4.582  31.699  1.00  0.00     0.010 C 
ATOM     22  C   UNL     1      14.407  -2.475  30.487  1.00  0.00     0.012 C 
ATOM     23  C   UNL     1      17.713  -0.890  32.101  1.00  0.00     0.012 C 
ATOM     24  C   UNL     1      17.164   3.302  34.273  1.00  0.00     0.014 C 
ATOM     25  C   UNL     1      15.462   4.307  32.775  1.00  0.00     0.014 C 
ATOM     26  C   UNL     1      14.387   2.100  30.613  1.00  0.00     0.012 C 
ENDROOT
BRANCH   1  27
ATOM     27  C   UNL     1      16.195  -4.418  26.705  1.00  0.00    -0.077 C 
ATOM     28  C   UNL     1      16.622  -5.680  25.998  1.00  0.00     0.039 C 
ATOM     29  C   UNL     1      16.186  -3.271  26.006  1.00  0.00     0.008 C 
ENDBRANCH   1  27
BRANCH   4  30
ATOM     30  C   UNL     1      18.204  -6.111  30.024  1.00  0.00     0.163 C 
BRANCH  30  31
ATOM     31  O   UNL     1      18.881  -5.779  28.838  1.00  0.00    -0.396 OA
ATOM     32  H   UNL     1      18.929  -6.605  28.289  1.00  0.00     0.210 HD
ENDBRANCH  30  31
ENDBRANCH   4  30
BRANCH  13  33
ATOM     33  O   UNL     1      19.087   3.968  32.525  1.00  0.00    -0.393 OA
ATOM     34  H   UNL     1      18.913   4.019  33.502  1.00  0.00     0.210 HD
ENDBRANCH  13  33
TORSDOF 4
ENDMDL
MODEL 9
REMARK VINA RESULT:    -4.752      1.724      8.092
REMARK INTER + INTRA:          -6.160
REMARK INTER:                  -6.126
REMARK INTRA:                  -0.033
REMARK UNBOUND:                -0.574
REMARK SMILES C=C(C)[C@H]1CC[C@]2(CO)CC[C@]3(C)[C@H](CC[C@@H]4[C@]5(C)CC[C@H](O)C(C)(C)[C@H]5CC[C@]43C)[C@H]12
REMARK SMILES IDX 4 1 5 2 6 3 7 4 32 5 14 6 15 7 16 8 17 9 18 10 20 11 21 12
REMARK SMILES IDX 22 13 24 14 27 15 28 16 29 17 30 18 12 19 11 20 10 21 13 22
REMARK SMILES IDX 31 23 25 24 26 25 19 26 2 27 3 28 1 29 8 30 9 31 23 33
REMARK H PARENT 9 32 23 34
REMARK Flexibility Score: inf
ROOT
ATOM      1  C   UNL     1      17.902   3.939  31.027  1.00  0.00     0.018 C 
ATOM      2  C   UNL     1      18.631   4.960  31.905  1.00  0.00     0.009 C 
ATOM      3  C   UNL     1      18.139   4.722  33.325  1.00  0.00     0.010 C 
ATOM      4  C   UNL     1      16.685   4.221  33.198  1.00  0.00    -0.003 C 
ATOM      5  C   UNL     1      16.609   3.544  31.792  1.00  0.00     0.008 C 
ATOM      6  C   UNL     1      16.286   2.015  31.848  1.00  0.00    -0.000 C 
ATOM      7  C   UNL     1      16.271   1.360  30.452  1.00  0.00     0.005 C 
ATOM      8  C   UNL     1      15.704  -0.072  30.471  1.00  0.00     0.005 C 
ATOM      9  C   UNL     1      16.409  -0.959  31.532  1.00  0.00     0.002 C 
ATOM     10  C   UNL     1      16.197  -2.564  31.455  1.00  0.00    -0.026 C 
ATOM     11  C   UNL     1      15.298  -3.080  30.268  1.00  0.00     0.010 C 
ATOM     12  C   UNL     1      13.846  -3.344  30.667  1.00  0.00     0.033 C 
ATOM     13  C   UNL     1      13.733  -4.496  31.696  1.00  0.00     0.120 C 
ATOM     14  C   UNL     1      14.885  -4.493  32.796  1.00  0.00    -0.006 C 
ATOM     15  C   UNL     1      15.580  -3.072  32.813  1.00  0.00     0.003 C 
ATOM     16  C   UNL     1      16.476  -2.723  34.030  1.00  0.00     0.005 C 
ATOM     17  C   UNL     1      17.093  -1.295  33.958  1.00  0.00     0.008 C 
ATOM     18  C   UNL     1      16.354  -0.301  32.987  1.00  0.00    -0.024 C 
ATOM     19  C   UNL     1      17.057   1.160  32.939  1.00  0.00    -0.024 C 
ATOM     20  C   UNL     1      16.991   1.885  34.342  1.00  0.00     0.008 C 
ATOM     21  C   UNL     1      16.291   3.257  34.354  1.00  0.00     0.010 C 
ATOM     22  C   UNL     1      18.585   1.062  32.594  1.00  0.00     0.012 C 
ATOM     23  C   UNL     1      14.868  -0.123  33.507  1.00  0.00     0.012 C 
ATOM     24  C   UNL     1      14.284  -4.789  34.201  1.00  0.00     0.014 C 
ATOM     25  C   UNL     1      15.877  -5.647  32.505  1.00  0.00     0.014 C 
ATOM     26  C   UNL     1      17.615  -3.193  31.216  1.00  0.00     0.012 C 
ENDROOT
BRANCH   1  27
ATOM     27  C   UNL     1      17.652   4.452  29.608  1.00  0.00    -0.077 C 
ATOM     28  C   UNL     1      17.949   5.889  29.260  1.00  0.00     0.039 C 
ATOM     29  C   UNL     1      17.164   3.653  28.645  1.00  0.00     0.008 C 
ENDBRANCH   1  27
BRANCH   4  30
ATOM     30  C   UNL     1      15.720   5.447  33.241  1.00  0.00     0.163 C 
BRANCH  30  31
ATOM     31  O   UNL     1      14.431   5.075  33.659  1.00  0.00    -0.396 OA
ATOM     32  H   UNL     1      14.017   4.569  32.912  1.00  0.00     0.210 HD
ENDBRANCH  30  31
ENDBRANCH   4  30
BRANCH  13  33
ATOM     33  O   UNL     1      12.453  -4.403  32.278  1.00  0.00    -0.393 OA
ATOM     34  H   UNL     1      12.356  -5.166  32.908  1.00  0.00     0.210 HD
ENDBRANCH  13  33
TORSDOF 4
ENDMDL
