MODEL 1
REMARK VINA RESULT:    -4.819      0.000      0.000
REMARK INTER + INTRA:          -7.736
REMARK INTER:                  -7.072
REMARK INTRA:                  -0.664
REMARK UNBOUND:                -0.664
REMARK SMILES CC(C)COC(=O)c1ccccc1C(=O)OCC(C)C
REMARK SMILES IDX 8 1 9 2 10 3 11 4 12 5 13 6 6 7 7 8 5 9 4 10 2 11 1 12 3 13
REMARK SMILES IDX 14 14 15 15 16 16 17 17 18 18 19 19 20 20
REMARK H PARENT
REMARK Flexibility Score: inf
ROOT
ATOM      1  C   UNL     1      17.676  -6.060  13.837  1.00  0.00     0.074 A 
ATOM      2  C   UNL     1      18.244  -4.795  13.609  1.00  0.00     0.016 A 
ATOM      3  C   UNL     1      19.226  -4.623  12.634  1.00  0.00     0.001 A 
ATOM      4  C   UNL     1      19.657  -5.709  11.875  1.00  0.00     0.001 A 
ATOM      5  C   UNL     1      19.123  -6.979  12.106  1.00  0.00     0.016 A 
ATOM      6  C   UNL     1      18.145  -7.180  13.098  1.00  0.00     0.074 A 
ENDROOT
BRANCH   1   7
ATOM      7  C   UNL     1      16.577  -6.160  14.813  1.00  0.00     0.339 C 
ATOM      8  O   UNL     1      16.833  -6.396  16.027  1.00  0.00    -0.246 OA
BRANCH   7   9
ATOM      9  O   UNL     1      15.256  -6.010  14.379  1.00  0.00    -0.462 OA
BRANCH   9  10
ATOM     10  C   UNL     1      14.841  -4.998  13.464  1.00  0.00     0.236 C 
BRANCH  10  11
ATOM     11  C   UNL     1      13.797  -4.058  14.100  1.00  0.00     0.021 C 
ATOM     12  C   UNL     1      13.361  -4.596  15.468  1.00  0.00     0.011 C 
ATOM     13  C   UNL     1      12.579  -3.875  13.185  1.00  0.00     0.011 C 
ENDBRANCH  10  11
ENDBRANCH   9  10
ENDBRANCH   7   9
ENDBRANCH   1   7
BRANCH   6  14
ATOM     14  C   UNL     1      17.703  -8.566  13.391  1.00  0.00     0.339 C 
ATOM     15  O   UNL     1      18.390  -9.293  14.161  1.00  0.00    -0.246 OA
BRANCH  14  16
ATOM     16  O   UNL     1      16.502  -9.047  12.855  1.00  0.00    -0.462 OA
BRANCH  16  17
ATOM     17  C   UNL     1      16.353 -10.325  12.238  1.00  0.00     0.236 C 
BRANCH  17  18
ATOM     18  C   UNL     1      14.991 -10.948  12.595  1.00  0.00     0.021 C 
ATOM     19  C   UNL     1      13.852 -10.023  12.150  1.00  0.00     0.011 C 
ATOM     20  C   UNL     1      14.823 -12.336  11.966  1.00  0.00     0.011 C 
ENDBRANCH  17  18
ENDBRANCH  16  17
ENDBRANCH  14  16
ENDBRANCH   6  14
TORSDOF 8
ENDMDL
MODEL 2
REMARK VINA RESULT:    -4.580      2.183      3.550
REMARK INTER + INTRA:          -7.386
REMARK INTER:                  -6.784
REMARK INTRA:                  -0.602
REMARK UNBOUND:                -0.664
REMARK SMILES CC(C)COC(=O)c1ccccc1C(=O)OCC(C)C
REMARK SMILES IDX 8 1 9 2 10 3 11 4 12 5 13 6 6 7 7 8 5 9 4 10 2 11 1 12 3 13
REMARK SMILES IDX 14 14 15 15 16 16 17 17 18 18 19 19 20 20
REMARK H PARENT
REMARK Flexibility Score: inf
ROOT
ATOM      1  C   UNL     1      16.107  -6.131  14.301  1.00  0.00     0.074 A 
ATOM      2  C   UNL     1      14.850  -5.530  14.478  1.00  0.00     0.016 A 
ATOM      3  C   UNL     1      13.983  -5.362  13.398  1.00  0.00     0.001 A 
ATOM      4  C   UNL     1      14.361  -5.789  12.126  1.00  0.00     0.001 A 
ATOM      5  C   UNL     1      15.618  -6.364  11.926  1.00  0.00     0.016 A 
ATOM      6  C   UNL     1      16.515  -6.525  12.998  1.00  0.00     0.074 A 
ENDROOT
BRANCH   1   7
ATOM      7  C   UNL     1      16.937  -6.365  15.495  1.00  0.00     0.339 C 
ATOM      8  O   UNL     1      17.617  -7.425  15.592  1.00  0.00    -0.246 OA
BRANCH   7   9
ATOM      9  O   UNL     1      16.947  -5.416  16.523  1.00  0.00    -0.462 OA
BRANCH   9  10
ATOM     10  C   UNL     1      17.033  -5.758  17.906  1.00  0.00     0.236 C 
BRANCH  10  11
ATOM     11  C   UNL     1      15.893  -5.109  18.717  1.00  0.00     0.021 C 
ATOM     12  C   UNL     1      14.755  -4.680  17.784  1.00  0.00     0.011 C 
ATOM     13  C   UNL     1      16.399  -3.910  19.529  1.00  0.00     0.011 C 
ENDBRANCH  10  11
ENDBRANCH   9  10
ENDBRANCH   7   9
ENDBRANCH   1   7
BRANCH   6  14
ATOM     14  C   UNL     1      17.884  -7.023  12.711  1.00  0.00     0.339 C 
ATOM     15  O   UNL     1      18.868  -6.237  12.799  1.00  0.00    -0.246 OA
BRANCH  14  16
ATOM     16  O   UNL     1      18.087  -8.372  12.393  1.00  0.00    -0.462 OA
BRANCH  16  17
ATOM     17  C   UNL     1      17.406  -9.457  13.021  1.00  0.00     0.236 C 
BRANCH  17  18
ATOM     18  C   UNL     1      16.353 -10.060  12.074  1.00  0.00     0.021 C 
ATOM     19  C   UNL     1      16.615 -11.557  11.875  1.00  0.00     0.011 C 
ATOM     20  C   UNL     1      14.929  -9.836  12.596  1.00  0.00     0.011 C 
ENDBRANCH  17  18
ENDBRANCH  16  17
ENDBRANCH  14  16
ENDBRANCH   6  14
TORSDOF 8
ENDMDL
MODEL 3
REMARK VINA RESULT:    -4.539      1.876      3.116
REMARK INTER + INTRA:          -7.325
REMARK INTER:                  -7.328
REMARK INTRA:                   0.003
REMARK UNBOUND:                -0.664
REMARK SMILES CC(C)COC(=O)c1ccccc1C(=O)OCC(C)C
REMARK SMILES IDX 8 1 9 2 10 3 11 4 12 5 13 6 6 7 7 8 5 9 4 10 2 11 1 12 3 13
REMARK SMILES IDX 14 14 15 15 16 16 17 17 18 18 19 19 20 20
REMARK H PARENT
REMARK Flexibility Score: inf
ROOT
ATOM      1  C   UNL     1      15.983  -6.439  13.354  1.00  0.00     0.074 A 
ATOM      2  C   UNL     1      17.209  -5.756  13.412  1.00  0.00     0.016 A 
ATOM      3  C   UNL     1      18.337  -6.267  12.770  1.00  0.00     0.001 A 
ATOM      4  C   UNL     1      18.258  -7.466  12.065  1.00  0.00     0.001 A 
ATOM      5  C   UNL     1      17.054  -8.172  12.019  1.00  0.00     0.016 A 
ATOM      6  C   UNL     1      15.907  -7.685  12.675  1.00  0.00     0.074 A 
ENDROOT
BRANCH   1   7
ATOM      7  C   UNL     1      14.806  -5.802  13.971  1.00  0.00     0.339 C 
ATOM      8  O   UNL     1      14.043  -5.078  13.273  1.00  0.00    -0.246 OA
BRANCH   7   9
ATOM      9  O   UNL     1      14.558  -5.991  15.335  1.00  0.00    -0.462 OA
BRANCH   9  10
ATOM     10  C   UNL     1      15.066  -5.128  16.352  1.00  0.00     0.236 C 
BRANCH  10  11
ATOM     11  C   UNL     1      15.902  -5.909  17.385  1.00  0.00     0.021 C 
ATOM     12  C   UNL     1      16.239  -5.013  18.582  1.00  0.00     0.011 C 
ATOM     13  C   UNL     1      17.186  -6.466  16.757  1.00  0.00     0.011 C 
ENDBRANCH  10  11
ENDBRANCH   9  10
ENDBRANCH   7   9
ENDBRANCH   1   7
BRANCH   6  14
ATOM     14  C   UNL     1      14.690  -8.533  12.704  1.00  0.00     0.339 C 
ATOM     15  O   UNL     1      13.608  -8.063  13.154  1.00  0.00    -0.246 OA
BRANCH  14  16
ATOM     16  O   UNL     1      14.729  -9.834  12.186  1.00  0.00    -0.462 OA
BRANCH  16  17
ATOM     17  C   UNL     1      13.885 -10.898  12.623  1.00  0.00     0.236 C 
BRANCH  17  18
ATOM     18  C   UNL     1      14.413 -12.254  12.121  1.00  0.00     0.021 C 
ATOM     19  C   UNL     1      15.934 -12.330  12.299  1.00  0.00     0.011 C 
ATOM     20  C   UNL     1      13.735 -13.426  12.841  1.00  0.00     0.011 C 
ENDBRANCH  17  18
ENDBRANCH  16  17
ENDBRANCH  14  16
ENDBRANCH   6  14
TORSDOF 8
ENDMDL
MODEL 4
REMARK VINA RESULT:    -4.486      0.817      4.607
REMARK INTER + INTRA:          -7.247
REMARK INTER:                  -6.478
REMARK INTRA:                  -0.769
REMARK UNBOUND:                -0.664
REMARK SMILES CC(C)COC(=O)c1ccccc1C(=O)OCC(C)C
REMARK SMILES IDX 8 1 9 2 10 3 11 4 12 5 13 6 6 7 7 8 5 9 4 10 2 11 1 12 3 13
REMARK SMILES IDX 14 14 15 15 16 16 17 17 18 18 19 19 20 20
REMARK H PARENT
REMARK Flexibility Score: inf
ROOT
ATOM      1  C   UNL     1      18.245  -7.143  13.342  1.00  0.00     0.074 A 
ATOM      2  C   UNL     1      19.078  -6.918  12.234  1.00  0.00     0.016 A 
ATOM      3  C   UNL     1      19.453  -5.622  11.878  1.00  0.00     0.001 A 
ATOM      4  C   UNL     1      19.000  -4.534  12.622  1.00  0.00     0.001 A 
ATOM      5  C   UNL     1      18.148  -4.737  13.710  1.00  0.00     0.016 A 
ATOM      6  C   UNL     1      17.742  -6.034  14.075  1.00  0.00     0.074 A 
ENDROOT
BRANCH   1   7
ATOM      7  C   UNL     1      17.961  -8.538  13.723  1.00  0.00     0.339 C 
ATOM      8  O   UNL     1      18.473  -9.021  14.771  1.00  0.00    -0.246 OA
BRANCH   7   9
ATOM      9  O   UNL     1      17.140  -9.321  12.905  1.00  0.00    -0.462 OA
BRANCH   9  10
ATOM     10  C   UNL     1      15.782  -8.995  12.615  1.00  0.00     0.236 C 
BRANCH  10  11
ATOM     11  C   UNL     1      15.050 -10.176  11.947  1.00  0.00     0.021 C 
ATOM     12  C   UNL     1      13.688 -10.403  12.613  1.00  0.00     0.011 C 
ATOM     13  C   UNL     1      15.892 -11.458  12.004  1.00  0.00     0.011 C 
ENDBRANCH  10  11
ENDBRANCH   9  10
ENDBRANCH   7   9
ENDBRANCH   1   7
BRANCH   6  14
ATOM     14  C   UNL     1      16.738  -6.187  15.157  1.00  0.00     0.339 C 
ATOM     15  O   UNL     1      17.064  -6.745  16.242  1.00  0.00    -0.246 OA
BRANCH  14  16
ATOM     16  O   UNL     1      15.447  -5.668  14.994  1.00  0.00    -0.462 OA
BRANCH  16  17
ATOM     17  C   UNL     1      14.405  -6.321  14.270  1.00  0.00     0.236 C 
BRANCH  17  18
ATOM     18  C   UNL     1      13.785  -5.369  13.231  1.00  0.00     0.021 C 
ATOM     19  C   UNL     1      12.983  -4.268  13.933  1.00  0.00     0.011 C 
ATOM     20  C   UNL     1      14.855  -4.750  12.323  1.00  0.00     0.011 C 
ENDBRANCH  17  18
ENDBRANCH  16  17
ENDBRANCH  14  16
ENDBRANCH   6  14
TORSDOF 8
ENDMDL
MODEL 5
REMARK VINA RESULT:    -4.484      1.959      5.861
REMARK INTER + INTRA:          -7.245
REMARK INTER:                  -7.169
REMARK INTRA:                  -0.075
REMARK UNBOUND:                -0.664
REMARK SMILES CC(C)COC(=O)c1ccccc1C(=O)OCC(C)C
REMARK SMILES IDX 8 1 9 2 10 3 11 4 12 5 13 6 6 7 7 8 5 9 4 10 2 11 1 12 3 13
REMARK SMILES IDX 14 14 15 15 16 16 17 17 18 18 19 19 20 20
REMARK H PARENT
REMARK Flexibility Score: inf
ROOT
ATOM      1  C   UNL     1      15.852  -7.472  12.712  1.00  0.00     0.074 A 
ATOM      2  C   UNL     1      16.874  -8.027  11.925  1.00  0.00     0.016 A 
ATOM      3  C   UNL     1      18.168  -7.507  11.971  1.00  0.00     0.001 A 
ATOM      4  C   UNL     1      18.458  -6.427  12.802  1.00  0.00     0.001 A 
ATOM      5  C   UNL     1      17.449  -5.845  13.571  1.00  0.00     0.016 A 
ATOM      6  C   UNL     1      16.132  -6.341  13.525  1.00  0.00     0.074 A 
ENDROOT
BRANCH   1   7
ATOM      7  C   UNL     1      14.530  -8.124  12.691  1.00  0.00     0.339 C 
ATOM      8  O   UNL     1      13.565  -7.611  13.321  1.00  0.00    -0.246 OA
BRANCH   7   9
ATOM      9  O   UNL     1      14.366  -9.320  11.984  1.00  0.00    -0.462 OA
BRANCH   9  10
ATOM     10  C   UNL     1      14.016 -10.557  12.606  1.00  0.00     0.236 C 
BRANCH  10  11
ATOM     11  C   UNL     1      14.743 -11.744  11.943  1.00  0.00     0.021 C 
ATOM     12  C   UNL     1      14.125 -13.069  12.403  1.00  0.00     0.011 C 
ATOM     13  C   UNL     1      16.246 -11.720  12.250  1.00  0.00     0.011 C 
ENDBRANCH  10  11
ENDBRANCH   9  10
ENDBRANCH   7   9
ENDBRANCH   1   7
BRANCH   6  14
ATOM     14  C   UNL     1      15.070  -5.610  14.262  1.00  0.00     0.339 C 
ATOM     15  O   UNL     1      14.382  -4.735  13.667  1.00  0.00    -0.246 OA
BRANCH  14  16
ATOM     16  O   UNL     1      14.800  -5.927  15.600  1.00  0.00    -0.462 OA
BRANCH  16  17
ATOM     17  C   UNL     1      15.000  -5.033  16.693  1.00  0.00     0.236 C 
BRANCH  17  18
ATOM     18  C   UNL     1      15.888  -5.680  17.771  1.00  0.00     0.021 C 
ATOM     19  C   UNL     1      17.171  -6.233  17.141  1.00  0.00     0.011 C 
ATOM     20  C   UNL     1      16.231  -4.689  18.890  1.00  0.00     0.011 C 
ENDBRANCH  17  18
ENDBRANCH  16  17
ENDBRANCH  14  16
ENDBRANCH   6  14
TORSDOF 8
ENDMDL
MODEL 6
REMARK VINA RESULT:    -4.431      2.450      5.762
REMARK INTER + INTRA:          -7.167
REMARK INTER:                  -6.779
REMARK INTRA:                  -0.388
REMARK UNBOUND:                -0.664
REMARK SMILES CC(C)COC(=O)c1ccccc1C(=O)OCC(C)C
REMARK SMILES IDX 8 1 9 2 10 3 11 4 12 5 13 6 6 7 7 8 5 9 4 10 2 11 1 12 3 13
REMARK SMILES IDX 14 14 15 15 16 16 17 17 18 18 19 19 20 20
REMARK H PARENT
REMARK Flexibility Score: inf
ROOT
ATOM      1  C   UNL     1      15.433  -8.690  12.735  1.00  0.00     0.074 A 
ATOM      2  C   UNL     1      16.052  -9.944  12.602  1.00  0.00     0.016 A 
ATOM      3  C   UNL     1      17.436 -10.070  12.719  1.00  0.00     0.001 A 
ATOM      4  C   UNL     1      18.221  -8.947  12.968  1.00  0.00     0.001 A 
ATOM      5  C   UNL     1      17.627  -7.688  13.077  1.00  0.00     0.016 A 
ATOM      6  C   UNL     1      16.234  -7.535  12.943  1.00  0.00     0.074 A 
ENDROOT
BRANCH   1   7
ATOM      7  C   UNL     1      13.961  -8.636  12.696  1.00  0.00     0.339 C 
ATOM      8  O   UNL     1      13.345  -7.757  13.360  1.00  0.00    -0.246 OA
BRANCH   7   9
ATOM      9  O   UNL     1      13.259  -9.577  11.935  1.00  0.00    -0.462 OA
BRANCH   9  10
ATOM     10  C   UNL     1      12.220 -10.398  12.467  1.00  0.00     0.236 C 
BRANCH  10  11
ATOM     11  C   UNL     1      12.312 -11.840  11.928  1.00  0.00     0.021 C 
ATOM     12  C   UNL     1      10.920 -12.483  11.891  1.00  0.00     0.011 C 
ATOM     13  C   UNL     1      13.270 -12.690  12.772  1.00  0.00     0.011 C 
ENDBRANCH  10  11
ENDBRANCH   9  10
ENDBRANCH   7   9
ENDBRANCH   1   7
BRANCH   6  14
ATOM     14  C   UNL     1      15.666  -6.163  12.939  1.00  0.00     0.339 C 
ATOM     15  O   UNL     1      15.177  -5.690  11.876  1.00  0.00    -0.246 OA
BRANCH  14  16
ATOM     16  O   UNL     1      15.627  -5.417  14.124  1.00  0.00    -0.462 OA
BRANCH  16  17
ATOM     17  C   UNL     1      15.339  -5.966  15.409  1.00  0.00     0.236 C 
BRANCH  17  18
ATOM     18  C   UNL     1      16.530  -5.771  16.365  1.00  0.00     0.021 C 
ATOM     19  C   UNL     1      16.031  -5.553  17.797  1.00  0.00     0.011 C 
ATOM     20  C   UNL     1      17.494  -6.963  16.315  1.00  0.00     0.011 C 
ENDBRANCH  17  18
ENDBRANCH  16  17
ENDBRANCH  14  16
ENDBRANCH   6  14
TORSDOF 8
ENDMDL
MODEL 7
REMARK VINA RESULT:    -4.317      1.666      5.668
REMARK INTER + INTRA:          -6.999
REMARK INTER:                  -6.959
REMARK INTRA:                  -0.040
REMARK UNBOUND:                -0.664
REMARK SMILES CC(C)COC(=O)c1ccccc1C(=O)OCC(C)C
REMARK SMILES IDX 8 1 9 2 10 3 11 4 12 5 13 6 6 7 7 8 5 9 4 10 2 11 1 12 3 13
REMARK SMILES IDX 14 14 15 15 16 16 17 17 18 18 19 19 20 20
REMARK H PARENT
REMARK Flexibility Score: inf
ROOT
ATOM      1  C   UNL     1      16.132 -10.452  12.580  1.00  0.00     0.074 A 
ATOM      2  C   UNL     1      16.595 -11.772  12.455  1.00  0.00     0.016 A 
ATOM      3  C   UNL     1      15.713 -12.808  12.147  1.00  0.00     0.001 A 
ATOM      4  C   UNL     1      14.358 -12.540  11.962  1.00  0.00     0.001 A 
ATOM      5  C   UNL     1      13.876 -11.239  12.108  1.00  0.00     0.016 A 
ATOM      6  C   UNL     1      14.745 -10.181  12.438  1.00  0.00     0.074 A 
ENDROOT
BRANCH   1   7
ATOM      7  C   UNL     1      17.126  -9.389  12.813  1.00  0.00     0.339 C 
ATOM      8  O   UNL     1      17.444  -8.607  11.875  1.00  0.00    -0.246 OA
BRANCH   7   9
ATOM      9  O   UNL     1      17.724  -9.271  14.073  1.00  0.00    -0.462 OA
BRANCH   9  10
ATOM     10  C   UNL     1      18.326  -8.066  14.545  1.00  0.00     0.236 C 
BRANCH  10  11
ATOM     11  C   UNL     1      17.326  -6.893  14.529  1.00  0.00     0.021 C 
ATOM     12  C   UNL     1      17.866  -5.745  13.670  1.00  0.00     0.011 C 
ATOM     13  C   UNL     1      17.022  -6.400  15.950  1.00  0.00     0.011 C 
ENDBRANCH  10  11
ENDBRANCH   9  10
ENDBRANCH   7   9
ENDBRANCH   1   7
BRANCH   6  14
ATOM     14  C   UNL     1      14.165  -8.841  12.708  1.00  0.00     0.339 C 
ATOM     15  O   UNL     1      13.014  -8.748  13.219  1.00  0.00    -0.246 OA
BRANCH  14  16
ATOM     16  O   UNL     1      14.913  -7.687  12.442  1.00  0.00    -0.462 OA
BRANCH  16  17
ATOM     17  C   UNL     1      14.371  -6.490  11.887  1.00  0.00     0.236 C 
BRANCH  17  18
ATOM     18  C   UNL     1      14.577  -5.303  12.845  1.00  0.00     0.021 C 
ATOM     19  C   UNL     1      14.387  -3.978  12.097  1.00  0.00     0.011 C 
ATOM     20  C   UNL     1      13.625  -5.375  14.045  1.00  0.00     0.011 C 
ENDBRANCH  17  18
ENDBRANCH  16  17
ENDBRANCH  14  16
ENDBRANCH   6  14
TORSDOF 8
ENDMDL
MODEL 8
REMARK VINA RESULT:    -3.396      1.591      2.537
REMARK INTER + INTRA:          -5.648
REMARK INTER:                  -4.955
REMARK INTRA:                  -0.693
REMARK UNBOUND:                -0.664
REMARK SMILES CC(C)COC(=O)c1ccccc1C(=O)OCC(C)C
REMARK SMILES IDX 8 1 9 2 10 3 11 4 12 5 13 6 6 7 7 8 5 9 4 10 2 11 1 12 3 13
REMARK SMILES IDX 14 14 15 15 16 16 17 17 18 18 19 19 20 20
REMARK H PARENT
REMARK Flexibility Score: inf
ROOT
ATOM      1  C   UNL     1      17.399  -6.033  13.276  1.00  0.00     0.074 A 
ATOM      2  C   UNL     1      17.964  -4.757  13.114  1.00  0.00     0.016 A 
ATOM      3  C   UNL     1      19.161  -4.593  12.417  1.00  0.00     0.001 A 
ATOM      4  C   UNL     1      19.811  -5.700  11.875  1.00  0.00     0.001 A 
ATOM      5  C   UNL     1      19.279  -6.979  12.049  1.00  0.00     0.016 A 
ATOM      6  C   UNL     1      18.081  -7.169  12.766  1.00  0.00     0.074 A 
ENDROOT
BRANCH   1   7
ATOM      7  C   UNL     1      16.086  -6.129  13.939  1.00  0.00     0.339 C 
ATOM      8  O   UNL     1      15.074  -6.498  13.281  1.00  0.00    -0.246 OA
BRANCH   7   9
ATOM      9  O   UNL     1      15.973  -5.791  15.292  1.00  0.00    -0.462 OA
BRANCH   9  10
ATOM     10  C   UNL     1      16.879  -6.250  16.294  1.00  0.00     0.236 C 
BRANCH  10  11
ATOM     11  C   UNL     1      16.323  -6.003  17.711  1.00  0.00     0.021 C 
ATOM     12  C   UNL     1      15.120  -5.055  17.651  1.00  0.00     0.011 C 
ATOM     13  C   UNL     1      17.403  -5.438  18.643  1.00  0.00     0.011 C 
ENDBRANCH  10  11
ENDBRANCH   9  10
ENDBRANCH   7   9
ENDBRANCH   1   7
BRANCH   6  14
ATOM     14  C   UNL     1      17.625  -8.556  13.032  1.00  0.00     0.339 C 
ATOM     15  O   UNL     1      18.034  -9.165  14.060  1.00  0.00    -0.246 OA
BRANCH  14  16
ATOM     16  O   UNL     1      16.704  -9.169  12.172  1.00  0.00    -0.462 OA
BRANCH  16  17
ATOM     17  C   UNL     1      15.433  -9.671  12.582  1.00  0.00     0.236 C 
BRANCH  17  18
ATOM     18  C   UNL     1      15.135 -11.019  11.902  1.00  0.00     0.021 C 
ATOM     19  C   UNL     1      16.272 -12.012  12.169  1.00  0.00     0.011 C 
ATOM     20  C   UNL     1      13.798 -11.605  12.373  1.00  0.00     0.011 C 
ENDBRANCH  17  18
ENDBRANCH  16  17
ENDBRANCH  14  16
ENDBRANCH   6  14
TORSDOF 8
ENDMDL
