MODEL 1
REMARK VINA RESULT:    -3.247      0.000      0.000
REMARK INTER + INTRA:          -6.688
REMARK INTER:                  -5.524
REMARK INTRA:                  -1.164
REMARK UNBOUND:                -1.164
REMARK SMILES CCCCCCCCCCCCCC(=O)[O-]
REMARK SMILES IDX 8 1 9 2 10 3 11 4 12 5 13 6 14 7 15 8 16 9 7 10 6 11 5 12
REMARK SMILES IDX 4 13 3 14 2 15 1 16
REMARK H PARENT
REMARK Flexibility Score: inf
ROOT
ATOM      1  C   UNL     1      33.726  19.077  13.360  1.00  0.00     0.000 C 
ENDROOT
BRANCH   1   2
ATOM      2  C   UNL     1      32.875  20.091  12.560  1.00  0.00     0.000 C 
BRANCH   2   3
ATOM      3  C   UNL     1      33.457  21.517  12.500  1.00  0.00     0.000 C 
BRANCH   3   4
ATOM      4  C   UNL     1      34.127  21.911  11.166  1.00  0.00     0.000 C 
BRANCH   4   5
ATOM      5  C   UNL     1      35.249  22.959  11.278  1.00  0.00     0.006 C 
BRANCH   5   6
ATOM      6  C   UNL     1      36.611  22.423  10.819  1.00  0.00     0.053 C 
BRANCH   6   7
ATOM      7  C   UNL     1      36.511  21.857   9.438  1.00  0.00     0.041 C 
ATOM      8  O   UNL     1      36.172  22.594   8.474  1.00  0.00    -0.550 OA
ATOM      9  O   UNL     1      36.744  20.505   9.222  1.00  0.00    -0.550 OA
ENDBRANCH   6   7
ENDBRANCH   5   6
ENDBRANCH   4   5
ENDBRANCH   3   4
ENDBRANCH   2   3
ENDBRANCH   1   2
BRANCH   1  10
ATOM     10  C   UNL     1      32.975  18.428  14.538  1.00  0.00     0.000 C 
BRANCH  10  11
ATOM     11  C   UNL     1      33.629  18.635  15.915  1.00  0.00    -0.000 C 
BRANCH  11  12
ATOM     12  C   UNL     1      34.240  20.032  16.149  1.00  0.00    -0.000 C 
BRANCH  12  13
ATOM     13  C   UNL     1      35.760  20.125  15.924  1.00  0.00    -0.000 C 
BRANCH  13  14
ATOM     14  C   UNL     1      36.240  21.560  15.664  1.00  0.00    -0.000 C 
BRANCH  14  15
ATOM     15  C   UNL     1      36.994  21.654  14.334  1.00  0.00    -0.003 C 
ATOM     16  C   UNL     1      38.212  22.565  14.452  1.00  0.00     0.004 C 
ENDBRANCH  14  15
ENDBRANCH  13  14
ENDBRANCH  12  13
ENDBRANCH  11  12
ENDBRANCH  10  11
ENDBRANCH   1  10
TORSDOF 12
ENDMDL
MODEL 2
REMARK VINA RESULT:    -2.972     13.546     16.507
REMARK INTER + INTRA:          -6.221
REMARK INTER:                  -5.261
REMARK INTRA:                  -0.959
REMARK UNBOUND:                -1.164
REMARK SMILES CCCCCCCCCCCCCC(=O)[O-]
REMARK SMILES IDX 8 1 9 2 10 3 11 4 12 5 13 6 14 7 15 8 16 9 7 10 6 11 5 12
REMARK SMILES IDX 4 13 3 14 2 15 1 16
REMARK H PARENT
REMARK Flexibility Score: inf
ROOT
ATOM      1  C   UNL     1      46.879  21.348  16.395  1.00  0.00     0.000 C 
ENDROOT
BRANCH   1   2
ATOM      2  C   UNL     1      47.208  22.824  16.719  1.00  0.00     0.000 C 
BRANCH   2   3
ATOM      3  C   UNL     1      47.422  23.123  18.216  1.00  0.00     0.000 C 
BRANCH   3   4
ATOM      4  C   UNL     1      48.875  22.998  18.722  1.00  0.00     0.000 C 
BRANCH   4   5
ATOM      5  C   UNL     1      49.026  22.733  20.231  1.00  0.00     0.006 C 
BRANCH   5   6
ATOM      6  C   UNL     1      50.440  22.282  20.617  1.00  0.00     0.053 C 
BRANCH   6   7
ATOM      7  C   UNL     1      50.459  21.770  22.023  1.00  0.00     0.041 C 
ATOM      8  O   UNL     1      49.737  20.790  22.349  1.00  0.00    -0.550 OA
ATOM      9  O   UNL     1      51.235  22.404  22.984  1.00  0.00    -0.550 OA
ENDBRANCH   6   7
ENDBRANCH   5   6
ENDBRANCH   4   5
ENDBRANCH   3   4
ENDBRANCH   2   3
ENDBRANCH   1   2
BRANCH   1  10
ATOM     10  C   UNL     1      47.891  20.681  15.443  1.00  0.00     0.000 C 
BRANCH  10  11
ATOM     11  C   UNL     1      49.243  21.406  15.323  1.00  0.00    -0.000 C 
BRANCH  11  12
ATOM     12  C   UNL     1      50.441  20.506  14.960  1.00  0.00    -0.000 C 
BRANCH  12  13
ATOM     13  C   UNL     1      51.701  21.254  14.490  1.00  0.00    -0.000 C 
BRANCH  13  14
ATOM     14  C   UNL     1      52.843  21.207  15.516  1.00  0.00    -0.000 C 
BRANCH  14  15
ATOM     15  C   UNL     1      53.125  22.602  16.085  1.00  0.00    -0.003 C 
ATOM     16  C   UNL     1      52.126  22.963  17.181  1.00  0.00     0.004 C 
ENDBRANCH  14  15
ENDBRANCH  13  14
ENDBRANCH  12  13
ENDBRANCH  11  12
ENDBRANCH  10  11
ENDBRANCH   1  10
TORSDOF 12
ENDMDL
MODEL 3
REMARK VINA RESULT:    -2.954     13.662     16.985
REMARK INTER + INTRA:          -6.191
REMARK INTER:                  -4.930
REMARK INTRA:                  -1.261
REMARK UNBOUND:                -1.164
REMARK SMILES CCCCCCCCCCCCCC(=O)[O-]
REMARK SMILES IDX 8 1 9 2 10 3 11 4 12 5 13 6 14 7 15 8 16 9 7 10 6 11 5 12
REMARK SMILES IDX 4 13 3 14 2 15 1 16
REMARK H PARENT
REMARK Flexibility Score: inf
ROOT
ATOM      1  C   UNL     1      52.753  20.977  15.827  1.00  0.00     0.000 C 
ENDROOT
BRANCH   1   2
ATOM      2  C   UNL     1      52.858  22.517  15.919  1.00  0.00     0.000 C 
BRANCH   2   3
ATOM      3  C   UNL     1      52.515  23.105  17.302  1.00  0.00     0.000 C 
BRANCH   3   4
ATOM      4  C   UNL     1      52.015  22.091  18.355  1.00  0.00     0.000 C 
BRANCH   4   5
ATOM      5  C   UNL     1      50.911  22.609  19.294  1.00  0.00     0.006 C 
BRANCH   5   6
ATOM      6  C   UNL     1      51.351  22.649  20.763  1.00  0.00     0.053 C 
BRANCH   6   7
ATOM      7  C   UNL     1      51.263  21.285  21.371  1.00  0.00     0.041 C 
ATOM      8  O   UNL     1      50.157  20.846  21.785  1.00  0.00    -0.550 OA
ATOM      9  O   UNL     1      52.410  20.517  21.527  1.00  0.00    -0.550 OA
ENDBRANCH   6   7
ENDBRANCH   5   6
ENDBRANCH   4   5
ENDBRANCH   3   4
ENDBRANCH   2   3
ENDBRANCH   1   2
BRANCH   1  10
ATOM     10  C   UNL     1      51.654  20.486  14.865  1.00  0.00     0.000 C 
BRANCH  10  11
ATOM     11  C   UNL     1      50.462  21.445  14.700  1.00  0.00    -0.000 C 
BRANCH  11  12
ATOM     12  C   UNL     1      49.236  21.126  15.580  1.00  0.00    -0.000 C 
BRANCH  12  13
ATOM     13  C   UNL     1      48.651  22.326  16.344  1.00  0.00    -0.000 C 
BRANCH  13  14
ATOM     14  C   UNL     1      47.247  22.053  16.903  1.00  0.00    -0.000 C 
BRANCH  14  15
ATOM     15  C   UNL     1      46.426  21.200  15.930  1.00  0.00    -0.003 C 
ATOM     16  C   UNL     1      44.932  21.308  16.224  1.00  0.00     0.004 C 
ENDBRANCH  14  15
ENDBRANCH  13  14
ENDBRANCH  12  13
ENDBRANCH  11  12
ENDBRANCH  10  11
ENDBRANCH   1  10
TORSDOF 12
ENDMDL
MODEL 4
REMARK VINA RESULT:    -2.653     14.820     17.723
REMARK INTER + INTRA:          -5.679
REMARK INTER:                  -4.327
REMARK INTRA:                  -1.352
REMARK UNBOUND:                -1.164
REMARK SMILES CCCCCCCCCCCCCC(=O)[O-]
REMARK SMILES IDX 8 1 9 2 10 3 11 4 12 5 13 6 14 7 15 8 16 9 7 10 6 11 5 12
REMARK SMILES IDX 4 13 3 14 2 15 1 16
REMARK H PARENT
REMARK Flexibility Score: inf
ROOT
ATOM      1  C   UNL     1      49.723  22.346  19.009  1.00  0.00     0.000 C 
ENDROOT
BRANCH   1   2
ATOM      2  C   UNL     1      51.069  22.952  18.547  1.00  0.00     0.000 C 
BRANCH   2   3
ATOM      3  C   UNL     1      52.320  22.228  19.084  1.00  0.00     0.000 C 
BRANCH   3   4
ATOM      4  C   UNL     1      53.117  22.986  20.169  1.00  0.00     0.000 C 
BRANCH   4   5
ATOM      5  C   UNL     1      52.897  22.495  21.611  1.00  0.00     0.006 C 
BRANCH   5   6
ATOM      6  C   UNL     1      52.096  21.189  21.678  1.00  0.00     0.053 C 
BRANCH   6   7
ATOM      7  C   UNL     1      50.788  21.413  22.369  1.00  0.00     0.041 C 
ATOM      8  O   UNL     1      50.632  22.411  23.122  1.00  0.00    -0.550 OA
ATOM      9  O   UNL     1      49.757  20.495  22.221  1.00  0.00    -0.550 OA
ENDBRANCH   6   7
ENDBRANCH   5   6
ENDBRANCH   4   5
ENDBRANCH   3   4
ENDBRANCH   2   3
ENDBRANCH   1   2
BRANCH   1  10
ATOM     10  C   UNL     1      48.508  22.850  18.208  1.00  0.00     0.000 C 
BRANCH  10  11
ATOM     11  C   UNL     1      48.709  22.889  16.682  1.00  0.00    -0.000 C 
BRANCH  11  12
ATOM     12  C   UNL     1      48.603  21.524  15.971  1.00  0.00    -0.000 C 
BRANCH  12  13
ATOM     13  C   UNL     1      49.684  21.256  14.909  1.00  0.00    -0.000 C 
BRANCH  13  14
ATOM     14  C   UNL     1      51.037  20.859  15.518  1.00  0.00    -0.000 C 
BRANCH  14  15
ATOM     15  C   UNL     1      52.193  21.259  14.595  1.00  0.00    -0.003 C 
ATOM     16  C   UNL     1      53.112  22.274  15.269  1.00  0.00     0.004 C 
ENDBRANCH  14  15
ENDBRANCH  13  14
ENDBRANCH  12  13
ENDBRANCH  11  12
ENDBRANCH  10  11
ENDBRANCH   1  10
TORSDOF 12
ENDMDL
MODEL 5
REMARK VINA RESULT:    -2.421      1.343      3.444
REMARK INTER + INTRA:          -5.284
REMARK INTER:                  -3.984
REMARK INTRA:                  -1.300
REMARK UNBOUND:                -1.164
REMARK SMILES CCCCCCCCCCCCCC(=O)[O-]
REMARK SMILES IDX 8 1 9 2 10 3 11 4 12 5 13 6 14 7 15 8 16 9 7 10 6 11 5 12
REMARK SMILES IDX 4 13 3 14 2 15 1 16
REMARK H PARENT
REMARK Flexibility Score: inf
ROOT
ATOM      1  C   UNL     1      37.109  21.528  14.733  1.00  0.00     0.000 C 
ENDROOT
BRANCH   1   2
ATOM      2  C   UNL     1      36.830  22.789  13.882  1.00  0.00     0.000 C 
BRANCH   2   3
ATOM      3  C   UNL     1      35.337  23.119  13.689  1.00  0.00     0.000 C 
BRANCH   3   4
ATOM      4  C   UNL     1      34.767  22.843  12.280  1.00  0.00     0.000 C 
BRANCH   4   5
ATOM      5  C   UNL     1      35.817  22.690  11.165  1.00  0.00     0.006 C 
BRANCH   5   6
ATOM      6  C   UNL     1      35.514  21.520  10.220  1.00  0.00     0.053 C 
BRANCH   6   7
ATOM      7  C   UNL     1      34.528  21.934   9.175  1.00  0.00     0.041 C 
ATOM      8  O   UNL     1      34.926  22.435   8.091  1.00  0.00    -0.550 OA
ATOM      9  O   UNL     1      33.166  21.813   9.418  1.00  0.00    -0.550 OA
ENDBRANCH   6   7
ENDBRANCH   5   6
ENDBRANCH   4   5
ENDBRANCH   3   4
ENDBRANCH   2   3
ENDBRANCH   1   2
BRANCH   1  10
ATOM     10  C   UNL     1      36.266  21.449  16.021  1.00  0.00     0.000 C 
BRANCH  10  11
ATOM     11  C   UNL     1      35.787  20.035  16.394  1.00  0.00    -0.000 C 
BRANCH  11  12
ATOM     12  C   UNL     1      34.261  19.817  16.315  1.00  0.00    -0.000 C 
BRANCH  12  13
ATOM     13  C   UNL     1      33.824  18.493  15.663  1.00  0.00    -0.000 C 
BRANCH  13  14
ATOM     14  C   UNL     1      32.875  18.696  14.473  1.00  0.00    -0.000 C 
BRANCH  14  15
ATOM     15  C   UNL     1      33.325  19.879  13.609  1.00  0.00    -0.003 C 
ATOM     16  C   UNL     1      33.277  19.529  12.125  1.00  0.00     0.004 C 
ENDBRANCH  14  15
ENDBRANCH  13  14
ENDBRANCH  12  13
ENDBRANCH  11  12
ENDBRANCH  10  11
ENDBRANCH   1  10
TORSDOF 12
ENDMDL
MODEL 6
REMARK VINA RESULT:    -2.203      1.848      4.204
REMARK INTER + INTRA:          -4.913
REMARK INTER:                  -4.485
REMARK INTRA:                  -0.428
REMARK UNBOUND:                -1.164
REMARK SMILES CCCCCCCCCCCCCC(=O)[O-]
REMARK SMILES IDX 8 1 9 2 10 3 11 4 12 5 13 6 14 7 15 8 16 9 7 10 6 11 5 12
REMARK SMILES IDX 4 13 3 14 2 15 1 16
REMARK H PARENT
REMARK Flexibility Score: inf
ROOT
ATOM      1  C   UNL     1      37.495  23.125  13.226  1.00  0.00     0.000 C 
ENDROOT
BRANCH   1   2
ATOM      2  C   UNL     1      37.749  22.912  11.715  1.00  0.00     0.000 C 
BRANCH   2   3
ATOM      3  C   UNL     1      36.514  23.124  10.817  1.00  0.00     0.000 C 
BRANCH   3   4
ATOM      4  C   UNL     1      35.984  21.864  10.100  1.00  0.00     0.000 C 
BRANCH   4   5
ATOM      5  C   UNL     1      35.127  22.130   8.850  1.00  0.00     0.006 C 
BRANCH   5   6
ATOM      6  C   UNL     1      33.626  22.185   9.158  1.00  0.00     0.053 C 
BRANCH   6   7
ATOM      7  C   UNL     1      33.362  21.717  10.554  1.00  0.00     0.041 C 
ATOM      8  O   UNL     1      33.238  20.488  10.798  1.00  0.00    -0.550 OA
ATOM      9  O   UNL     1      33.202  22.641  11.579  1.00  0.00    -0.550 OA
ENDBRANCH   6   7
ENDBRANCH   5   6
ENDBRANCH   4   5
ENDBRANCH   3   4
ENDBRANCH   2   3
ENDBRANCH   1   2
BRANCH   1  10
ATOM     10  C   UNL     1      36.179  22.501  13.729  1.00  0.00     0.000 C 
BRANCH  10  11
ATOM     11  C   UNL     1      36.327  21.573  14.948  1.00  0.00    -0.000 C 
BRANCH  11  12
ATOM     12  C   UNL     1      35.768  20.148  14.760  1.00  0.00    -0.000 C 
BRANCH  12  13
ATOM     13  C   UNL     1      34.487  20.056  13.912  1.00  0.00    -0.000 C 
BRANCH  13  14
ATOM     14  C   UNL     1      33.459  19.070  14.485  1.00  0.00    -0.000 C 
BRANCH  14  15
ATOM     15  C   UNL     1      33.758  18.760  15.955  1.00  0.00    -0.003 C 
ATOM     16  C   UNL     1      33.177  19.830  16.875  1.00  0.00     0.004 C 
ENDBRANCH  14  15
ENDBRANCH  13  14
ENDBRANCH  12  13
ENDBRANCH  11  12
ENDBRANCH  10  11
ENDBRANCH   1  10
TORSDOF 12
ENDMDL
MODEL 7
REMARK VINA RESULT:    -2.141     12.634     15.805
REMARK INTER + INTRA:          -4.807
REMARK INTER:                  -3.895
REMARK INTRA:                  -0.911
REMARK UNBOUND:                -1.164
REMARK SMILES CCCCCCCCCCCCCC(=O)[O-]
REMARK SMILES IDX 8 1 9 2 10 3 11 4 12 5 13 6 14 7 15 8 16 9 7 10 6 11 5 12
REMARK SMILES IDX 4 13 3 14 2 15 1 16
REMARK H PARENT
REMARK Flexibility Score: inf
ROOT
ATOM      1  C   UNL     1      52.607  20.791  16.000  1.00  0.00     0.000 C 
ENDROOT
BRANCH   1   2
ATOM      2  C   UNL     1      51.185  20.877  15.397  1.00  0.00     0.000 C 
BRANCH   2   3
ATOM      3  C   UNL     1      50.343  22.068  15.897  1.00  0.00     0.000 C 
BRANCH   3   4
ATOM      4  C   UNL     1      48.826  21.974  15.626  1.00  0.00     0.000 C 
BRANCH   4   5
ATOM      5  C   UNL     1      47.970  21.520  16.822  1.00  0.00     0.006 C 
BRANCH   5   6
ATOM      6  C   UNL     1      46.925  22.562  17.236  1.00  0.00     0.053 C 
BRANCH   6   7
ATOM      7  C   UNL     1      45.598  22.244  16.622  1.00  0.00     0.041 C 
ATOM      8  O   UNL     1      44.689  23.115  16.593  1.00  0.00    -0.550 OA
ATOM      9  O   UNL     1      45.349  20.971  16.126  1.00  0.00    -0.550 OA
ENDBRANCH   6   7
ENDBRANCH   5   6
ENDBRANCH   4   5
ENDBRANCH   3   4
ENDBRANCH   2   3
ENDBRANCH   1   2
BRANCH   1  10
ATOM     10  C   UNL     1      52.986  22.004  16.872  1.00  0.00     0.000 C 
BRANCH  10  11
ATOM     11  C   UNL     1      52.661  21.852  18.368  1.00  0.00    -0.000 C 
BRANCH  11  12
ATOM     12  C   UNL     1      52.014  23.087  19.028  1.00  0.00    -0.000 C 
BRANCH  12  13
ATOM     13  C   UNL     1      50.625  22.846  19.646  1.00  0.00    -0.000 C 
BRANCH  13  14
ATOM     14  C   UNL     1      50.570  21.587  20.522  1.00  0.00    -0.000 C 
BRANCH  14  15
ATOM     15  C   UNL     1      50.378  21.954  21.998  1.00  0.00    -0.003 C 
ATOM     16  C   UNL     1      48.950  22.418  22.270  1.00  0.00     0.004 C 
ENDBRANCH  14  15
ENDBRANCH  13  14
ENDBRANCH  12  13
ENDBRANCH  11  12
ENDBRANCH  10  11
ENDBRANCH   1  10
TORSDOF 12
ENDMDL
MODEL 8
REMARK VINA RESULT:    -1.407     13.782     16.953
REMARK INTER + INTRA:          -3.558
REMARK INTER:                  -3.999
REMARK INTRA:                   0.441
REMARK UNBOUND:                -1.164
REMARK SMILES CCCCCCCCCCCCCC(=O)[O-]
REMARK SMILES IDX 8 1 9 2 10 3 11 4 12 5 13 6 14 7 15 8 16 9 7 10 6 11 5 12
REMARK SMILES IDX 4 13 3 14 2 15 1 16
REMARK H PARENT
REMARK Flexibility Score: inf
ROOT
ATOM      1  C   UNL     1      49.003  23.125  17.478  1.00  0.00     0.000 C 
ENDROOT
BRANCH   1   2
ATOM      2  C   UNL     1      50.261  23.125  18.378  1.00  0.00     0.000 C 
BRANCH   2   3
ATOM      3  C   UNL     1      51.514  22.500  17.733  1.00  0.00     0.000 C 
BRANCH   3   4
ATOM      4  C   UNL     1      52.702  22.249  18.687  1.00  0.00     0.000 C 
BRANCH   4   5
ATOM      5  C   UNL     1      52.392  22.425  20.184  1.00  0.00     0.006 C 
BRANCH   5   6
ATOM      6  C   UNL     1      52.550  21.125  20.981  1.00  0.00     0.053 C 
BRANCH   6   7
ATOM      7  C   UNL     1      51.918  21.259  22.331  1.00  0.00     0.041 C 
ATOM      8  O   UNL     1      52.629  21.507  23.341  1.00  0.00    -0.550 OA
ATOM      9  O   UNL     1      50.552  21.061  22.482  1.00  0.00    -0.550 OA
ENDBRANCH   6   7
ENDBRANCH   5   6
ENDBRANCH   4   5
ENDBRANCH   3   4
ENDBRANCH   2   3
ENDBRANCH   1   2
BRANCH   1  10
ATOM     10  C   UNL     1      47.728  22.638  18.194  1.00  0.00     0.000 C 
BRANCH  10  11
ATOM     11  C   UNL     1      46.453  22.662  17.332  1.00  0.00    -0.000 C 
BRANCH  11  12
ATOM     12  C   UNL     1      46.539  21.871  16.010  1.00  0.00    -0.000 C 
BRANCH  12  13
ATOM     13  C   UNL     1      47.699  20.863  15.927  1.00  0.00    -0.000 C 
BRANCH  13  14
ATOM     14  C   UNL     1      48.960  21.454  15.279  1.00  0.00    -0.000 C 
BRANCH  14  15
ATOM     15  C   UNL     1      49.934  20.346  14.867  1.00  0.00    -0.003 C 
ATOM     16  C   UNL     1      51.274  20.926  14.423  1.00  0.00     0.004 C 
ENDBRANCH  14  15
ENDBRANCH  13  14
ENDBRANCH  12  13
ENDBRANCH  11  12
ENDBRANCH  10  11
ENDBRANCH   1  10
TORSDOF 12
ENDMDL
