MODEL 1
REMARK VINA RESULT:    -4.343      0.000      0.000
REMARK INTER + INTRA:          -5.722
REMARK INTER:                  -6.121
REMARK INTRA:                   0.399
REMARK UNBOUND:                 0.399
REMARK SMILES CC1=CCCC(C)=CCC(C)(C)C=CC1
REMARK SMILES IDX 2 1 3 2 1 3 4 4 5 5 6 6 7 7 8 8 15 10 14 11 13 12 10 13
REMARK SMILES IDX 11 14 12 15 9 16
REMARK H PARENT
REMARK Flexibility Score: 60.00
ROOT
ATOM      1  C   UNL     1     106.019 111.260 127.820  1.00  0.00    -0.074 C 
ATOM      2  C   UNL     1     105.628 111.424 126.530  1.00  0.00    -0.027 C 
ATOM      3  C   UNL     1     105.023 111.588 128.905  1.00  0.00     0.039 C 
ENDROOT
BRANCH   2   4
ATOM      4  C   UNL     1     106.478 111.144 125.312  1.00  0.00     0.032 C 
BRANCH   4   5
ATOM      5  C   UNL     1     106.286 109.702 124.816  1.00  0.00     0.034 C 
BRANCH   5   6
ATOM      6  C   UNL     1     107.544 108.848 124.827  1.00  0.00    -0.077 C 
ATOM      7  C   UNL     1     108.531 109.028 123.697  1.00  0.00     0.039 C 
ATOM      8  C   UNL     1     107.799 107.850 125.715  1.00  0.00    -0.027 CG0
ATOM      9  G   UNL     1     107.096 107.558 127.028  1.00  0.00     0.000 G0
ENDBRANCH   5   6
ENDBRANCH   4   5
ENDBRANCH   2   4
BRANCH   1  10
ATOM     10  C   UNL     1     107.392 110.751 128.224  1.00  0.00     0.057 C 
BRANCH  10  11
ATOM     11  C   UNL     1     107.275 109.819 129.405  1.00  0.00    -0.026 C 
ATOM     12  C   UNL     1     107.437 108.474 129.427  1.00  0.00    -0.024 C 
BRANCH  12  13
ATOM     13  C   UNL     1     107.961 107.548 128.327  1.00  0.00    -0.014 C 
ATOM     14  C   UNL     1     108.003 106.109 128.895  1.00  0.00     0.016 C 
ATOM     15  C   UNL     1     109.416 107.944 127.985  1.00  0.00     0.016 C 
BRANCH  13  16
ATOM     16  C   UNL     1     107.107 107.537 127.021  1.00  0.00     0.038 CG0
ATOM     17  G   UNL     1     107.816 107.866 125.719  1.00  0.00     0.000 G0
ENDBRANCH  13  16
ENDBRANCH  12  13
ENDBRANCH  10  11
ENDBRANCH   1  10
TORSDOF 0
ENDMDL
MODEL 2
REMARK VINA RESULT:    -4.279      1.343      4.166
REMARK INTER + INTRA:          -5.630
REMARK INTER:                  -6.190
REMARK INTRA:                   0.560
REMARK UNBOUND:                 0.399
REMARK SMILES CC1=CCCC(C)=CCC(C)(C)C=CC1
REMARK SMILES IDX 2 1 3 2 1 3 4 4 5 5 6 6 7 7 8 8 15 10 14 11 13 12 10 13
REMARK SMILES IDX 11 14 12 15 9 16
REMARK H PARENT
REMARK Flexibility Score: 60.00
ROOT
ATOM      1  C   UNL     1     107.156 109.543 124.337  1.00  0.00    -0.074 C 
ATOM      2  C   UNL     1     107.697 108.299 124.396  1.00  0.00    -0.027 C 
ATOM      3  C   UNL     1     106.326 109.894 123.127  1.00  0.00     0.039 C 
ENDROOT
BRANCH   2   4
ATOM      4  C   UNL     1     108.549 107.764 125.523  1.00  0.00     0.032 C 
BRANCH   4   5
ATOM      5  C   UNL     1     107.705 107.484 126.777  1.00  0.00     0.034 C 
BRANCH   5   6
ATOM      6  C   UNL     1     108.160 108.211 128.032  1.00  0.00    -0.077 C 
ATOM      7  C   UNL     1     109.577 107.987 128.504  1.00  0.00     0.039 C 
ATOM      8  C   UNL     1     107.355 108.961 128.831  1.00  0.00    -0.027 CG0
ATOM      9  G   UNL     1     105.967 109.496 128.530  1.00  0.00     0.000 G0
ENDBRANCH   5   6
ENDBRANCH   4   5
ENDBRANCH   2   4
BRANCH   1  10
ATOM     10  C   UNL     1     107.328 110.588 125.427  1.00  0.00     0.057 C 
BRANCH  10  11
ATOM     11  C   UNL     1     106.020 111.289 125.688  1.00  0.00    -0.026 C 
ATOM     12  C   UNL     1     105.353 111.406 126.862  1.00  0.00    -0.024 C 
BRANCH  12  13
ATOM     13  C   UNL     1     105.816 111.036 128.273  1.00  0.00    -0.014 C 
ATOM     14  C   UNL     1     104.782 111.601 129.278  1.00  0.00     0.016 C 
ATOM     15  C   UNL     1     107.162 111.738 128.564  1.00  0.00     0.016 C 
BRANCH  13  16
ATOM     16  C   UNL     1     105.966 109.504 128.530  1.00  0.00     0.038 CG0
ATOM     17  G   UNL     1     107.357 108.978 128.832  1.00  0.00     0.000 G0
ENDBRANCH  13  16
ENDBRANCH  12  13
ENDBRANCH  10  11
ENDBRANCH   1  10
TORSDOF 0
ENDMDL
MODEL 3
REMARK VINA RESULT:    -4.243      4.232      4.999
REMARK INTER + INTRA:          -5.581
REMARK INTER:                  -5.974
REMARK INTRA:                   0.394
REMARK UNBOUND:                 0.399
REMARK SMILES CC1=CCCC(C)=CCC(C)(C)C=CC1
REMARK SMILES IDX 2 1 3 2 1 3 4 4 5 5 6 6 7 7 8 8 15 10 14 11 13 12 10 13
REMARK SMILES IDX 11 14 12 15 9 16
REMARK H PARENT
REMARK Flexibility Score: 60.00
ROOT
ATOM      1  C   UNL     1     101.149 106.149 127.217  1.00  0.00    -0.074 C 
ATOM      2  C   UNL     1     101.167 106.023 125.865  1.00  0.00    -0.027 C 
ATOM      3  C   UNL     1     100.800 104.928 128.033  1.00  0.00     0.039 C 
ENDROOT
BRANCH   2   4
ATOM      4  C   UNL     1     101.496 107.125 124.885  1.00  0.00     0.032 C 
BRANCH   4   5
ATOM      5  C   UNL     1     102.863 106.893 124.222  1.00  0.00     0.034 C 
BRANCH   5   6
ATOM      6  C   UNL     1     103.909 107.956 124.520  1.00  0.00    -0.077 C 
ATOM      7  C   UNL     1     104.106 109.058 123.506  1.00  0.00     0.039 C 
ATOM      8  C   UNL     1     104.764 107.931 125.577  1.00  0.00    -0.027 CG0
ATOM      9  G   UNL     1     104.692 107.067 126.823  1.00  0.00     0.000 G0
ENDBRANCH   5   6
ENDBRANCH   4   5
ENDBRANCH   2   4
BRANCH   1  10
ATOM     10  C   UNL     1     101.476 107.441 127.946  1.00  0.00     0.057 C 
BRANCH  10  11
ATOM     11  C   UNL     1     102.349 107.158 129.142  1.00  0.00    -0.026 C 
ATOM     12  C   UNL     1     103.700 107.233 129.227  1.00  0.00    -0.024 C 
BRANCH  12  13
ATOM     13  C   UNL     1     104.699 107.800 128.215  1.00  0.00    -0.014 C 
ATOM     14  C   UNL     1     106.114 107.703 128.837  1.00  0.00     0.016 C 
ATOM     15  C   UNL     1     104.400 109.301 127.998  1.00  0.00     0.016 C 
BRANCH  13  16
ATOM     16  C   UNL     1     104.717 107.070 126.837  1.00  0.00     0.038 CG0
ATOM     17  G   UNL     1     104.767 107.933 125.589  1.00  0.00     0.000 G0
ENDBRANCH  13  16
ENDBRANCH  12  13
ENDBRANCH  10  11
ENDBRANCH   1  10
TORSDOF 0
ENDMDL
MODEL 4
REMARK VINA RESULT:    -4.234      4.751      7.120
REMARK INTER + INTRA:          -5.567
REMARK INTER:                  -6.017
REMARK INTRA:                   0.450
REMARK UNBOUND:                 0.399
REMARK SMILES CC1=CCCC(C)=CCC(C)(C)C=CC1
REMARK SMILES IDX 2 1 3 2 1 3 4 4 5 5 6 6 7 7 8 8 15 10 14 11 13 12 10 13
REMARK SMILES IDX 11 14 12 15 9 16
REMARK H PARENT
REMARK Flexibility Score: 60.00
ROOT
ATOM      1  C   UNL     1     106.404 101.247 127.443  1.00  0.00    -0.074 C 
ATOM      2  C   UNL     1     106.731 101.110 126.132  1.00  0.00    -0.027 C 
ATOM      3  C   UNL     1     107.429 100.836 128.471  1.00  0.00     0.039 C 
ENDROOT
BRANCH   2   4
ATOM      4  C   UNL     1     105.844 101.471 124.964  1.00  0.00     0.032 C 
BRANCH   4   5
ATOM      5  C   UNL     1     105.970 102.961 124.605  1.00  0.00     0.034 C 
BRANCH   5   6
ATOM      6  C   UNL     1     104.700 103.775 124.796  1.00  0.00    -0.077 C 
ATOM      7  C   UNL     1     103.587 103.595 123.790  1.00  0.00     0.039 C 
ATOM      8  C   UNL     1     104.530 104.741 125.738  1.00  0.00    -0.027 CG0
ATOM      9  G   UNL     1     105.381 105.019 126.963  1.00  0.00     0.000 G0
ENDBRANCH   5   6
ENDBRANCH   4   5
ENDBRANCH   2   4
BRANCH   1  10
ATOM     10  C   UNL     1     105.075 101.805 127.924  1.00  0.00     0.057 C 
BRANCH  10  11
ATOM     11  C   UNL     1     105.275 102.614 129.181  1.00  0.00    -0.026 C 
ATOM     12  C   UNL     1     105.167 103.955 129.338  1.00  0.00    -0.024 C 
BRANCH  12  13
ATOM     13  C   UNL     1     104.635 105.000 128.354  1.00  0.00    -0.014 C 
ATOM     14  C   UNL     1     104.786 106.394 129.011  1.00  0.00     0.016 C 
ATOM     15  C   UNL     1     103.124 104.763 128.134  1.00  0.00     0.016 C 
BRANCH  13  16
ATOM     16  C   UNL     1     105.362 105.026 126.973  1.00  0.00     0.038 CG0
ATOM     17  G   UNL     1     104.533 104.716 125.740  1.00  0.00     0.000 G0
ENDBRANCH  13  16
ENDBRANCH  12  13
ENDBRANCH  10  11
ENDBRANCH   1  10
TORSDOF 0
ENDMDL
MODEL 5
REMARK VINA RESULT:    -4.158      4.253      5.542
REMARK INTER + INTRA:          -5.461
REMARK INTER:                  -5.820
REMARK INTRA:                   0.359
REMARK UNBOUND:                 0.399
REMARK SMILES CC1=CCCC(C)=CCC(C)(C)C=CC1
REMARK SMILES IDX 2 1 3 2 1 3 4 4 5 5 6 6 7 7 8 8 15 10 14 11 13 12 10 13
REMARK SMILES IDX 11 14 12 15 9 16
REMARK H PARENT
REMARK Flexibility Score: 60.00
ROOT
ATOM      1  C   UNL     1     101.481 105.728 127.927  1.00  0.00    -0.074 C 
ATOM      2  C   UNL     1     101.886 104.847 126.977  1.00  0.00    -0.027 C 
ATOM      3  C   UNL     1     100.476 105.252 128.947  1.00  0.00     0.039 C 
ENDROOT
BRANCH   2   4
ATOM      4  C   UNL     1     102.885 105.135 125.880  1.00  0.00     0.032 C 
BRANCH   4   5
ATOM      5  C   UNL     1     104.069 104.157 125.931  1.00  0.00     0.034 C 
BRANCH   5   6
ATOM      6  C   UNL     1     104.836 104.146 127.244  1.00  0.00    -0.077 C 
ATOM      7  C   UNL     1     104.955 102.834 127.983  1.00  0.00     0.039 C 
ATOM      8  C   UNL     1     105.326 105.252 127.866  1.00  0.00    -0.027 CG0
ATOM      9  G   UNL     1     105.507 106.648 127.298  1.00  0.00     0.000 G0
ENDBRANCH   5   6
ENDBRANCH   4   5
ENDBRANCH   2   4
BRANCH   1  10
ATOM     10  C   UNL     1     101.995 107.154 128.025  1.00  0.00     0.057 C 
BRANCH  10  11
ATOM     11  C   UNL     1     102.826 107.324 129.272  1.00  0.00    -0.026 C 
ATOM     12  C   UNL     1     104.160 107.538 129.365  1.00  0.00    -0.024 C 
BRANCH  12  13
ATOM     13  C   UNL     1     105.164 107.856 128.254  1.00  0.00    -0.014 C 
ATOM     14  C   UNL     1     106.474 108.346 128.921  1.00  0.00     0.016 C 
ATOM     15  C   UNL     1     104.622 109.028 127.404  1.00  0.00     0.016 C 
BRANCH  13  16
ATOM     16  C   UNL     1     105.507 106.654 127.320  1.00  0.00     0.038 CG0
ATOM     17  G   UNL     1     105.337 105.257 127.888  1.00  0.00     0.000 G0
ENDBRANCH  13  16
ENDBRANCH  12  13
ENDBRANCH  10  11
ENDBRANCH   1  10
TORSDOF 0
ENDMDL
MODEL 6
REMARK VINA RESULT:    -4.100      4.641      7.302
REMARK INTER + INTRA:          -5.379
REMARK INTER:                  -5.704
REMARK INTRA:                   0.325
REMARK UNBOUND:                 0.399
REMARK SMILES CC1=CCCC(C)=CCC(C)(C)C=CC1
REMARK SMILES IDX 2 1 3 2 1 3 4 4 5 5 6 6 7 7 8 8 15 10 14 11 13 12 10 13
REMARK SMILES IDX 11 14 12 15 9 16
REMARK H PARENT
REMARK Flexibility Score: 60.00
ROOT
ATOM      1  C   UNL     1     106.531 101.220 128.430  1.00  0.00    -0.074 C 
ATOM      2  C   UNL     1     105.699 102.053 129.106  1.00  0.00    -0.027 C 
ATOM      3  C   UNL     1     107.496 100.385 129.235  1.00  0.00     0.039 C 
ENDROOT
BRANCH   2   4
ATOM      4  C   UNL     1     104.665 102.960 128.478  1.00  0.00     0.032 C 
BRANCH   4   5
ATOM      5  C   UNL     1     105.040 104.440 128.655  1.00  0.00     0.034 C 
BRANCH   5   6
ATOM      6  C   UNL     1     106.431 104.812 128.168  1.00  0.00    -0.077 C 
ATOM      7  C   UNL     1     107.481 105.133 129.206  1.00  0.00     0.039 C 
ATOM      8  C   UNL     1     106.777 104.990 126.865  1.00  0.00    -0.027 CG0
ATOM      9  G   UNL     1     106.005 104.581 125.624  1.00  0.00     0.000 G0
ENDBRANCH   5   6
ENDBRANCH   4   5
ENDBRANCH   2   4
BRANCH   1  10
ATOM     10  C   UNL     1     106.530 101.074 126.918  1.00  0.00     0.057 C 
BRANCH  10  11
ATOM     11  C   UNL     1     107.745 101.747 126.329  1.00  0.00    -0.026 C 
ATOM     12  C   UNL     1     107.789 102.686 125.354  1.00  0.00    -0.024 C 
BRANCH  12  13
ATOM     13  C   UNL     1     106.637 103.464 124.712  1.00  0.00    -0.014 C 
ATOM     14  C   UNL     1     105.521 102.452 124.354  1.00  0.00     0.016 C 
ATOM     15  C   UNL     1     107.127 104.088 123.385  1.00  0.00     0.016 C 
BRANCH  13  16
ATOM     16  C   UNL     1     106.021 104.579 125.612  1.00  0.00     0.038 CG0
ATOM     17  G   UNL     1     106.797 104.985 126.853  1.00  0.00     0.000 G0
ENDBRANCH  13  16
ENDBRANCH  12  13
ENDBRANCH  10  11
ENDBRANCH   1  10
TORSDOF 0
ENDMDL
MODEL 7
REMARK VINA RESULT:    -4.098      2.185      4.618
REMARK INTER + INTRA:          -5.376
REMARK INTER:                  -5.762
REMARK INTRA:                   0.387
REMARK UNBOUND:                 0.399
REMARK SMILES CC1=CCCC(C)=CCC(C)(C)C=CC1
REMARK SMILES IDX 2 1 3 2 1 3 4 4 5 5 6 6 7 7 8 8 15 10 14 11 13 12 10 13
REMARK SMILES IDX 11 14 12 15 9 16
REMARK H PARENT
REMARK Flexibility Score: 60.00
ROOT
ATOM      1  C   UNL     1     110.801 106.789 128.066  1.00  0.00    -0.074 C 
ATOM      2  C   UNL     1     110.332 107.815 127.312  1.00  0.00    -0.027 C 
ATOM      3  C   UNL     1     111.803 107.110 129.148  1.00  0.00     0.039 C 
ENDROOT
BRANCH   2   4
ATOM      4  C   UNL     1     109.327 107.694 126.191  1.00  0.00     0.032 C 
BRANCH   4   5
ATOM      5  C   UNL     1     108.044 108.482 126.503  1.00  0.00     0.034 C 
BRANCH   5   6
ATOM      6  C   UNL     1     107.456 108.230 127.882  1.00  0.00    -0.077 C 
ATOM      7  C   UNL     1     107.443 109.376 128.866  1.00  0.00     0.039 C 
ATOM      8  C   UNL     1     107.044 107.018 128.341  1.00  0.00    -0.027 CG0
ATOM      9  G   UNL     1     106.782 105.751 127.546  1.00  0.00     0.000 G0
ENDBRANCH   5   6
ENDBRANCH   4   5
ENDBRANCH   2   4
BRANCH   1  10
ATOM     10  C   UNL     1     110.360 105.345 127.889  1.00  0.00     0.057 C 
BRANCH  10  11
ATOM     11  C   UNL     1     109.640 104.866 129.124  1.00  0.00    -0.026 C 
ATOM     12  C   UNL     1     108.329 104.547 129.256  1.00  0.00    -0.024 C 
BRANCH  12  13
ATOM     13  C   UNL     1     107.260 104.399 128.171  1.00  0.00    -0.014 C 
ATOM     14  C   UNL     1     106.039 103.682 128.799  1.00  0.00     0.016 C 
ATOM     15  C   UNL     1     107.800 103.479 127.052  1.00  0.00     0.016 C 
BRANCH  13  16
ATOM     16  C   UNL     1     106.773 105.744 127.546  1.00  0.00     0.038 CG0
ATOM     17  G   UNL     1     107.032 107.015 128.334  1.00  0.00     0.000 G0
ENDBRANCH  13  16
ENDBRANCH  12  13
ENDBRANCH  10  11
ENDBRANCH   1  10
TORSDOF 0
ENDMDL
MODEL 8
REMARK VINA RESULT:    -4.078      1.290      3.910
REMARK INTER + INTRA:          -5.348
REMARK INTER:                  -5.666
REMARK INTRA:                   0.318
REMARK UNBOUND:                 0.399
REMARK SMILES CC1=CCCC(C)=CCC(C)(C)C=CC1
REMARK SMILES IDX 2 1 3 2 1 3 4 4 5 5 6 6 7 7 8 8 15 10 14 11 13 12 10 13
REMARK SMILES IDX 11 14 12 15 9 16
REMARK H PARENT
REMARK Flexibility Score: 60.00
ROOT
ATOM      1  C   UNL     1     105.972 111.152 128.451  1.00  0.00    -0.074 C 
ATOM      2  C   UNL     1     106.781 110.339 129.177  1.00  0.00    -0.027 C 
ATOM      3  C   UNL     1     104.935 111.960 129.192  1.00  0.00     0.039 C 
ENDROOT
BRANCH   2   4
ATOM      4  C   UNL     1     107.876 109.461 128.617  1.00  0.00     0.032 C 
BRANCH   4   5
ATOM      5  C   UNL     1     107.556 107.971 128.820  1.00  0.00     0.034 C 
BRANCH   5   6
ATOM      6  C   UNL     1     106.246 107.507 128.203  1.00  0.00    -0.077 C 
ATOM      7  C   UNL     1     105.197 106.928 129.122  1.00  0.00     0.039 C 
ATOM      8  C   UNL     1     105.987 107.466 126.868  1.00  0.00    -0.027 CG0
ATOM      9  G   UNL     1     106.760 108.126 125.740  1.00  0.00     0.000 G0
ENDBRANCH   5   6
ENDBRANCH   4   5
ENDBRANCH   2   4
BRANCH   1  10
ATOM     10  C   UNL     1     106.066 111.301 126.942  1.00  0.00     0.057 C 
BRANCH  10  11
ATOM     11  C   UNL     1     104.854 110.693 126.281  1.00  0.00    -0.026 C 
ATOM     12  C   UNL     1     104.818 109.769 125.291  1.00  0.00    -0.024 C 
BRANCH  12  13
ATOM     13  C   UNL     1     105.965 108.948 124.696  1.00  0.00    -0.014 C 
ATOM     14  C   UNL     1     106.945 109.929 124.006  1.00  0.00     0.016 C 
ATOM     15  C   UNL     1     105.404 108.019 123.596  1.00  0.00     0.016 C 
BRANCH  13  16
ATOM     16  C   UNL     1     106.766 108.100 125.732  1.00  0.00     0.038 CG0
ATOM     17  G   UNL     1     105.987 107.477 126.877  1.00  0.00     0.000 G0
ENDBRANCH  13  16
ENDBRANCH  12  13
ENDBRANCH  10  11
ENDBRANCH   1  10
TORSDOF 0
ENDMDL
MODEL 9
REMARK VINA RESULT:    -4.053      4.785      6.250
REMARK INTER + INTRA:          -5.313
REMARK INTER:                  -5.616
REMARK INTRA:                   0.304
REMARK UNBOUND:                 0.399
REMARK SMILES CC1=CCCC(C)=CCC(C)(C)C=CC1
REMARK SMILES IDX 2 1 3 2 1 3 4 4 5 5 6 6 7 7 8 8 15 10 14 11 13 12 10 13
REMARK SMILES IDX 11 14 12 15 9 16
REMARK H PARENT
REMARK Flexibility Score: 60.00
ROOT
ATOM      1  C   UNL     1     101.389 106.364 128.661  1.00  0.00    -0.074 C 
ATOM      2  C   UNL     1     102.354 107.124 129.238  1.00  0.00    -0.027 C 
ATOM      3  C   UNL     1     100.528 105.515 129.564  1.00  0.00     0.039 C 
ENDROOT
BRANCH   2   4
ATOM      4  C   UNL     1     103.307 108.039 128.504  1.00  0.00     0.032 C 
BRANCH   4   5
ATOM      5  C   UNL     1     104.748 107.506 128.559  1.00  0.00     0.034 C 
BRANCH   5   6
ATOM      6  C   UNL     1     104.911 106.054 128.136  1.00  0.00    -0.077 C 
ATOM      7  C   UNL     1     105.349 105.058 129.183  1.00  0.00     0.039 C 
ATOM      8  C   UNL     1     104.804 105.601 126.858  1.00  0.00    -0.027 CG0
ATOM      9  G   UNL     1     104.219 106.315 125.653  1.00  0.00     0.000 G0
ENDBRANCH   5   6
ENDBRANCH   4   5
ENDBRANCH   2   4
BRANCH   1  10
ATOM     10  C   UNL     1     101.121 106.336 127.166  1.00  0.00     0.057 C 
BRANCH  10  11
ATOM     11  C   UNL     1     101.430 104.970 126.607  1.00  0.00    -0.026 C 
ATOM     12  C   UNL     1     102.229 104.657 125.558  1.00  0.00    -0.024 C 
BRANCH  12  13
ATOM     13  C   UNL     1     103.183 105.559 124.772  1.00  0.00    -0.014 C 
ATOM     14  C   UNL     1     102.331 106.599 124.002  1.00  0.00     0.016 C 
ATOM     15  C   UNL     1     103.925 104.710 123.715  1.00  0.00     0.016 C 
BRANCH  13  16
ATOM     16  C   UNL     1     104.225 106.326 125.644  1.00  0.00     0.038 CG0
ATOM     17  G   UNL     1     104.781 105.609 126.861  1.00  0.00     0.000 G0
ENDBRANCH  13  16
ENDBRANCH  12  13
ENDBRANCH  10  11
ENDBRANCH   1  10
TORSDOF 0
ENDMDL
