MODEL 1
REMARK VINA RESULT:    -7.491      0.000      0.000
REMARK INTER + INTRA:          -9.357
REMARK INTER:                  -9.023
REMARK INTRA:                  -0.334
REMARK UNBOUND:                -0.334
REMARK SMILES O=c1c(O)c(-c2ccc(O)c(O)c2)oc2cc(O)cc(O)c12
REMARK SMILES IDX 5 1 3 2 2 3 1 4 22 5 20 6 19 7 17 8 16 9 15 10 14 11 6 12
REMARK SMILES IDX 7 13 8 14 9 15 13 16 11 17 10 18 12 20 4 22 21 24 18 26
REMARK H PARENT 10 19 12 21 4 23 21 25 18 27
REMARK Flexibility Score: inf
ROOT
ATOM      1  C   UNL     1     -34.980  -3.902 -17.396  1.00  0.00     0.180 A 
ATOM      2  C   UNL     1     -35.806  -2.985 -16.719  1.00  0.00     0.208 A 
ATOM      3  C   UNL     1     -36.907  -3.469 -15.995  1.00  0.00     0.238 A 
ATOM      4  O   UNL     1     -37.660  -2.655 -15.394  1.00  0.00    -0.285 OA
ATOM      5  C   UNL     1     -37.151  -4.857 -15.942  1.00  0.00     0.111 A 
ATOM      6  C   UNL     1     -38.235  -5.425 -15.231  1.00  0.00     0.134 A 
ATOM      7  C   UNL     1     -38.404  -6.818 -15.218  1.00  0.00     0.093 A 
ATOM      8  C   UNL     1     -37.511  -7.650 -15.902  1.00  0.00     0.123 A 
ATOM      9  C   UNL     1     -36.441  -7.093 -16.605  1.00  0.00     0.094 A 
ATOM     10  C   UNL     1     -36.255  -5.709 -16.630  1.00  0.00     0.146 A 
ATOM     11  O   UNL     1     -35.232  -5.206 -17.310  1.00  0.00    -0.452 OA
ENDROOT
BRANCH   1  12
ATOM     12  C   UNL     1     -33.812  -3.469 -18.196  1.00  0.00     0.025 A 
ATOM     13  C   UNL     1     -32.537  -3.473 -17.613  1.00  0.00     0.016 A 
ATOM     14  C   UNL     1     -31.420  -3.086 -18.356  1.00  0.00     0.051 A 
ATOM     15  C   UNL     1     -31.550  -2.704 -19.695  1.00  0.00     0.157 A 
ATOM     16  C   UNL     1     -33.944  -3.107 -19.547  1.00  0.00     0.062 A 
ATOM     17  C   UNL     1     -32.828  -2.721 -20.301  1.00  0.00     0.158 A 
BRANCH  15  18
ATOM     18  O   UNL     1     -30.395  -2.322 -20.380  1.00  0.00    -0.504 OA
ATOM     19  H   UNL     1     -29.459  -2.565 -20.088  1.00  0.00     0.293 HD
ENDBRANCH  15  18
BRANCH  17  20
ATOM     20  O   UNL     1     -33.034  -2.372 -21.638  1.00  0.00    -0.504 OA
ATOM     21  H   UNL     1     -32.405  -2.618 -22.389  1.00  0.00     0.293 HD
ENDBRANCH  17  20
ENDBRANCH   1  12
BRANCH   2  22
ATOM     22  O   UNL     1     -35.514  -1.619 -16.747  1.00  0.00    -0.502 OA
ATOM     23  H   UNL     1     -34.829  -1.198 -16.129  1.00  0.00     0.293 HD
ENDBRANCH   2  22
BRANCH   6  24
ATOM     24  O   UNL     1     -39.142  -4.621 -14.539  1.00  0.00    -0.507 OA
ATOM     25  H   UNL     1     -39.721  -3.940 -15.015  1.00  0.00     0.293 HD
ENDBRANCH   6  24
BRANCH   8  26
ATOM     26  O   UNL     1     -37.678  -9.033 -15.889  1.00  0.00    -0.508 OA
ATOM     27  H   UNL     1     -38.600  -9.455 -15.874  1.00  0.00     0.293 HD
ENDBRANCH   8  26
TORSDOF 6
ENDMDL
MODEL 2
REMARK VINA RESULT:    -7.454      1.099      1.719
REMARK INTER + INTRA:          -9.312
REMARK INTER:                  -9.000
REMARK INTRA:                  -0.312
REMARK UNBOUND:                -0.334
REMARK SMILES O=c1c(O)c(-c2ccc(O)c(O)c2)oc2cc(O)cc(O)c12
REMARK SMILES IDX 5 1 3 2 2 3 1 4 22 5 20 6 19 7 17 8 16 9 15 10 14 11 6 12
REMARK SMILES IDX 7 13 8 14 9 15 13 16 11 17 10 18 12 20 4 22 21 24 18 26
REMARK H PARENT 10 19 12 21 4 23 21 25 18 27
REMARK Flexibility Score: inf
ROOT
ATOM      1  C   UNL     1     -35.263  -4.171 -17.029  1.00  0.00     0.180 A 
ATOM      2  C   UNL     1     -35.809  -3.191 -16.178  1.00  0.00     0.208 A 
ATOM      3  C   UNL     1     -36.633  -3.597 -15.117  1.00  0.00     0.238 A 
ATOM      4  O   UNL     1     -37.137  -2.727 -14.355  1.00  0.00    -0.285 OA
ATOM      5  C   UNL     1     -36.880  -4.970 -14.911  1.00  0.00     0.111 A 
ATOM      6  C   UNL     1     -37.695  -5.462 -13.864  1.00  0.00     0.134 A 
ATOM      7  C   UNL     1     -37.884  -6.845 -13.720  1.00  0.00     0.093 A 
ATOM      8  C   UNL     1     -37.273  -7.743 -14.603  1.00  0.00     0.123 A 
ATOM      9  C   UNL     1     -36.470  -7.261 -15.638  1.00  0.00     0.094 A 
ATOM     10  C   UNL     1     -36.270  -5.888 -15.799  1.00  0.00     0.146 A 
ATOM     11  O   UNL     1     -35.504  -5.458 -16.795  1.00  0.00    -0.452 OA
ENDROOT
BRANCH   1  12
ATOM     12  C   UNL     1     -34.400  -3.821 -18.180  1.00  0.00     0.025 A 
ATOM     13  C   UNL     1     -34.974  -3.669 -19.450  1.00  0.00     0.016 A 
ATOM     14  C   UNL     1     -34.181  -3.320 -20.546  1.00  0.00     0.051 A 
ATOM     15  C   UNL     1     -32.808  -3.102 -20.393  1.00  0.00     0.157 A 
ATOM     16  C   UNL     1     -33.025  -3.581 -18.018  1.00  0.00     0.062 A 
ATOM     17  C   UNL     1     -32.223  -3.228 -19.111  1.00  0.00     0.158 A 
BRANCH  15  18
ATOM     18  O   UNL     1     -32.071  -2.763 -21.530  1.00  0.00    -0.504 OA
ATOM     19  H   UNL     1     -32.435  -2.802 -22.471  1.00  0.00     0.293 HD
ENDBRANCH  15  18
BRANCH  17  20
ATOM     20  O   UNL     1     -30.864  -3.007 -18.877  1.00  0.00    -0.504 OA
ATOM     21  H   UNL     1     -30.504  -2.258 -18.302  1.00  0.00     0.293 HD
ENDBRANCH  17  20
ENDBRANCH   1  12
BRANCH   2  22
ATOM     22  O   UNL     1     -35.509  -1.840 -16.373  1.00  0.00    -0.502 OA
ATOM     23  H   UNL     1     -35.712  -1.133 -15.676  1.00  0.00     0.293 HD
ENDBRANCH   2  22
BRANCH   6  24
ATOM     24  O   UNL     1     -38.316  -4.592 -12.967  1.00  0.00    -0.507 OA
ATOM     25  H   UNL     1     -38.164  -3.591 -13.002  1.00  0.00     0.293 HD
ENDBRANCH   6  24
BRANCH   8  26
ATOM     26  O   UNL     1     -37.460  -9.115 -14.461  1.00  0.00    -0.508 OA
ATOM     27  H   UNL     1     -38.374  -9.541 -14.574  1.00  0.00     0.293 HD
ENDBRANCH   8  26
TORSDOF 6
ENDMDL
MODEL 3
REMARK VINA RESULT:    -7.337      1.717      2.134
REMARK INTER + INTRA:          -9.172
REMARK INTER:                  -9.523
REMARK INTRA:                   0.351
REMARK UNBOUND:                -0.334
REMARK SMILES O=c1c(O)c(-c2ccc(O)c(O)c2)oc2cc(O)cc(O)c12
REMARK SMILES IDX 5 1 3 2 2 3 1 4 22 5 20 6 19 7 17 8 16 9 15 10 14 11 6 12
REMARK SMILES IDX 7 13 8 14 9 15 13 16 11 17 10 18 12 20 4 22 21 24 18 26
REMARK H PARENT 10 19 12 21 4 23 21 25 18 27
REMARK Flexibility Score: inf
ROOT
ATOM      1  C   UNL     1     -36.058  -4.889 -17.025  1.00  0.00     0.180 A 
ATOM      2  C   UNL     1     -36.105  -3.967 -15.962  1.00  0.00     0.208 A 
ATOM      3  C   UNL     1     -36.914  -4.253 -14.852  1.00  0.00     0.238 A 
ATOM      4  O   UNL     1     -36.972  -3.428 -13.898  1.00  0.00    -0.285 OA
ATOM      5  C   UNL     1     -37.644  -5.459 -14.812  1.00  0.00     0.111 A 
ATOM      6  C   UNL     1     -38.478  -5.823 -13.728  1.00  0.00     0.134 A 
ATOM      7  C   UNL     1     -39.164  -7.047 -13.760  1.00  0.00     0.093 A 
ATOM      8  C   UNL     1     -39.031  -7.910 -14.853  1.00  0.00     0.123 A 
ATOM      9  C   UNL     1     -38.210  -7.554 -15.924  1.00  0.00     0.094 A 
ATOM     10  C   UNL     1     -37.519  -6.339 -15.912  1.00  0.00     0.146 A 
ATOM     11  O   UNL     1     -36.748  -6.024 -16.946  1.00  0.00    -0.452 OA
ENDROOT
BRANCH   1  12
ATOM     12  C   UNL     1     -35.244  -4.651 -18.239  1.00  0.00     0.025 A 
ATOM     13  C   UNL     1     -34.081  -3.874 -18.147  1.00  0.00     0.016 A 
ATOM     14  C   UNL     1     -33.288  -3.653 -19.275  1.00  0.00     0.051 A 
ATOM     15  C   UNL     1     -33.631  -4.214 -20.510  1.00  0.00     0.157 A 
ATOM     16  C   UNL     1     -35.580  -5.235 -19.472  1.00  0.00     0.062 A 
ATOM     17  C   UNL     1     -34.789  -5.022 -20.608  1.00  0.00     0.158 A 
BRANCH  15  18
ATOM     18  O   UNL     1     -32.800  -3.949 -21.600  1.00  0.00    -0.504 OA
ATOM     19  H   UNL     1     -32.540  -3.020 -21.899  1.00  0.00     0.293 HD
ENDBRANCH  15  18
BRANCH  17  20
ATOM     20  O   UNL     1     -35.184  -5.632 -21.800  1.00  0.00    -0.504 OA
ATOM     21  H   UNL     1     -35.575  -6.562 -21.856  1.00  0.00     0.293 HD
ENDBRANCH  17  20
ENDBRANCH   1  12
BRANCH   2  22
ATOM     22  O   UNL     1     -35.334  -2.803 -16.004  1.00  0.00    -0.502 OA
ATOM     23  H   UNL     1     -34.326  -2.815 -15.895  1.00  0.00     0.293 HD
ENDBRANCH   2  22
BRANCH   6  24
ATOM     24  O   UNL     1     -38.631  -4.984 -12.624  1.00  0.00    -0.507 OA
ATOM     25  H   UNL     1     -38.773  -3.987 -12.727  1.00  0.00     0.293 HD
ENDBRANCH   6  24
BRANCH   8  26
ATOM     26  O   UNL     1     -39.712  -9.125 -14.884  1.00  0.00    -0.508 OA
ATOM     27  H   UNL     1     -40.292  -9.429 -14.110  1.00  0.00     0.293 HD
ENDBRANCH   8  26
TORSDOF 6
ENDMDL
MODEL 4
REMARK VINA RESULT:    -7.240      5.273      7.053
REMARK INTER + INTRA:          -9.055
REMARK INTER:                  -8.723
REMARK INTRA:                  -0.332
REMARK UNBOUND:                -0.334
REMARK SMILES O=c1c(O)c(-c2ccc(O)c(O)c2)oc2cc(O)cc(O)c12
REMARK SMILES IDX 5 1 3 2 2 3 1 4 22 5 20 6 19 7 17 8 16 9 15 10 14 11 6 12
REMARK SMILES IDX 7 13 8 14 9 15 13 16 11 17 10 18 12 20 4 22 21 24 18 26
REMARK H PARENT 10 19 12 21 4 23 21 25 18 27
REMARK Flexibility Score: inf
ROOT
ATOM      1  C   UNL     1     -37.537  -4.503 -12.796  1.00  0.00     0.180 A 
ATOM      2  C   UNL     1     -36.378  -5.168 -13.239  1.00  0.00     0.208 A 
ATOM      3  C   UNL     1     -36.499  -6.460 -13.773  1.00  0.00     0.238 A 
ATOM      4  O   UNL     1     -35.465  -7.070 -14.162  1.00  0.00    -0.285 OA
ATOM      5  C   UNL     1     -37.773  -7.055 -13.876  1.00  0.00     0.111 A 
ATOM      6  C   UNL     1     -37.981  -8.351 -14.407  1.00  0.00     0.134 A 
ATOM      7  C   UNL     1     -39.283  -8.870 -14.485  1.00  0.00     0.093 A 
ATOM      8  C   UNL     1     -40.377  -8.118 -14.043  1.00  0.00     0.123 A 
ATOM      9  C   UNL     1     -40.176  -6.841 -13.518  1.00  0.00     0.094 A 
ATOM     10  C   UNL     1     -38.887  -6.306 -13.431  1.00  0.00     0.146 A 
ATOM     11  O   UNL     1     -38.725  -5.090 -12.923  1.00  0.00    -0.452 OA
ENDROOT
BRANCH   1  12
ATOM     12  C   UNL     1     -37.490  -3.147 -12.203  1.00  0.00     0.025 A 
ATOM     13  C   UNL     1     -37.691  -2.029 -13.023  1.00  0.00     0.016 A 
ATOM     14  C   UNL     1     -37.670  -0.742 -12.481  1.00  0.00     0.051 A 
ATOM     15  C   UNL     1     -37.463  -0.548 -11.111  1.00  0.00     0.157 A 
ATOM     16  C   UNL     1     -37.304  -2.958 -10.823  1.00  0.00     0.062 A 
ATOM     17  C   UNL     1     -37.284  -1.671 -10.270  1.00  0.00     0.158 A 
BRANCH  15  18
ATOM     18  O   UNL     1     -37.446   0.764 -10.633  1.00  0.00    -0.504 OA
ATOM     19  H   UNL     1     -36.686   1.160 -10.099  1.00  0.00     0.293 HD
ENDBRANCH  15  18
BRANCH  17  20
ATOM     20  O   UNL     1     -37.092  -1.558  -8.891  1.00  0.00    -0.504 OA
ATOM     21  H   UNL     1     -36.333  -1.043  -8.467  1.00  0.00     0.293 HD
ENDBRANCH  17  20
ENDBRANCH   1  12
BRANCH   2  22
ATOM     22  O   UNL     1     -35.134  -4.537 -13.171  1.00  0.00    -0.502 OA
ATOM     23  H   UNL     1     -34.742  -4.024 -13.953  1.00  0.00     0.293 HD
ENDBRANCH   2  22
BRANCH   6  24
ATOM     24  O   UNL     1     -36.910  -9.125 -14.857  1.00  0.00    -0.507 OA
ATOM     25  H   UNL     1     -36.479  -8.966 -15.759  1.00  0.00     0.293 HD
ENDBRANCH   6  24
BRANCH   8  26
ATOM     26  O   UNL     1     -41.669  -8.633 -14.120  1.00  0.00    -0.508 OA
ATOM     27  H   UNL     1     -42.175  -8.666 -14.998  1.00  0.00     0.293 HD
ENDBRANCH   8  26
TORSDOF 6
ENDMDL
MODEL 5
REMARK VINA RESULT:    -7.164      1.568      2.267
REMARK INTER + INTRA:          -8.963
REMARK INTER:                  -9.084
REMARK INTRA:                   0.121
REMARK UNBOUND:                -0.334
REMARK SMILES O=c1c(O)c(-c2ccc(O)c(O)c2)oc2cc(O)cc(O)c12
REMARK SMILES IDX 5 1 3 2 2 3 1 4 22 5 20 6 19 7 17 8 16 9 15 10 14 11 6 12
REMARK SMILES IDX 7 13 8 14 9 15 13 16 11 17 10 18 12 20 4 22 21 24 18 26
REMARK H PARENT 10 19 12 21 4 23 21 25 18 27
REMARK Flexibility Score: inf
ROOT
ATOM      1  C   UNL     1     -36.081  -4.774 -16.856  1.00  0.00     0.180 A 
ATOM      2  C   UNL     1     -36.280  -3.712 -15.952  1.00  0.00     0.208 A 
ATOM      3  C   UNL     1     -37.115  -3.915 -14.842  1.00  0.00     0.238 A 
ATOM      4  O   UNL     1     -37.310  -2.967 -14.032  1.00  0.00    -0.285 OA
ATOM      5  C   UNL     1     -37.717  -5.174 -14.642  1.00  0.00     0.111 A 
ATOM      6  C   UNL     1     -38.567  -5.461 -13.547  1.00  0.00     0.134 A 
ATOM      7  C   UNL     1     -39.120  -6.743 -13.414  1.00  0.00     0.093 A 
ATOM      8  C   UNL     1     -38.839  -7.742 -14.353  1.00  0.00     0.123 A 
ATOM      9  C   UNL     1     -38.002  -7.463 -15.434  1.00  0.00     0.094 A 
ATOM     10  C   UNL     1     -37.442  -6.192 -15.586  1.00  0.00     0.146 A 
ATOM     11  O   UNL     1     -36.653  -5.953 -16.627  1.00  0.00    -0.452 OA
ENDROOT
BRANCH   1  12
ATOM     12  C   UNL     1     -35.231  -4.633 -18.060  1.00  0.00     0.025 A 
ATOM     13  C   UNL     1     -35.685  -5.134 -19.287  1.00  0.00     0.016 A 
ATOM     14  C   UNL     1     -34.908  -4.995 -20.439  1.00  0.00     0.051 A 
ATOM     15  C   UNL     1     -33.672  -4.341 -20.391  1.00  0.00     0.157 A 
ATOM     16  C   UNL     1     -34.001  -3.955 -18.012  1.00  0.00     0.062 A 
ATOM     17  C   UNL     1     -33.215  -3.808 -19.163  1.00  0.00     0.158 A 
BRANCH  15  18
ATOM     18  O   UNL     1     -32.941  -4.241 -21.577  1.00  0.00    -0.504 OA
ATOM     19  H   UNL     1     -32.266  -3.513 -21.764  1.00  0.00     0.293 HD
ENDBRANCH  15  18
BRANCH  17  20
ATOM     20  O   UNL     1     -32.003  -3.125 -19.041  1.00  0.00    -0.504 OA
ATOM     21  H   UNL     1     -31.369  -3.235 -18.262  1.00  0.00     0.293 HD
ENDBRANCH  17  20
ENDBRANCH   1  12
BRANCH   2  22
ATOM     22  O   UNL     1     -35.633  -2.490 -16.146  1.00  0.00    -0.502 OA
ATOM     23  H   UNL     1     -36.049  -1.606 -15.875  1.00  0.00     0.293 HD
ENDBRANCH   2  22
BRANCH   6  24
ATOM     24  O   UNL     1     -38.866  -4.486 -12.594  1.00  0.00    -0.507 OA
ATOM     25  H   UNL     1     -38.259  -4.311 -11.802  1.00  0.00     0.293 HD
ENDBRANCH   6  24
BRANCH   8  26
ATOM     26  O   UNL     1     -39.388  -9.015 -14.220  1.00  0.00    -0.508 OA
ATOM     27  H   UNL     1     -39.882  -9.462 -14.985  1.00  0.00     0.293 HD
ENDBRANCH   8  26
TORSDOF 6
ENDMDL
MODEL 6
REMARK VINA RESULT:    -7.123      2.555      4.351
REMARK INTER + INTRA:          -8.915
REMARK INTER:                  -8.687
REMARK INTRA:                  -0.227
REMARK UNBOUND:                -0.334
REMARK SMILES O=c1c(O)c(-c2ccc(O)c(O)c2)oc2cc(O)cc(O)c12
REMARK SMILES IDX 5 1 3 2 2 3 1 4 22 5 20 6 19 7 17 8 16 9 15 10 14 11 6 12
REMARK SMILES IDX 7 13 8 14 9 15 13 16 11 17 10 18 12 20 4 22 21 24 18 26
REMARK H PARENT 10 19 12 21 4 23 21 25 18 27
REMARK Flexibility Score: inf
ROOT
ATOM      1  C   UNL     1     -37.407  -4.624 -15.986  1.00  0.00     0.180 A 
ATOM      2  C   UNL     1     -37.931  -5.927 -15.882  1.00  0.00     0.208 A 
ATOM      3  C   UNL     1     -38.654  -6.277 -14.732  1.00  0.00     0.238 A 
ATOM      4  O   UNL     1     -39.119  -7.446 -14.623  1.00  0.00    -0.285 OA
ATOM      5  C   UNL     1     -38.860  -5.319 -13.718  1.00  0.00     0.111 A 
ATOM      6  C   UNL     1     -39.581  -5.591 -12.530  1.00  0.00     0.134 A 
ATOM      7  C   UNL     1     -39.750  -4.580 -11.572  1.00  0.00     0.093 A 
ATOM      8  C   UNL     1     -39.212  -3.305 -11.780  1.00  0.00     0.123 A 
ATOM      9  C   UNL     1     -38.499  -3.033 -12.949  1.00  0.00     0.094 A 
ATOM     10  C   UNL     1     -38.320  -4.027 -13.916  1.00  0.00     0.146 A 
ATOM     11  O   UNL     1     -37.634  -3.742 -15.016  1.00  0.00    -0.452 OA
ENDROOT
BRANCH   1  12
ATOM     12  C   UNL     1     -36.617  -4.184 -17.158  1.00  0.00     0.025 A 
ATOM     13  C   UNL     1     -35.231  -4.020 -17.033  1.00  0.00     0.016 A 
ATOM     14  C   UNL     1     -34.464  -3.625 -18.132  1.00  0.00     0.051 A 
ATOM     15  C   UNL     1     -35.063  -3.402 -19.376  1.00  0.00     0.157 A 
ATOM     16  C   UNL     1     -37.219  -3.983 -18.412  1.00  0.00     0.062 A 
ATOM     17  C   UNL     1     -36.457  -3.589 -19.520  1.00  0.00     0.158 A 
BRANCH  15  18
ATOM     18  O   UNL     1     -34.241  -3.001 -20.433  1.00  0.00    -0.504 OA
ATOM     19  H   UNL     1     -33.645  -3.629 -20.953  1.00  0.00     0.293 HD
ENDBRANCH  15  18
BRANCH  17  20
ATOM     20  O   UNL     1     -37.122  -3.405 -20.735  1.00  0.00    -0.504 OA
ATOM     21  H   UNL     1     -37.545  -2.533 -21.020  1.00  0.00     0.293 HD
ENDBRANCH  17  20
ENDBRANCH   1  12
BRANCH   2  22
ATOM     22  O   UNL     1     -37.756  -6.843 -16.923  1.00  0.00    -0.502 OA
ATOM     23  H   UNL     1     -38.115  -7.790 -16.879  1.00  0.00     0.293 HD
ENDBRANCH   2  22
BRANCH   6  24
ATOM     24  O   UNL     1     -40.129  -6.852 -12.295  1.00  0.00    -0.507 OA
ATOM     25  H   UNL     1     -41.110  -7.046 -12.456  1.00  0.00     0.293 HD
ENDBRANCH   6  24
BRANCH   8  26
ATOM     26  O   UNL     1     -39.380  -2.300 -10.830  1.00  0.00    -0.508 OA
ATOM     27  H   UNL     1     -39.917  -1.465 -11.030  1.00  0.00     0.293 HD
ENDBRANCH   8  26
TORSDOF 6
ENDMDL
MODEL 7
REMARK VINA RESULT:    -7.078      2.535      4.489
REMARK INTER + INTRA:          -8.860
REMARK INTER:                  -8.595
REMARK INTRA:                  -0.265
REMARK UNBOUND:                -0.334
REMARK SMILES O=c1c(O)c(-c2ccc(O)c(O)c2)oc2cc(O)cc(O)c12
REMARK SMILES IDX 5 1 3 2 2 3 1 4 22 5 20 6 19 7 17 8 16 9 15 10 14 11 6 12
REMARK SMILES IDX 7 13 8 14 9 15 13 16 11 17 10 18 12 20 4 22 21 24 18 26
REMARK H PARENT 10 19 12 21 4 23 21 25 18 27
REMARK Flexibility Score: inf
ROOT
ATOM      1  C   UNL     1     -37.348  -4.576 -15.802  1.00  0.00     0.180 A 
ATOM      2  C   UNL     1     -38.028  -5.808 -15.748  1.00  0.00     0.208 A 
ATOM      3  C   UNL     1     -38.772  -6.122 -14.601  1.00  0.00     0.238 A 
ATOM      4  O   UNL     1     -39.376  -7.228 -14.537  1.00  0.00    -0.285 OA
ATOM      5  C   UNL     1     -38.843  -5.196 -13.540  1.00  0.00     0.111 A 
ATOM      6  C   UNL     1     -39.576  -5.434 -12.352  1.00  0.00     0.134 A 
ATOM      7  C   UNL     1     -39.605  -4.457 -11.346  1.00  0.00     0.093 A 
ATOM      8  C   UNL     1     -38.917  -3.249 -11.505  1.00  0.00     0.123 A 
ATOM      9  C   UNL     1     -38.193  -3.011 -12.675  1.00  0.00     0.094 A 
ATOM     10  C   UNL     1     -38.151  -3.972 -13.689  1.00  0.00     0.146 A 
ATOM     11  O   UNL     1     -37.450  -3.720 -14.789  1.00  0.00    -0.452 OA
ENDROOT
BRANCH   1  12
ATOM     12  C   UNL     1     -36.527  -4.180 -16.969  1.00  0.00     0.025 A 
ATOM     13  C   UNL     1     -37.159  -3.737 -18.138  1.00  0.00     0.016 A 
ATOM     14  C   UNL     1     -36.402  -3.340 -19.244  1.00  0.00     0.051 A 
ATOM     15  C   UNL     1     -35.005  -3.364 -19.197  1.00  0.00     0.157 A 
ATOM     16  C   UNL     1     -35.123  -4.185 -16.911  1.00  0.00     0.062 A 
ATOM     17  C   UNL     1     -34.356  -3.786 -18.013  1.00  0.00     0.158 A 
BRANCH  15  18
ATOM     18  O   UNL     1     -34.307  -2.962 -20.338  1.00  0.00    -0.504 OA
ATOM     19  H   UNL     1     -33.867  -2.058 -20.442  1.00  0.00     0.293 HD
ENDBRANCH  15  18
BRANCH  17  20
ATOM     20  O   UNL     1     -32.966  -3.818 -17.885  1.00  0.00    -0.504 OA
ATOM     21  H   UNL     1     -32.333  -4.022 -18.646  1.00  0.00     0.293 HD
ENDBRANCH  17  20
ENDBRANCH   1  12
BRANCH   2  22
ATOM     22  O   UNL     1     -37.982  -6.687 -16.833  1.00  0.00    -0.502 OA
ATOM     23  H   UNL     1     -37.251  -7.381 -16.939  1.00  0.00     0.293 HD
ENDBRANCH   2  22
BRANCH   6  24
ATOM     24  O   UNL     1     -40.272  -6.629 -12.164  1.00  0.00    -0.507 OA
ATOM     25  H   UNL     1     -41.123  -6.670 -11.616  1.00  0.00     0.293 HD
ENDBRANCH   6  24
BRANCH   8  26
ATOM     26  O   UNL     1     -38.945  -2.279 -10.506  1.00  0.00    -0.508 OA
ATOM     27  H   UNL     1     -38.200  -2.199  -9.823  1.00  0.00     0.293 HD
ENDBRANCH   8  26
TORSDOF 6
ENDMDL
MODEL 8
REMARK VINA RESULT:    -6.907      1.328      2.927
REMARK INTER + INTRA:          -8.654
REMARK INTER:                  -8.475
REMARK INTRA:                  -0.178
REMARK UNBOUND:                -0.334
REMARK SMILES O=c1c(O)c(-c2ccc(O)c(O)c2)oc2cc(O)cc(O)c12
REMARK SMILES IDX 5 1 3 2 2 3 1 4 22 5 20 6 19 7 17 8 16 9 15 10 14 11 6 12
REMARK SMILES IDX 7 13 8 14 9 15 13 16 11 17 10 18 12 20 4 22 21 24 18 26
REMARK H PARENT 10 19 12 21 4 23 21 25 18 27
REMARK Flexibility Score: inf
ROOT
ATOM      1  C   UNL     1     -34.868  -3.895 -17.408  1.00  0.00     0.180 A 
ATOM      2  C   UNL     1     -35.571  -5.084 -17.682  1.00  0.00     0.208 A 
ATOM      3  C   UNL     1     -36.643  -5.445 -16.851  1.00  0.00     0.238 A 
ATOM      4  O   UNL     1     -37.273  -6.514 -17.080  1.00  0.00    -0.285 OA
ATOM      5  C   UNL     1     -37.007  -4.606 -15.777  1.00  0.00     0.111 A 
ATOM      6  C   UNL     1     -38.077  -4.896 -14.897  1.00  0.00     0.134 A 
ATOM      7  C   UNL     1     -38.383  -4.004 -13.857  1.00  0.00     0.093 A 
ATOM      8  C   UNL     1     -37.640  -2.831 -13.684  1.00  0.00     0.123 A 
ATOM      9  C   UNL     1     -36.584  -2.542 -14.549  1.00  0.00     0.094 A 
ATOM     10  C   UNL     1     -36.263  -3.418 -15.590  1.00  0.00     0.146 A 
ATOM     11  O   UNL     1     -35.250  -3.120 -16.396  1.00  0.00    -0.452 OA
ENDROOT
BRANCH   1  12
ATOM     12  C   UNL     1     -33.715  -3.456 -18.226  1.00  0.00     0.025 A 
ATOM     13  C   UNL     1     -32.431  -3.460 -17.665  1.00  0.00     0.016 A 
ATOM     14  C   UNL     1     -31.327  -3.068 -18.426  1.00  0.00     0.051 A 
ATOM     15  C   UNL     1     -31.481  -2.681 -19.761  1.00  0.00     0.157 A 
ATOM     16  C   UNL     1     -33.871  -3.090 -19.574  1.00  0.00     0.062 A 
ATOM     17  C   UNL     1     -32.769  -2.698 -20.345  1.00  0.00     0.158 A 
BRANCH  15  18
ATOM     18  O   UNL     1     -30.338  -2.294 -20.464  1.00  0.00    -0.504 OA
ATOM     19  H   UNL     1     -30.051  -2.700 -21.343  1.00  0.00     0.293 HD
ENDBRANCH  15  18
BRANCH  17  20
ATOM     20  O   UNL     1     -32.999  -2.345 -21.676  1.00  0.00    -0.504 OA
ATOM     21  H   UNL     1     -33.761  -1.756 -21.981  1.00  0.00     0.293 HD
ENDBRANCH  17  20
ENDBRANCH   1  12
BRANCH   2  22
ATOM     22  O   UNL     1     -35.222  -5.873 -18.781  1.00  0.00    -0.502 OA
ATOM     23  H   UNL     1     -34.393  -6.457 -18.788  1.00  0.00     0.293 HD
ENDBRANCH   2  22
BRANCH   6  24
ATOM     24  O   UNL     1     -38.836  -6.057 -15.045  1.00  0.00    -0.507 OA
ATOM     25  H   UNL     1     -39.601  -6.114 -15.706  1.00  0.00     0.293 HD
ENDBRANCH   6  24
BRANCH   8  26
ATOM     26  O   UNL     1     -37.944  -1.946 -12.652  1.00  0.00    -0.508 OA
ATOM     27  H   UNL     1     -37.755  -2.176 -11.683  1.00  0.00     0.293 HD
ENDBRANCH   8  26
TORSDOF 6
ENDMDL
MODEL 9
REMARK VINA RESULT:    -6.866      2.005      3.882
REMARK INTER + INTRA:          -8.605
REMARK INTER:                  -8.308
REMARK INTRA:                  -0.297
REMARK UNBOUND:                -0.334
REMARK SMILES O=c1c(O)c(-c2ccc(O)c(O)c2)oc2cc(O)cc(O)c12
REMARK SMILES IDX 5 1 3 2 2 3 1 4 22 5 20 6 19 7 17 8 16 9 15 10 14 11 6 12
REMARK SMILES IDX 7 13 8 14 9 15 13 16 11 17 10 18 12 20 4 22 21 24 18 26
REMARK H PARENT 10 19 12 21 4 23 21 25 18 27
REMARK Flexibility Score: inf
ROOT
ATOM      1  C   UNL     1     -35.465  -3.784 -16.744  1.00  0.00     0.180 A 
ATOM      2  C   UNL     1     -35.921  -5.026 -16.264  1.00  0.00     0.208 A 
ATOM      3  C   UNL     1     -36.644  -5.065 -15.062  1.00  0.00     0.238 A 
ATOM      4  O   UNL     1     -37.048  -6.175 -14.617  1.00  0.00    -0.285 OA
ATOM      5  C   UNL     1     -36.916  -3.865 -14.373  1.00  0.00     0.111 A 
ATOM      6  C   UNL     1     -37.642  -3.818 -13.158  1.00  0.00     0.134 A 
ATOM      7  C   UNL     1     -37.880  -2.583 -12.538  1.00  0.00     0.093 A 
ATOM      8  C   UNL     1     -37.408  -1.396 -13.109  1.00  0.00     0.123 A 
ATOM      9  C   UNL     1     -36.691  -1.438 -14.306  1.00  0.00     0.094 A 
ATOM     10  C   UNL     1     -36.442  -2.659 -14.940  1.00  0.00     0.146 A 
ATOM     11  O   UNL     1     -35.754  -2.671 -16.075  1.00  0.00    -0.452 OA
ENDROOT
BRANCH   1  12
ATOM     12  C   UNL     1     -34.680  -3.662 -17.993  1.00  0.00     0.025 A 
ATOM     13  C   UNL     1     -35.344  -3.656 -19.227  1.00  0.00     0.016 A 
ATOM     14  C   UNL     1     -34.625  -3.522 -20.417  1.00  0.00     0.051 A 
ATOM     15  C   UNL     1     -33.234  -3.378 -20.397  1.00  0.00     0.157 A 
ATOM     16  C   UNL     1     -33.285  -3.494 -17.968  1.00  0.00     0.062 A 
ATOM     17  C   UNL     1     -32.555  -3.357 -19.156  1.00  0.00     0.158 A 
BRANCH  15  18
ATOM     18  O   UNL     1     -32.573  -3.256 -21.621  1.00  0.00    -0.504 OA
ATOM     19  H   UNL     1     -31.598  -3.480 -21.761  1.00  0.00     0.293 HD
ENDBRANCH  15  18
BRANCH  17  20
ATOM     20  O   UNL     1     -31.171  -3.196 -19.055  1.00  0.00    -0.504 OA
ATOM     21  H   UNL     1     -30.528  -3.950 -18.856  1.00  0.00     0.293 HD
ENDBRANCH  17  20
ENDBRANCH   1  12
BRANCH   2  22
ATOM     22  O   UNL     1     -35.680  -6.194 -16.991  1.00  0.00    -0.502 OA
ATOM     23  H   UNL     1     -36.254  -6.471 -17.780  1.00  0.00     0.293 HD
ENDBRANCH   2  22
BRANCH   6  24
ATOM     24  O   UNL     1     -38.127  -4.985 -12.564  1.00  0.00    -0.507 OA
ATOM     25  H   UNL     1     -38.720  -5.633 -13.067  1.00  0.00     0.293 HD
ENDBRANCH   6  24
BRANCH   8  26
ATOM     26  O   UNL     1     -37.644  -0.169 -12.494  1.00  0.00    -0.508 OA
ATOM     27  H   UNL     1     -37.764  -0.093 -11.490  1.00  0.00     0.293 HD
ENDBRANCH   8  26
TORSDOF 6
ENDMDL
