MODEL 1
REMARK VINA RESULT:    -6.385      0.000      0.000
REMARK INTER + INTRA:          -7.773
REMARK INTER:                  -7.505
REMARK INTRA:                  -0.268
REMARK UNBOUND:                -0.268
REMARK SMILES O=c1c(O)c(-c2ccc(O)cc2)oc2cc(O)cc(O)c12
REMARK SMILES IDX 5 1 3 2 2 3 1 4 21 5 19 6 18 7 16 8 15 9 14 10 13 11 6 12
REMARK SMILES IDX 7 13 8 14 9 15 12 16 11 17 10 18 4 20 20 22 17 24
REMARK H PARENT 10 19 4 21 20 23 17 25
REMARK Flexibility Score: inf
ROOT
ATOM      1  C   UNL     1      18.617  -1.212 -17.009  1.00  0.00     0.180 A 
ATOM      2  C   UNL     1      18.028  -0.405 -16.021  1.00  0.00     0.208 A 
ATOM      3  C   UNL     1      17.307  -1.017 -14.983  1.00  0.00     0.238 A 
ATOM      4  O   UNL     1      16.735  -0.286 -14.132  1.00  0.00    -0.285 OA
ATOM      5  C   UNL     1      17.198  -2.427 -14.937  1.00  0.00     0.111 A 
ATOM      6  C   UNL     1      16.526  -3.154 -13.908  1.00  0.00     0.134 A 
ATOM      7  C   UNL     1      16.369  -4.540 -14.034  1.00  0.00     0.093 A 
ATOM      8  C   UNL     1      16.916  -5.232 -15.116  1.00  0.00     0.123 A 
ATOM      9  C   UNL     1      17.626  -4.539 -16.094  1.00  0.00     0.094 A 
ATOM     10  C   UNL     1      17.768  -3.151 -16.015  1.00  0.00     0.146 A 
ATOM     11  O   UNL     1      18.442  -2.528 -16.975  1.00  0.00    -0.452 OA
ENDROOT
BRANCH   1  12
ATOM     12  C   UNL     1      19.413  -0.643 -18.120  1.00  0.00     0.021 A 
ATOM     13  C   UNL     1      18.854  -0.571 -19.407  1.00  0.00     0.016 A 
ATOM     14  C   UNL     1      19.596  -0.057 -20.475  1.00  0.00     0.047 A 
ATOM     15  C   UNL     1      20.910   0.376 -20.274  1.00  0.00     0.115 A 
ATOM     16  C   UNL     1      20.743  -0.223 -17.930  1.00  0.00     0.016 A 
ATOM     17  C   UNL     1      21.483   0.289 -19.000  1.00  0.00     0.047 A 
BRANCH  15  18
ATOM     18  O   UNL     1      21.637   0.886 -21.348  1.00  0.00    -0.508 OA
ATOM     19  H   UNL     1      21.813   1.880 -21.443  1.00  0.00     0.293 HD
ENDBRANCH  15  18
ENDBRANCH   1  12
BRANCH   2  20
ATOM     20  O   UNL     1      18.129   0.987 -16.098  1.00  0.00    -0.502 OA
ATOM     21  H   UNL     1      18.711   1.453 -16.784  1.00  0.00     0.293 HD
ENDBRANCH   2  20
BRANCH   6  22
ATOM     22  O   UNL     1      16.023  -2.572 -12.742  1.00  0.00    -0.507 OA
ATOM     23  H   UNL     1      15.748  -3.082 -11.917  1.00  0.00     0.293 HD
ENDBRANCH   6  22
BRANCH   8  24
ATOM     24  O   UNL     1      16.769  -6.613 -15.225  1.00  0.00    -0.508 OA
ATOM     25  H   UNL     1      16.769  -7.213 -14.407  1.00  0.00     0.293 HD
ENDBRANCH   8  24
TORSDOF 5
ENDMDL
MODEL 2
REMARK VINA RESULT:    -6.042      7.744     11.126
REMARK INTER + INTRA:          -7.370
REMARK INTER:                  -7.101
REMARK INTRA:                  -0.269
REMARK UNBOUND:                -0.268
REMARK SMILES O=c1c(O)c(-c2ccc(O)cc2)oc2cc(O)cc(O)c12
REMARK SMILES IDX 5 1 3 2 2 3 1 4 21 5 19 6 18 7 16 8 15 9 14 10 13 11 6 12
REMARK SMILES IDX 7 13 8 14 9 15 12 16 11 17 10 18 4 20 20 22 17 24
REMARK H PARENT 10 19 4 21 20 23 17 25
REMARK Flexibility Score: inf
ROOT
ATOM      1  C   UNL     1      11.106  -6.232 -10.848  1.00  0.00     0.180 A 
ATOM      2  C   UNL     1      10.838  -6.489  -9.492  1.00  0.00     0.208 A 
ATOM      3  C   UNL     1       9.712  -7.258  -9.156  1.00  0.00     0.238 A 
ATOM      4  O   UNL     1       9.446  -7.438  -7.938  1.00  0.00    -0.285 OA
ATOM      5  C   UNL     1       8.879  -7.773 -10.177  1.00  0.00     0.111 A 
ATOM      6  C   UNL     1       7.736  -8.598  -9.951  1.00  0.00     0.134 A 
ATOM      7  C   UNL     1       6.910  -8.942 -11.028  1.00  0.00     0.093 A 
ATOM      8  C   UNL     1       7.222  -8.546 -12.331  1.00  0.00     0.123 A 
ATOM      9  C   UNL     1       8.369  -7.792 -12.569  1.00  0.00     0.094 A 
ATOM     10  C   UNL     1       9.192  -7.402 -11.510  1.00  0.00     0.146 A 
ATOM     11  O   UNL     1      10.269  -6.674 -11.780  1.00  0.00    -0.452 OA
ENDROOT
BRANCH   1  12
ATOM     12  C   UNL     1      12.287  -5.452 -11.284  1.00  0.00     0.021 A 
ATOM     13  C   UNL     1      12.120  -4.124 -11.713  1.00  0.00     0.016 A 
ATOM     14  C   UNL     1      13.217  -3.376 -12.148  1.00  0.00     0.047 A 
ATOM     15  C   UNL     1      14.492  -3.949 -12.176  1.00  0.00     0.115 A 
ATOM     16  C   UNL     1      13.569  -6.028 -11.333  1.00  0.00     0.016 A 
ATOM     17  C   UNL     1      14.665  -5.278 -11.770  1.00  0.00     0.047 A 
BRANCH  15  18
ATOM     18  O   UNL     1      15.577  -3.191 -12.613  1.00  0.00    -0.508 OA
ATOM     19  H   UNL     1      15.787  -2.287 -12.206  1.00  0.00     0.293 HD
ENDBRANCH  15  18
ENDBRANCH   1  12
BRANCH   2  20
ATOM     20  O   UNL     1      11.661  -5.952  -8.499  1.00  0.00    -0.502 OA
ATOM     21  H   UNL     1      11.628  -4.975  -8.235  1.00  0.00     0.293 HD
ENDBRANCH   2  20
BRANCH   6  22
ATOM     22  O   UNL     1       7.386  -9.122  -8.704  1.00  0.00    -0.507 OA
ATOM     23  H   UNL     1       6.998 -10.041  -8.555  1.00  0.00     0.293 HD
ENDBRANCH   6  22
BRANCH   8  24
ATOM     24  O   UNL     1       6.404  -8.907 -13.399  1.00  0.00    -0.508 OA
ATOM     25  H   UNL     1       6.108  -9.867 -13.541  1.00  0.00     0.293 HD
ENDBRANCH   8  24
TORSDOF 5
ENDMDL
MODEL 3
REMARK VINA RESULT:    -5.992      1.223      3.138
REMARK INTER + INTRA:          -7.310
REMARK INTER:                  -7.091
REMARK INTRA:                  -0.219
REMARK UNBOUND:                -0.268
REMARK SMILES O=c1c(O)c(-c2ccc(O)cc2)oc2cc(O)cc(O)c12
REMARK SMILES IDX 5 1 3 2 2 3 1 4 21 5 19 6 18 7 16 8 15 9 14 10 13 11 6 12
REMARK SMILES IDX 7 13 8 14 9 15 12 16 11 17 10 18 4 20 20 22 17 24
REMARK H PARENT 10 19 4 21 20 23 17 25
REMARK Flexibility Score: inf
ROOT
ATOM      1  C   UNL     1      18.641  -2.260 -17.455  1.00  0.00     0.180 A 
ATOM      2  C   UNL     1      18.537  -3.640 -17.700  1.00  0.00     0.208 A 
ATOM      3  C   UNL     1      17.890  -4.452 -16.754  1.00  0.00     0.238 A 
ATOM      4  O   UNL     1      17.849  -5.695 -16.953  1.00  0.00    -0.285 OA
ATOM      5  C   UNL     1      17.342  -3.873 -15.585  1.00  0.00     0.111 A 
ATOM      6  C   UNL     1      16.630  -4.596 -14.580  1.00  0.00     0.134 A 
ATOM      7  C   UNL     1      16.244  -3.942 -13.404  1.00  0.00     0.093 A 
ATOM      8  C   UNL     1      16.487  -2.579 -13.224  1.00  0.00     0.123 A 
ATOM      9  C   UNL     1      17.128  -1.852 -14.225  1.00  0.00     0.094 A 
ATOM     10  C   UNL     1      17.556  -2.484 -15.394  1.00  0.00     0.146 A 
ATOM     11  O   UNL     1      18.173  -1.756 -16.318  1.00  0.00    -0.452 OA
ENDROOT
BRANCH   1  12
ATOM     12  C   UNL     1      19.285  -1.335 -18.415  1.00  0.00     0.021 A 
ATOM     13  C   UNL     1      20.501  -0.720 -18.074  1.00  0.00     0.016 A 
ATOM     14  C   UNL     1      21.116   0.173 -18.957  1.00  0.00     0.047 A 
ATOM     15  C   UNL     1      20.517   0.474 -20.183  1.00  0.00     0.115 A 
ATOM     16  C   UNL     1      18.678  -1.013 -19.643  1.00  0.00     0.016 A 
ATOM     17  C   UNL     1      19.294  -0.119 -20.523  1.00  0.00     0.047 A 
BRANCH  15  18
ATOM     18  O   UNL     1      21.141   1.366 -21.053  1.00  0.00    -0.508 OA
ATOM     19  H   UNL     1      21.935   1.085 -21.618  1.00  0.00     0.293 HD
ENDBRANCH  15  18
ENDBRANCH   1  12
BRANCH   2  20
ATOM     20  O   UNL     1      19.106  -4.195 -18.850  1.00  0.00    -0.502 OA
ATOM     21  H   UNL     1      19.706  -3.664 -19.468  1.00  0.00     0.293 HD
ENDBRANCH   2  20
BRANCH   6  22
ATOM     22  O   UNL     1      16.257  -5.937 -14.701  1.00  0.00    -0.507 OA
ATOM     23  H   UNL     1      16.586  -6.681 -14.105  1.00  0.00     0.293 HD
ENDBRANCH   6  22
BRANCH   8  24
ATOM     24  O   UNL     1      16.086  -1.933 -12.056  1.00  0.00    -0.508 OA
ATOM     25  H   UNL     1      15.235  -2.194 -11.571  1.00  0.00     0.293 HD
ENDBRANCH   8  24
TORSDOF 5
ENDMDL
MODEL 4
REMARK VINA RESULT:    -5.952      9.081     12.727
REMARK INTER + INTRA:          -7.263
REMARK INTER:                  -6.963
REMARK INTRA:                  -0.300
REMARK UNBOUND:                -0.268
REMARK SMILES O=c1c(O)c(-c2ccc(O)cc2)oc2cc(O)cc(O)c12
REMARK SMILES IDX 5 1 3 2 2 3 1 4 21 5 19 6 18 7 16 8 15 9 14 10 13 11 6 12
REMARK SMILES IDX 7 13 8 14 9 15 12 16 11 17 10 18 4 20 20 22 17 24
REMARK H PARENT 10 19 4 21 20 23 17 25
REMARK Flexibility Score: inf
ROOT
ATOM      1  C   UNL     1      10.502  -6.224  -9.202  1.00  0.00     0.180 A 
ATOM      2  C   UNL     1       9.889  -7.445  -9.530  1.00  0.00     0.208 A 
ATOM      3  C   UNL     1       8.963  -8.004  -8.635  1.00  0.00     0.238 A 
ATOM      4  O   UNL     1       8.459  -9.125  -8.909  1.00  0.00    -0.285 OA
ATOM      5  C   UNL     1       8.649  -7.328  -7.432  1.00  0.00     0.111 A 
ATOM      6  C   UNL     1       7.696  -7.783  -6.472  1.00  0.00     0.134 A 
ATOM      7  C   UNL     1       7.561  -7.101  -5.256  1.00  0.00     0.093 A 
ATOM      8  C   UNL     1       8.298  -5.943  -4.994  1.00  0.00     0.123 A 
ATOM      9  C   UNL     1       9.187  -5.458  -5.950  1.00  0.00     0.094 A 
ATOM     10  C   UNL     1       9.370  -6.137  -7.157  1.00  0.00     0.146 A 
ATOM     11  O   UNL     1      10.236  -5.646  -8.036  1.00  0.00    -0.452 OA
ENDROOT
BRANCH   1  12
ATOM     12  C   UNL     1      11.468  -5.559 -10.105  1.00  0.00     0.021 A 
ATOM     13  C   UNL     1      12.844  -5.793  -9.940  1.00  0.00     0.016 A 
ATOM     14  C   UNL     1      13.775  -5.159 -10.768  1.00  0.00     0.047 A 
ATOM     15  C   UNL     1      13.346  -4.272 -11.760  1.00  0.00     0.115 A 
ATOM     16  C   UNL     1      11.045  -4.651 -11.093  1.00  0.00     0.016 A 
ATOM     17  C   UNL     1      11.978  -4.017 -11.918  1.00  0.00     0.047 A 
BRANCH  15  18
ATOM     18  O   UNL     1      14.286  -3.648 -12.578  1.00  0.00    -0.508 OA
ATOM     19  H   UNL     1      15.175  -3.328 -12.212  1.00  0.00     0.293 HD
ENDBRANCH  15  18
ENDBRANCH   1  12
BRANCH   2  20
ATOM     20  O   UNL     1      10.230  -8.107 -10.713  1.00  0.00    -0.502 OA
ATOM     21  H   UNL     1      10.724  -7.649 -11.469  1.00  0.00     0.293 HD
ENDBRANCH   2  20
BRANCH   6  22
ATOM     22  O   UNL     1       6.845  -8.874  -6.673  1.00  0.00    -0.507 OA
ATOM     23  H   UNL     1       6.578  -9.534  -5.959  1.00  0.00     0.293 HD
ENDBRANCH   6  22
BRANCH   8  24
ATOM     24  O   UNL     1       8.146  -5.261  -3.789  1.00  0.00    -0.508 OA
ATOM     25  H   UNL     1       7.361  -5.441  -3.172  1.00  0.00     0.293 HD
ENDBRANCH   8  24
TORSDOF 5
ENDMDL
MODEL 5
REMARK VINA RESULT:    -5.740      6.830      9.922
REMARK INTER + INTRA:          -7.014
REMARK INTER:                  -6.754
REMARK INTRA:                  -0.260
REMARK UNBOUND:                -0.268
REMARK SMILES O=c1c(O)c(-c2ccc(O)cc2)oc2cc(O)cc(O)c12
REMARK SMILES IDX 5 1 3 2 2 3 1 4 21 5 19 6 18 7 16 8 15 9 14 10 13 11 6 12
REMARK SMILES IDX 7 13 8 14 9 15 12 16 11 17 10 18 4 20 20 22 17 24
REMARK H PARENT 10 19 4 21 20 23 17 25
REMARK Flexibility Score: inf
ROOT
ATOM      1  C   UNL     1      12.826  -5.363 -10.716  1.00  0.00     0.180 A 
ATOM      2  C   UNL     1      11.815  -4.611 -11.339  1.00  0.00     0.208 A 
ATOM      3  C   UNL     1      10.480  -4.812 -10.952  1.00  0.00     0.238 A 
ATOM      4  O   UNL     1       9.576  -4.175 -11.553  1.00  0.00    -0.285 OA
ATOM      5  C   UNL     1      10.174  -5.749  -9.937  1.00  0.00     0.111 A 
ATOM      6  C   UNL     1       8.861  -6.003  -9.438  1.00  0.00     0.134 A 
ATOM      7  C   UNL     1       8.659  -7.045  -8.525  1.00  0.00     0.093 A 
ATOM      8  C   UNL     1       9.732  -7.797  -8.042  1.00  0.00     0.123 A 
ATOM      9  C   UNL     1      11.025  -7.517  -8.477  1.00  0.00     0.094 A 
ATOM     10  C   UNL     1      11.253  -6.508  -9.416  1.00  0.00     0.146 A 
ATOM     11  O   UNL     1      12.501  -6.281  -9.812  1.00  0.00    -0.452 OA
ENDROOT
BRANCH   1  12
ATOM     12  C   UNL     1      14.257  -5.191 -11.050  1.00  0.00     0.021 A 
ATOM     13  C   UNL     1      15.062  -4.364 -10.248  1.00  0.00     0.016 A 
ATOM     14  C   UNL     1      16.411  -4.171 -10.558  1.00  0.00     0.047 A 
ATOM     15  C   UNL     1      16.970  -4.786 -11.681  1.00  0.00     0.115 A 
ATOM     16  C   UNL     1      14.822  -5.791 -12.191  1.00  0.00     0.016 A 
ATOM     17  C   UNL     1      16.171  -5.595 -12.499  1.00  0.00     0.047 A 
BRANCH  15  18
ATOM     18  O   UNL     1      18.316  -4.584 -11.978  1.00  0.00    -0.508 OA
ATOM     19  H   UNL     1      18.715  -3.653 -12.017  1.00  0.00     0.293 HD
ENDBRANCH  15  18
ENDBRANCH   1  12
BRANCH   2  20
ATOM     20  O   UNL     1      12.138  -3.707 -12.355  1.00  0.00    -0.502 OA
ATOM     21  H   UNL     1      12.756  -2.920 -12.206  1.00  0.00     0.293 HD
ENDBRANCH   2  20
BRANCH   6  22
ATOM     22  O   UNL     1       7.735  -5.251  -9.786  1.00  0.00    -0.507 OA
ATOM     23  H   UNL     1       7.094  -5.485 -10.528  1.00  0.00     0.293 HD
ENDBRANCH   6  22
BRANCH   8  24
ATOM     24  O   UNL     1       9.525  -8.822  -7.121  1.00  0.00    -0.508 OA
ATOM     25  H   UNL     1       8.786  -9.505  -7.244  1.00  0.00     0.293 HD
ENDBRANCH   8  24
TORSDOF 5
ENDMDL
MODEL 6
REMARK VINA RESULT:    -5.607     10.965     12.077
REMARK INTER + INTRA:          -6.858
REMARK INTER:                  -6.571
REMARK INTRA:                  -0.287
REMARK UNBOUND:                -0.268
REMARK SMILES O=c1c(O)c(-c2ccc(O)cc2)oc2cc(O)cc(O)c12
REMARK SMILES IDX 5 1 3 2 2 3 1 4 21 5 19 6 18 7 16 8 15 9 14 10 13 11 6 12
REMARK SMILES IDX 7 13 8 14 9 15 12 16 11 17 10 18 4 20 20 22 17 24
REMARK H PARENT 10 19 4 21 20 23 17 25
REMARK Flexibility Score: inf
ROOT
ATOM      1  C   UNL     1       9.081   3.432 -18.815  1.00  0.00     0.180 A 
ATOM      2  C   UNL     1       8.604   2.697 -19.914  1.00  0.00     0.208 A 
ATOM      3  C   UNL     1       7.229   2.430 -20.009  1.00  0.00     0.238 A 
ATOM      4  O   UNL     1       6.816   1.724 -20.966  1.00  0.00    -0.285 OA
ATOM      5  C   UNL     1       6.346   2.915 -19.016  1.00  0.00     0.111 A 
ATOM      6  C   UNL     1       4.930   2.739 -19.034  1.00  0.00     0.134 A 
ATOM      7  C   UNL     1       4.169   3.149 -17.932  1.00  0.00     0.093 A 
ATOM      8  C   UNL     1       4.766   3.787 -16.842  1.00  0.00     0.123 A 
ATOM      9  C   UNL     1       6.139   4.018 -16.842  1.00  0.00     0.094 A 
ATOM     10  C   UNL     1       6.930   3.588 -17.911  1.00  0.00     0.146 A 
ATOM     11  O   UNL     1       8.237   3.818 -17.865  1.00  0.00    -0.452 OA
ENDROOT
BRANCH   1  12
ATOM     12  C   UNL     1      10.513   3.775 -18.658  1.00  0.00     0.021 A 
ATOM     13  C   UNL     1      11.372   2.878 -18.002  1.00  0.00     0.016 A 
ATOM     14  C   UNL     1      12.722   3.191 -17.824  1.00  0.00     0.047 A 
ATOM     15  C   UNL     1      13.228   4.410 -18.283  1.00  0.00     0.115 A 
ATOM     16  C   UNL     1      11.025   5.009 -19.100  1.00  0.00     0.016 A 
ATOM     17  C   UNL     1      12.375   5.321 -18.919  1.00  0.00     0.047 A 
BRANCH  15  18
ATOM     18  O   UNL     1      14.577   4.709 -18.098  1.00  0.00    -0.508 OA
ATOM     19  H   UNL     1      14.909   5.146 -17.246  1.00  0.00     0.293 HD
ENDBRANCH  15  18
ENDBRANCH   1  12
BRANCH   2  20
ATOM     20  O   UNL     1       9.496   2.208 -20.873  1.00  0.00    -0.502 OA
ATOM     21  H   UNL     1      10.057   1.379 -20.720  1.00  0.00     0.293 HD
ENDBRANCH   2  20
BRANCH   6  22
ATOM     22  O   UNL     1       4.225   2.196 -20.111  1.00  0.00    -0.507 OA
ATOM     23  H   UNL     1       3.412   2.615 -20.536  1.00  0.00     0.293 HD
ENDBRANCH   6  22
BRANCH   8  24
ATOM     24  O   UNL     1       3.999   4.207 -15.757  1.00  0.00    -0.508 OA
ATOM     25  H   UNL     1       3.831   5.190 -15.574  1.00  0.00     0.293 HD
ENDBRANCH   8  24
TORSDOF 5
ENDMDL
MODEL 7
REMARK VINA RESULT:    -5.515     10.587     12.622
REMARK INTER + INTRA:          -6.750
REMARK INTER:                  -6.474
REMARK INTRA:                  -0.275
REMARK UNBOUND:                -0.268
REMARK SMILES O=c1c(O)c(-c2ccc(O)cc2)oc2cc(O)cc(O)c12
REMARK SMILES IDX 5 1 3 2 2 3 1 4 21 5 19 6 18 7 16 8 15 9 14 10 13 11 6 12
REMARK SMILES IDX 7 13 8 14 9 15 12 16 11 17 10 18 4 20 20 22 17 24
REMARK H PARENT 10 19 4 21 20 23 17 25
REMARK Flexibility Score: inf
ROOT
ATOM      1  C   UNL     1       8.062   3.493 -17.946  1.00  0.00     0.180 A 
ATOM      2  C   UNL     1       7.773   4.866 -17.861  1.00  0.00     0.208 A 
ATOM      3  C   UNL     1       8.833   5.781 -17.758  1.00  0.00     0.238 A 
ATOM      4  O   UNL     1       8.565   7.004 -17.627  1.00  0.00    -0.285 OA
ATOM      5  C   UNL     1      10.169   5.314 -17.759  1.00  0.00     0.111 A 
ATOM      6  C   UNL     1      11.321   6.155 -17.701  1.00  0.00     0.134 A 
ATOM      7  C   UNL     1      12.591   5.578 -17.576  1.00  0.00     0.093 A 
ATOM      8  C   UNL     1      12.755   4.190 -17.573  1.00  0.00     0.123 A 
ATOM      9  C   UNL     1      11.642   3.362 -17.691  1.00  0.00     0.094 A 
ATOM     10  C   UNL     1      10.359   3.908 -17.780  1.00  0.00     0.146 A 
ATOM     11  O   UNL     1       9.324   3.082 -17.879  1.00  0.00    -0.452 OA
ENDROOT
BRANCH   1  12
ATOM     12  C   UNL     1       7.001   2.470 -18.082  1.00  0.00     0.021 A 
ATOM     13  C   UNL     1       6.631   1.703 -16.964  1.00  0.00     0.016 A 
ATOM     14  C   UNL     1       5.646   0.718 -17.076  1.00  0.00     0.047 A 
ATOM     15  C   UNL     1       5.031   0.474 -18.306  1.00  0.00     0.115 A 
ATOM     16  C   UNL     1       6.391   2.207 -19.322  1.00  0.00     0.016 A 
ATOM     17  C   UNL     1       5.408   1.219 -19.431  1.00  0.00     0.047 A 
BRANCH  15  18
ATOM     18  O   UNL     1       4.050  -0.512 -18.402  1.00  0.00    -0.508 OA
ATOM     19  H   UNL     1       3.392  -0.529 -19.172  1.00  0.00     0.293 HD
ENDBRANCH  15  18
ENDBRANCH   1  12
BRANCH   2  20
ATOM     20  O   UNL     1       6.445   5.304 -17.839  1.00  0.00    -0.502 OA
ATOM     21  H   UNL     1       5.663   4.664 -17.774  1.00  0.00     0.293 HD
ENDBRANCH   2  20
BRANCH   6  22
ATOM     22  O   UNL     1      11.275   7.549 -17.788  1.00  0.00    -0.507 OA
ATOM     23  H   UNL     1      11.813   8.102 -18.437  1.00  0.00     0.293 HD
ENDBRANCH   6  22
BRANCH   8  24
ATOM     24  O   UNL     1      14.023   3.625 -17.465  1.00  0.00    -0.508 OA
ATOM     25  H   UNL     1      14.175   2.631 -17.600  1.00  0.00     0.293 HD
ENDBRANCH   8  24
TORSDOF 5
ENDMDL
MODEL 8
REMARK VINA RESULT:    -5.430     15.454     17.195
REMARK INTER + INTRA:          -6.650
REMARK INTER:                  -6.415
REMARK INTRA:                  -0.236
REMARK UNBOUND:                -0.268
REMARK SMILES O=c1c(O)c(-c2ccc(O)cc2)oc2cc(O)cc(O)c12
REMARK SMILES IDX 5 1 3 2 2 3 1 4 21 5 19 6 18 7 16 8 15 9 14 10 13 11 6 12
REMARK SMILES IDX 7 13 8 14 9 15 12 16 11 17 10 18 4 20 20 22 17 24
REMARK H PARENT 10 19 4 21 20 23 17 25
REMARK Flexibility Score: inf
ROOT
ATOM      1  C   UNL     1       5.109   5.560 -10.890  1.00  0.00     0.180 A 
ATOM      2  C   UNL     1       5.165   6.963 -10.935  1.00  0.00     0.208 A 
ATOM      3  C   UNL     1       4.893   7.617 -12.148  1.00  0.00     0.238 A 
ATOM      4  O   UNL     1       4.999   8.871 -12.195  1.00  0.00    -0.285 OA
ATOM      5  C   UNL     1       4.552   6.862 -13.295  1.00  0.00     0.111 A 
ATOM      6  C   UNL     1       4.217   7.422 -14.564  1.00  0.00     0.134 A 
ATOM      7  C   UNL     1       4.023   6.576 -15.663  1.00  0.00     0.093 A 
ATOM      8  C   UNL     1       4.087   5.188 -15.523  1.00  0.00     0.123 A 
ATOM      9  C   UNL     1       4.354   4.630 -14.275  1.00  0.00     0.094 A 
ATOM     10  C   UNL     1       4.588   5.449 -13.168  1.00  0.00     0.146 A 
ATOM     11  O   UNL     1       4.850   4.876 -12.000  1.00  0.00    -0.452 OA
ENDROOT
BRANCH   1  12
ATOM     12  C   UNL     1       5.358   4.800  -9.645  1.00  0.00     0.021 A 
ATOM     13  C   UNL     1       6.535   4.042  -9.519  1.00  0.00     0.016 A 
ATOM     14  C   UNL     1       6.780   3.301  -8.360  1.00  0.00     0.047 A 
ATOM     15  C   UNL     1       5.847   3.293  -7.319  1.00  0.00     0.115 A 
ATOM     16  C   UNL     1       4.415   4.772  -8.601  1.00  0.00     0.016 A 
ATOM     17  C   UNL     1       4.662   4.029  -7.444  1.00  0.00     0.047 A 
BRANCH  15  18
ATOM     18  O   UNL     1       6.106   2.549  -6.169  1.00  0.00    -0.508 OA
ATOM     19  H   UNL     1       5.355   2.215  -5.576  1.00  0.00     0.293 HD
ENDBRANCH  15  18
ENDBRANCH   1  12
BRANCH   2  20
ATOM     20  O   UNL     1       5.526   7.689  -9.797  1.00  0.00    -0.502 OA
ATOM     21  H   UNL     1       5.535   8.701  -9.777  1.00  0.00     0.293 HD
ENDBRANCH   2  20
BRANCH   6  22
ATOM     22  O   UNL     1       4.038   8.790 -14.790  1.00  0.00    -0.507 OA
ATOM     23  H   UNL     1       4.422   9.299 -15.572  1.00  0.00     0.293 HD
ENDBRANCH   6  22
BRANCH   8  24
ATOM     24  O   UNL     1       3.877   4.352 -16.618  1.00  0.00    -0.508 OA
ATOM     25  H   UNL     1       3.853   4.714 -17.565  1.00  0.00     0.293 HD
ENDBRANCH   8  24
TORSDOF 5
ENDMDL
MODEL 9
REMARK VINA RESULT:    -5.362     15.492     17.554
REMARK INTER + INTRA:          -6.570
REMARK INTER:                  -6.278
REMARK INTRA:                  -0.292
REMARK UNBOUND:                -0.268
REMARK SMILES O=c1c(O)c(-c2ccc(O)cc2)oc2cc(O)cc(O)c12
REMARK SMILES IDX 5 1 3 2 2 3 1 4 21 5 19 6 18 7 16 8 15 9 14 10 13 11 6 12
REMARK SMILES IDX 7 13 8 14 9 15 12 16 11 17 10 18 4 20 20 22 17 24
REMARK H PARENT 10 19 4 21 20 23 17 25
REMARK Flexibility Score: inf
ROOT
ATOM      1  C   UNL     1       5.183   5.447 -10.858  1.00  0.00     0.180 A 
ATOM      2  C   UNL     1       4.620   4.878 -12.014  1.00  0.00     0.208 A 
ATOM      3  C   UNL     1       4.431   5.685 -13.147  1.00  0.00     0.238 A 
ATOM      4  O   UNL     1       3.875   5.183 -14.159  1.00  0.00    -0.285 OA
ATOM      5  C   UNL     1       4.821   7.045 -13.118  1.00  0.00     0.111 A 
ATOM      6  C   UNL     1       4.713   7.943 -14.222  1.00  0.00     0.134 A 
ATOM      7  C   UNL     1       5.010   9.299 -14.039  1.00  0.00     0.093 A 
ATOM      8  C   UNL     1       5.473   9.777 -12.811  1.00  0.00     0.123 A 
ATOM      9  C   UNL     1       5.639   8.897 -11.745  1.00  0.00     0.094 A 
ATOM     10  C   UNL     1       5.317   7.545 -11.885  1.00  0.00     0.146 A 
ATOM     11  O   UNL     1       5.479   6.742 -10.840  1.00  0.00    -0.452 OA
ENDROOT
BRANCH   1  12
ATOM     12  C   UNL     1       5.437   4.656  -9.633  1.00  0.00     0.021 A 
ATOM     13  C   UNL     1       4.521   4.713  -8.569  1.00  0.00     0.016 A 
ATOM     14  C   UNL     1       4.752   3.991  -7.395  1.00  0.00     0.047 A 
ATOM     15  C   UNL     1       5.907   3.216  -7.262  1.00  0.00     0.115 A 
ATOM     16  C   UNL     1       6.607   3.889  -9.484  1.00  0.00     0.016 A 
ATOM     17  C   UNL     1       6.836   3.170  -8.308  1.00  0.00     0.047 A 
BRANCH  15  18
ATOM     18  O   UNL     1       6.124   2.501  -6.085  1.00  0.00    -0.508 OA
ATOM     19  H   UNL     1       5.465   1.802  -5.763  1.00  0.00     0.293 HD
ENDBRANCH  15  18
ENDBRANCH   1  12
BRANCH   2  20
ATOM     20  O   UNL     1       4.220   3.539 -12.014  1.00  0.00    -0.502 OA
ATOM     21  H   UNL     1       4.679   2.835 -12.579  1.00  0.00     0.293 HD
ENDBRANCH   2  20
BRANCH   6  22
ATOM     22  O   UNL     1       4.349   7.552 -15.513  1.00  0.00    -0.507 OA
ATOM     23  H   UNL     1       3.890   6.683 -15.742  1.00  0.00     0.293 HD
ENDBRANCH   6  22
BRANCH   8  24
ATOM     24  O   UNL     1       5.781  11.125 -12.643  1.00  0.00    -0.508 OA
ATOM     25  H   UNL     1       5.763  11.564 -11.729  1.00  0.00     0.293 HD
ENDBRANCH   8  24
TORSDOF 5
ENDMDL
