MODEL 1
REMARK VINA RESULT:    -4.777      0.000      0.000
REMARK INTER + INTRA:          -5.549
REMARK INTER:                  -5.475
REMARK INTRA:                  -0.074
REMARK UNBOUND:                -0.074
REMARK SMILES CC(C)[C@@H]([NH3+])C(=O)[O-]
REMARK SMILES IDX 4 1 5 2 6 6 7 7 8 8 2 9 1 10 3 11
REMARK H PARENT 5 3 5 4 5 5
REMARK Flexibility Score: inf
ROOT
ATOM      1  C   UNL     1     -19.729  68.663  -0.879  1.00  0.00     0.230 C 
ENDROOT
BRANCH   1   2
ATOM      2  N   UNL     1     -18.520  69.501  -0.902  1.00  0.00    -0.350 N 
ATOM      3  H   UNL     1     -18.342  69.826  -1.880  1.00  0.00     0.345 HD
ATOM      4  H   UNL     1     -17.681  68.972  -0.572  1.00  0.00     0.345 HD
ATOM      5  H   UNL     1     -18.652  70.348  -0.307  1.00  0.00     0.345 HD
ENDBRANCH   1   2
BRANCH   1   6
ATOM      6  C   UNL     1     -19.374  67.221  -0.609  1.00  0.00     0.099 C 
ATOM      7  O   UNL     1     -18.944  66.883   0.526  1.00  0.00    -0.544 OA
ATOM      8  O   UNL     1     -19.473  66.264  -1.613  1.00  0.00    -0.544 OA
ENDBRANCH   1   6
BRANCH   1   9
ATOM      9  C   UNL     1     -20.803  69.168   0.130  1.00  0.00     0.047 C 
ATOM     10  C   UNL     1     -22.172  68.515  -0.115  1.00  0.00     0.014 C 
ATOM     11  C   UNL     1     -20.945  70.700   0.163  1.00  0.00     0.014 C 
ENDBRANCH   1   9
TORSDOF 3
ENDMDL
MODEL 2
REMARK VINA RESULT:    -4.738      2.687      3.670
REMARK INTER + INTRA:          -5.505
REMARK INTER:                  -5.430
REMARK INTRA:                  -0.075
REMARK UNBOUND:                -0.074
REMARK SMILES CC(C)[C@@H]([NH3+])C(=O)[O-]
REMARK SMILES IDX 4 1 5 2 6 6 7 7 8 8 2 9 1 10 3 11
REMARK H PARENT 5 3 5 4 5 5
REMARK Flexibility Score: inf
ROOT
ATOM      1  C   UNL     1     -21.339  68.462  -0.487  1.00  0.00     0.230 C 
ENDROOT
BRANCH   1   2
ATOM      2  N   UNL     1     -22.553  67.630  -0.487  1.00  0.00    -0.350 N 
ATOM      3  H   UNL     1     -22.282  66.621  -0.428  1.00  0.00     0.345 HD
ATOM      4  H   UNL     1     -23.114  67.771  -1.358  1.00  0.00     0.345 HD
ATOM      5  H   UNL     1     -23.144  67.847   0.346  1.00  0.00     0.345 HD
ENDBRANCH   1   2
BRANCH   1   6
ATOM      6  C   UNL     1     -21.257  69.286   0.775  1.00  0.00     0.099 C 
ATOM      7  O   UNL     1     -21.288  68.718   1.899  1.00  0.00    -0.544 OA
ATOM      8  O   UNL     1     -21.194  70.674   0.715  1.00  0.00    -0.544 OA
ENDBRANCH   1   6
BRANCH   1   9
ATOM      9  C   UNL     1     -20.034  67.638  -0.697  1.00  0.00     0.047 C 
ATOM     10  C   UNL     1     -18.801  68.543  -0.838  1.00  0.00     0.014 C 
ATOM     11  C   UNL     1     -20.109  66.656  -1.880  1.00  0.00     0.014 C 
ENDBRANCH   1   9
TORSDOF 3
ENDMDL
MODEL 3
REMARK VINA RESULT:    -4.609      1.947      2.349
REMARK INTER + INTRA:          -5.357
REMARK INTER:                  -5.292
REMARK INTRA:                  -0.065
REMARK UNBOUND:                -0.074
REMARK SMILES CC(C)[C@@H]([NH3+])C(=O)[O-]
REMARK SMILES IDX 4 1 5 2 6 6 7 7 8 8 2 9 1 10 3 11
REMARK H PARENT 5 3 5 4 5 5
REMARK Flexibility Score: inf
ROOT
ATOM      1  C   UNL     1     -19.915  67.465  -0.429  1.00  0.00     0.230 C 
ENDROOT
BRANCH   1   2
ATOM      2  N   UNL     1     -20.206  66.857  -1.737  1.00  0.00    -0.350 N 
ATOM      3  H   UNL     1     -19.328  66.817  -2.304  1.00  0.00     0.345 HD
ATOM      4  H   UNL     1     -20.917  67.411  -2.267  1.00  0.00     0.345 HD
ATOM      5  H   UNL     1     -20.548  65.878  -1.616  1.00  0.00     0.345 HD
ENDBRANCH   1   2
BRANCH   1   6
ATOM      6  C   UNL     1     -18.621  68.240  -0.476  1.00  0.00     0.099 C 
ATOM      7  O   UNL     1     -17.553  67.703  -0.080  1.00  0.00    -0.544 OA
ATOM      8  O   UNL     1     -18.599  69.561  -0.910  1.00  0.00    -0.544 OA
ENDBRANCH   1   6
BRANCH   1   9
ATOM      9  C   UNL     1     -21.078  68.358   0.100  1.00  0.00     0.047 C 
ATOM     10  C   UNL     1     -21.091  68.430   1.634  1.00  0.00     0.014 C 
ATOM     11  C   UNL     1     -22.463  67.940  -0.423  1.00  0.00     0.014 C 
ENDBRANCH   1   9
TORSDOF 3
ENDMDL
MODEL 4
REMARK VINA RESULT:    -4.599      2.235      3.215
REMARK INTER + INTRA:          -5.345
REMARK INTER:                  -5.283
REMARK INTRA:                  -0.062
REMARK UNBOUND:                -0.074
REMARK SMILES CC(C)[C@@H]([NH3+])C(=O)[O-]
REMARK SMILES IDX 4 1 5 2 6 6 7 7 8 8 2 9 1 10 3 11
REMARK H PARENT 5 3 5 4 5 5
REMARK Flexibility Score: inf
ROOT
ATOM      1  C   UNL     1     -20.659  68.923   0.484  1.00  0.00     0.230 C 
ENDROOT
BRANCH   1   2
ATOM      2  N   UNL     1     -20.864  70.331   0.109  1.00  0.00    -0.350 N 
ATOM      3  H   UNL     1     -21.450  70.378  -0.756  1.00  0.00     0.345 HD
ATOM      4  H   UNL     1     -19.955  70.813  -0.080  1.00  0.00     0.345 HD
ATOM      5  H   UNL     1     -21.375  70.840   0.864  1.00  0.00     0.345 HD
ENDBRANCH   1   2
BRANCH   1   6
ATOM      6  C   UNL     1     -21.975  68.185   0.524  1.00  0.00     0.099 C 
ATOM      7  O   UNL     1     -22.450  67.691  -0.533  1.00  0.00    -0.544 OA
ATOM      8  O   UNL     1     -22.696  68.081   1.709  1.00  0.00    -0.544 OA
ENDBRANCH   1   6
BRANCH   1   9
ATOM      9  C   UNL     1     -19.638  68.189  -0.436  1.00  0.00     0.047 C 
ATOM     10  C   UNL     1     -18.952  67.021   0.288  1.00  0.00     0.014 C 
ATOM     11  C   UNL     1     -18.583  69.122  -1.055  1.00  0.00     0.014 C 
ENDBRANCH   1   9
TORSDOF 3
ENDMDL
MODEL 5
REMARK VINA RESULT:    -4.579      1.839      2.181
REMARK INTER + INTRA:          -5.322
REMARK INTER:                  -5.264
REMARK INTRA:                  -0.058
REMARK UNBOUND:                -0.074
REMARK SMILES CC(C)[C@@H]([NH3+])C(=O)[O-]
REMARK SMILES IDX 4 1 5 2 6 6 7 7 8 8 2 9 1 10 3 11
REMARK H PARENT 5 3 5 4 5 5
REMARK Flexibility Score: inf
ROOT
ATOM      1  C   UNL     1     -20.500  69.286  -0.476  1.00  0.00     0.230 C 
ENDROOT
BRANCH   1   2
ATOM      2  N   UNL     1     -20.724  70.629   0.083  1.00  0.00    -0.350 N 
ATOM      3  H   UNL     1     -21.071  70.542   1.066  1.00  0.00     0.345 HD
ATOM      4  H   UNL     1     -21.432  71.161  -0.472  1.00  0.00     0.345 HD
ATOM      5  H   UNL     1     -19.829  71.167   0.110  1.00  0.00     0.345 HD
ENDBRANCH   1   2
BRANCH   1   6
ATOM      6  C   UNL     1     -19.023  68.987  -0.571  1.00  0.00     0.099 C 
ATOM      7  O   UNL     1     -18.234  69.861  -1.018  1.00  0.00    -0.544 OA
ATOM      8  O   UNL     1     -18.526  67.738  -0.215  1.00  0.00    -0.544 OA
ENDBRANCH   1   6
BRANCH   1   9
ATOM      9  C   UNL     1     -21.243  68.166   0.312  1.00  0.00     0.047 C 
ATOM     10  C   UNL     1     -22.588  67.807  -0.336  1.00  0.00     0.014 C 
ATOM     11  C   UNL     1     -21.441  68.488   1.803  1.00  0.00     0.014 C 
ENDBRANCH   1   9
TORSDOF 3
ENDMDL
MODEL 6
REMARK VINA RESULT:    -4.484      2.580      3.438
REMARK INTER + INTRA:          -5.214
REMARK INTER:                  -5.157
REMARK INTRA:                  -0.057
REMARK UNBOUND:                -0.074
REMARK SMILES CC(C)[C@@H]([NH3+])C(=O)[O-]
REMARK SMILES IDX 4 1 5 2 6 6 7 7 8 8 2 9 1 10 3 11
REMARK H PARENT 5 3 5 4 5 5
REMARK Flexibility Score: inf
ROOT
ATOM      1  C   UNL     1     -20.740  67.975  -1.036  1.00  0.00     0.230 C 
ENDROOT
BRANCH   1   2
ATOM      2  N   UNL     1     -20.604  66.742  -1.826  1.00  0.00    -0.350 N 
ATOM      3  H   UNL     1     -19.611  66.636  -2.137  1.00  0.00     0.345 HD
ATOM      4  H   UNL     1     -21.215  66.762  -2.674  1.00  0.00     0.345 HD
ATOM      5  H   UNL     1     -20.843  65.908  -1.245  1.00  0.00     0.345 HD
ENDBRANCH   1   2
BRANCH   1   6
ATOM      6  C   UNL     1     -21.991  67.934  -0.192  1.00  0.00     0.099 C 
ATOM      7  O   UNL     1     -23.048  67.435  -0.662  1.00  0.00    -0.544 OA
ATOM      8  O   UNL     1     -22.006  68.483   1.085  1.00  0.00    -0.544 OA
ENDBRANCH   1   6
BRANCH   1   9
ATOM      9  C   UNL     1     -19.489  68.278  -0.158  1.00  0.00     0.047 C 
ATOM     10  C   UNL     1     -18.482  69.181  -0.887  1.00  0.00     0.014 C 
ATOM     11  C   UNL     1     -18.784  67.015   0.368  1.00  0.00     0.014 C 
ENDBRANCH   1   9
TORSDOF 3
ENDMDL
MODEL 7
REMARK VINA RESULT:    -4.357      2.311      3.274
REMARK INTER + INTRA:          -5.068
REMARK INTER:                  -5.040
REMARK INTRA:                  -0.027
REMARK UNBOUND:                -0.074
REMARK SMILES CC(C)[C@@H]([NH3+])C(=O)[O-]
REMARK SMILES IDX 4 1 5 2 6 6 7 7 8 8 2 9 1 10 3 11
REMARK H PARENT 5 3 5 4 5 5
REMARK Flexibility Score: inf
ROOT
ATOM      1  C   UNL     1     -19.638  69.034  -0.187  1.00  0.00     0.230 C 
ENDROOT
BRANCH   1   2
ATOM      2  N   UNL     1     -18.808  69.534  -1.294  1.00  0.00    -0.350 N 
ATOM      3  H   UNL     1     -18.252  70.358  -0.966  1.00  0.00     0.345 HD
ATOM      4  H   UNL     1     -19.393  69.833  -2.107  1.00  0.00     0.345 HD
ATOM      5  H   UNL     1     -18.132  68.801  -1.603  1.00  0.00     0.345 HD
ENDBRANCH   1   2
BRANCH   1   6
ATOM      6  C   UNL     1     -20.931  69.808  -0.097  1.00  0.00     0.099 C 
ATOM      7  O   UNL     1     -20.905  71.048   0.120  1.00  0.00    -0.544 OA
ATOM      8  O   UNL     1     -22.156  69.160  -0.203  1.00  0.00    -0.544 OA
ENDBRANCH   1   6
BRANCH   1   9
ATOM      9  C   UNL     1     -19.914  67.502  -0.276  1.00  0.00     0.047 C 
ATOM     10  C   UNL     1     -18.901  66.690   0.545  1.00  0.00     0.014 C 
ATOM     11  C   UNL     1     -19.976  66.970  -1.718  1.00  0.00     0.014 C 
ENDBRANCH   1   9
TORSDOF 3
ENDMDL
MODEL 8
REMARK VINA RESULT:    -4.311      1.622      2.121
REMARK INTER + INTRA:          -5.015
REMARK INTER:                  -4.964
REMARK INTRA:                  -0.051
REMARK UNBOUND:                -0.074
REMARK SMILES CC(C)[C@@H]([NH3+])C(=O)[O-]
REMARK SMILES IDX 4 1 5 2 6 6 7 7 8 8 2 9 1 10 3 11
REMARK H PARENT 5 3 5 4 5 5
REMARK Flexibility Score: inf
ROOT
ATOM      1  C   UNL     1     -19.817  68.714   0.047  1.00  0.00     0.230 C 
ENDROOT
BRANCH   1   2
ATOM      2  N   UNL     1     -20.069  67.593   0.967  1.00  0.00    -0.350 N 
ATOM      3  H   UNL     1     -20.155  67.958   1.943  1.00  0.00     0.345 HD
ATOM      4  H   UNL     1     -19.290  66.896   0.942  1.00  0.00     0.345 HD
ATOM      5  H   UNL     1     -20.968  67.119   0.727  1.00  0.00     0.345 HD
ENDBRANCH   1   2
BRANCH   1   6
ATOM      6  C   UNL     1     -19.129  68.232  -1.207  1.00  0.00     0.099 C 
ATOM      7  O   UNL     1     -18.361  69.005  -1.837  1.00  0.00    -0.544 OA
ATOM      8  O   UNL     1     -19.369  66.956  -1.704  1.00  0.00    -0.544 OA
ENDBRANCH   1   6
BRANCH   1   9
ATOM      9  C   UNL     1     -21.106  69.518  -0.301  1.00  0.00     0.047 C 
ATOM     10  C   UNL     1     -21.217  70.807   0.525  1.00  0.00     0.014 C 
ATOM     11  C   UNL     1     -22.399  68.694  -0.175  1.00  0.00     0.014 C 
ENDBRANCH   1   9
TORSDOF 3
ENDMDL
MODEL 9
REMARK VINA RESULT:    -4.297      1.026      1.784
REMARK INTER + INTRA:          -4.999
REMARK INTER:                  -4.986
REMARK INTRA:                  -0.014
REMARK UNBOUND:                -0.074
REMARK SMILES CC(C)[C@@H]([NH3+])C(=O)[O-]
REMARK SMILES IDX 4 1 5 2 6 6 7 7 8 8 2 9 1 10 3 11
REMARK H PARENT 5 3 5 4 5 5
REMARK Flexibility Score: inf
ROOT
ATOM      1  C   UNL     1     -20.029  68.740  -0.983  1.00  0.00     0.230 C 
ENDROOT
BRANCH   1   2
ATOM      2  N   UNL     1     -18.647  68.954  -0.526  1.00  0.00    -0.350 N 
ATOM      3  H   UNL     1     -18.150  69.577  -1.205  1.00  0.00     0.345 HD
ATOM      4  H   UNL     1     -18.123  68.053  -0.459  1.00  0.00     0.345 HD
ATOM      5  H   UNL     1     -18.640  69.431   0.403  1.00  0.00     0.345 HD
ENDBRANCH   1   2
BRANCH   1   6
ATOM      6  C   UNL     1     -20.263  67.287  -1.316  1.00  0.00     0.099 C 
ATOM      7  O   UNL     1     -21.433  66.873  -1.531  1.00  0.00    -0.544 OA
ATOM      8  O   UNL     1     -19.205  66.385  -1.343  1.00  0.00    -0.544 OA
ENDBRANCH   1   6
BRANCH   1   9
ATOM      9  C   UNL     1     -21.094  69.255   0.031  1.00  0.00     0.047 C 
ATOM     10  C   UNL     1     -20.981  70.769   0.261  1.00  0.00     0.014 C 
ATOM     11  C   UNL     1     -21.072  68.511   1.378  1.00  0.00     0.014 C 
ENDBRANCH   1   9
TORSDOF 3
ENDMDL
