MODEL 1
REMARK VINA RESULT:    -4.047      0.000      0.000
REMARK INTER + INTRA:          -8.126
REMARK INTER:                  -6.887
REMARK INTRA:                  -1.239
REMARK UNBOUND:                -1.239
REMARK SMILES CCCCCCCCCCCCCC(=O)[O-]
REMARK SMILES IDX 8 1 9 2 10 3 11 4 12 5 13 6 14 7 15 8 16 9 7 10 6 11 5 12
REMARK SMILES IDX 4 13 3 14 2 15 1 16
REMARK H PARENT
REMARK Flexibility Score: inf
ROOT
ATOM      1  C   UNL     1      -6.536  -6.821  -0.147  1.00  0.00     0.000 C 
ENDROOT
BRANCH   1   2
ATOM      2  C   UNL     1      -6.442  -8.249   0.414  1.00  0.00     0.000 C 
BRANCH   2   3
ATOM      3  C   UNL     1      -7.132  -9.288  -0.486  1.00  0.00     0.000 C 
BRANCH   3   4
ATOM      4  C   UNL     1      -6.917 -10.730   0.006  1.00  0.00     0.000 C 
BRANCH   4   5
ATOM      5  C   UNL     1      -5.436 -11.143  -0.009  1.00  0.00     0.006 C 
BRANCH   5   6
ATOM      6  C   UNL     1      -5.231 -12.600  -0.447  1.00  0.00     0.053 C 
BRANCH   6   7
ATOM      7  C   UNL     1      -5.734 -13.536   0.605  1.00  0.00     0.041 C 
ATOM      8  O   UNL     1      -5.378 -13.392   1.804  1.00  0.00    -0.550 OA
ATOM      9  O   UNL     1      -6.637 -14.538   0.270  1.00  0.00    -0.550 OA
ENDBRANCH   6   7
ENDBRANCH   5   6
ENDBRANCH   4   5
ENDBRANCH   3   4
ENDBRANCH   2   3
ENDBRANCH   1   2
BRANCH   1  10
ATOM     10  C   UNL     1      -6.309  -5.783   0.958  1.00  0.00     0.000 C 
BRANCH  10  11
ATOM     11  C   UNL     1      -7.201  -6.066   2.172  1.00  0.00    -0.000 C 
BRANCH  11  12
ATOM     12  C   UNL     1      -8.350  -5.054   2.260  1.00  0.00    -0.000 C 
BRANCH  12  13
ATOM     13  C   UNL     1      -9.704  -5.769   2.383  1.00  0.00    -0.000 C 
BRANCH  13  14
ATOM     14  C   UNL     1      -9.704  -7.168   1.742  1.00  0.00    -0.000 C 
BRANCH  14  15
ATOM     15  C   UNL     1     -10.384  -7.248   0.362  1.00  0.00    -0.003 C 
ATOM     16  C   UNL     1     -11.251  -6.029   0.052  1.00  0.00     0.004 C 
ENDBRANCH  14  15
ENDBRANCH  13  14
ENDBRANCH  12  13
ENDBRANCH  11  12
ENDBRANCH  10  11
ENDBRANCH   1  10
TORSDOF 12
ENDMDL
MODEL 2
REMARK VINA RESULT:    -4.020      1.268      3.169
REMARK INTER + INTRA:          -8.079
REMARK INTER:                  -6.916
REMARK INTRA:                  -1.163
REMARK UNBOUND:                -1.239
REMARK SMILES CCCCCCCCCCCCCC(=O)[O-]
REMARK SMILES IDX 8 1 9 2 10 3 11 4 12 5 13 6 14 7 15 8 16 9 7 10 6 11 5 12
REMARK SMILES IDX 4 13 3 14 2 15 1 16
REMARK H PARENT
REMARK Flexibility Score: inf
ROOT
ATOM      1  C   UNL     1     -10.559  -7.179   0.125  1.00  0.00     0.000 C 
ENDROOT
BRANCH   1   2
ATOM      2  C   UNL     1      -9.327  -7.888   0.708  1.00  0.00     0.000 C 
BRANCH   2   3
ATOM      3  C   UNL     1      -8.751  -8.954  -0.238  1.00  0.00     0.000 C 
BRANCH   3   4
ATOM      4  C   UNL     1      -7.212  -8.965  -0.248  1.00  0.00     0.000 C 
BRANCH   4   5
ATOM      5  C   UNL     1      -6.635 -10.368  -0.498  1.00  0.00     0.006 C 
BRANCH   5   6
ATOM      6  C   UNL     1      -5.715 -10.841   0.635  1.00  0.00     0.053 C 
BRANCH   6   7
ATOM      7  C   UNL     1      -6.419 -11.842   1.496  1.00  0.00     0.041 C 
ATOM      8  O   UNL     1      -6.416 -13.061   1.182  1.00  0.00    -0.550 OA
ATOM      9  O   UNL     1      -7.038 -11.435   2.671  1.00  0.00    -0.550 OA
ENDBRANCH   6   7
ENDBRANCH   5   6
ENDBRANCH   4   5
ENDBRANCH   3   4
ENDBRANCH   2   3
ENDBRANCH   1   2
BRANCH   1  10
ATOM     10  C   UNL     1     -10.704  -5.767   0.705  1.00  0.00     0.000 C 
BRANCH  10  11
ATOM     11  C   UNL     1     -10.198  -5.710   2.151  1.00  0.00    -0.000 C 
BRANCH  11  12
ATOM     12  C   UNL     1      -9.283  -4.499   2.368  1.00  0.00    -0.000 C 
BRANCH  12  13
ATOM     13  C   UNL     1      -7.876  -4.943   2.795  1.00  0.00    -0.000 C 
BRANCH  13  14
ATOM     14  C   UNL     1      -6.797  -4.601   1.752  1.00  0.00    -0.000 C 
BRANCH  14  15
ATOM     15  C   UNL     1      -6.175  -5.818   1.042  1.00  0.00    -0.003 C 
ATOM     16  C   UNL     1      -5.588  -5.476  -0.327  1.00  0.00     0.004 C 
ENDBRANCH  14  15
ENDBRANCH  13  14
ENDBRANCH  12  13
ENDBRANCH  11  12
ENDBRANCH  10  11
ENDBRANCH   1  10
TORSDOF 12
ENDMDL
MODEL 3
REMARK VINA RESULT:    -3.970      3.508      7.121
REMARK INTER + INTRA:          -7.995
REMARK INTER:                  -7.111
REMARK INTRA:                  -0.884
REMARK UNBOUND:                -1.239
REMARK SMILES CCCCCCCCCCCCCC(=O)[O-]
REMARK SMILES IDX 8 1 9 2 10 3 11 4 12 5 13 6 14 7 15 8 16 9 7 10 6 11 5 12
REMARK SMILES IDX 4 13 3 14 2 15 1 16
REMARK H PARENT
REMARK Flexibility Score: inf
ROOT
ATOM      1  C   UNL     1      -7.359  -7.928  -0.325  1.00  0.00     0.000 C 
ENDROOT
BRANCH   1   2
ATOM      2  C   UNL     1      -7.201  -6.599   0.429  1.00  0.00     0.000 C 
BRANCH   2   3
ATOM      3  C   UNL     1      -7.929  -6.593   1.784  1.00  0.00     0.000 C 
BRANCH   3   4
ATOM      4  C   UNL     1      -8.281  -5.172   2.258  1.00  0.00     0.000 C 
BRANCH   4   5
ATOM      5  C   UNL     1      -9.789  -4.884   2.182  1.00  0.00     0.006 C 
BRANCH   5   6
ATOM      6  C   UNL     1     -10.620  -6.141   1.890  1.00  0.00     0.053 C 
BRANCH   6   7
ATOM      7  C   UNL     1     -11.079  -6.143   0.466  1.00  0.00     0.041 C 
ATOM      8  O   UNL     1     -11.459  -5.073  -0.079  1.00  0.00    -0.550 OA
ATOM      9  O   UNL     1     -11.042  -7.318  -0.274  1.00  0.00    -0.550 OA
ENDBRANCH   6   7
ENDBRANCH   5   6
ENDBRANCH   4   5
ENDBRANCH   3   4
ENDBRANCH   2   3
ENDBRANCH   1   2
BRANCH   1  10
ATOM     10  C   UNL     1      -8.035  -8.983   0.560  1.00  0.00     0.000 C 
BRANCH  10  11
ATOM     11  C   UNL     1      -7.101 -10.173   0.809  1.00  0.00    -0.000 C 
BRANCH  11  12
ATOM     12  C   UNL     1      -6.428 -10.627  -0.492  1.00  0.00    -0.000 C 
BRANCH  12  13
ATOM     13  C   UNL     1      -5.463 -11.795  -0.234  1.00  0.00    -0.000 C 
BRANCH  13  14
ATOM     14  C   UNL     1      -5.991 -12.788   0.817  1.00  0.00    -0.000 C 
BRANCH  14  15
ATOM     15  C   UNL     1      -6.102 -14.245   0.333  1.00  0.00    -0.003 C 
ATOM     16  C   UNL     1      -6.970 -15.113   1.243  1.00  0.00     0.004 C 
ENDBRANCH  14  15
ENDBRANCH  13  14
ENDBRANCH  12  13
ENDBRANCH  11  12
ENDBRANCH  10  11
ENDBRANCH   1  10
TORSDOF 12
ENDMDL
MODEL 4
REMARK VINA RESULT:    -3.904      3.727      6.863
REMARK INTER + INTRA:          -7.882
REMARK INTER:                  -6.603
REMARK INTRA:                  -1.279
REMARK UNBOUND:                -1.239
REMARK SMILES CCCCCCCCCCCCCC(=O)[O-]
REMARK SMILES IDX 8 1 9 2 10 3 11 4 12 5 13 6 14 7 15 8 16 9 7 10 6 11 5 12
REMARK SMILES IDX 4 13 3 14 2 15 1 16
REMARK H PARENT
REMARK Flexibility Score: inf
ROOT
ATOM      1  C   UNL     1      -6.805 -10.302  -0.241  1.00  0.00     0.000 C 
ENDROOT
BRANCH   1   2
ATOM      2  C   UNL     1      -7.920  -9.269  -0.016  1.00  0.00     0.000 C 
BRANCH   2   3
ATOM      3  C   UNL     1      -7.481  -7.835  -0.355  1.00  0.00     0.000 C 
BRANCH   3   4
ATOM      4  C   UNL     1      -7.837  -6.830   0.754  1.00  0.00     0.000 C 
BRANCH   4   5
ATOM      5  C   UNL     1      -9.020  -7.300   1.616  1.00  0.00     0.006 C 
BRANCH   5   6
ATOM      6  C   UNL     1     -10.147  -6.261   1.693  1.00  0.00     0.053 C 
BRANCH   6   7
ATOM      7  C   UNL     1     -10.896  -6.207   0.399  1.00  0.00     0.041 C 
ATOM      8  O   UNL     1     -11.163  -7.269  -0.223  1.00  0.00    -0.550 OA
ATOM      9  O   UNL     1     -11.342  -4.988  -0.096  1.00  0.00    -0.550 OA
ENDBRANCH   6   7
ENDBRANCH   5   6
ENDBRANCH   4   5
ENDBRANCH   3   4
ENDBRANCH   2   3
ENDBRANCH   1   2
BRANCH   1  10
ATOM     10  C   UNL     1      -5.854 -10.352   0.960  1.00  0.00     0.000 C 
BRANCH  10  11
ATOM     11  C   UNL     1      -6.603 -10.072   2.268  1.00  0.00    -0.000 C 
BRANCH  11  12
ATOM     12  C   UNL     1      -7.210 -11.359   2.842  1.00  0.00    -0.000 C 
BRANCH  12  13
ATOM     13  C   UNL     1      -6.250 -12.545   2.666  1.00  0.00    -0.000 C 
BRANCH  13  14
ATOM     14  C   UNL     1      -6.961 -13.908   2.745  1.00  0.00    -0.000 C 
BRANCH  14  15
ATOM     15  C   UNL     1      -6.850 -14.771   1.474  1.00  0.00    -0.003 C 
ATOM     16  C   UNL     1      -6.185 -14.037   0.310  1.00  0.00     0.004 C 
ENDBRANCH  14  15
ENDBRANCH  13  14
ENDBRANCH  12  13
ENDBRANCH  11  12
ENDBRANCH  10  11
ENDBRANCH   1  10
TORSDOF 12
ENDMDL
MODEL 5
REMARK VINA RESULT:    -3.872      1.454      2.952
REMARK INTER + INTRA:          -7.827
REMARK INTER:                  -6.115
REMARK INTRA:                  -1.712
REMARK UNBOUND:                -1.239
REMARK SMILES CCCCCCCCCCCCCC(=O)[O-]
REMARK SMILES IDX 8 1 9 2 10 3 11 4 12 5 13 6 14 7 15 8 16 9 7 10 6 11 5 12
REMARK SMILES IDX 4 13 3 14 2 15 1 16
REMARK H PARENT
REMARK Flexibility Score: inf
ROOT
ATOM      1  C   UNL     1      -7.608  -8.832  -0.535  1.00  0.00     0.000 C 
ENDROOT
BRANCH   1   2
ATOM      2  C   UNL     1      -6.872 -10.110  -0.104  1.00  0.00     0.000 C 
BRANCH   2   3
ATOM      3  C   UNL     1      -6.087  -9.930   1.205  1.00  0.00     0.000 C 
BRANCH   3   4
ATOM      4  C   UNL     1      -6.626 -10.815   2.342  1.00  0.00     0.000 C 
BRANCH   4   5
ATOM      5  C   UNL     1      -5.830 -12.122   2.499  1.00  0.00     0.006 C 
BRANCH   5   6
ATOM      6  C   UNL     1      -6.685 -13.371   2.244  1.00  0.00     0.053 C 
BRANCH   6   7
ATOM      7  C   UNL     1      -6.340 -13.977   0.920  1.00  0.00     0.041 C 
ATOM      8  O   UNL     1      -5.523 -13.402   0.154  1.00  0.00    -0.550 OA
ATOM      9  O   UNL     1      -6.883 -15.202   0.554  1.00  0.00    -0.550 OA
ENDBRANCH   6   7
ENDBRANCH   5   6
ENDBRANCH   4   5
ENDBRANCH   3   4
ENDBRANCH   2   3
ENDBRANCH   1   2
BRANCH   1  10
ATOM     10  C   UNL     1      -9.074  -8.866  -0.087  1.00  0.00     0.000 C 
BRANCH  10  11
ATOM     11  C   UNL     1      -9.414  -7.647   0.778  1.00  0.00    -0.000 C 
BRANCH  11  12
ATOM     12  C   UNL     1      -9.137  -7.928   2.260  1.00  0.00    -0.000 C 
BRANCH  12  13
ATOM     13  C   UNL     1      -8.086  -6.957   2.818  1.00  0.00    -0.000 C 
BRANCH  13  14
ATOM     14  C   UNL     1      -7.550  -5.979   1.756  1.00  0.00    -0.000 C 
BRANCH  14  15
ATOM     15  C   UNL     1      -6.070  -6.181   1.379  1.00  0.00    -0.003 C 
ATOM     16  C   UNL     1      -5.679  -5.463   0.088  1.00  0.00     0.004 C 
ENDBRANCH  14  15
ENDBRANCH  13  14
ENDBRANCH  12  13
ENDBRANCH  11  12
ENDBRANCH  10  11
ENDBRANCH   1  10
TORSDOF 12
ENDMDL
MODEL 6
REMARK VINA RESULT:    -3.868     19.609     21.927
REMARK INTER + INTRA:          -7.821
REMARK INTER:                  -6.242
REMARK INTRA:                  -1.579
REMARK UNBOUND:                -1.239
REMARK SMILES CCCCCCCCCCCCCC(=O)[O-]
REMARK SMILES IDX 8 1 9 2 10 3 11 4 12 5 13 6 14 7 15 8 16 9 7 10 6 11 5 12
REMARK SMILES IDX 4 13 3 14 2 15 1 16
REMARK H PARENT
REMARK Flexibility Score: inf
ROOT
ATOM      1  C   UNL     1     -23.625  -4.659 -14.772  1.00  0.00     0.000 C 
ENDROOT
BRANCH   1   2
ATOM      2  C   UNL     1     -22.577  -4.539 -15.890  1.00  0.00     0.000 C 
BRANCH   2   3
ATOM      3  C   UNL     1     -22.203  -5.898 -16.503  1.00  0.00     0.000 C 
BRANCH   3   4
ATOM      4  C   UNL     1     -23.282  -6.970 -16.265  1.00  0.00     0.000 C 
BRANCH   4   5
ATOM      5  C   UNL     1     -22.691  -8.384 -16.149  1.00  0.00     0.006 C 
BRANCH   5   6
ATOM      6  C   UNL     1     -23.497  -9.430 -16.933  1.00  0.00     0.053 C 
BRANCH   6   7
ATOM      7  C   UNL     1     -23.834 -10.593 -16.056  1.00  0.00     0.041 C 
ATOM      8  O   UNL     1     -25.022 -11.005 -15.978  1.00  0.00    -0.550 OA
ATOM      9  O   UNL     1     -22.829 -11.255 -15.362  1.00  0.00    -0.550 OA
ENDBRANCH   6   7
ENDBRANCH   5   6
ENDBRANCH   4   5
ENDBRANCH   3   4
ENDBRANCH   2   3
ENDBRANCH   1   2
BRANCH   1  10
ATOM     10  C   UNL     1     -23.220  -3.826 -13.550  1.00  0.00     0.000 C 
BRANCH  10  11
ATOM     11  C   UNL     1     -22.350  -4.644 -12.589  1.00  0.00    -0.000 C 
BRANCH  11  12
ATOM     12  C   UNL     1     -20.881  -4.208 -12.669  1.00  0.00    -0.000 C 
BRANCH  12  13
ATOM     13  C   UNL     1     -19.995  -5.353 -13.184  1.00  0.00    -0.000 C 
BRANCH  13  14
ATOM     14  C   UNL     1     -20.660  -6.734 -13.046  1.00  0.00    -0.000 C 
BRANCH  14  15
ATOM     15  C   UNL     1     -19.932  -7.878 -13.777  1.00  0.00    -0.003 C 
ATOM     16  C   UNL     1     -20.341  -9.263 -13.276  1.00  0.00     0.004 C 
ENDBRANCH  14  15
ENDBRANCH  13  14
ENDBRANCH  12  13
ENDBRANCH  11  12
ENDBRANCH  10  11
ENDBRANCH   1  10
TORSDOF 12
ENDMDL
MODEL 7
REMARK VINA RESULT:    -3.797      4.142      8.993
REMARK INTER + INTRA:          -7.700
REMARK INTER:                  -7.109
REMARK INTRA:                  -0.591
REMARK UNBOUND:                -1.239
REMARK SMILES CCCCCCCCCCCCCC(=O)[O-]
REMARK SMILES IDX 8 1 9 2 10 3 11 4 12 5 13 6 14 7 15 8 16 9 7 10 6 11 5 12
REMARK SMILES IDX 4 13 3 14 2 15 1 16
REMARK H PARENT
REMARK Flexibility Score: inf
ROOT
ATOM      1  C   UNL     1      -5.772 -13.641   0.381  1.00  0.00     0.000 C 
ENDROOT
BRANCH   1   2
ATOM      2  C   UNL     1      -6.143 -12.454   1.284  1.00  0.00     0.000 C 
BRANCH   2   3
ATOM      3  C   UNL     1      -5.697 -11.103   0.703  1.00  0.00     0.000 C 
BRANCH   3   4
ATOM      4  C   UNL     1      -6.601 -10.629  -0.450  1.00  0.00     0.000 C 
BRANCH   4   5
ATOM      5  C   UNL     1      -7.110  -9.193  -0.247  1.00  0.00     0.006 C 
BRANCH   5   6
ATOM      6  C   UNL     1      -8.640  -9.113  -0.158  1.00  0.00     0.053 C 
BRANCH   6   7
ATOM      7  C   UNL     1      -9.067  -7.747   0.277  1.00  0.00     0.041 C 
ATOM      8  O   UNL     1      -8.218  -6.930   0.723  1.00  0.00    -0.550 OA
ATOM      9  O   UNL     1     -10.394  -7.358   0.145  1.00  0.00    -0.550 OA
ENDBRANCH   6   7
ENDBRANCH   5   6
ENDBRANCH   4   5
ENDBRANCH   3   4
ENDBRANCH   2   3
ENDBRANCH   1   2
BRANCH   1  10
ATOM     10  C   UNL     1      -6.825 -14.752   0.477  1.00  0.00     0.000 C 
BRANCH  10  11
ATOM     11  C   UNL     1      -6.303 -15.935   1.301  1.00  0.00    -0.000 C 
BRANCH  11  12
ATOM     12  C   UNL     1      -5.040 -16.533   0.670  1.00  0.00    -0.000 C 
BRANCH  12  13
ATOM     13  C   UNL     1      -5.249 -18.013   0.317  1.00  0.00    -0.000 C 
BRANCH  13  14
ATOM     14  C   UNL     1      -6.676 -18.506   0.619  1.00  0.00    -0.000 C 
BRANCH  14  15
ATOM     15  C   UNL     1      -7.171 -19.649  -0.287  1.00  0.00    -0.003 C 
ATOM     16  C   UNL     1      -6.119 -20.112  -1.295  1.00  0.00     0.004 C 
ENDBRANCH  14  15
ENDBRANCH  13  14
ENDBRANCH  12  13
ENDBRANCH  11  12
ENDBRANCH  10  11
ENDBRANCH   1  10
TORSDOF 12
ENDMDL
MODEL 8
REMARK VINA RESULT:    -3.784     19.430     21.407
REMARK INTER + INTRA:          -7.677
REMARK INTER:                  -5.871
REMARK INTRA:                  -1.807
REMARK UNBOUND:                -1.239
REMARK SMILES CCCCCCCCCCCCCC(=O)[O-]
REMARK SMILES IDX 8 1 9 2 10 3 11 4 12 5 13 6 14 7 15 8 16 9 7 10 6 11 5 12
REMARK SMILES IDX 4 13 3 14 2 15 1 16
REMARK H PARENT
REMARK Flexibility Score: inf
ROOT
ATOM      1  C   UNL     1     -20.974  -4.475 -16.266  1.00  0.00     0.000 C 
ENDROOT
BRANCH   1   2
ATOM      2  C   UNL     1     -22.388  -3.905 -16.075  1.00  0.00     0.000 C 
BRANCH   2   3
ATOM      3  C   UNL     1     -23.313  -4.856 -15.298  1.00  0.00     0.000 C 
BRANCH   3   4
ATOM      4  C   UNL     1     -23.564  -4.387 -13.855  1.00  0.00     0.000 C 
BRANCH   4   5
ATOM      5  C   UNL     1     -23.026  -2.971 -13.593  1.00  0.00     0.006 C 
BRANCH   5   6
ATOM      6  C   UNL     1     -22.360  -2.834 -12.217  1.00  0.00     0.053 C 
BRANCH   6   7
ATOM      7  C   UNL     1     -21.343  -1.737 -12.236  1.00  0.00     0.041 C 
ATOM      8  O   UNL     1     -21.092  -1.125 -13.307  1.00  0.00    -0.550 OA
ATOM      9  O   UNL     1     -20.708  -1.358 -11.060  1.00  0.00    -0.550 OA
ENDBRANCH   6   7
ENDBRANCH   5   6
ENDBRANCH   4   5
ENDBRANCH   3   4
ENDBRANCH   2   3
ENDBRANCH   1   2
BRANCH   1  10
ATOM     10  C   UNL     1     -19.922  -3.555 -15.636  1.00  0.00     0.000 C 
BRANCH  10  11
ATOM     11  C   UNL     1     -19.413  -4.129 -14.308  1.00  0.00    -0.000 C 
BRANCH  11  12
ATOM     12  C   UNL     1     -19.742  -5.622 -14.191  1.00  0.00    -0.000 C 
BRANCH  12  13
ATOM     13  C   UNL     1     -20.414  -5.933 -12.845  1.00  0.00    -0.000 C 
BRANCH  13  14
ATOM     14  C   UNL     1     -20.560  -7.443 -12.582  1.00  0.00    -0.000 C 
BRANCH  14  15
ATOM     15  C   UNL     1     -19.975  -8.350 -13.680  1.00  0.00    -0.003 C 
ATOM     16  C   UNL     1     -20.595  -9.747 -13.695  1.00  0.00     0.004 C 
ENDBRANCH  14  15
ENDBRANCH  13  14
ENDBRANCH  12  13
ENDBRANCH  11  12
ENDBRANCH  10  11
ENDBRANCH   1  10
TORSDOF 12
ENDMDL
MODEL 9
REMARK VINA RESULT:    -3.741     19.583     21.697
REMARK INTER + INTRA:          -7.604
REMARK INTER:                  -5.739
REMARK INTRA:                  -1.865
REMARK UNBOUND:                -1.239
REMARK SMILES CCCCCCCCCCCCCC(=O)[O-]
REMARK SMILES IDX 8 1 9 2 10 3 11 4 12 5 13 6 14 7 15 8 16 9 7 10 6 11 5 12
REMARK SMILES IDX 4 13 3 14 2 15 1 16
REMARK H PARENT
REMARK Flexibility Score: inf
ROOT
ATOM      1  C   UNL     1     -22.170  -2.219 -12.738  1.00  0.00     0.000 C 
ENDROOT
BRANCH   1   2
ATOM      2  C   UNL     1     -23.417  -3.116 -12.702  1.00  0.00     0.000 C 
BRANCH   2   3
ATOM      3  C   UNL     1     -23.925  -3.484 -14.105  1.00  0.00     0.000 C 
BRANCH   3   4
ATOM      4  C   UNL     1     -23.596  -4.937 -14.490  1.00  0.00     0.000 C 
BRANCH   4   5
ATOM      5  C   UNL     1     -23.251  -5.088 -15.981  1.00  0.00     0.006 C 
BRANCH   5   6
ATOM      6  C   UNL     1     -22.351  -6.299 -16.262  1.00  0.00     0.053 C 
BRANCH   6   7
ATOM      7  C   UNL     1     -23.173  -7.543 -16.379  1.00  0.00     0.041 C 
ATOM      8  O   UNL     1     -22.690  -8.656 -16.040  1.00  0.00    -0.550 OA
ATOM      9  O   UNL     1     -24.489  -7.469 -16.818  1.00  0.00    -0.550 OA
ENDBRANCH   6   7
ENDBRANCH   5   6
ENDBRANCH   4   5
ENDBRANCH   3   4
ENDBRANCH   2   3
ENDBRANCH   1   2
BRANCH   1  10
ATOM     10  C   UNL     1     -20.893  -3.049 -12.560  1.00  0.00     0.000 C 
BRANCH  10  11
ATOM     11  C   UNL     1     -20.289  -3.428 -13.917  1.00  0.00    -0.000 C 
BRANCH  11  12
ATOM     12  C   UNL     1     -19.779  -4.875 -13.909  1.00  0.00    -0.000 C 
BRANCH  12  13
ATOM     13  C   UNL     1     -20.232  -5.610 -12.639  1.00  0.00    -0.000 C 
BRANCH  13  14
ATOM     14  C   UNL     1     -20.886  -6.971 -12.935  1.00  0.00    -0.000 C 
BRANCH  14  15
ATOM     15  C   UNL     1     -20.025  -7.935 -13.773  1.00  0.00    -0.003 C 
ATOM     16  C   UNL     1     -20.262  -9.405 -13.425  1.00  0.00     0.004 C 
ENDBRANCH  14  15
ENDBRANCH  13  14
ENDBRANCH  12  13
ENDBRANCH  11  12
ENDBRANCH  10  11
ENDBRANCH   1  10
TORSDOF 12
ENDMDL
